MODEL        1
REMARK 921   NORMALIZED FREE ENERGY PREDICTED BY IDOCK:   -5.28 KCAL/MOL
REMARK 922        TOTAL FREE ENERGY PREDICTED BY IDOCK:   -7.32 KCAL/MOL
REMARK 923 INTER-LIGAND FREE ENERGY PREDICTED BY IDOCK:   -6.82 KCAL/MOL
REMARK 924 INTRA-LIGAND FREE ENERGY PREDICTED BY IDOCK:   -0.50 KCAL/MOL
REMARK 927      BINDING AFFINITY PREDICTED BY RF-SCORE:    0.00 PKD
ROOT
HETATM    1  S   UNL     1     -11.418  13.236  68.569  1.00  0.00    -0.337 S  
HETATM    2  C   UNL     1     -11.211  14.601  69.534  1.00  0.00    -0.269 C  
ENDROOT
BRANCH   2   3
HETATM    3  S   UNL     1      -9.761  15.622  69.388  1.00  0.00    -0.299 SA 
BRANCH   3   4
HETATM    4  S   UNL     1      -8.978  14.983  67.575  1.00  0.00    -0.190 SA 
BRANCH   4   5
HETATM    5  C   UNL     1      -9.744  16.059  66.382  1.00  0.00    -0.284 C  
HETATM    6  S   UNL     1     -10.783  15.370  65.241  1.00  0.00    -0.442 S  
BRANCH   5   7
HETATM    7  N   UNL     1      -9.530  17.447  66.550  1.00  0.00    -0.265 N  
HETATM    8  C   UNL     1     -10.648  19.632  67.002  1.00  0.00    -0.602 C  
HETATM    9  C   UNL     1     -10.497  18.445  66.051  1.00  0.00    -0.374 C  
HETATM   10  C   UNL     1      -9.302  20.264  67.331  1.00  0.00    -0.531 C  
HETATM   11  C   UNL     1      -8.336  19.207  67.852  1.00  0.00    -0.333 C  
HETATM   12  C   UNL     1      -8.218  18.029  66.885  1.00  0.00    -0.242 C  
ENDBRANCH   5   7
ENDBRANCH   4   5
ENDBRANCH   3   4
ENDBRANCH   2   3
BRANCH   2  13
HETATM   13  N   UNL     1     -12.133  15.023  70.498  1.00  0.00    -0.301 N  
HETATM   14  C   UNL     1     -11.760  15.556  72.896  1.00  0.00    -0.521 C  
HETATM   15  C   UNL     1     -13.361  14.278  70.791  1.00  0.00    -0.119 C  
HETATM   16  C   UNL     1     -11.820  16.085  71.466  1.00  0.00    -0.486 C  
HETATM   17  C   UNL     1     -13.315  13.703  72.211  1.00  0.00    -0.622 C  
HETATM   18  C   UNL     1     -13.033  14.789  73.248  1.00  0.00    -0.608 C  
ENDBRANCH   2  13
TORSDOF 5
ENDMDL
MODEL        2
REMARK 921   NORMALIZED FREE ENERGY PREDICTED BY IDOCK:   -5.27 KCAL/MOL
REMARK 922        TOTAL FREE ENERGY PREDICTED BY IDOCK:   -7.31 KCAL/MOL
REMARK 923 INTER-LIGAND FREE ENERGY PREDICTED BY IDOCK:   -6.88 KCAL/MOL
REMARK 924 INTRA-LIGAND FREE ENERGY PREDICTED BY IDOCK:   -0.43 KCAL/MOL
REMARK 927      BINDING AFFINITY PREDICTED BY RF-SCORE:    0.00 PKD
ROOT
HETATM    1  S   UNL     1     -11.029  15.714  64.916  1.00  0.00    -0.362 S  
HETATM    2  C   UNL     1      -9.978  16.332  66.079  1.00  0.00    -0.345 C  
ENDROOT
BRANCH   2   3
HETATM    3  S   UNL     1      -9.290  15.290  67.347  1.00  0.00    -0.202 SA 
BRANCH   3   4
HETATM    4  S   UNL     1     -10.158  16.082  69.059  1.00  0.00    -0.255 SA 
BRANCH   4   5
HETATM    5  C   UNL     1     -11.460  14.932  69.443  1.00  0.00    -0.299 C  
HETATM    6  S   UNL     1     -11.820  13.730  68.310  1.00  0.00    -0.371 S  
BRANCH   5   7
HETATM    7  N   UNL     1     -12.025  15.022  70.737  1.00  0.00    -0.293 N  
HETATM    8  C   UNL     1     -11.925  16.235  72.915  1.00  0.00    -0.615 C  
HETATM    9  C   UNL     1     -11.199  15.327  71.922  1.00  0.00    -0.267 C  
HETATM   10  C   UNL     1     -13.285  15.670  73.303  1.00  0.00    -0.666 C  
HETATM   11  C   UNL     1     -14.110  15.379  72.056  1.00  0.00    -0.647 C  
HETATM   12  C   UNL     1     -13.353  14.479  71.079  1.00  0.00    -0.327 C  
ENDBRANCH   5   7
ENDBRANCH   4   5
ENDBRANCH   3   4
ENDBRANCH   2   3
BRANCH   2  13
HETATM   13  N   UNL     1      -9.581  17.672  66.139  1.00  0.00    -0.235 N  
HETATM   14  C   UNL     1      -8.212  18.825  67.864  1.00  0.00    -0.293 C  
HETATM   15  C   UNL     1     -10.539  18.780  66.070  1.00  0.00    -0.386 C  
HETATM   16  C   UNL     1      -8.222  18.067  66.539  1.00  0.00    -0.271 C  
HETATM   17  C   UNL     1     -10.577  19.540  67.401  1.00  0.00    -0.607 C  
HETATM   18  C   UNL     1      -9.184  20.002  67.825  1.00  0.00    -0.435 C  
ENDBRANCH   2  13
TORSDOF 5
ENDMDL
MODEL        3
REMARK 921   NORMALIZED FREE ENERGY PREDICTED BY IDOCK:   -5.21 KCAL/MOL
REMARK 922        TOTAL FREE ENERGY PREDICTED BY IDOCK:   -7.23 KCAL/MOL
REMARK 923 INTER-LIGAND FREE ENERGY PREDICTED BY IDOCK:   -6.85 KCAL/MOL
REMARK 924 INTRA-LIGAND FREE ENERGY PREDICTED BY IDOCK:   -0.37 KCAL/MOL
REMARK 927      BINDING AFFINITY PREDICTED BY RF-SCORE:    0.00 PKD
ROOT
HETATM    1  S   UNL     1      -8.261  11.148  66.502  1.00  0.00    -0.162 S  
HETATM    2  C   UNL     1      -9.821  11.663  66.130  1.00  0.00    -0.223 C  
ENDROOT
BRANCH   2   3
HETATM    3  S   UNL     1     -11.177  11.381  67.248  1.00  0.00    -0.280 SA 
BRANCH   3   4
HETATM    4  S   UNL     1     -11.063  13.052  68.476  1.00  0.00    -0.282 SA 
BRANCH   4   5
HETATM    5  C   UNL     1     -11.984  12.577  69.922  1.00  0.00    -0.301 C  
HETATM    6  S   UNL     1     -12.081  10.932  70.299  1.00  0.00    -0.382 S  
BRANCH   5   7
HETATM    7  N   UNL     1     -12.470  13.626  70.738  1.00  0.00    -0.359 N  
HETATM    8  C   UNL     1     -13.094  14.261  73.069  1.00  0.00    -0.526 C  
HETATM    9  C   UNL     1     -13.389  13.368  71.864  1.00  0.00    -0.451 C  
HETATM   10  C   UNL     1     -13.068  15.734  72.685  1.00  0.00    -0.579 C  
HETATM   11  C   UNL     1     -12.101  15.961  71.529  1.00  0.00    -0.533 C  
HETATM   12  C   UNL     1     -12.416  15.046  70.346  1.00  0.00    -0.356 C  
ENDBRANCH   5   7
ENDBRANCH   4   5
ENDBRANCH   3   4
ENDBRANCH   2   3
BRANCH   2  13
HETATM   13  N   UNL     1     -10.163  12.328  64.948  1.00  0.00    -0.281 N  
HETATM   14  C   UNL     1     -11.797  14.168  64.600  1.00  0.00    -0.443 C  
HETATM   15  C   UNL     1     -10.615  11.617  63.748  1.00  0.00    -0.416 C  
HETATM   16  C   UNL     1     -10.349  13.786  64.897  1.00  0.00    -0.398 C  
HETATM   17  C   UNL     1     -12.080  11.954  63.444  1.00  0.00    -0.539 C  
HETATM   18  C   UNL     1     -12.300  13.462  63.343  1.00  0.00    -0.343 C  
ENDBRANCH   2  13
TORSDOF 5
ENDMDL
MODEL        4
REMARK 921   NORMALIZED FREE ENERGY PREDICTED BY IDOCK:   -5.15 KCAL/MOL
REMARK 922        TOTAL FREE ENERGY PREDICTED BY IDOCK:   -7.16 KCAL/MOL
REMARK 923 INTER-LIGAND FREE ENERGY PREDICTED BY IDOCK:   -6.74 KCAL/MOL
REMARK 924 INTRA-LIGAND FREE ENERGY PREDICTED BY IDOCK:   -0.42 KCAL/MOL
REMARK 927      BINDING AFFINITY PREDICTED BY RF-SCORE:    0.00 PKD
ROOT
HETATM    1  S   UNL     1      -9.204  10.331  66.261  1.00  0.00    -0.165 S  
HETATM    2  C   UNL     1      -9.572  11.971  66.155  1.00  0.00    -0.239 C  
ENDROOT
BRANCH   2   3
HETATM    3  S   UNL     1      -9.377  13.052  67.557  1.00  0.00    -0.210 SA 
BRANCH   3   4
HETATM    4  S   UNL     1     -11.222  12.865  68.491  1.00  0.00    -0.295 SA 
BRANCH   4   5
HETATM    5  C   UNL     1     -11.478  14.458  69.241  1.00  0.00    -0.285 C  
HETATM    6  S   UNL     1     -11.351  15.829  68.260  1.00  0.00    -0.328 S  
BRANCH   5   7
HETATM    7  N   UNL     1     -11.902  14.463  70.591  1.00  0.00    -0.302 N  
HETATM    8  C   UNL     1     -12.373  15.914  72.565  1.00  0.00    -0.575 C  
HETATM    9  C   UNL     1     -11.326  15.396  71.579  1.00  0.00    -0.396 C  
HETATM   10  C   UNL     1     -13.128  14.774  73.236  1.00  0.00    -0.550 C  
HETATM   11  C   UNL     1     -13.715  13.840  72.185  1.00  0.00    -0.634 C  
HETATM   12  C   UNL     1     -12.646  13.350  71.209  1.00  0.00    -0.322 C  
ENDBRANCH   5   7
ENDBRANCH   4   5
ENDBRANCH   3   4
ENDBRANCH   2   3
BRANCH   2  13
HETATM   13  N   UNL     1     -10.048  12.592  64.996  1.00  0.00    -0.265 N  
HETATM   14  C   UNL     1     -11.992  14.116  64.720  1.00  0.00    -0.441 C  
HETATM   15  C   UNL     1     -10.387  11.840  63.784  1.00  0.00    -0.410 C  
HETATM   16  C   UNL     1     -10.494  13.994  64.987  1.00  0.00    -0.420 C  
HETATM   17  C   UNL     1     -11.893  11.915  63.509  1.00  0.00    -0.560 C  
HETATM   18  C   UNL     1     -12.383  13.362  63.451  1.00  0.00    -0.343 C  
ENDBRANCH   2  13
TORSDOF 5
ENDMDL
MODEL        5
REMARK 921   NORMALIZED FREE ENERGY PREDICTED BY IDOCK:   -5.15 KCAL/MOL
REMARK 922        TOTAL FREE ENERGY PREDICTED BY IDOCK:   -7.15 KCAL/MOL
REMARK 923 INTER-LIGAND FREE ENERGY PREDICTED BY IDOCK:   -6.81 KCAL/MOL
REMARK 924 INTRA-LIGAND FREE ENERGY PREDICTED BY IDOCK:   -0.34 KCAL/MOL
REMARK 927      BINDING AFFINITY PREDICTED BY RF-SCORE:    0.00 PKD
ROOT
HETATM    1  S   UNL     1      -8.062  11.312  66.735  1.00  0.00    -0.160 S  
HETATM    2  C   UNL     1      -9.593  12.014  66.786  1.00  0.00    -0.208 C  
ENDROOT
BRANCH   2   3
HETATM    3  S   UNL     1     -10.000  13.253  67.997  1.00  0.00    -0.238 SA 
BRANCH   3   4
HETATM    4  S   UNL     1      -9.680  15.005  66.929  1.00  0.00    -0.246 SA 
BRANCH   4   5
HETATM    5  C   UNL     1     -10.567  16.235  67.860  1.00  0.00    -0.318 C  
HETATM    6  S   UNL     1     -11.655  15.707  69.041  1.00  0.00    -0.396 S  
BRANCH   5   7
HETATM    7  N   UNL     1     -10.203  17.584  67.636  1.00  0.00    -0.328 N  
HETATM    8  C   UNL     1     -10.449  19.521  66.083  1.00  0.00    -0.613 C  
HETATM    9  C   UNL     1      -9.930  18.097  66.279  1.00  0.00    -0.342 C  
HETATM   10  C   UNL     1      -9.928  20.464  67.160  1.00  0.00    -0.568 C  
HETATM   11  C   UNL     1     -10.238  19.906  68.544  1.00  0.00    -0.529 C  
HETATM   12  C   UNL     1      -9.717  18.478  68.703  1.00  0.00    -0.365 C  
ENDBRANCH   5   7
ENDBRANCH   4   5
ENDBRANCH   3   4
ENDBRANCH   2   3
BRANCH   2  13
HETATM   13  N   UNL     1     -10.633  11.684  65.910  1.00  0.00    -0.264 N  
HETATM   14  C   UNL     1     -10.705  11.847  63.431  1.00  0.00    -0.476 C  
HETATM   15  C   UNL     1     -11.983  12.239  66.047  1.00  0.00    -0.269 C  
HETATM   16  C   UNL     1     -10.393  10.975  64.644  1.00  0.00    -0.345 C  
HETATM   17  C   UNL     1     -12.313  13.150  64.859  1.00  0.00    -0.494 C  
HETATM   18  C   UNL     1     -12.114  12.429  63.526  1.00  0.00    -0.651 C  
ENDBRANCH   2  13
TORSDOF 5
ENDMDL
MODEL        6
REMARK 921   NORMALIZED FREE ENERGY PREDICTED BY IDOCK:   -5.11 KCAL/MOL
REMARK 922        TOTAL FREE ENERGY PREDICTED BY IDOCK:   -7.10 KCAL/MOL
REMARK 923 INTER-LIGAND FREE ENERGY PREDICTED BY IDOCK:   -6.79 KCAL/MOL
REMARK 924 INTRA-LIGAND FREE ENERGY PREDICTED BY IDOCK:   -0.31 KCAL/MOL
REMARK 927      BINDING AFFINITY PREDICTED BY RF-SCORE:    0.00 PKD
ROOT
HETATM    1  S   UNL     1     -12.729  11.879  71.116  1.00  0.00    -0.191 S  
HETATM    2  C   UNL     1     -12.177  13.330  70.461  1.00  0.00    -0.340 C  
ENDROOT
BRANCH   2   3
HETATM    3  S   UNL     1     -11.202  13.357  68.972  1.00  0.00    -0.266 SA 
BRANCH   3   4
HETATM    4  S   UNL     1     -11.531  15.291  68.291  1.00  0.00    -0.345 SA 
BRANCH   4   5
HETATM    5  C   UNL     1      -9.924  16.050  68.384  1.00  0.00    -0.220 C  
HETATM    6  S   UNL     1      -8.648  15.136  69.010  1.00  0.00    -0.221 S  
BRANCH   5   7
HETATM    7  N   UNL     1      -9.794  17.334  67.805  1.00  0.00    -0.272 N  
HETATM    8  C   UNL     1     -10.596  18.823  65.969  1.00  0.00    -0.442 C  
HETATM    9  C   UNL     1      -9.864  17.534  66.343  1.00  0.00    -0.309 C  
HETATM   10  C   UNL     1     -10.003  20.033  66.679  1.00  0.00    -0.598 C  
HETATM   11  C   UNL     1      -9.958  19.793  68.183  1.00  0.00    -0.557 C  
HETATM   12  C   UNL     1      -9.231  18.492  68.522  1.00  0.00    -0.335 C  
ENDBRANCH   5   7
ENDBRANCH   4   5
ENDBRANCH   3   4
ENDBRANCH   2   3
BRANCH   2  13
HETATM   13  N   UNL     1     -12.430  14.586  71.021  1.00  0.00    -0.317 N  
HETATM   14  C   UNL     1     -12.069  15.363  73.354  1.00  0.00    -0.604 C  
HETATM   15  C   UNL     1     -13.744  15.232  70.944  1.00  0.00    -0.293 C  
HETATM   16  C   UNL     1     -11.488  15.232  71.948  1.00  0.00    -0.424 C  
HETATM   17  C   UNL     1     -14.369  15.345  72.340  1.00  0.00    -0.489 C  
HETATM   18  C   UNL     1     -13.432  16.051  73.319  1.00  0.00    -0.570 C  
ENDBRANCH   2  13
TORSDOF 5
ENDMDL
MODEL        7
REMARK 921   NORMALIZED FREE ENERGY PREDICTED BY IDOCK:   -5.11 KCAL/MOL
REMARK 922        TOTAL FREE ENERGY PREDICTED BY IDOCK:   -7.09 KCAL/MOL
REMARK 923 INTER-LIGAND FREE ENERGY PREDICTED BY IDOCK:   -6.57 KCAL/MOL
REMARK 924 INTRA-LIGAND FREE ENERGY PREDICTED BY IDOCK:   -0.52 KCAL/MOL
REMARK 927      BINDING AFFINITY PREDICTED BY RF-SCORE:    0.00 PKD
ROOT
HETATM    1  S   UNL     1     -10.587  12.511  68.094  1.00  0.00    -0.233 S  
HETATM    2  C   UNL     1     -11.132  13.930  67.368  1.00  0.00    -0.298 C  
ENDROOT
BRANCH   2   3
HETATM    3  S   UNL     1     -11.396  15.410  68.321  1.00  0.00    -0.354 SA 
BRANCH   3   4
HETATM    4  S   UNL     1      -9.597  15.579  69.342  1.00  0.00    -0.280 SA 
BRANCH   4   5
HETATM    5  C   UNL     1      -8.543  16.446  68.201  1.00  0.00    -0.193 C  
HETATM    6  S   UNL     1      -7.170  15.647  67.622  1.00  0.00    -0.191 S  
BRANCH   5   7
HETATM    7  N   UNL     1      -8.997  17.708  67.751  1.00  0.00    -0.244 N  
HETATM    8  C   UNL     1     -10.433  18.868  66.072  1.00  0.00    -0.507 C  
HETATM    9  C   UNL     1      -9.206  17.990  66.317  1.00  0.00    -0.187 C  
HETATM   10  C   UNL     1     -10.383  20.147  66.898  1.00  0.00    -0.503 C  
HETATM   11  C   UNL     1     -10.177  19.815  68.371  1.00  0.00    -0.568 C  
HETATM   12  C   UNL     1      -8.951  18.926  68.581  1.00  0.00    -0.350 C  
ENDBRANCH   5   7
ENDBRANCH   4   5
ENDBRANCH   3   4
ENDBRANCH   2   3
BRANCH   2  13
HETATM   13  N   UNL     1     -11.415  14.050  66.004  1.00  0.00    -0.329 N  
HETATM   14  C   UNL     1     -12.779  12.568  64.549  1.00  0.00    -0.440 C  
HETATM   15  C   UNL     1     -10.363  14.179  64.991  1.00  0.00    -0.418 C  
HETATM   16  C   UNL     1     -12.756  13.794  65.458  1.00  0.00    -0.488 C  
HETATM   17  C   UNL     1     -10.338  12.943  64.083  1.00  0.00    -0.385 C  
HETATM   18  C   UNL     1     -11.709  12.673  63.464  1.00  0.00    -0.604 C  
ENDBRANCH   2  13
TORSDOF 5
ENDMDL
MODEL        8
REMARK 921   NORMALIZED FREE ENERGY PREDICTED BY IDOCK:   -5.11 KCAL/MOL
REMARK 922        TOTAL FREE ENERGY PREDICTED BY IDOCK:   -7.09 KCAL/MOL
REMARK 923 INTER-LIGAND FREE ENERGY PREDICTED BY IDOCK:   -6.67 KCAL/MOL
REMARK 924 INTRA-LIGAND FREE ENERGY PREDICTED BY IDOCK:   -0.42 KCAL/MOL
REMARK 927      BINDING AFFINITY PREDICTED BY RF-SCORE:    0.00 PKD
ROOT
HETATM    1  S   UNL     1     -11.991  13.794  69.106  1.00  0.00    -0.347 S  
HETATM    2  C   UNL     1     -11.282  13.832  67.578  1.00  0.00    -0.294 C  
ENDROOT
BRANCH   2   3
HETATM    3  S   UNL     1      -9.759  14.707  67.290  1.00  0.00    -0.235 SA 
BRANCH   3   4
HETATM    4  S   UNL     1      -9.310  15.407  69.192  1.00  0.00    -0.258 SA 
BRANCH   4   5
HETATM    5  C   UNL     1      -8.163  16.734  68.894  1.00  0.00    -0.224 C  
HETATM    6  S   UNL     1      -6.510  16.388  68.970  1.00  0.00    -0.183 S  
BRANCH   5   7
HETATM    7  N   UNL     1      -8.714  17.970  68.483  1.00  0.00    -0.302 N  
HETATM    8  C   UNL     1      -8.286  20.047  67.168  1.00  0.00    -0.365 C  
HETATM    9  C   UNL     1      -7.886  19.187  68.367  1.00  0.00    -0.335 C  
HETATM   10  C   UNL     1      -9.773  20.374  67.181  1.00  0.00    -0.601 C  
HETATM   11  C   UNL     1     -10.594  19.095  67.292  1.00  0.00    -0.573 C  
HETATM   12  C   UNL     1     -10.161  18.252  68.492  1.00  0.00    -0.379 C  
ENDBRANCH   5   7
ENDBRANCH   4   5
ENDBRANCH   3   4
ENDBRANCH   2   3
BRANCH   2  13
HETATM   13  N   UNL     1     -11.820  13.201  66.452  1.00  0.00    -0.382 N  
HETATM   14  C   UNL     1     -10.660  11.905  64.677  1.00  0.00    -0.353 C  
HETATM   15  C   UNL     1     -12.653  13.911  65.476  1.00  0.00    -0.526 C  
HETATM   16  C   UNL     1     -11.383  11.865  66.020  1.00  0.00    -0.316 C  
HETATM   17  C   UNL     1     -11.937  13.999  64.122  1.00  0.00    -0.439 C  
HETATM   18  C   UNL     1     -11.505  12.620  63.624  1.00  0.00    -0.563 C  
ENDBRANCH   2  13
TORSDOF 5
ENDMDL
MODEL        9
REMARK 921   NORMALIZED FREE ENERGY PREDICTED BY IDOCK:   -5.10 KCAL/MOL
REMARK 922        TOTAL FREE ENERGY PREDICTED BY IDOCK:   -7.09 KCAL/MOL
REMARK 923 INTER-LIGAND FREE ENERGY PREDICTED BY IDOCK:   -6.74 KCAL/MOL
REMARK 924 INTRA-LIGAND FREE ENERGY PREDICTED BY IDOCK:   -0.35 KCAL/MOL
REMARK 927      BINDING AFFINITY PREDICTED BY RF-SCORE:    0.00 PKD
ROOT
HETATM    1  S   UNL     1     -12.771  11.351  70.712  1.00  0.00    -0.202 S  
HETATM    2  C   UNL     1     -12.369  12.950  70.363  1.00  0.00    -0.258 C  
ENDROOT
BRANCH   2   3
HETATM    3  S   UNL     1     -11.229  13.350  69.056  1.00  0.00    -0.266 SA 
BRANCH   3   4
HETATM    4  S   UNL     1     -11.178  11.572  67.985  1.00  0.00    -0.296 SA 
BRANCH   4   5
HETATM    5  C   UNL     1     -10.082  11.927  66.629  1.00  0.00    -0.200 C  
HETATM    6  S   UNL     1      -8.455  11.498  66.788  1.00  0.00    -0.167 S  
BRANCH   5   7
HETATM    7  N   UNL     1     -10.677  12.431  65.448  1.00  0.00    -0.274 N  
HETATM    8  C   UNL     1     -12.218  11.891  63.561  1.00  0.00    -0.591 C  
HETATM    9  C   UNL     1     -10.899  11.574  64.266  1.00  0.00    -0.359 C  
HETATM   10  C   UNL     1     -12.330  13.370  63.216  1.00  0.00    -0.244 C  
HETATM   11  C   UNL     1     -12.105  14.220  64.460  1.00  0.00    -0.499 C  
HETATM   12  C   UNL     1     -10.785  13.871  65.148  1.00  0.00    -0.362 C  
ENDBRANCH   5   7
ENDBRANCH   4   5
ENDBRANCH   3   4
ENDBRANCH   2   3
BRANCH   2  13
HETATM   13  N   UNL     1     -12.880  14.052  71.056  1.00  0.00    -0.341 N  
HETATM   14  C   UNL     1     -11.770  16.205  71.613  1.00  0.00    -0.558 C  
HETATM   15  C   UNL     1     -13.467  13.937  72.394  1.00  0.00    -0.560 C  
HETATM   16  C   UNL     1     -12.632  15.434  70.617  1.00  0.00    -0.439 C  
HETATM   17  C   UNL     1     -12.603  14.674  73.425  1.00  0.00    -0.497 C  
HETATM   18  C   UNL     1     -12.361  16.127  73.020  1.00  0.00    -0.625 C  
ENDBRANCH   2  13
TORSDOF 5
ENDMDL
MODEL       10
REMARK 921   NORMALIZED FREE ENERGY PREDICTED BY IDOCK:   -5.10 KCAL/MOL
REMARK 922        TOTAL FREE ENERGY PREDICTED BY IDOCK:   -7.08 KCAL/MOL
REMARK 923 INTER-LIGAND FREE ENERGY PREDICTED BY IDOCK:   -6.63 KCAL/MOL
REMARK 924 INTRA-LIGAND FREE ENERGY PREDICTED BY IDOCK:   -0.46 KCAL/MOL
REMARK 927      BINDING AFFINITY PREDICTED BY RF-SCORE:    0.00 PKD
ROOT
HETATM    1  S   UNL     1      -6.868  17.425  68.098  1.00  0.00    -0.190 S  
HETATM    2  C   UNL     1      -8.472  17.068  68.467  1.00  0.00    -0.257 C  
ENDROOT
BRANCH   2   3
HETATM    3  S   UNL     1      -8.915  15.547  69.277  1.00  0.00    -0.270 SA 
BRANCH   3   4
HETATM    4  S   UNL     1      -8.984  14.224  67.678  1.00  0.00    -0.205 SA 
BRANCH   4   5
HETATM    5  C   UNL     1     -10.725  13.946  67.435  1.00  0.00    -0.272 C  
HETATM    6  S   UNL     1     -11.755  14.147  68.760  1.00  0.00    -0.362 S  
BRANCH   5   7
HETATM    7  N   UNL     1     -11.149  13.698  66.108  1.00  0.00    -0.294 N  
HETATM    8  C   UNL     1     -10.510  12.650  63.935  1.00  0.00    -0.441 C  
HETATM    9  C   UNL     1     -10.203  13.728  64.975  1.00  0.00    -0.346 C  
HETATM   10  C   UNL     1     -11.957  12.718  63.467  1.00  0.00    -0.633 C  
HETATM   11  C   UNL     1     -12.902  12.674  64.661  1.00  0.00    -0.361 C  
HETATM   12  C   UNL     1     -12.561  13.755  65.687  1.00  0.00    -0.509 C  
ENDBRANCH   5   7
ENDBRANCH   4   5
ENDBRANCH   3   4
ENDBRANCH   2   3
BRANCH   2  13
HETATM   13  N   UNL     1      -9.548  17.912  68.170  1.00  0.00    -0.293 N  
HETATM   14  C   UNL     1     -10.530  18.480  65.959  1.00  0.00    -0.433 C  
HETATM   15  C   UNL     1      -9.603  19.305  68.622  1.00  0.00    -0.418 C  
HETATM   16  C   UNL     1     -10.569  17.555  67.172  1.00  0.00    -0.264 C  
HETATM   17  C   UNL     1      -9.530  20.261  67.425  1.00  0.00    -0.547 C  
HETATM   18  C   UNL     1     -10.607  19.944  66.387  1.00  0.00    -0.532 C  
ENDBRANCH   2  13
TORSDOF 5
ENDMDL
MODEL       11
REMARK 921   NORMALIZED FREE ENERGY PREDICTED BY IDOCK:   -5.08 KCAL/MOL
REMARK 922        TOTAL FREE ENERGY PREDICTED BY IDOCK:   -7.06 KCAL/MOL
REMARK 923 INTER-LIGAND FREE ENERGY PREDICTED BY IDOCK:   -6.64 KCAL/MOL
REMARK 924 INTRA-LIGAND FREE ENERGY PREDICTED BY IDOCK:   -0.41 KCAL/MOL
REMARK 927      BINDING AFFINITY PREDICTED BY RF-SCORE:    0.00 PKD
ROOT
HETATM    1  S   UNL     1     -10.964   6.539  68.833  1.00  0.00    -0.304 S  
HETATM    2  C   UNL     1     -10.861   7.871  69.858  1.00  0.00    -0.221 C  
ENDROOT
BRANCH   2   3
HETATM    3  S   UNL     1      -9.798   9.248  69.478  1.00  0.00    -0.191 SA 
BRANCH   3   4
HETATM    4  S   UNL     1     -10.157   9.508  67.450  1.00  0.00    -0.223 SA 
BRANCH   4   5
HETATM    5  C   UNL     1     -11.083  11.025  67.377  1.00  0.00    -0.305 C  
HETATM    6  S   UNL     1     -11.604  11.711  68.831  1.00  0.00    -0.343 S  
BRANCH   5   7
HETATM    7  N   UNL     1     -11.211  11.630  66.103  1.00  0.00    -0.289 N  
HETATM    8  C   UNL     1     -10.762  11.341  63.666  1.00  0.00    -0.438 C  
HETATM    9  C   UNL     1     -10.169  11.481  65.068  1.00  0.00    -0.280 C  
HETATM   10  C   UNL     1     -11.721  12.480  63.345  1.00  0.00    -0.567 C  
HETATM   11  C   UNL     1     -12.786  12.595  64.429  1.00  0.00    -0.417 C  
HETATM   12  C   UNL     1     -12.161  12.720  65.818  1.00  0.00    -0.448 C  
ENDBRANCH   5   7
ENDBRANCH   4   5
ENDBRANCH   3   4
ENDBRANCH   2   3
BRANCH   2  13
HETATM   13  N   UNL     1     -11.577   7.994  71.053  1.00  0.00    -0.284 N  
HETATM   14  C   UNL     1     -13.974   7.512  71.501  1.00  0.00    -0.522 C  
HETATM   15  C   UNL     1     -11.622   9.244  71.819  1.00  0.00    -0.388 C  
HETATM   16  C   UNL     1     -12.545   6.977  71.493  1.00  0.00    -0.385 C  
HETATM   17  C   UNL     1     -13.041   9.825  71.815  1.00  0.00    -0.528 C  
HETATM   18  C   UNL     1     -14.067   8.806  72.307  1.00  0.00    -0.511 C  
ENDBRANCH   2  13
TORSDOF 5
ENDMDL
MODEL       12
REMARK 921   NORMALIZED FREE ENERGY PREDICTED BY IDOCK:   -5.05 KCAL/MOL
REMARK 922        TOTAL FREE ENERGY PREDICTED BY IDOCK:   -7.02 KCAL/MOL
REMARK 923 INTER-LIGAND FREE ENERGY PREDICTED BY IDOCK:   -6.64 KCAL/MOL
REMARK 924 INTRA-LIGAND FREE ENERGY PREDICTED BY IDOCK:   -0.38 KCAL/MOL
REMARK 927      BINDING AFFINITY PREDICTED BY RF-SCORE:    0.00 PKD
ROOT
HETATM    1  S   UNL     1     -11.228  15.597  68.359  1.00  0.00    -0.366 S  
HETATM    2  C   UNL     1     -10.575  16.169  66.915  1.00  0.00    -0.283 C  
ENDROOT
BRANCH   2   3
HETATM    3  S   UNL     1     -10.721  15.238  65.405  1.00  0.00    -0.419 SA 
BRANCH   3   4
HETATM    4  S   UNL     1     -12.393  14.068  65.793  1.00  0.00    -0.473 SA 
BRANCH   4   5
HETATM    5  C   UNL     1     -11.973  12.487  65.094  1.00  0.00    -0.434 C  
HETATM    6  S   UNL     1     -12.387  12.195  63.481  1.00  0.00    -0.509 S  
BRANCH   5   7
HETATM    7  N   UNL     1     -11.199  11.621  65.902  1.00  0.00    -0.280 N  
HETATM    8  C   UNL     1     -11.149  10.358  68.054  1.00  0.00    -0.359 C  
HETATM    9  C   UNL     1     -11.205  11.727  67.375  1.00  0.00    -0.297 C  
HETATM   10  C   UNL     1      -9.976   9.527  67.550  1.00  0.00    -0.235 C  
HETATM   11  C   UNL     1     -10.011   9.433  66.030  1.00  0.00    -0.352 C  
HETATM   12  C   UNL     1     -10.078  10.816  65.382  1.00  0.00    -0.285 C  
ENDBRANCH   5   7
ENDBRANCH   4   5
ENDBRANCH   3   4
ENDBRANCH   2   3
BRANCH   2  13
HETATM   13  N   UNL     1      -9.885  17.379  66.795  1.00  0.00    -0.283 N  
HETATM   14  C   UNL     1      -8.830  18.764  68.569  1.00  0.00    -0.378 C  
HETATM   15  C   UNL     1     -10.465  18.554  66.137  1.00  0.00    -0.413 C  
HETATM   16  C   UNL     1      -8.647  17.650  67.542  1.00  0.00    -0.222 C  
HETATM   17  C   UNL     1     -10.694  19.680  67.152  1.00  0.00    -0.587 C  
HETATM   18  C   UNL     1      -9.415  20.016  67.917  1.00  0.00    -0.467 C  
ENDBRANCH   2  13
TORSDOF 5
ENDMDL
MODEL       13
REMARK 921   NORMALIZED FREE ENERGY PREDICTED BY IDOCK:   -5.04 KCAL/MOL
REMARK 922        TOTAL FREE ENERGY PREDICTED BY IDOCK:   -7.01 KCAL/MOL
REMARK 923 INTER-LIGAND FREE ENERGY PREDICTED BY IDOCK:   -6.61 KCAL/MOL
REMARK 924 INTRA-LIGAND FREE ENERGY PREDICTED BY IDOCK:   -0.40 KCAL/MOL
REMARK 927      BINDING AFFINITY PREDICTED BY RF-SCORE:    0.00 PKD
ROOT
HETATM    1  S   UNL     1     -11.461  15.848  68.928  1.00  0.00    -0.379 S  
HETATM    2  C   UNL     1     -10.565  16.269  67.565  1.00  0.00    -0.310 C  
ENDROOT
BRANCH   2   3
HETATM    3  S   UNL     1     -10.507  15.208  66.137  1.00  0.00    -0.328 SA 
BRANCH   3   4
HETATM    4  S   UNL     1     -12.154  13.984  66.456  1.00  0.00    -0.447 SA 
BRANCH   4   5
HETATM    5  C   UNL     1     -11.437  12.402  66.841  1.00  0.00    -0.360 C  
HETATM    6  S   UNL     1     -11.539  11.849  68.434  1.00  0.00    -0.328 S  
BRANCH   5   7
HETATM    7  N   UNL     1     -10.938  11.650  65.751  1.00  0.00    -0.292 N  
HETATM    8  C   UNL     1     -10.325  11.739  63.334  1.00  0.00    -0.481 C  
HETATM    9  C   UNL     1     -11.437  11.854  64.376  1.00  0.00    -0.320 C  
HETATM   10  C   UNL     1      -9.560  10.430  63.469  1.00  0.00    -0.361 C  
HETATM   11  C   UNL     1      -9.053  10.259  64.896  1.00  0.00    -0.250 C  
HETATM   12  C   UNL     1     -10.187  10.392  65.914  1.00  0.00    -0.234 C  
ENDBRANCH   5   7
ENDBRANCH   4   5
ENDBRANCH   3   4
ENDBRANCH   2   3
BRANCH   2  13
HETATM   13  N   UNL     1      -9.817  17.445  67.454  1.00  0.00    -0.273 N  
HETATM   14  C   UNL     1      -9.919  19.504  68.842  1.00  0.00    -0.529 C  
HETATM   15  C   UNL     1      -9.741  18.215  66.208  1.00  0.00    -0.276 C  
HETATM   16  C   UNL     1      -9.272  18.139  68.631  1.00  0.00    -0.282 C  
HETATM   17  C   UNL     1     -10.417  19.581  66.379  1.00  0.00    -0.597 C  
HETATM   18  C   UNL     1      -9.842  20.347  67.571  1.00  0.00    -0.564 C  
ENDBRANCH   2  13
TORSDOF 5
ENDMDL
MODEL       14
REMARK 921   NORMALIZED FREE ENERGY PREDICTED BY IDOCK:   -5.02 KCAL/MOL
REMARK 922        TOTAL FREE ENERGY PREDICTED BY IDOCK:   -6.98 KCAL/MOL
REMARK 923 INTER-LIGAND FREE ENERGY PREDICTED BY IDOCK:   -6.65 KCAL/MOL
REMARK 924 INTRA-LIGAND FREE ENERGY PREDICTED BY IDOCK:   -0.34 KCAL/MOL
REMARK 927      BINDING AFFINITY PREDICTED BY RF-SCORE:    0.00 PKD
ROOT
HETATM    1  S   UNL     1     -10.904  16.170  68.934  1.00  0.00    -0.328 S  
HETATM    2  C   UNL     1     -11.377  14.703  69.613  1.00  0.00    -0.280 C  
ENDROOT
BRANCH   2   3
HETATM    3  S   UNL     1     -11.291  13.187  68.684  1.00  0.00    -0.311 SA 
BRANCH   3   4
HETATM    4  S   UNL     1      -9.328  13.219  68.008  1.00  0.00    -0.222 SA 
BRANCH   4   5
HETATM    5  C   UNL     1      -9.373  12.225  66.533  1.00  0.00    -0.230 C  
HETATM    6  S   UNL     1      -8.629  10.708  66.573  1.00  0.00    -0.147 S  
BRANCH   5   7
HETATM    7  N   UNL     1     -10.147  12.721  65.457  1.00  0.00    -0.279 N  
HETATM    8  C   UNL     1     -11.808  12.106  63.699  1.00  0.00    -0.608 C  
HETATM    9  C   UNL     1     -10.393  11.915  64.245  1.00  0.00    -0.321 C  
HETATM   10  C   UNL     1     -12.130  13.578  63.476  1.00  0.00    -0.425 C  
HETATM   11  C   UNL     1     -11.874  14.374  64.750  1.00  0.00    -0.439 C  
HETATM   12  C   UNL     1     -10.456  14.151  65.275  1.00  0.00    -0.384 C  
ENDBRANCH   5   7
ENDBRANCH   4   5
ENDBRANCH   3   4
ENDBRANCH   2   3
BRANCH   2  13
HETATM   13  N   UNL     1     -11.863  14.566  70.917  1.00  0.00    -0.313 N  
HETATM   14  C   UNL     1     -14.147  15.007  71.793  1.00  0.00    -0.621 C  
HETATM   15  C   UNL     1     -11.230  15.222  72.065  1.00  0.00    -0.237 C  
HETATM   16  C   UNL     1     -13.183  13.982  71.202  1.00  0.00    -0.267 C  
HETATM   17  C   UNL     1     -12.163  16.284  72.659  1.00  0.00    -0.581 C  
HETATM   18  C   UNL     1     -13.531  15.699  73.007  1.00  0.00    -0.654 C  
ENDBRANCH   2  13
TORSDOF 5
ENDMDL
MODEL       15
REMARK 921   NORMALIZED FREE ENERGY PREDICTED BY IDOCK:   -5.01 KCAL/MOL
REMARK 922        TOTAL FREE ENERGY PREDICTED BY IDOCK:   -6.97 KCAL/MOL
REMARK 923 INTER-LIGAND FREE ENERGY PREDICTED BY IDOCK:   -6.65 KCAL/MOL
REMARK 924 INTRA-LIGAND FREE ENERGY PREDICTED BY IDOCK:   -0.32 KCAL/MOL
REMARK 927      BINDING AFFINITY PREDICTED BY RF-SCORE:    0.00 PKD
ROOT
HETATM    1  S   UNL     1     -13.255  12.629  71.712  1.00  0.00    -0.253 S  
HETATM    2  C   UNL     1     -12.552  11.237  71.075  1.00  0.00    -0.394 C  
ENDROOT
BRANCH   2   3
HETATM    3  S   UNL     1     -11.782  11.244  69.470  1.00  0.00    -0.377 SA 
BRANCH   3   4
HETATM    4  S   UNL     1     -11.849  13.261  68.982  1.00  0.00    -0.308 SA 
BRANCH   4   5
HETATM    5  C   UNL     1     -10.698  13.408  67.633  1.00  0.00    -0.247 C  
HETATM    6  S   UNL     1      -9.147  13.988  67.971  1.00  0.00    -0.196 S  
BRANCH   5   7
HETATM    7  N   UNL     1     -11.121  12.904  66.380  1.00  0.00    -0.278 N  
HETATM    8  C   UNL     1     -12.127  13.516  64.181  1.00  0.00    -0.488 C  
HETATM    9  C   UNL     1     -12.316  13.435  65.695  1.00  0.00    -0.470 C  
HETATM   10  C   UNL     1     -11.687  12.181  63.596  1.00  0.00    -0.588 C  
HETATM   11  C   UNL     1     -10.447  11.670  64.321  1.00  0.00    -0.383 C  
HETATM   12  C   UNL     1     -10.665  11.613  65.833  1.00  0.00    -0.278 C  
ENDBRANCH   5   7
ENDBRANCH   4   5
ENDBRANCH   3   4
ENDBRANCH   2   3
BRANCH   2  13
HETATM   13  N   UNL     1     -12.524  10.004  71.734  1.00  0.00    -0.400 N  
HETATM   14  C   UNL     1     -11.710   7.804  70.912  1.00  0.00    -0.281 C  
HETATM   15  C   UNL     1     -13.721   9.405  72.335  1.00  0.00    -0.400 C  
HETATM   16  C   UNL     1     -11.369   9.097  71.648  1.00  0.00    -0.376 C  
HETATM   17  C   UNL     1     -14.109   8.121  71.593  1.00  0.00    -0.504 C  
HETATM   18  C   UNL     1     -12.942   7.138  71.522  1.00  0.00    -0.431 C  
ENDBRANCH   2  13
TORSDOF 5
ENDMDL
MODEL       16
REMARK 921   NORMALIZED FREE ENERGY PREDICTED BY IDOCK:   -5.00 KCAL/MOL
REMARK 922        TOTAL FREE ENERGY PREDICTED BY IDOCK:   -6.95 KCAL/MOL
REMARK 923 INTER-LIGAND FREE ENERGY PREDICTED BY IDOCK:   -6.65 KCAL/MOL
REMARK 924 INTRA-LIGAND FREE ENERGY PREDICTED BY IDOCK:   -0.30 KCAL/MOL
REMARK 927      BINDING AFFINITY PREDICTED BY RF-SCORE:    0.00 PKD
ROOT
HETATM    1  S   UNL     1     -10.303  19.841  66.582  1.00  0.00    -0.514 S  
HETATM    2  C   UNL     1      -9.170  18.670  67.010  1.00  0.00    -0.291 C  
ENDROOT
BRANCH   2   3
HETATM    3  S   UNL     1      -9.641  16.966  67.223  1.00  0.00    -0.251 SA 
BRANCH   3   4
HETATM    4  S   UNL     1     -10.611  17.025  69.058  1.00  0.00    -0.271 SA 
BRANCH   4   5
HETATM    5  C   UNL     1     -11.500  15.485  69.116  1.00  0.00    -0.348 C  
HETATM    6  S   UNL     1     -11.584  14.562  67.702  1.00  0.00    -0.388 S  
BRANCH   5   7
HETATM    7  N   UNL     1     -11.970  15.071  70.384  1.00  0.00    -0.299 N  
HETATM    8  C   UNL     1     -13.043  15.841  72.502  1.00  0.00    -0.558 C  
HETATM    9  C   UNL     1     -11.826  15.925  71.580  1.00  0.00    -0.468 C  
HETATM   10  C   UNL     1     -13.370  14.401  72.871  1.00  0.00    -0.575 C  
HETATM   11  C   UNL     1     -13.521  13.554  71.613  1.00  0.00    -0.385 C  
HETATM   12  C   UNL     1     -12.295  13.670  70.708  1.00  0.00    -0.371 C  
ENDBRANCH   5   7
ENDBRANCH   4   5
ENDBRANCH   3   4
ENDBRANCH   2   3
BRANCH   2  13
HETATM   13  N   UNL     1      -7.815  18.937  67.229  1.00  0.00    -0.234 N  
HETATM   14  C   UNL     1      -6.686  19.715  69.302  1.00  0.00    -0.391 C  
HETATM   15  C   UNL     1      -7.051  19.866  66.391  1.00  0.00    -0.242 C  
HETATM   16  C   UNL     1      -7.125  18.520  68.460  1.00  0.00    -0.277 C  
HETATM   17  C   UNL     1      -6.626  21.096  67.203  1.00  0.00    -0.424 C  
HETATM   18  C   UNL     1      -5.868  20.699  68.469  1.00  0.00    -0.364 C  
ENDBRANCH   2  13
TORSDOF 5
ENDMDL
MODEL       17
REMARK 921   NORMALIZED FREE ENERGY PREDICTED BY IDOCK:   -5.00 KCAL/MOL
REMARK 922        TOTAL FREE ENERGY PREDICTED BY IDOCK:   -6.95 KCAL/MOL
REMARK 923 INTER-LIGAND FREE ENERGY PREDICTED BY IDOCK:   -6.55 KCAL/MOL
REMARK 924 INTRA-LIGAND FREE ENERGY PREDICTED BY IDOCK:   -0.41 KCAL/MOL
REMARK 927      BINDING AFFINITY PREDICTED BY RF-SCORE:    0.00 PKD
ROOT
HETATM    1  S   UNL     1     -12.073  12.502  63.494  1.00  0.00    -0.553 S  
HETATM    2  C   UNL     1     -11.806  12.548  65.157  1.00  0.00    -0.405 C  
ENDROOT
BRANCH   2   3
HETATM    3  S   UNL     1     -12.369  13.919  66.143  1.00  0.00    -0.438 SA 
BRANCH   3   4
HETATM    4  S   UNL     1     -10.697  15.150  66.143  1.00  0.00    -0.333 SA 
BRANCH   4   5
HETATM    5  C   UNL     1     -10.927  16.174  67.580  1.00  0.00    -0.268 C  
HETATM    6  S   UNL     1     -11.587  15.465  68.965  1.00  0.00    -0.359 S  
BRANCH   5   7
HETATM    7  N   UNL     1     -10.418  17.492  67.508  1.00  0.00    -0.355 N  
HETATM    8  C   UNL     1     -10.495  19.629  66.222  1.00  0.00    -0.621 C  
HETATM    9  C   UNL     1     -10.137  18.143  66.213  1.00  0.00    -0.371 C  
HETATM   10  C   UNL     1      -9.829  20.361  67.380  1.00  0.00    -0.587 C  
HETATM   11  C   UNL     1     -10.151  19.667  68.697  1.00  0.00    -0.547 C  
HETATM   12  C   UNL     1      -9.793  18.181  68.651  1.00  0.00    -0.377 C  
ENDBRANCH   5   7
ENDBRANCH   4   5
ENDBRANCH   3   4
ENDBRANCH   2   3
BRANCH   2  13
HETATM   13  N   UNL     1     -11.139  11.546  65.868  1.00  0.00    -0.257 N  
HETATM   14  C   UNL     1      -9.780  11.736  67.941  1.00  0.00    -0.185 C  
HETATM   15  C   UNL     1     -10.164  10.649  65.239  1.00  0.00    -0.282 C  
HETATM   16  C   UNL     1     -11.160  11.485  67.338  1.00  0.00    -0.282 C  
HETATM   17  C   UNL     1      -8.760  10.903  65.800  1.00  0.00    -0.196 C  
HETATM   18  C   UNL     1      -8.738  10.805  67.325  1.00  0.00    -0.130 C  
ENDBRANCH   2  13
TORSDOF 5
ENDMDL
MODEL       18
REMARK 921   NORMALIZED FREE ENERGY PREDICTED BY IDOCK:   -4.98 KCAL/MOL
REMARK 922        TOTAL FREE ENERGY PREDICTED BY IDOCK:   -6.93 KCAL/MOL
REMARK 923 INTER-LIGAND FREE ENERGY PREDICTED BY IDOCK:   -6.57 KCAL/MOL
REMARK 924 INTRA-LIGAND FREE ENERGY PREDICTED BY IDOCK:   -0.36 KCAL/MOL
REMARK 927      BINDING AFFINITY PREDICTED BY RF-SCORE:    0.00 PKD
ROOT
HETATM    1  S   UNL     1      -9.395  15.432  67.578  1.00  0.00    -0.205 S  
HETATM    2  C   UNL     1     -10.877  14.735  67.183  1.00  0.00    -0.311 C  
ENDROOT
BRANCH   2   3
HETATM    3  S   UNL     1     -12.029  14.241  68.446  1.00  0.00    -0.265 SA 
BRANCH   3   4
HETATM    4  S   UNL     1     -11.407  12.301  68.846  1.00  0.00    -0.308 SA 
BRANCH   4   5
HETATM    5  C   UNL     1     -12.086  11.963  70.456  1.00  0.00    -0.331 C  
HETATM    6  S   UNL     1     -12.900  13.211  71.254  1.00  0.00    -0.221 S  
BRANCH   5   7
HETATM    7  N   UNL     1     -12.012  10.624  70.908  1.00  0.00    -0.356 N  
HETATM    8  C   UNL     1     -10.475   8.853  71.760  1.00  0.00    -0.431 C  
HETATM    9  C   UNL     1     -10.853   9.765  70.593  1.00  0.00    -0.329 C  
HETATM   10  C   UNL     1     -11.667   8.040  72.248  1.00  0.00    -0.428 C  
HETATM   11  C   UNL     1     -12.836   8.961  72.572  1.00  0.00    -0.401 C  
HETATM   12  C   UNL     1     -13.181   9.868  71.390  1.00  0.00    -0.400 C  
ENDBRANCH   5   7
ENDBRANCH   4   5
ENDBRANCH   3   4
ENDBRANCH   2   3
BRANCH   2  13
HETATM   13  N   UNL     1     -11.301  14.493  65.872  1.00  0.00    -0.338 N  
HETATM   14  C   UNL     1     -12.652  12.605  64.985  1.00  0.00    -0.504 C  
HETATM   15  C   UNL     1     -10.371  14.440  64.741  1.00  0.00    -0.320 C  
HETATM   16  C   UNL     1     -12.659  14.016  65.566  1.00  0.00    -0.516 C  
HETATM   17  C   UNL     1     -10.315  13.023  64.157  1.00  0.00    -0.345 C  
HETATM   18  C   UNL     1     -11.707  12.512  63.789  1.00  0.00    -0.564 C  
ENDBRANCH   2  13
TORSDOF 5
ENDMDL
MODEL       19
REMARK 921   NORMALIZED FREE ENERGY PREDICTED BY IDOCK:   -4.98 KCAL/MOL
REMARK 922        TOTAL FREE ENERGY PREDICTED BY IDOCK:   -6.93 KCAL/MOL
REMARK 923 INTER-LIGAND FREE ENERGY PREDICTED BY IDOCK:   -6.42 KCAL/MOL
REMARK 924 INTRA-LIGAND FREE ENERGY PREDICTED BY IDOCK:   -0.51 KCAL/MOL
REMARK 927      BINDING AFFINITY PREDICTED BY RF-SCORE:    0.00 PKD
ROOT
HETATM    1  S   UNL     1      -8.085  15.501  69.436  1.00  0.00    -0.211 S  
HETATM    2  C   UNL     1      -8.938  16.395  68.291  1.00  0.00    -0.206 C  
ENDROOT
BRANCH   2   3
HETATM    3  S   UNL     1      -9.932  15.595  67.050  1.00  0.00    -0.245 SA 
BRANCH   3   4
HETATM    4  S   UNL     1     -11.764  15.441  68.015  1.00  0.00    -0.113 SA 
BRANCH   4   5
HETATM    5  C   UNL     1     -11.511  14.132  69.194  1.00  0.00    -0.296 C  
HETATM    6  S   UNL     1     -10.691  12.746  68.680  1.00  0.00    -0.224 S  
BRANCH   5   7
HETATM    7  N   UNL     1     -11.904  14.394  70.528  1.00  0.00    -0.298 N  
HETATM    8  C   UNL     1     -12.257  16.191  72.223  1.00  0.00    -0.577 C  
HETATM    9  C   UNL     1     -11.260  15.453  71.330  1.00  0.00    -0.352 C  
HETATM   10  C   UNL     1     -13.053  15.227  73.093  1.00  0.00    -0.627 C  
HETATM   11  C   UNL     1     -13.710  14.157  72.230  1.00  0.00    -0.623 C  
HETATM   12  C   UNL     1     -12.689  13.447  71.341  1.00  0.00    -0.322 C  
ENDBRANCH   5   7
ENDBRANCH   4   5
ENDBRANCH   3   4
ENDBRANCH   2   3
BRANCH   2  13
HETATM   13  N   UNL     1      -8.928  17.792  68.225  1.00  0.00    -0.271 N  
HETATM   14  C   UNL     1     -10.769  19.346  67.618  1.00  0.00    -0.536 C  
HETATM   15  C   UNL     1      -7.952  18.535  67.421  1.00  0.00    -0.239 C  
HETATM   16  C   UNL     1     -10.041  18.607  68.737  1.00  0.00    -0.353 C  
HETATM   17  C   UNL     1      -8.651  19.261  66.266  1.00  0.00    -0.335 C  
HETATM   18  C   UNL     1      -9.788  20.151  66.767  1.00  0.00    -0.591 C  
ENDBRANCH   2  13
TORSDOF 5
ENDMDL
MODEL       20
REMARK 921   NORMALIZED FREE ENERGY PREDICTED BY IDOCK:   -4.95 KCAL/MOL
REMARK 922        TOTAL FREE ENERGY PREDICTED BY IDOCK:   -6.89 KCAL/MOL
REMARK 923 INTER-LIGAND FREE ENERGY PREDICTED BY IDOCK:   -6.46 KCAL/MOL
REMARK 924 INTRA-LIGAND FREE ENERGY PREDICTED BY IDOCK:   -0.43 KCAL/MOL
REMARK 927      BINDING AFFINITY PREDICTED BY RF-SCORE:    0.00 PKD
ROOT
HETATM    1  S   UNL     1      -8.156  15.321  69.271  1.00  0.00    -0.233 S  
HETATM    2  C   UNL     1      -8.930  16.481  68.326  1.00  0.00    -0.214 C  
ENDROOT
BRANCH   2   3
HETATM    3  S   UNL     1     -10.084  16.013  67.053  1.00  0.00    -0.277 SA 
BRANCH   3   4
HETATM    4  S   UNL     1     -11.658  15.252  68.173  1.00  0.00    -0.279 SA 
BRANCH   4   5
HETATM    5  C   UNL     1     -11.665  13.519  67.768  1.00  0.00    -0.359 C  
HETATM    6  S   UNL     1     -11.669  12.405  69.040  1.00  0.00    -0.316 S  
BRANCH   5   7
HETATM    7  N   UNL     1     -11.798  13.187  66.399  1.00  0.00    -0.382 N  
HETATM    8  C   UNL     1     -12.107  14.121  64.106  1.00  0.00    -0.437 C  
HETATM    9  C   UNL     1     -12.698  13.943  65.504  1.00  0.00    -0.499 C  
HETATM   10  C   UNL     1     -11.690  12.789  63.497  1.00  0.00    -0.597 C  
HETATM   11  C   UNL     1     -10.755  12.046  64.443  1.00  0.00    -0.369 C  
HETATM   12  C   UNL     1     -11.370  11.895  65.835  1.00  0.00    -0.308 C  
ENDBRANCH   5   7
ENDBRANCH   4   5
ENDBRANCH   3   4
ENDBRANCH   2   3
BRANCH   2  13
HETATM   13  N   UNL     1      -8.730  17.858  68.460  1.00  0.00    -0.298 N  
HETATM   14  C   UNL     1     -10.184  19.733  67.720  1.00  0.00    -0.571 C  
HETATM   15  C   UNL     1      -7.517  18.527  67.979  1.00  0.00    -0.250 C  
HETATM   16  C   UNL     1      -9.815  18.772  68.847  1.00  0.00    -0.365 C  
HETATM   17  C   UNL     1      -7.851  19.475  66.820  1.00  0.00    -0.291 C  
HETATM   18  C   UNL     1      -8.948  20.467  67.204  1.00  0.00    -0.417 C  
ENDBRANCH   2  13
TORSDOF 5
ENDMDL
MODEL       21
REMARK 921   NORMALIZED FREE ENERGY PREDICTED BY IDOCK:   -4.94 KCAL/MOL
REMARK 922        TOTAL FREE ENERGY PREDICTED BY IDOCK:   -6.88 KCAL/MOL
REMARK 923 INTER-LIGAND FREE ENERGY PREDICTED BY IDOCK:   -6.47 KCAL/MOL
REMARK 924 INTRA-LIGAND FREE ENERGY PREDICTED BY IDOCK:   -0.41 KCAL/MOL
REMARK 927      BINDING AFFINITY PREDICTED BY RF-SCORE:    0.00 PKD
ROOT
HETATM    1  S   UNL     1     -11.910  13.420  68.560  1.00  0.00    -0.347 S  
HETATM    2  C   UNL     1     -10.842  13.776  67.307  1.00  0.00    -0.285 C  
ENDROOT
BRANCH   2   3
HETATM    3  S   UNL     1      -9.119  14.090  67.626  1.00  0.00    -0.203 SA 
BRANCH   3   4
HETATM    4  S   UNL     1      -9.219  15.325  69.292  1.00  0.00    -0.212 SA 
BRANCH   4   5
HETATM    5  C   UNL     1      -8.276  16.757  68.813  1.00  0.00    -0.250 C  
HETATM    6  S   UNL     1      -6.647  16.821  69.256  1.00  0.00    -0.224 S  
BRANCH   5   7
HETATM    7  N   UNL     1      -8.927  17.693  67.975  1.00  0.00    -0.258 N  
HETATM    8  C   UNL     1     -10.433  19.682  67.941  1.00  0.00    -0.556 C  
HETATM    9  C   UNL     1     -10.278  18.201  68.285  1.00  0.00    -0.389 C  
HETATM   10  C   UNL     1     -10.037  19.969  66.498  1.00  0.00    -0.606 C  
HETATM   11  C   UNL     1      -8.635  19.441  66.221  1.00  0.00    -0.360 C  
HETATM   12  C   UNL     1      -8.510  17.962  66.587  1.00  0.00    -0.258 C  
ENDBRANCH   5   7
ENDBRANCH   4   5
ENDBRANCH   3   4
ENDBRANCH   2   3
BRANCH   2  13
HETATM   13  N   UNL     1     -11.215  13.855  65.962  1.00  0.00    -0.297 N  
HETATM   14  C   UNL     1     -12.722  12.365  64.663  1.00  0.00    -0.372 C  
HETATM   15  C   UNL     1     -10.233  13.911  64.875  1.00  0.00    -0.351 C  
HETATM   16  C   UNL     1     -12.599  13.622  65.519  1.00  0.00    -0.496 C  
HETATM   17  C   UNL     1     -10.309  12.642  64.017  1.00  0.00    -0.414 C  
HETATM   18  C   UNL     1     -11.727  12.394  63.505  1.00  0.00    -0.592 C  
ENDBRANCH   2  13
TORSDOF 5
ENDMDL
MODEL       22
REMARK 921   NORMALIZED FREE ENERGY PREDICTED BY IDOCK:   -4.93 KCAL/MOL
REMARK 922        TOTAL FREE ENERGY PREDICTED BY IDOCK:   -6.87 KCAL/MOL
REMARK 923 INTER-LIGAND FREE ENERGY PREDICTED BY IDOCK:   -6.39 KCAL/MOL
REMARK 924 INTRA-LIGAND FREE ENERGY PREDICTED BY IDOCK:   -0.48 KCAL/MOL
REMARK 927      BINDING AFFINITY PREDICTED BY RF-SCORE:    0.00 PKD
ROOT
HETATM    1  S   UNL     1     -11.682  12.277  68.716  1.00  0.00    -0.335 S  
HETATM    2  C   UNL     1     -11.724  12.949  67.172  1.00  0.00    -0.377 C  
ENDROOT
BRANCH   2   3
HETATM    3  S   UNL     1     -11.781  14.713  66.935  1.00  0.00    -0.308 SA 
BRANCH   3   4
HETATM    4  S   UNL     1      -9.831  15.121  66.353  1.00  0.00    -0.300 SA 
BRANCH   4   5
HETATM    5  C   UNL     1      -9.156  16.018  67.734  1.00  0.00    -0.196 C  
HETATM    6  S   UNL     1      -8.386  15.138  68.954  1.00  0.00    -0.203 S  
BRANCH   5   7
HETATM    7  N   UNL     1      -9.197  17.430  67.654  1.00  0.00    -0.232 N  
HETATM    8  C   UNL     1      -8.321  19.420  66.431  1.00  0.00    -0.342 C  
HETATM    9  C   UNL     1      -7.996  18.221  67.322  1.00  0.00    -0.224 C  
HETATM   10  C   UNL     1      -9.421  20.285  67.030  1.00  0.00    -0.546 C  
HETATM   11  C   UNL     1     -10.645  19.437  67.349  1.00  0.00    -0.603 C  
HETATM   12  C   UNL     1     -10.285  18.241  68.231  1.00  0.00    -0.385 C  
ENDBRANCH   5   7
ENDBRANCH   4   5
ENDBRANCH   3   4
ENDBRANCH   2   3
BRANCH   2  13
HETATM   13  N   UNL     1     -11.723  12.197  65.993  1.00  0.00    -0.373 N  
HETATM   14  C   UNL     1      -9.794  11.405  64.641  1.00  0.00    -0.302 C  
HETATM   15  C   UNL     1     -12.471  12.605  64.799  1.00  0.00    -0.484 C  
HETATM   16  C   UNL     1     -10.775  11.096  65.769  1.00  0.00    -0.188 C  
HETATM   17  C   UNL     1     -11.510  12.957  63.657  1.00  0.00    -0.506 C  
HETATM   18  C   UNL     1     -10.537  11.815  63.370  1.00  0.00    -0.479 C  
ENDBRANCH   2  13
TORSDOF 5
ENDMDL
MODEL       23
REMARK 921   NORMALIZED FREE ENERGY PREDICTED BY IDOCK:   -4.92 KCAL/MOL
REMARK 922        TOTAL FREE ENERGY PREDICTED BY IDOCK:   -6.86 KCAL/MOL
REMARK 923 INTER-LIGAND FREE ENERGY PREDICTED BY IDOCK:   -6.63 KCAL/MOL
REMARK 924 INTRA-LIGAND FREE ENERGY PREDICTED BY IDOCK:   -0.23 KCAL/MOL
REMARK 927      BINDING AFFINITY PREDICTED BY RF-SCORE:    0.00 PKD
ROOT
HETATM    1  S   UNL     1     -12.264  11.576  70.301  1.00  0.00    -0.309 S  
HETATM    2  C   UNL     1     -12.053  13.215  69.976  1.00  0.00    -0.305 C  
ENDROOT
BRANCH   2   3
HETATM    3  S   UNL     1     -10.918  13.768  68.720  1.00  0.00    -0.269 SA 
BRANCH   3   4
HETATM    4  S   UNL     1     -12.096  13.662  67.014  1.00  0.00    -0.340 SA 
BRANCH   4   5
HETATM    5  C   UNL     1     -10.930  13.855  65.684  1.00  0.00    -0.290 C  
HETATM    6  S   UNL     1     -10.584  15.421  65.150  1.00  0.00    -0.423 S  
BRANCH   5   7
HETATM    7  N   UNL     1     -10.268  12.684  65.245  1.00  0.00    -0.289 N  
HETATM    8  C   UNL     1      -9.567  10.381  65.904  1.00  0.00    -0.258 C  
HETATM    9  C   UNL     1      -9.427  11.883  66.156  1.00  0.00    -0.231 C  
HETATM   10  C   UNL     1      -9.313  10.030  64.444  1.00  0.00    -0.348 C  
HETATM   11  C   UNL     1     -10.206  10.868  63.537  1.00  0.00    -0.379 C  
HETATM   12  C   UNL     1     -10.052  12.363  63.822  1.00  0.00    -0.308 C  
ENDBRANCH   5   7
ENDBRANCH   4   5
ENDBRANCH   3   4
ENDBRANCH   2   3
BRANCH   2  13
HETATM   13  N   UNL     1     -12.729  14.238  70.648  1.00  0.00    -0.345 N  
HETATM   14  C   UNL     1     -11.799  16.192  71.871  1.00  0.00    -0.605 C  
HETATM   15  C   UNL     1     -13.714  13.971  71.701  1.00  0.00    -0.339 C  
HETATM   16  C   UNL     1     -12.319  15.647  70.543  1.00  0.00    -0.403 C  
HETATM   17  C   UNL     1     -13.203  14.476  73.055  1.00  0.00    -0.575 C  
HETATM   18  C   UNL     1     -12.807  15.951  72.992  1.00  0.00    -0.615 C  
ENDBRANCH   2  13
TORSDOF 5
ENDMDL
MODEL       24
REMARK 921   NORMALIZED FREE ENERGY PREDICTED BY IDOCK:   -4.91 KCAL/MOL
REMARK 922        TOTAL FREE ENERGY PREDICTED BY IDOCK:   -6.85 KCAL/MOL
REMARK 923 INTER-LIGAND FREE ENERGY PREDICTED BY IDOCK:   -6.68 KCAL/MOL
REMARK 924 INTRA-LIGAND FREE ENERGY PREDICTED BY IDOCK:   -0.17 KCAL/MOL
REMARK 927      BINDING AFFINITY PREDICTED BY RF-SCORE:    0.00 PKD
ROOT
HETATM    1  S   UNL     1     -12.011  13.420  68.746  1.00  0.00    -0.268 S  
HETATM    2  C   UNL     1     -11.591  14.881  69.471  1.00  0.00    -0.303 C  
ENDROOT
BRANCH   2   3
HETATM    3  S   UNL     1     -10.143  15.781  68.960  1.00  0.00    -0.242 SA 
BRANCH   3   4
HETATM    4  S   UNL     1     -10.426  15.902  66.907  1.00  0.00    -0.306 SA 
BRANCH   4   5
HETATM    5  C   UNL     1      -9.877  14.318  66.311  1.00  0.00    -0.307 C  
HETATM    6  S   UNL     1      -8.572  13.582  67.094  1.00  0.00    -0.162 S  
BRANCH   5   7
HETATM    7  N   UNL     1     -10.658  13.716  65.296  1.00  0.00    -0.328 N  
HETATM    8  C   UNL     1     -10.827  11.759  63.757  1.00  0.00    -0.490 C  
HETATM    9  C   UNL     1     -10.037  13.003  64.162  1.00  0.00    -0.121 C  
HETATM   10  C   UNL     1     -12.291  12.084  63.489  1.00  0.00    -0.661 C  
HETATM   11  C   UNL     1     -12.898  12.808  64.684  1.00  0.00    -0.355 C  
HETATM   12  C   UNL     1     -12.078  14.040  65.071  1.00  0.00    -0.415 C  
ENDBRANCH   5   7
ENDBRANCH   4   5
ENDBRANCH   3   4
ENDBRANCH   2   3
BRANCH   2  13
HETATM   13  N   UNL     1     -12.322  15.480  70.502  1.00  0.00    -0.402 N  
HETATM   14  C   UNL     1     -11.812  15.579  72.932  1.00  0.00    -0.565 C  
HETATM   15  C   UNL     1     -13.734  15.169  70.748  1.00  0.00    -0.183 C  
HETATM   16  C   UNL     1     -11.675  16.256  71.571  1.00  0.00    -0.403 C  
HETATM   17  C   UNL     1     -13.900  14.456  72.095  1.00  0.00    -0.572 C  
HETATM   18  C   UNL     1     -13.274  15.257  73.236  1.00  0.00    -0.593 C  
ENDBRANCH   2  13
TORSDOF 5
ENDMDL
MODEL       25
REMARK 921   NORMALIZED FREE ENERGY PREDICTED BY IDOCK:   -4.89 KCAL/MOL
REMARK 922        TOTAL FREE ENERGY PREDICTED BY IDOCK:   -6.81 KCAL/MOL
REMARK 923 INTER-LIGAND FREE ENERGY PREDICTED BY IDOCK:   -6.47 KCAL/MOL
REMARK 924 INTRA-LIGAND FREE ENERGY PREDICTED BY IDOCK:   -0.34 KCAL/MOL
REMARK 927      BINDING AFFINITY PREDICTED BY RF-SCORE:    0.00 PKD
ROOT
HETATM    1  S   UNL     1     -10.687  14.830  64.899  1.00  0.00    -0.378 S  
HETATM    2  C   UNL     1     -10.328  13.359  65.638  1.00  0.00    -0.290 C  
ENDROOT
BRANCH   2   3
HETATM    3  S   UNL     1      -9.673  13.294  67.291  1.00  0.00    -0.238 SA 
BRANCH   3   4
HETATM    4  S   UNL     1     -10.881  14.665  68.276  1.00  0.00    -0.253 SA 
BRANCH   4   5
HETATM    5  C   UNL     1     -11.698  13.691  69.521  1.00  0.00    -0.322 C  
HETATM    6  S   UNL     1     -11.619  12.008  69.392  1.00  0.00    -0.335 S  
BRANCH   5   7
HETATM    7  N   UNL     1     -12.253  14.396  70.615  1.00  0.00    -0.320 N  
HETATM    8  C   UNL     1     -13.114  14.173  72.947  1.00  0.00    -0.544 C  
HETATM    9  C   UNL     1     -13.292  13.795  71.476  1.00  0.00    -0.318 C  
HETATM   10  C   UNL     1     -13.027  15.682  73.134  1.00  0.00    -0.645 C  
HETATM   11  C   UNL     1     -11.939  16.262  72.238  1.00  0.00    -0.605 C  
HETATM   12  C   UNL     1     -12.138  15.857  70.778  1.00  0.00    -0.355 C  
ENDBRANCH   5   7
ENDBRANCH   4   5
ENDBRANCH   3   4
ENDBRANCH   2   3
BRANCH   2  13
HETATM   13  N   UNL     1     -10.508  12.114  65.026  1.00  0.00    -0.280 N  
HETATM   14  C   UNL     1      -9.014  10.128  65.048  1.00  0.00    -0.227 C  
HETATM   15  C   UNL     1     -10.777  11.973  63.592  1.00  0.00    -0.449 C  
HETATM   16  C   UNL     1     -10.182  10.853  65.711  1.00  0.00    -0.259 C  
HETATM   17  C   UNL     1      -9.603  11.278  62.891  1.00  0.00    -0.377 C  
HETATM   18  C   UNL     1      -9.265   9.942  63.553  1.00  0.00    -0.279 C  
ENDBRANCH   2  13
TORSDOF 5
ENDMDL
MODEL       26
REMARK 921   NORMALIZED FREE ENERGY PREDICTED BY IDOCK:   -4.87 KCAL/MOL
REMARK 922        TOTAL FREE ENERGY PREDICTED BY IDOCK:   -6.79 KCAL/MOL
REMARK 923 INTER-LIGAND FREE ENERGY PREDICTED BY IDOCK:   -6.32 KCAL/MOL
REMARK 924 INTRA-LIGAND FREE ENERGY PREDICTED BY IDOCK:   -0.47 KCAL/MOL
REMARK 927      BINDING AFFINITY PREDICTED BY RF-SCORE:    0.00 PKD
ROOT
HETATM    1  S   UNL     1      -9.155  11.580  66.347  1.00  0.00    -0.201 S  
HETATM    2  C   UNL     1     -10.647  12.151  66.884  1.00  0.00    -0.229 C  
ENDROOT
BRANCH   2   3
HETATM    3  S   UNL     1     -11.757  11.107  67.805  1.00  0.00    -0.005 SA 
BRANCH   3   4
HETATM    4  S   UNL     1     -10.904  11.154  69.697  1.00  0.00    -0.072 SA 
BRANCH   4   5
HETATM    5  C   UNL     1     -12.286  11.454  70.776  1.00  0.00    -0.386 C  
HETATM    6  S   UNL     1     -13.008  10.126  71.533  1.00  0.00    -0.472 S  
BRANCH   5   7
HETATM    7  N   UNL     1     -12.610  12.808  71.031  1.00  0.00    -0.335 N  
HETATM    8  C   UNL     1     -13.193  14.454  72.814  1.00  0.00    -0.611 C  
HETATM    9  C   UNL     1     -13.598  13.186  72.061  1.00  0.00    -0.465 C  
HETATM   10  C   UNL     1     -12.900  15.604  71.860  1.00  0.00    -0.522 C  
HETATM   11  C   UNL     1     -11.871  15.179  70.821  1.00  0.00    -0.371 C  
HETATM   12  C   UNL     1     -12.299  13.903  70.095  1.00  0.00    -0.334 C  
ENDBRANCH   5   7
ENDBRANCH   4   5
ENDBRANCH   3   4
ENDBRANCH   2   3
BRANCH   2  13
HETATM   13  N   UNL     1     -11.116  13.447  66.651  1.00  0.00    -0.291 N  
HETATM   14  C   UNL     1     -12.079  14.417  64.575  1.00  0.00    -0.498 C  
HETATM   15  C   UNL     1     -10.296  14.637  66.900  1.00  0.00    -0.264 C  
HETATM   16  C   UNL     1     -12.353  13.708  65.898  1.00  0.00    -0.471 C  
HETATM   17  C   UNL     1      -9.974  15.352  65.582  1.00  0.00    -0.396 C  
HETATM   18  C   UNL     1     -11.243  15.676  64.793  1.00  0.00    -0.391 C  
ENDBRANCH   2  13
TORSDOF 5
ENDMDL
MODEL       27
REMARK 921   NORMALIZED FREE ENERGY PREDICTED BY IDOCK:   -4.87 KCAL/MOL
REMARK 922        TOTAL FREE ENERGY PREDICTED BY IDOCK:   -6.78 KCAL/MOL
REMARK 923 INTER-LIGAND FREE ENERGY PREDICTED BY IDOCK:   -6.24 KCAL/MOL
REMARK 924 INTRA-LIGAND FREE ENERGY PREDICTED BY IDOCK:   -0.55 KCAL/MOL
REMARK 927      BINDING AFFINITY PREDICTED BY RF-SCORE:    0.00 PKD
ROOT
HETATM    1  S   UNL     1      -9.269  11.983  68.186  1.00  0.00    -0.195 S  
HETATM    2  C   UNL     1      -9.866  12.906  66.909  1.00  0.00    -0.235 C  
ENDROOT
BRANCH   2   3
HETATM    3  S   UNL     1      -9.314  14.577  66.644  1.00  0.00    -0.279 SA 
BRANCH   3   4
HETATM    4  S   UNL     1      -8.871  15.186  68.579  1.00  0.00    -0.193 SA 
BRANCH   4   5
HETATM    5  C   UNL     1     -10.294  16.140  69.058  1.00  0.00    -0.258 C  
HETATM    6  S   UNL     1     -10.496  17.669  68.365  1.00  0.00    -0.326 S  
BRANCH   5   7
HETATM    7  N   UNL     1     -11.237  15.498  69.895  1.00  0.00    -0.286 N  
HETATM    8  C   UNL     1     -12.294  13.308  70.454  1.00  0.00    -0.365 C  
HETATM    9  C   UNL     1     -12.086  14.396  69.401  1.00  0.00    -0.297 C  
HETATM   10  C   UNL     1     -12.818  13.884  71.763  1.00  0.00    -0.421 C  
HETATM   11  C   UNL     1     -11.911  15.010  72.245  1.00  0.00    -0.441 C  
HETATM   12  C   UNL     1     -11.714  16.074  71.165  1.00  0.00    -0.439 C  
ENDBRANCH   5   7
ENDBRANCH   4   5
ENDBRANCH   3   4
ENDBRANCH   2   3
BRANCH   2  13
HETATM   13  N   UNL     1     -10.814  12.447  65.990  1.00  0.00    -0.265 N  
HETATM   14  C   UNL     1     -10.571  12.059  63.547  1.00  0.00    -0.514 C  
HETATM   15  C   UNL     1     -12.121  13.090  65.820  1.00  0.00    -0.454 C  
HETATM   16  C   UNL     1     -10.482  11.462  64.949  1.00  0.00    -0.305 C  
HETATM   17  C   UNL     1     -12.227  13.731  64.431  1.00  0.00    -0.440 C  
HETATM   18  C   UNL     1     -11.928  12.723  63.323  1.00  0.00    -0.522 C  
ENDBRANCH   2  13
TORSDOF 5
ENDMDL
MODEL       28
REMARK 921   NORMALIZED FREE ENERGY PREDICTED BY IDOCK:   -4.87 KCAL/MOL
REMARK 922        TOTAL FREE ENERGY PREDICTED BY IDOCK:   -6.78 KCAL/MOL
REMARK 923 INTER-LIGAND FREE ENERGY PREDICTED BY IDOCK:   -6.39 KCAL/MOL
REMARK 924 INTRA-LIGAND FREE ENERGY PREDICTED BY IDOCK:   -0.40 KCAL/MOL
REMARK 927      BINDING AFFINITY PREDICTED BY RF-SCORE:    0.00 PKD
ROOT
HETATM    1  S   UNL     1     -10.325   8.208  67.155  1.00  0.00    -0.326 S  
HETATM    2  C   UNL     1     -10.182   8.699  68.760  1.00  0.00    -0.207 C  
ENDROOT
BRANCH   2   3
HETATM    3  S   UNL     1      -9.925  10.410  69.180  1.00  0.00    -0.228 SA 
BRANCH   3   4
HETATM    4  S   UNL     1     -11.798  10.952  69.894  1.00  0.00    -0.379 SA 
BRANCH   4   5
HETATM    5  C   UNL     1     -11.855  12.712  69.635  1.00  0.00    -0.311 C  
HETATM    6  S   UNL     1     -11.507  13.300  68.090  1.00  0.00    -0.335 S  
BRANCH   5   7
HETATM    7  N   UNL     1     -12.317  13.498  70.717  1.00  0.00    -0.362 N  
HETATM    8  C   UNL     1     -12.616  15.831  71.549  1.00  0.00    -0.517 C  
HETATM    9  C   UNL     1     -11.633  14.743  71.118  1.00  0.00    -0.270 C  
HETATM   10  C   UNL     1     -13.565  15.334  72.631  1.00  0.00    -0.617 C  
HETATM   11  C   UNL     1     -14.260  14.056  72.178  1.00  0.00    -0.628 C  
HETATM   12  C   UNL     1     -13.250  12.994  71.742  1.00  0.00    -0.392 C  
ENDBRANCH   5   7
ENDBRANCH   4   5
ENDBRANCH   3   4
ENDBRANCH   2   3
BRANCH   2  13
HETATM   13  N   UNL     1     -10.247   7.829  69.852  1.00  0.00    -0.208 N  
HETATM   14  C   UNL     1     -12.246   6.970  71.055  1.00  0.00    -0.419 C  
HETATM   15  C   UNL     1      -9.526   8.081  71.103  1.00  0.00    -0.153 C  
HETATM   16  C   UNL     1     -11.239   6.745  69.930  1.00  0.00    -0.326 C  
HETATM   17  C   UNL     1     -10.512   8.346  72.247  1.00  0.00    -0.407 C  
HETATM   18  C   UNL     1     -11.533   7.216  72.383  1.00  0.00    -0.303 C  
ENDBRANCH   2  13
TORSDOF 5
ENDMDL
MODEL       29
REMARK 921   NORMALIZED FREE ENERGY PREDICTED BY IDOCK:   -4.86 KCAL/MOL
REMARK 922        TOTAL FREE ENERGY PREDICTED BY IDOCK:   -6.78 KCAL/MOL
REMARK 923 INTER-LIGAND FREE ENERGY PREDICTED BY IDOCK:   -6.42 KCAL/MOL
REMARK 924 INTRA-LIGAND FREE ENERGY PREDICTED BY IDOCK:   -0.35 KCAL/MOL
REMARK 927      BINDING AFFINITY PREDICTED BY RF-SCORE:    0.00 PKD
ROOT
HETATM    1  S   UNL     1     -12.327  11.588  70.587  1.00  0.00    -0.323 S  
HETATM    2  C   UNL     1     -12.325  13.238  70.247  1.00  0.00    -0.264 C  
ENDROOT
BRANCH   2   3
HETATM    3  S   UNL     1     -11.563  13.873  68.769  1.00  0.00    -0.360 SA 
BRANCH   3   4
HETATM    4  S   UNL     1     -11.886  12.319  67.429  1.00  0.00    -0.154 SA 
BRANCH   4   5
HETATM    5  C   UNL     1     -11.551  13.053  65.843  1.00  0.00    -0.363 C  
HETATM    6  S   UNL     1     -12.442  12.511  64.513  1.00  0.00    -0.405 S  
BRANCH   5   7
HETATM    7  N   UNL     1     -10.646  14.140  65.825  1.00  0.00    -0.290 N  
HETATM    8  C   UNL     1     -10.455  16.624  65.967  1.00  0.00    -0.306 C  
HETATM    9  C   UNL     1     -10.993  15.425  65.186  1.00  0.00    -0.418 C  
HETATM   10  C   UNL     1      -8.959  16.504  66.221  1.00  0.00    -0.359 C  
HETATM   11  C   UNL     1      -8.642  15.172  66.890  1.00  0.00    -0.289 C  
HETATM   12  C   UNL     1      -9.203  13.996  66.091  1.00  0.00    -0.031 C  
ENDBRANCH   5   7
ENDBRANCH   4   5
ENDBRANCH   3   4
ENDBRANCH   2   3
BRANCH   2  13
HETATM   13  N   UNL     1     -12.899  14.207  71.075  1.00  0.00    -0.343 N  
HETATM   14  C   UNL     1     -11.908  16.315  71.942  1.00  0.00    -0.538 C  
HETATM   15  C   UNL     1     -13.493  13.879  72.375  1.00  0.00    -0.560 C  
HETATM   16  C   UNL     1     -12.719  15.647  70.835  1.00  0.00    -0.445 C  
HETATM   17  C   UNL     1     -12.678  14.508  73.512  1.00  0.00    -0.329 C  
HETATM   18  C   UNL     1     -12.508  16.014  73.314  1.00  0.00    -0.645 C  
ENDBRANCH   2  13
TORSDOF 5
ENDMDL
MODEL       30
REMARK 921   NORMALIZED FREE ENERGY PREDICTED BY IDOCK:   -4.86 KCAL/MOL
REMARK 922        TOTAL FREE ENERGY PREDICTED BY IDOCK:   -6.78 KCAL/MOL
REMARK 923 INTER-LIGAND FREE ENERGY PREDICTED BY IDOCK:   -6.42 KCAL/MOL
REMARK 924 INTRA-LIGAND FREE ENERGY PREDICTED BY IDOCK:   -0.36 KCAL/MOL
REMARK 927      BINDING AFFINITY PREDICTED BY RF-SCORE:    0.00 PKD
ROOT
HETATM    1  S   UNL     1      -8.811  12.643  67.918  1.00  0.00    -0.190 S  
HETATM    2  C   UNL     1     -10.428  12.175  67.981  1.00  0.00    -0.212 C  
ENDROOT
BRANCH   2   3
HETATM    3  S   UNL     1     -11.705  13.169  67.240  1.00  0.00    -0.373 SA 
BRANCH   3   4
HETATM    4  S   UNL     1     -10.627  14.819  66.586  1.00  0.00    -0.305 SA 
BRANCH   4   5
HETATM    5  C   UNL     1     -10.941  16.049  67.832  1.00  0.00    -0.327 C  
HETATM    6  S   UNL     1     -11.651  15.550  69.282  1.00  0.00    -0.379 S  
BRANCH   5   7
HETATM    7  N   UNL     1     -10.452  17.352  67.575  1.00  0.00    -0.354 N  
HETATM    8  C   UNL     1     -10.591  19.302  66.024  1.00  0.00    -0.550 C  
HETATM    9  C   UNL     1     -10.213  17.831  66.199  1.00  0.00    -0.339 C  
HETATM   10  C   UNL     1      -9.906  20.186  67.058  1.00  0.00    -0.595 C  
HETATM   11  C   UNL     1     -10.185  19.666  68.463  1.00  0.00    -0.529 C  
HETATM   12  C   UNL     1      -9.808  18.191  68.602  1.00  0.00    -0.377 C  
ENDBRANCH   5   7
ENDBRANCH   4   5
ENDBRANCH   3   4
ENDBRANCH   2   3
BRANCH   2  13
HETATM   13  N   UNL     1     -10.879  11.008  68.606  1.00  0.00    -0.198 N  
HETATM   14  C   UNL     1     -11.958  10.737  70.828  1.00  0.00    -0.464 C  
HETATM   15  C   UNL     1     -10.014   9.843  68.815  1.00  0.00    -0.173 C  
HETATM   16  C   UNL     1     -12.158  10.954  69.331  1.00  0.00    -0.290 C  
HETATM   17  C   UNL     1      -9.766   9.620  70.311  1.00  0.00    -0.314 C  
HETATM   18  C   UNL     1     -11.077   9.517  71.089  1.00  0.00    -0.450 C  
ENDBRANCH   2  13
TORSDOF 5
ENDMDL
MODEL       31
REMARK 921   NORMALIZED FREE ENERGY PREDICTED BY IDOCK:   -4.86 KCAL/MOL
REMARK 922        TOTAL FREE ENERGY PREDICTED BY IDOCK:   -6.77 KCAL/MOL
REMARK 923 INTER-LIGAND FREE ENERGY PREDICTED BY IDOCK:   -6.43 KCAL/MOL
REMARK 924 INTRA-LIGAND FREE ENERGY PREDICTED BY IDOCK:   -0.34 KCAL/MOL
REMARK 927      BINDING AFFINITY PREDICTED BY RF-SCORE:    0.00 PKD
ROOT
HETATM    1  S   UNL     1      -8.361  11.113  66.386  1.00  0.00    -0.155 S  
HETATM    2  C   UNL     1      -9.537  12.317  66.455  1.00  0.00    -0.237 C  
ENDROOT
BRANCH   2   3
HETATM    3  S   UNL     1      -9.983  13.082  67.998  1.00  0.00    -0.238 SA 
BRANCH   3   4
HETATM    4  S   UNL     1      -9.048  14.929  67.837  1.00  0.00    -0.186 SA 
BRANCH   4   5
HETATM    5  C   UNL     1     -10.372  16.095  68.068  1.00  0.00    -0.271 C  
HETATM    6  S   UNL     1     -11.773  15.562  68.849  1.00  0.00    -0.351 S  
BRANCH   5   7
HETATM    7  N   UNL     1     -10.110  17.435  67.695  1.00  0.00    -0.314 N  
HETATM    8  C   UNL     1     -10.559  19.188  65.977  1.00  0.00    -0.524 C  
HETATM    9  C   UNL     1      -9.937  17.825  66.282  1.00  0.00    -0.318 C  
HETATM   10  C   UNL     1     -10.051  20.263  66.928  1.00  0.00    -0.565 C  
HETATM   11  C   UNL     1     -10.256  19.829  68.374  1.00  0.00    -0.568 C  
HETATM   12  C   UNL     1      -9.634  18.459  68.643  1.00  0.00    -0.340 C  
ENDBRANCH   5   7
ENDBRANCH   4   5
ENDBRANCH   3   4
ENDBRANCH   2   3
BRANCH   2  13
HETATM   13  N   UNL     1     -10.235  12.791  65.340  1.00  0.00    -0.286 N  
HETATM   14  C   UNL     1     -12.688  13.019  65.006  1.00  0.00    -0.475 C  
HETATM   15  C   UNL     1     -10.042  12.237  63.996  1.00  0.00    -0.325 C  
HETATM   16  C   UNL     1     -11.395  13.687  65.466  1.00  0.00    -0.298 C  
HETATM   17  C   UNL     1     -11.315  11.527  63.520  1.00  0.00    -0.375 C  
HETATM   18  C   UNL     1     -12.534  12.445  63.599  1.00  0.00    -0.610 C  
ENDBRANCH   2  13
TORSDOF 5
ENDMDL
MODEL       32
REMARK 921   NORMALIZED FREE ENERGY PREDICTED BY IDOCK:   -4.80 KCAL/MOL
REMARK 922        TOTAL FREE ENERGY PREDICTED BY IDOCK:   -6.70 KCAL/MOL
REMARK 923 INTER-LIGAND FREE ENERGY PREDICTED BY IDOCK:   -6.30 KCAL/MOL
REMARK 924 INTRA-LIGAND FREE ENERGY PREDICTED BY IDOCK:   -0.40 KCAL/MOL
REMARK 927      BINDING AFFINITY PREDICTED BY RF-SCORE:    0.00 PKD
ROOT
HETATM    1  S   UNL     1      -9.422   9.300  70.552  1.00  0.00    -0.274 S  
HETATM    2  C   UNL     1     -11.021   9.814  70.671  1.00  0.00    -0.331 C  
ENDROOT
BRANCH   2   3
HETATM    3  S   UNL     1     -11.641  11.141  69.659  1.00  0.00    -0.358 SA 
BRANCH   3   4
HETATM    4  S   UNL     1      -9.960  11.642  68.548  1.00  0.00    -0.173 SA 
BRANCH   4   5
HETATM    5  C   UNL     1     -10.281  10.927  66.951  1.00  0.00    -0.228 C  
HETATM    6  S   UNL     1     -10.114   9.254  66.780  1.00  0.00    -0.262 S  
BRANCH   5   7
HETATM    7  N   UNL     1     -10.784  11.799  65.955  1.00  0.00    -0.270 N  
HETATM    8  C   UNL     1     -11.817  11.906  63.686  1.00  0.00    -0.573 C  
HETATM    9  C   UNL     1     -10.592  11.523  64.517  1.00  0.00    -0.329 C  
HETATM   10  C   UNL     1     -12.236  13.349  63.935  1.00  0.00    -0.478 C  
HETATM   11  C   UNL     1     -12.434  13.591  65.427  1.00  0.00    -0.540 C  
HETATM   12  C   UNL     1     -11.197  13.186  66.230  1.00  0.00    -0.301 C  
ENDBRANCH   5   7
ENDBRANCH   4   5
ENDBRANCH   3   4
ENDBRANCH   2   3
BRANCH   2  13
HETATM   13  N   UNL     1     -11.957   9.259  71.550  1.00  0.00    -0.342 N  
HETATM   14  C   UNL     1     -13.032   7.020  71.485  1.00  0.00    -0.411 C  
HETATM   15  C   UNL     1     -13.221   9.925  71.877  1.00  0.00    -0.458 C  
HETATM   16  C   UNL     1     -11.870   7.863  72.004  1.00  0.00    -0.318 C  
HETATM   17  C   UNL     1     -14.408   9.118  71.336  1.00  0.00    -0.071 C  
HETATM   18  C   UNL     1     -14.372   7.671  71.824  1.00  0.00    -0.586 C  
ENDBRANCH   2  13
TORSDOF 5
ENDMDL
MODEL       33
REMARK 921   NORMALIZED FREE ENERGY PREDICTED BY IDOCK:   -4.79 KCAL/MOL
REMARK 922        TOTAL FREE ENERGY PREDICTED BY IDOCK:   -6.69 KCAL/MOL
REMARK 923 INTER-LIGAND FREE ENERGY PREDICTED BY IDOCK:   -6.38 KCAL/MOL
REMARK 924 INTRA-LIGAND FREE ENERGY PREDICTED BY IDOCK:   -0.31 KCAL/MOL
REMARK 927      BINDING AFFINITY PREDICTED BY RF-SCORE:    0.00 PKD
ROOT
HETATM    1  S   UNL     1     -10.294  10.141  69.454  1.00  0.00    -0.247 S  
HETATM    2  C   UNL     1     -11.501  10.323  70.615  1.00  0.00    -0.349 C  
ENDROOT
BRANCH   2   3
HETATM    3  S   UNL     1     -12.291  11.895  70.885  1.00  0.00    -0.194 SA 
BRANCH   3   4
HETATM    4  S   UNL     1     -11.753  12.935  69.171  1.00  0.00    -0.321 SA 
BRANCH   4   5
HETATM    5  C   UNL     1     -11.272  14.536  69.781  1.00  0.00    -0.234 C  
HETATM    6  S   UNL     1      -9.965  15.310  69.040  1.00  0.00    -0.240 S  
BRANCH   5   7
HETATM    7  N   UNL     1     -12.103  15.114  70.769  1.00  0.00    -0.308 N  
HETATM    8  C   UNL     1     -14.320  14.954  71.904  1.00  0.00    -0.667 C  
HETATM    9  C   UNL     1     -13.567  15.198  70.596  1.00  0.00    -0.125 C  
HETATM   10  C   UNL     1     -13.828  15.871  73.016  1.00  0.00    -0.477 C  
HETATM   11  C   UNL     1     -12.317  15.748  73.171  1.00  0.00    -0.591 C  
HETATM   12  C   UNL     1     -11.595  15.986  71.844  1.00  0.00    -0.431 C  
ENDBRANCH   5   7
ENDBRANCH   4   5
ENDBRANCH   3   4
ENDBRANCH   2   3
BRANCH   2  13
HETATM   13  N   UNL     1     -11.960   9.286  71.433  1.00  0.00    -0.327 N  
HETATM   14  C   UNL     1     -12.328   6.892  70.874  1.00  0.00    -0.365 C  
HETATM   15  C   UNL     1     -13.221   9.369  72.177  1.00  0.00    -0.460 C  
HETATM   16  C   UNL     1     -11.358   7.944  71.407  1.00  0.00    -0.252 C  
HETATM   17  C   UNL     1     -14.230   8.347  71.640  1.00  0.00    -0.516 C  
HETATM   18  C   UNL     1     -13.650   6.933  71.638  1.00  0.00    -0.275 C  
ENDBRANCH   2  13
TORSDOF 5
ENDMDL
MODEL       34
REMARK 921   NORMALIZED FREE ENERGY PREDICTED BY IDOCK:   -4.79 KCAL/MOL
REMARK 922        TOTAL FREE ENERGY PREDICTED BY IDOCK:   -6.68 KCAL/MOL
REMARK 923 INTER-LIGAND FREE ENERGY PREDICTED BY IDOCK:   -6.33 KCAL/MOL
REMARK 924 INTRA-LIGAND FREE ENERGY PREDICTED BY IDOCK:   -0.36 KCAL/MOL
REMARK 927      BINDING AFFINITY PREDICTED BY RF-SCORE:    0.00 PKD
ROOT
HETATM    1  S   UNL     1      -9.415   9.373  66.010  1.00  0.00    -0.260 S  
HETATM    2  C   UNL     1     -10.356  10.636  66.606  1.00  0.00    -0.241 C  
ENDROOT
BRANCH   2   3
HETATM    3  S   UNL     1     -11.144  10.528  68.198  1.00  0.00    -0.281 SA 
BRANCH   3   4
HETATM    4  S   UNL     1      -9.707   9.522  69.310  1.00  0.00    -0.186 SA 
BRANCH   4   5
HETATM    5  C   UNL     1     -10.556   8.066  69.879  1.00  0.00    -0.242 C  
HETATM    6  S   UNL     1      -9.969   6.560  69.386  1.00  0.00    -0.162 S  
BRANCH   5   7
HETATM    7  N   UNL     1     -11.595   8.264  70.818  1.00  0.00    -0.268 N  
HETATM    8  C   UNL     1     -13.076   9.971  71.878  1.00  0.00    -0.563 C  
HETATM    9  C   UNL     1     -11.647   9.466  71.673  1.00  0.00    -0.396 C  
HETATM   10  C   UNL     1     -13.993   8.869  72.393  1.00  0.00    -0.516 C  
HETATM   11  C   UNL     1     -13.920   7.652  71.480  1.00  0.00    -0.500 C  
HETATM   12  C   UNL     1     -12.478   7.180  71.287  1.00  0.00    -0.386 C  
ENDBRANCH   5   7
ENDBRANCH   4   5
ENDBRANCH   3   4
ENDBRANCH   2   3
BRANCH   2  13
HETATM   13  N   UNL     1     -10.589  11.830  65.915  1.00  0.00    -0.262 N  
HETATM   14  C   UNL     1     -12.022  13.757  66.554  1.00  0.00    -0.470 C  
HETATM   15  C   UNL     1     -11.066  11.856  64.528  1.00  0.00    -0.325 C  
HETATM   16  C   UNL     1     -10.630  13.133  66.596  1.00  0.00    -0.279 C  
HETATM   17  C   UNL     1     -12.479  12.447  64.458  1.00  0.00    -0.519 C  
HETATM   18  C   UNL     1     -12.547  13.822  65.121  1.00  0.00    -0.471 C  
ENDBRANCH   2  13
TORSDOF 5
ENDMDL
MODEL       35
REMARK 921   NORMALIZED FREE ENERGY PREDICTED BY IDOCK:   -4.77 KCAL/MOL
REMARK 922        TOTAL FREE ENERGY PREDICTED BY IDOCK:   -6.66 KCAL/MOL
REMARK 923 INTER-LIGAND FREE ENERGY PREDICTED BY IDOCK:   -6.39 KCAL/MOL
REMARK 924 INTRA-LIGAND FREE ENERGY PREDICTED BY IDOCK:   -0.27 KCAL/MOL
REMARK 927      BINDING AFFINITY PREDICTED BY RF-SCORE:    0.00 PKD
ROOT
HETATM    1  S   UNL     1     -13.356   8.128  71.868  1.00  0.00    -0.299 S  
HETATM    2  C   UNL     1     -11.705   8.349  71.618  1.00  0.00    -0.298 C  
ENDROOT
BRANCH   2   3
HETATM    3  S   UNL     1     -11.077   9.833  70.861  1.00  0.00    -0.361 SA 
BRANCH   3   4
HETATM    4  S   UNL     1     -12.751  11.061  70.894  1.00  0.00    -0.337 SA 
BRANCH   4   5
HETATM    5  C   UNL     1     -12.136  12.628  70.318  1.00  0.00    -0.294 C  
HETATM    6  S   UNL     1     -11.308  12.665  68.845  1.00  0.00    -0.314 S  
BRANCH   5   7
HETATM    7  N   UNL     1     -12.496  13.768  71.074  1.00  0.00    -0.367 N  
HETATM    8  C   UNL     1     -13.029  14.597  73.367  1.00  0.00    -0.483 C  
HETATM    9  C   UNL     1     -13.430  13.677  72.214  1.00  0.00    -0.555 C  
HETATM   10  C   UNL     1     -12.844  16.035  72.900  1.00  0.00    -0.552 C  
HETATM   11  C   UNL     1     -11.867  16.089  71.732  1.00  0.00    -0.599 C  
HETATM   12  C   UNL     1     -12.290  15.149  70.603  1.00  0.00    -0.368 C  
ENDBRANCH   5   7
ENDBRANCH   4   5
ENDBRANCH   3   4
ENDBRANCH   2   3
BRANCH   2  13
HETATM   13  N   UNL     1     -10.730   7.410  71.970  1.00  0.00    -0.215 N  
HETATM   14  C   UNL     1     -11.004   5.211  73.094  1.00  0.00    -0.368 C  
HETATM   15  C   UNL     1      -9.567   7.756  72.794  1.00  0.00    -0.221 C  
HETATM   16  C   UNL     1     -10.926   5.966  71.770  1.00  0.00    -0.269 C  
HETATM   17  C   UNL     1      -9.636   7.038  74.148  1.00  0.00    -0.298 C  
HETATM   18  C   UNL     1      -9.798   5.528  73.975  1.00  0.00    -0.191 C  
ENDBRANCH   2  13
TORSDOF 5
ENDMDL
MODEL       36
REMARK 921   NORMALIZED FREE ENERGY PREDICTED BY IDOCK:   -4.77 KCAL/MOL
REMARK 922        TOTAL FREE ENERGY PREDICTED BY IDOCK:   -6.66 KCAL/MOL
REMARK 923 INTER-LIGAND FREE ENERGY PREDICTED BY IDOCK:   -6.31 KCAL/MOL
REMARK 924 INTRA-LIGAND FREE ENERGY PREDICTED BY IDOCK:   -0.35 KCAL/MOL
REMARK 927      BINDING AFFINITY PREDICTED BY RF-SCORE:    0.00 PKD
ROOT
HETATM    1  S   UNL     1     -13.790   8.987  71.990  1.00  0.00    -0.432 S  
HETATM    2  C   UNL     1     -12.365   9.492  71.247  1.00  0.00    -0.345 C  
ENDROOT
BRANCH   2   3
HETATM    3  S   UNL     1     -12.189  11.149  70.620  1.00  0.00    -0.400 SA 
BRANCH   3   4
HETATM    4  S   UNL     1     -11.450  10.799  68.712  1.00  0.00    -0.284 SA 
BRANCH   4   5
HETATM    5  C   UNL     1     -11.649  12.365  67.889  1.00  0.00    -0.356 C  
HETATM    6  S   UNL     1     -11.908  13.737  68.842  1.00  0.00    -0.371 S  
BRANCH   5   7
HETATM    7  N   UNL     1     -11.447  12.376  66.489  1.00  0.00    -0.350 N  
HETATM    8  C   UNL     1     -10.364  11.180  64.585  1.00  0.00    -0.393 C  
HETATM    9  C   UNL     1     -10.166  11.953  65.888  1.00  0.00    -0.236 C  
HETATM   10  C   UNL     1     -11.224  11.955  63.596  1.00  0.00    -0.522 C  
HETATM   11  C   UNL     1     -12.540  12.364  64.248  1.00  0.00    -0.494 C  
HETATM   12  C   UNL     1     -12.307  13.124  65.554  1.00  0.00    -0.474 C  
ENDBRANCH   5   7
ENDBRANCH   4   5
ENDBRANCH   3   4
ENDBRANCH   2   3
BRANCH   2  13
HETATM   13  N   UNL     1     -11.246   8.672  71.065  1.00  0.00    -0.261 N  
HETATM   14  C   UNL     1     -11.010   6.231  71.466  1.00  0.00    -0.322 C  
HETATM   15  C   UNL     1      -9.950   8.962  71.686  1.00  0.00    -0.327 C  
HETATM   16  C   UNL     1     -11.347   7.333  70.465  1.00  0.00    -0.280 C  
HETATM   17  C   UNL     1      -9.600   7.889  72.724  1.00  0.00    -0.311 C  
HETATM   18  C   UNL     1      -9.654   6.486  72.121  1.00  0.00    -0.151 C  
ENDBRANCH   2  13
TORSDOF 5
ENDMDL
MODEL       37
REMARK 921   NORMALIZED FREE ENERGY PREDICTED BY IDOCK:   -4.76 KCAL/MOL
REMARK 922        TOTAL FREE ENERGY PREDICTED BY IDOCK:   -6.64 KCAL/MOL
REMARK 923 INTER-LIGAND FREE ENERGY PREDICTED BY IDOCK:   -6.30 KCAL/MOL
REMARK 924 INTRA-LIGAND FREE ENERGY PREDICTED BY IDOCK:   -0.35 KCAL/MOL
REMARK 927      BINDING AFFINITY PREDICTED BY RF-SCORE:    0.00 PKD
ROOT
HETATM    1  S   UNL     1     -10.294   8.508  67.303  1.00  0.00    -0.303 S  
HETATM    2  C   UNL     1     -10.414   8.415  68.981  1.00  0.00    -0.201 C  
ENDROOT
BRANCH   2   3
HETATM    3  S   UNL     1     -10.008   9.807  70.013  1.00  0.00    -0.255 SA 
BRANCH   3   4
HETATM    4  S   UNL     1     -11.335  11.245  69.320  1.00  0.00    -0.316 SA 
BRANCH   4   5
HETATM    5  C   UNL     1     -12.394  11.550  70.717  1.00  0.00    -0.375 C  
HETATM    6  S   UNL     1     -12.929  10.222  71.615  1.00  0.00    -0.483 S  
BRANCH   5   7
HETATM    7  N   UNL     1     -12.615  12.905  71.062  1.00  0.00    -0.345 N  
HETATM    8  C   UNL     1     -13.077  14.468  72.952  1.00  0.00    -0.614 C  
HETATM    9  C   UNL     1     -13.575  13.288  72.117  1.00  0.00    -0.562 C  
HETATM   10  C   UNL     1     -12.694  15.654  72.077  1.00  0.00    -0.508 C  
HETATM   11  C   UNL     1     -11.696  15.222  71.009  1.00  0.00    -0.394 C  
HETATM   12  C   UNL     1     -12.218  14.033  70.201  1.00  0.00    -0.359 C  
ENDBRANCH   5   7
ENDBRANCH   4   5
ENDBRANCH   3   4
ENDBRANCH   2   3
BRANCH   2  13
HETATM   13  N   UNL     1     -10.826   7.270  69.672  1.00  0.00    -0.238 N  
HETATM   14  C   UNL     1      -9.809   6.194  71.668  1.00  0.00    -0.191 C  
HETATM   15  C   UNL     1     -11.032   5.981  69.005  1.00  0.00    -0.339 C  
HETATM   16  C   UNL     1     -10.826   7.202  71.141  1.00  0.00    -0.239 C  
HETATM   17  C   UNL     1     -10.000   4.955  69.489  1.00  0.00    -0.295 C  
HETATM   18  C   UNL     1     -10.004   4.829  71.012  1.00  0.00    -0.279 C  
ENDBRANCH   2  13
TORSDOF 5
ENDMDL
MODEL       38
REMARK 921   NORMALIZED FREE ENERGY PREDICTED BY IDOCK:   -4.75 KCAL/MOL
REMARK 922        TOTAL FREE ENERGY PREDICTED BY IDOCK:   -6.64 KCAL/MOL
REMARK 923 INTER-LIGAND FREE ENERGY PREDICTED BY IDOCK:   -6.01 KCAL/MOL
REMARK 924 INTRA-LIGAND FREE ENERGY PREDICTED BY IDOCK:   -0.63 KCAL/MOL
REMARK 927      BINDING AFFINITY PREDICTED BY RF-SCORE:    0.00 PKD
ROOT
HETATM    1  S   UNL     1      -8.937  10.687  65.681  1.00  0.00    -0.190 S  
HETATM    2  C   UNL     1      -9.348  11.932  66.739  1.00  0.00    -0.201 C  
ENDROOT
BRANCH   2   3
HETATM    3  S   UNL     1      -9.706  11.606  68.452  1.00  0.00    -0.188 SA 
BRANCH   3   4
HETATM    4  S   UNL     1     -11.754  11.943  68.524  1.00  0.00    -0.316 SA 
BRANCH   4   5
HETATM    5  C   UNL     1     -12.140  11.828  70.257  1.00  0.00    -0.342 C  
HETATM    6  S   UNL     1     -11.847  10.360  71.041  1.00  0.00    -0.339 S  
BRANCH   5   7
HETATM    7  N   UNL     1     -12.548  13.022  70.897  1.00  0.00    -0.323 N  
HETATM    8  C   UNL     1     -12.834  15.484  70.607  1.00  0.00    -0.466 C  
HETATM    9  C   UNL     1     -11.861  14.306  70.651  1.00  0.00    -0.281 C  
HETATM   10  C   UNL     1     -13.707  15.539  71.854  1.00  0.00    -0.593 C  
HETATM   11  C   UNL     1     -14.407  14.202  72.067  1.00  0.00    -0.599 C  
HETATM   12  C   UNL     1     -13.408  13.044  72.094  1.00  0.00    -0.524 C  
ENDBRANCH   5   7
ENDBRANCH   4   5
ENDBRANCH   3   4
ENDBRANCH   2   3
BRANCH   2  13
HETATM   13  N   UNL     1      -9.441  13.277  66.364  1.00  0.00    -0.247 N  
HETATM   14  C   UNL     1      -9.877  15.272  67.780  1.00  0.00    -0.220 C  
HETATM   15  C   UNL     1     -10.359  13.740  65.320  1.00  0.00    -0.361 C  
HETATM   16  C   UNL     1      -8.829  14.354  67.158  1.00  0.00    -0.229 C  
HETATM   17  C   UNL     1     -11.447  14.639  65.921  1.00  0.00    -0.338 C  
HETATM   18  C   UNL     1     -10.844  15.794  66.719  1.00  0.00    -0.254 C  
ENDBRANCH   2  13
TORSDOF 5
ENDMDL
MODEL       39
REMARK 921   NORMALIZED FREE ENERGY PREDICTED BY IDOCK:   -4.73 KCAL/MOL
REMARK 922        TOTAL FREE ENERGY PREDICTED BY IDOCK:   -6.61 KCAL/MOL
REMARK 923 INTER-LIGAND FREE ENERGY PREDICTED BY IDOCK:   -6.32 KCAL/MOL
REMARK 924 INTRA-LIGAND FREE ENERGY PREDICTED BY IDOCK:   -0.29 KCAL/MOL
REMARK 927      BINDING AFFINITY PREDICTED BY RF-SCORE:    0.00 PKD
ROOT
HETATM    1  S   UNL     1     -12.740  10.624  71.241  1.00  0.00    -0.459 S  
HETATM    2  C   UNL     1     -11.396   9.900  70.528  1.00  0.00    -0.327 C  
ENDROOT
BRANCH   2   3
HETATM    3  S   UNL     1     -10.541  10.676  69.174  1.00  0.00    -0.240 SA 
BRANCH   3   4
HETATM    4  S   UNL     1     -11.732  12.340  68.823  1.00  0.00    -0.335 SA 
BRANCH   4   5
HETATM    5  C   UNL     1     -10.866  13.215  67.538  1.00  0.00    -0.255 C  
HETATM    6  S   UNL     1      -9.449  14.037  67.951  1.00  0.00    -0.217 S  
BRANCH   5   7
HETATM    7  N   UNL     1     -11.357  13.055  66.220  1.00  0.00    -0.305 N  
HETATM    8  C   UNL     1     -12.313  14.254  64.251  1.00  0.00    -0.407 C  
HETATM    9  C   UNL     1     -12.493  13.852  65.715  1.00  0.00    -0.495 C  
HETATM   10  C   UNL     1     -12.032  13.046  63.367  1.00  0.00    -0.592 C  
HETATM   11  C   UNL     1     -10.849  12.256  63.914  1.00  0.00    -0.464 C  
HETATM   12  C   UNL     1     -11.055  11.881  65.382  1.00  0.00    -0.306 C  
ENDBRANCH   5   7
ENDBRANCH   4   5
ENDBRANCH   3   4
ENDBRANCH   2   3
BRANCH   2  13
HETATM   13  N   UNL     1     -10.867   8.669  70.930  1.00  0.00    -0.229 N  
HETATM   14  C   UNL     1     -12.025   6.493  71.245  1.00  0.00    -0.364 C  
HETATM   15  C   UNL     1     -10.099   8.510  72.169  1.00  0.00    -0.323 C  
HETATM   16  C   UNL     1     -11.258   7.404  70.291  1.00  0.00    -0.247 C  
HETATM   17  C   UNL     1     -10.862   7.627  73.164  1.00  0.00    -0.440 C  
HETATM   18  C   UNL     1     -11.247   6.285  72.543  1.00  0.00    -0.316 C  
ENDBRANCH   2  13
TORSDOF 5
ENDMDL
MODEL       40
REMARK 921   NORMALIZED FREE ENERGY PREDICTED BY IDOCK:   -4.72 KCAL/MOL
REMARK 922        TOTAL FREE ENERGY PREDICTED BY IDOCK:   -6.60 KCAL/MOL
REMARK 923 INTER-LIGAND FREE ENERGY PREDICTED BY IDOCK:   -6.24 KCAL/MOL
REMARK 924 INTRA-LIGAND FREE ENERGY PREDICTED BY IDOCK:   -0.36 KCAL/MOL
REMARK 927      BINDING AFFINITY PREDICTED BY RF-SCORE:    0.00 PKD
ROOT
HETATM    1  S   UNL     1      -8.861   9.597  69.499  1.00  0.00    -0.206 S  
HETATM    2  C   UNL     1     -10.418  10.204  69.717  1.00  0.00    -0.263 C  
ENDROOT
BRANCH   2   3
HETATM    3  S   UNL     1     -11.250  11.093  68.418  1.00  0.00    -0.290 SA 
BRANCH   3   4
HETATM    4  S   UNL     1     -10.038  12.765  68.209  1.00  0.00    -0.230 SA 
BRANCH   4   5
HETATM    5  C   UNL     1     -11.067  13.927  67.340  1.00  0.00    -0.298 C  
HETATM    6  S   UNL     1     -11.494  15.359  68.130  1.00  0.00    -0.316 S  
BRANCH   5   7
HETATM    7  N   UNL     1     -11.354  13.631  65.986  1.00  0.00    -0.308 N  
HETATM    8  C   UNL     1     -10.462  12.586  63.904  1.00  0.00    -0.464 C  
HETATM    9  C   UNL     1     -10.313  13.698  64.941  1.00  0.00    -0.388 C  
HETATM   10  C   UNL     1     -11.863  12.557  63.306  1.00  0.00    -0.498 C  
HETATM   11  C   UNL     1     -12.907  12.477  64.413  1.00  0.00    -0.366 C  
HETATM   12  C   UNL     1     -12.723  13.595  65.440  1.00  0.00    -0.453 C  
ENDBRANCH   5   7
ENDBRANCH   4   5
ENDBRANCH   3   4
ENDBRANCH   2   3
BRANCH   2  13
HETATM   13  N   UNL     1     -11.152  10.066  70.899  1.00  0.00    -0.339 N  
HETATM   14  C   UNL     1     -12.050   8.002  71.953  1.00  0.00    -0.359 C  
HETATM   15  C   UNL     1     -12.393  10.806  71.145  1.00  0.00    -0.393 C  
HETATM   16  C   UNL     1     -10.886   8.986  71.862  1.00  0.00    -0.343 C  
HETATM   17  C   UNL     1     -13.587   9.846  71.207  1.00  0.00    -0.265 C  
HETATM   18  C   UNL     1     -13.362   8.733  72.231  1.00  0.00    -0.460 C  
ENDBRANCH   2  13
TORSDOF 5
ENDMDL
MODEL       41
REMARK 921   NORMALIZED FREE ENERGY PREDICTED BY IDOCK:   -4.71 KCAL/MOL
REMARK 922        TOTAL FREE ENERGY PREDICTED BY IDOCK:   -6.59 KCAL/MOL
REMARK 923 INTER-LIGAND FREE ENERGY PREDICTED BY IDOCK:   -6.28 KCAL/MOL
REMARK 924 INTRA-LIGAND FREE ENERGY PREDICTED BY IDOCK:   -0.30 KCAL/MOL
REMARK 927      BINDING AFFINITY PREDICTED BY RF-SCORE:    0.00 PKD
ROOT
HETATM    1  S   UNL     1     -12.949  10.642  71.533  1.00  0.00    -0.460 S  
HETATM    2  C   UNL     1     -11.803   9.451  71.207  1.00  0.00    -0.360 C  
ENDROOT
BRANCH   2   3
HETATM    3  S   UNL     1     -10.442   9.759  70.102  1.00  0.00    -0.304 SA 
BRANCH   3   4
HETATM    4  S   UNL     1     -11.214  11.262  68.895  1.00  0.00    -0.282 SA 
BRANCH   4   5
HETATM    5  C   UNL     1     -10.751  10.763  67.251  1.00  0.00    -0.274 C  
HETATM    6  S   UNL     1     -10.124   9.208  67.039  1.00  0.00    -0.267 S  
BRANCH   5   7
HETATM    7  N   UNL     1     -11.062  11.663  66.204  1.00  0.00    -0.300 N  
HETATM    8  C   UNL     1     -11.484  11.855  63.752  1.00  0.00    -0.542 C  
HETATM    9  C   UNL     1     -10.483  11.509  64.855  1.00  0.00    -0.291 C  
HETATM   10  C   UNL     1     -12.089  13.237  63.955  1.00  0.00    -0.531 C  
HETATM   11  C   UNL     1     -12.685  13.353  65.352  1.00  0.00    -0.484 C  
HETATM   12  C   UNL     1     -11.663  12.990  66.430  1.00  0.00    -0.390 C  
ENDBRANCH   5   7
ENDBRANCH   4   5
ENDBRANCH   3   4
ENDBRANCH   2   3
BRANCH   2  13
HETATM   13  N   UNL     1     -11.832   8.167  71.760  1.00  0.00    -0.284 N  
HETATM   14  C   UNL     1      -9.968   6.825  72.708  1.00  0.00    -0.190 C  
HETATM   15  C   UNL     1     -12.378   7.012  71.039  1.00  0.00    -0.356 C  
HETATM   16  C   UNL     1     -11.089   7.824  72.982  1.00  0.00    -0.359 C  
HETATM   17  C   UNL     1     -11.267   6.005  70.718  1.00  0.00    -0.340 C  
HETATM   18  C   UNL     1     -10.500   5.596  71.975  1.00  0.00    -0.270 C  
ENDBRANCH   2  13
TORSDOF 5
ENDMDL
MODEL       42
REMARK 921   NORMALIZED FREE ENERGY PREDICTED BY IDOCK:   -4.70 KCAL/MOL
REMARK 922        TOTAL FREE ENERGY PREDICTED BY IDOCK:   -6.57 KCAL/MOL
REMARK 923 INTER-LIGAND FREE ENERGY PREDICTED BY IDOCK:   -6.26 KCAL/MOL
REMARK 924 INTRA-LIGAND FREE ENERGY PREDICTED BY IDOCK:   -0.31 KCAL/MOL
REMARK 927      BINDING AFFINITY PREDICTED BY RF-SCORE:    0.00 PKD
ROOT
HETATM    1  S   UNL     1     -10.780   6.652  68.974  1.00  0.00    -0.275 S  
HETATM    2  C   UNL     1     -10.854   8.060  69.895  1.00  0.00    -0.217 C  
ENDROOT
BRANCH   2   3
HETATM    3  S   UNL     1      -9.901   9.499  69.458  1.00  0.00    -0.207 SA 
BRANCH   3   4
HETATM    4  S   UNL     1     -10.011   9.461  67.385  1.00  0.00    -0.215 SA 
BRANCH   4   5
HETATM    5  C   UNL     1      -9.807  11.166  66.920  1.00  0.00    -0.194 C  
HETATM    6  S   UNL     1      -8.603  12.064  67.698  1.00  0.00    -0.173 S  
BRANCH   5   7
HETATM    7  N   UNL     1     -10.585  11.625  65.831  1.00  0.00    -0.264 N  
HETATM    8  C   UNL     1     -11.899  13.553  64.946  1.00  0.00    -0.402 C  
HETATM    9  C   UNL     1     -11.767  12.487  66.034  1.00  0.00    -0.417 C  
HETATM   10  C   UNL     1     -11.877  12.940  63.552  1.00  0.00    -0.605 C  
HETATM   11  C   UNL     1     -10.640  12.067  63.378  1.00  0.00    -0.478 C  
HETATM   12  C   UNL     1     -10.531  11.021  64.488  1.00  0.00    -0.342 C  
ENDBRANCH   5   7
ENDBRANCH   4   5
ENDBRANCH   3   4
ENDBRANCH   2   3
BRANCH   2  13
HETATM   13  N   UNL     1     -11.641   8.203  71.042  1.00  0.00    -0.280 N  
HETATM   14  C   UNL     1     -13.917   7.316  71.502  1.00  0.00    -0.486 C  
HETATM   15  C   UNL     1     -11.969   9.513  71.614  1.00  0.00    -0.401 C  
HETATM   16  C   UNL     1     -12.413   7.084  71.606  1.00  0.00    -0.374 C  
HETATM   17  C   UNL     1     -13.473   9.791  71.491  1.00  0.00    -0.417 C  
HETATM   18  C   UNL     1     -14.304   8.665  72.106  1.00  0.00    -0.518 C  
ENDBRANCH   2  13
TORSDOF 5
ENDMDL
MODEL       43
REMARK 921   NORMALIZED FREE ENERGY PREDICTED BY IDOCK:   -4.70 KCAL/MOL
REMARK 922        TOTAL FREE ENERGY PREDICTED BY IDOCK:   -6.56 KCAL/MOL
REMARK 923 INTER-LIGAND FREE ENERGY PREDICTED BY IDOCK:   -6.16 KCAL/MOL
REMARK 924 INTRA-LIGAND FREE ENERGY PREDICTED BY IDOCK:   -0.40 KCAL/MOL
REMARK 927      BINDING AFFINITY PREDICTED BY RF-SCORE:    0.00 PKD
ROOT
HETATM    1  S   UNL     1     -11.943  12.400  63.631  1.00  0.00    -0.566 S  
HETATM    2  C   UNL     1     -11.440  12.798  65.189  1.00  0.00    -0.321 C  
ENDROOT
BRANCH   2   3
HETATM    3  S   UNL     1     -12.021  14.274  65.997  1.00  0.00    -0.386 SA 
BRANCH   3   4
HETATM    4  S   UNL     1     -10.808  15.726  65.142  1.00  0.00    -0.397 SA 
BRANCH   4   5
HETATM    5  C   UNL     1      -9.691  16.169  66.454  1.00  0.00    -0.286 C  
HETATM    6  S   UNL     1      -8.695  14.961  67.092  1.00  0.00    -0.232 S  
BRANCH   5   7
HETATM    7  N   UNL     1      -9.618  17.542  66.789  1.00  0.00    -0.271 N  
HETATM    8  C   UNL     1      -8.086  19.379  67.498  1.00  0.00    -0.315 C  
HETATM    9  C   UNL     1      -8.717  18.032  67.851  1.00  0.00    -0.257 C  
HETATM   10  C   UNL     1      -9.140  20.414  67.127  1.00  0.00    -0.489 C  
HETATM   11  C   UNL     1     -10.043  19.876  66.023  1.00  0.00    -0.589 C  
HETATM   12  C   UNL     1     -10.647  18.524  66.402  1.00  0.00    -0.325 C  
ENDBRANCH   5   7
ENDBRANCH   4   5
ENDBRANCH   3   4
ENDBRANCH   2   3
BRANCH   2  13
HETATM   13  N   UNL     1     -10.551  12.026  65.944  1.00  0.00    -0.256 N  
HETATM   14  C   UNL     1      -9.757   9.706  65.539  1.00  0.00    -0.372 C  
HETATM   15  C   UNL     1     -10.747  11.775  67.375  1.00  0.00    -0.236 C  
HETATM   16  C   UNL     1      -9.510  11.196  65.317  1.00  0.00    -0.226 C  
HETATM   17  C   UNL     1     -11.031  10.289  67.625  1.00  0.00    -0.356 C  
HETATM   18  C   UNL     1      -9.945   9.399  67.023  1.00  0.00    -0.282 C  
ENDBRANCH   2  13
TORSDOF 5
ENDMDL
MODEL       44
REMARK 921   NORMALIZED FREE ENERGY PREDICTED BY IDOCK:   -4.69 KCAL/MOL
REMARK 922        TOTAL FREE ENERGY PREDICTED BY IDOCK:   -6.56 KCAL/MOL
REMARK 923 INTER-LIGAND FREE ENERGY PREDICTED BY IDOCK:   -6.14 KCAL/MOL
REMARK 924 INTRA-LIGAND FREE ENERGY PREDICTED BY IDOCK:   -0.41 KCAL/MOL
REMARK 927      BINDING AFFINITY PREDICTED BY RF-SCORE:    0.00 PKD
ROOT
HETATM    1  S   UNL     1      -8.553  10.496  65.355  1.00  0.00    -0.180 S  
HETATM    2  C   UNL     1      -9.389  11.760  66.091  1.00  0.00    -0.225 C  
ENDROOT
BRANCH   2   3
HETATM    3  S   UNL     1      -9.546  11.854  67.862  1.00  0.00    -0.199 SA 
BRANCH   3   4
HETATM    4  S   UNL     1     -11.511  11.245  68.142  1.00  0.00    -0.299 SA 
BRANCH   4   5
HETATM    5  C   UNL     1     -11.863  11.712  69.822  1.00  0.00    -0.357 C  
HETATM    6  S   UNL     1     -12.149  13.345  70.151  1.00  0.00    -0.303 S  
BRANCH   5   7
HETATM    7  N   UNL     1     -12.007  10.659  70.757  1.00  0.00    -0.349 N  
HETATM    8  C   UNL     1     -13.658   9.298  72.041  1.00  0.00    -0.519 C  
HETATM    9  C   UNL     1     -13.059  10.682  71.792  1.00  0.00    -0.466 C  
HETATM   10  C   UNL     1     -12.581   8.267  72.352  1.00  0.00    -0.323 C  
HETATM   11  C   UNL     1     -11.520   8.265  71.257  1.00  0.00    -0.314 C  
HETATM   12  C   UNL     1     -10.952   9.665  71.025  1.00  0.00    -0.361 C  
ENDBRANCH   5   7
ENDBRANCH   4   5
ENDBRANCH   3   4
ENDBRANCH   2   3
BRANCH   2  13
HETATM   13  N   UNL     1     -10.009  12.800  65.390  1.00  0.00    -0.240 N  
HETATM   14  C   UNL     1     -11.794  14.354  66.147  1.00  0.00    -0.391 C  
HETATM   15  C   UNL     1     -10.653  12.596  64.089  1.00  0.00    -0.407 C  
HETATM   16  C   UNL     1     -10.295  14.101  66.013  1.00  0.00    -0.309 C  
HETATM   17  C   UNL     1     -12.167  12.810  64.200  1.00  0.00    -0.506 C  
HETATM   18  C   UNL     1     -12.500  14.173  64.805  1.00  0.00    -0.395 C  
ENDBRANCH   2  13
TORSDOF 5
ENDMDL
MODEL       45
REMARK 921   NORMALIZED FREE ENERGY PREDICTED BY IDOCK:   -4.68 KCAL/MOL
REMARK 922        TOTAL FREE ENERGY PREDICTED BY IDOCK:   -6.55 KCAL/MOL
REMARK 923 INTER-LIGAND FREE ENERGY PREDICTED BY IDOCK:   -5.88 KCAL/MOL
REMARK 924 INTRA-LIGAND FREE ENERGY PREDICTED BY IDOCK:   -0.67 KCAL/MOL
REMARK 927      BINDING AFFINITY PREDICTED BY RF-SCORE:    0.00 PKD
ROOT
HETATM    1  S   UNL     1      -7.745  15.776  69.129  1.00  0.00    -0.230 S  
HETATM    2  C   UNL     1      -8.311  16.753  67.878  1.00  0.00    -0.195 C  
ENDROOT
BRANCH   2   3
HETATM    3  S   UNL     1      -8.549  16.105  66.237  1.00  0.00    -0.303 SA 
BRANCH   3   4
HETATM    4  S   UNL     1     -10.576  15.654  66.255  1.00  0.00    -0.299 SA 
BRANCH   4   5
HETATM    5  C   UNL     1     -10.678  14.207  67.285  1.00  0.00    -0.279 C  
HETATM    6  S   UNL     1      -9.720  12.874  66.881  1.00  0.00    -0.246 S  
BRANCH   5   7
HETATM    7  N   UNL     1     -11.464  14.316  68.456  1.00  0.00    -0.280 N  
HETATM    8  C   UNL     1     -12.273  13.097  70.478  1.00  0.00    -0.405 C  
HETATM    9  C   UNL     1     -12.275  13.186  68.952  1.00  0.00    -0.060 C  
HETATM   10  C   UNL     1     -12.687  14.415  71.119  1.00  0.00    -0.422 C  
HETATM   11  C   UNL     1     -11.821  15.553  70.591  1.00  0.00    -0.400 C  
HETATM   12  C   UNL     1     -11.835  15.607  69.063  1.00  0.00    -0.364 C  
ENDBRANCH   5   7
ENDBRANCH   4   5
ENDBRANCH   3   4
ENDBRANCH   2   3
BRANCH   2  13
HETATM   13  N   UNL     1      -8.623  18.109  68.025  1.00  0.00    -0.259 N  
HETATM   14  C   UNL     1     -10.756  19.288  67.541  1.00  0.00    -0.571 C  
HETATM   15  C   UNL     1      -7.823  19.172  67.408  1.00  0.00    -0.243 C  
HETATM   16  C   UNL     1      -9.909  18.559  68.580  1.00  0.00    -0.385 C  
HETATM   17  C   UNL     1      -8.638  19.900  66.333  1.00  0.00    -0.386 C  
HETATM   18  C   UNL     1      -9.964  20.419  66.888  1.00  0.00    -0.549 C  
ENDBRANCH   2  13
TORSDOF 5
ENDMDL
MODEL       46
REMARK 921   NORMALIZED FREE ENERGY PREDICTED BY IDOCK:   -4.68 KCAL/MOL
REMARK 922        TOTAL FREE ENERGY PREDICTED BY IDOCK:   -6.54 KCAL/MOL
REMARK 923 INTER-LIGAND FREE ENERGY PREDICTED BY IDOCK:   -6.15 KCAL/MOL
REMARK 924 INTRA-LIGAND FREE ENERGY PREDICTED BY IDOCK:   -0.40 KCAL/MOL
REMARK 927      BINDING AFFINITY PREDICTED BY RF-SCORE:    0.00 PKD
ROOT
HETATM    1  S   UNL     1     -12.174  11.551  70.363  1.00  0.00    -0.333 S  
HETATM    2  C   UNL     1     -11.965  13.196  70.065  1.00  0.00    -0.321 C  
ENDROOT
BRANCH   2   3
HETATM    3  S   UNL     1     -10.729  13.776  68.923  1.00  0.00    -0.189 SA 
BRANCH   3   4
HETATM    4  S   UNL     1     -11.620  13.362  67.094  1.00  0.00    -0.381 SA 
BRANCH   4   5
HETATM    5  C   UNL     1     -11.181  14.760  66.085  1.00  0.00    -0.337 C  
HETATM    6  S   UNL     1     -11.897  14.896  64.560  1.00  0.00    -0.332 S  
BRANCH   5   7
HETATM    7  N   UNL     1     -10.353  15.739  66.682  1.00  0.00    -0.285 N  
HETATM    8  C   UNL     1     -10.254  17.523  68.425  1.00  0.00    -0.372 C  
HETATM    9  C   UNL     1     -10.890  17.043  67.120  1.00  0.00    -0.082 C  
HETATM   10  C   UNL     1      -8.733  17.537  68.337  1.00  0.00    -0.276 C  
HETATM   11  C   UNL     1      -8.217  16.174  67.893  1.00  0.00    -0.159 C  
HETATM   12  C   UNL     1      -8.882  15.718  66.594  1.00  0.00    -0.288 C  
ENDBRANCH   5   7
ENDBRANCH   4   5
ENDBRANCH   3   4
ENDBRANCH   2   3
BRANCH   2  13
HETATM   13  N   UNL     1     -12.720  14.202  70.676  1.00  0.00    -0.333 N  
HETATM   14  C   UNL     1     -11.944  16.180  71.966  1.00  0.00    -0.607 C  
HETATM   15  C   UNL     1     -13.783  13.912  71.643  1.00  0.00    -0.316 C  
HETATM   16  C   UNL     1     -12.337  15.621  70.602  1.00  0.00    -0.413 C  
HETATM   17  C   UNL     1     -13.400  14.431  73.034  1.00  0.00    -0.484 C  
HETATM   18  C   UNL     1     -13.036  15.915  73.000  1.00  0.00    -0.639 C  
ENDBRANCH   2  13
TORSDOF 5
ENDMDL
MODEL       47
REMARK 921   NORMALIZED FREE ENERGY PREDICTED BY IDOCK:   -4.67 KCAL/MOL
REMARK 922        TOTAL FREE ENERGY PREDICTED BY IDOCK:   -6.52 KCAL/MOL
REMARK 923 INTER-LIGAND FREE ENERGY PREDICTED BY IDOCK:   -6.11 KCAL/MOL
REMARK 924 INTRA-LIGAND FREE ENERGY PREDICTED BY IDOCK:   -0.41 KCAL/MOL
REMARK 927      BINDING AFFINITY PREDICTED BY RF-SCORE:    0.00 PKD
ROOT
HETATM    1  S   UNL     1      -8.758   7.878  69.723  1.00  0.00    -0.138 S  
HETATM    2  C   UNL     1     -10.033   8.965  69.541  1.00  0.00    -0.191 C  
ENDROOT
BRANCH   2   3
HETATM    3  S   UNL     1     -10.606   9.451  67.928  1.00  0.00    -0.211 SA 
BRANCH   3   4
HETATM    4  S   UNL     1      -9.159  10.830  67.365  1.00  0.00    -0.143 SA 
BRANCH   4   5
HETATM    5  C   UNL     1     -10.079  12.335  67.131  1.00  0.00    -0.208 C  
HETATM    6  S   UNL     1      -9.841  13.592  68.235  1.00  0.00    -0.229 S  
BRANCH   5   7
HETATM    7  N   UNL     1     -10.857  12.426  65.953  1.00  0.00    -0.262 N  
HETATM    8  C   UNL     1     -12.198  13.968  64.521  1.00  0.00    -0.463 C  
HETATM    9  C   UNL     1     -12.055  13.286  65.881  1.00  0.00    -0.441 C  
HETATM   10  C   UNL     1     -12.155  12.961  63.379  1.00  0.00    -0.610 C  
HETATM   11  C   UNL     1     -10.902  12.102  63.481  1.00  0.00    -0.518 C  
HETATM   12  C   UNL     1     -10.782  11.444  64.856  1.00  0.00    -0.286 C  
ENDBRANCH   5   7
ENDBRANCH   4   5
ENDBRANCH   3   4
ENDBRANCH   2   3
BRANCH   2  13
HETATM   13  N   UNL     1     -10.715   9.555  70.610  1.00  0.00    -0.284 N  
HETATM   14  C   UNL     1     -12.304   8.521  72.218  1.00  0.00    -0.450 C  
HETATM   15  C   UNL     1     -11.558  10.743  70.446  1.00  0.00    -0.339 C  
HETATM   16  C   UNL     1     -10.853   8.886  71.913  1.00  0.00    -0.363 C  
HETATM   17  C   UNL     1     -13.028  10.399  70.711  1.00  0.00    -0.422 C  
HETATM   18  C   UNL     1     -13.214   9.740  72.077  1.00  0.00    -0.557 C  
ENDBRANCH   2  13
TORSDOF 5
ENDMDL
MODEL       48
REMARK 921   NORMALIZED FREE ENERGY PREDICTED BY IDOCK:   -4.64 KCAL/MOL
REMARK 922        TOTAL FREE ENERGY PREDICTED BY IDOCK:   -6.49 KCAL/MOL
REMARK 923 INTER-LIGAND FREE ENERGY PREDICTED BY IDOCK:   -6.09 KCAL/MOL
REMARK 924 INTRA-LIGAND FREE ENERGY PREDICTED BY IDOCK:   -0.40 KCAL/MOL
REMARK 927      BINDING AFFINITY PREDICTED BY RF-SCORE:    0.00 PKD
ROOT
HETATM    1  S   UNL     1     -12.789  11.840  70.969  1.00  0.00    -0.119 S  
HETATM    2  C   UNL     1     -11.810  11.095  69.818  1.00  0.00    -0.349 C  
ENDROOT
BRANCH   2   3
HETATM    3  S   UNL     1     -11.516  11.846  68.232  1.00  0.00    -0.334 SA 
BRANCH   3   4
HETATM    4  S   UNL     1     -12.004  13.829  68.609  1.00  0.00    -0.319 SA 
BRANCH   4   5
HETATM    5  C   UNL     1     -11.277  14.710  67.246  1.00  0.00    -0.337 C  
HETATM    6  S   UNL     1     -10.308  16.051  67.592  1.00  0.00    -0.291 S  
BRANCH   5   7
HETATM    7  N   UNL     1     -11.454  14.147  65.960  1.00  0.00    -0.334 N  
HETATM    8  C   UNL     1     -10.337  12.864  64.134  1.00  0.00    -0.385 C  
HETATM    9  C   UNL     1     -10.370  14.152  64.957  1.00  0.00    -0.418 C  
HETATM   10  C   UNL     1     -11.690  12.564  63.504  1.00  0.00    -0.595 C  
HETATM   11  C   UNL     1     -12.779  12.558  64.570  1.00  0.00    -0.440 C  
HETATM   12  C   UNL     1     -12.778  13.853  65.382  1.00  0.00    -0.490 C  
ENDBRANCH   5   7
ENDBRANCH   4   5
ENDBRANCH   3   4
ENDBRANCH   2   3
BRANCH   2  13
HETATM   13  N   UNL     1     -11.176   9.863  70.013  1.00  0.00    -0.264 N  
HETATM   14  C   UNL     1     -10.484   8.774  72.137  1.00  0.00    -0.384 C  
HETATM   15  C   UNL     1      -9.915   9.515  69.351  1.00  0.00    -0.191 C  
HETATM   16  C   UNL     1     -11.577   8.938  71.084  1.00  0.00    -0.300 C  
HETATM   17  C   UNL     1      -8.788   9.378  70.382  1.00  0.00    -0.290 C  
HETATM   18  C   UNL     1      -9.156   8.390  71.489  1.00  0.00    -0.254 C  
ENDBRANCH   2  13
TORSDOF 5
ENDMDL
MODEL       49
REMARK 921   NORMALIZED FREE ENERGY PREDICTED BY IDOCK:   -4.63 KCAL/MOL
REMARK 922        TOTAL FREE ENERGY PREDICTED BY IDOCK:   -6.48 KCAL/MOL
REMARK 923 INTER-LIGAND FREE ENERGY PREDICTED BY IDOCK:   -6.01 KCAL/MOL
REMARK 924 INTRA-LIGAND FREE ENERGY PREDICTED BY IDOCK:   -0.47 KCAL/MOL
REMARK 927      BINDING AFFINITY PREDICTED BY RF-SCORE:    0.00 PKD
ROOT
HETATM    1  S   UNL     1     -11.729  13.728  69.041  1.00  0.00    -0.350 S  
HETATM    2  C   UNL     1     -11.296  13.973  67.431  1.00  0.00    -0.329 C  
ENDROOT
BRANCH   2   3
HETATM    3  S   UNL     1     -10.081  15.192  66.978  1.00  0.00    -0.247 SA 
BRANCH   3   4
HETATM    4  S   UNL     1     -10.551  16.751  68.267  1.00  0.00    -0.366 SA 
BRANCH   4   5
HETATM    5  C   UNL     1      -9.806  18.173  67.498  1.00  0.00    -0.313 C  
HETATM    6  S   UNL     1     -10.779  19.526  67.217  1.00  0.00    -0.427 S  
BRANCH   5   7
HETATM    7  N   UNL     1      -8.408  18.122  67.290  1.00  0.00    -0.238 N  
HETATM    8  C   UNL     1      -6.338  16.796  67.721  1.00  0.00    -0.164 C  
HETATM    9  C   UNL     1      -7.490  17.601  68.323  1.00  0.00    -0.251 C  
HETATM   10  C   UNL     1      -5.597  17.587  66.652  1.00  0.00    -0.217 C  
HETATM   11  C   UNL     1      -6.574  18.098  65.600  1.00  0.00    -0.277 C  
HETATM   12  C   UNL     1      -7.719  18.888  66.235  1.00  0.00    -0.276 C  
ENDBRANCH   5   7
ENDBRANCH   4   5
ENDBRANCH   3   4
ENDBRANCH   2   3
BRANCH   2  13
HETATM   13  N   UNL     1     -11.844  13.262  66.358  1.00  0.00    -0.376 N  
HETATM   14  C   UNL     1     -10.685  11.988  64.567  1.00  0.00    -0.358 C  
HETATM   15  C   UNL     1     -12.778  13.870  65.406  1.00  0.00    -0.490 C  
HETATM   16  C   UNL     1     -11.330  11.945  65.949  1.00  0.00    -0.308 C  
HETATM   17  C   UNL     1     -12.143  13.959  64.013  1.00  0.00    -0.437 C  
HETATM   18  C   UNL     1     -11.636  12.598  63.539  1.00  0.00    -0.584 C  
ENDBRANCH   2  13
TORSDOF 5
ENDMDL
MODEL       50
REMARK 921   NORMALIZED FREE ENERGY PREDICTED BY IDOCK:   -4.62 KCAL/MOL
REMARK 922        TOTAL FREE ENERGY PREDICTED BY IDOCK:   -6.46 KCAL/MOL
REMARK 923 INTER-LIGAND FREE ENERGY PREDICTED BY IDOCK:   -6.09 KCAL/MOL
REMARK 924 INTRA-LIGAND FREE ENERGY PREDICTED BY IDOCK:   -0.37 KCAL/MOL
REMARK 927      BINDING AFFINITY PREDICTED BY RF-SCORE:    0.00 PKD
ROOT
HETATM    1  S   UNL     1     -10.590  18.881  67.302  1.00  0.00    -0.447 S  
HETATM    2  C   UNL     1      -9.219  18.044  67.812  1.00  0.00    -0.262 C  
ENDROOT
BRANCH   2   3
HETATM    3  S   UNL     1      -9.354  16.503  68.693  1.00  0.00    -0.248 SA 
BRANCH   3   4
HETATM    4  S   UNL     1     -11.404  16.176  68.655  1.00  0.00    -0.323 SA 
BRANCH   4   5
HETATM    5  C   UNL     1     -11.551  14.466  68.187  1.00  0.00    -0.329 C  
HETATM    6  S   UNL     1     -11.827  13.329  69.407  1.00  0.00    -0.319 S  
BRANCH   5   7
HETATM    7  N   UNL     1     -11.554  14.185  66.800  1.00  0.00    -0.372 N  
HETATM    8  C   UNL     1     -12.556  12.747  65.023  1.00  0.00    -0.538 C  
HETATM    9  C   UNL     1     -11.702  12.808  66.290  1.00  0.00    -0.402 C  
HETATM   10  C   UNL     1     -12.038  13.697  63.950  1.00  0.00    -0.462 C  
HETATM   11  C   UNL     1     -11.910  15.108  64.511  1.00  0.00    -0.335 C  
HETATM   12  C   UNL     1     -11.061  15.131  65.783  1.00  0.00    -0.330 C  
ENDBRANCH   5   7
ENDBRANCH   4   5
ENDBRANCH   3   4
ENDBRANCH   2   3
BRANCH   2  13
HETATM   13  N   UNL     1      -7.910  18.483  67.593  1.00  0.00    -0.233 N  
HETATM   14  C   UNL     1      -7.046  20.806  67.403  1.00  0.00    -0.412 C  
HETATM   15  C   UNL     1      -7.106  18.026  66.454  1.00  0.00    -0.247 C  
HETATM   16  C   UNL     1      -7.335  19.623  68.323  1.00  0.00    -0.316 C  
HETATM   17  C   UNL     1      -6.830  19.187  65.492  1.00  0.00    -0.280 C  
HETATM   18  C   UNL     1      -6.193  20.375  66.212  1.00  0.00    -0.239 C  
ENDBRANCH   2  13
TORSDOF 5
ENDMDL
MODEL       51
REMARK 921   NORMALIZED FREE ENERGY PREDICTED BY IDOCK:   -4.62 KCAL/MOL
REMARK 922        TOTAL FREE ENERGY PREDICTED BY IDOCK:   -6.46 KCAL/MOL
REMARK 923 INTER-LIGAND FREE ENERGY PREDICTED BY IDOCK:   -5.96 KCAL/MOL
REMARK 924 INTRA-LIGAND FREE ENERGY PREDICTED BY IDOCK:   -0.51 KCAL/MOL
REMARK 927      BINDING AFFINITY PREDICTED BY RF-SCORE:    0.00 PKD
ROOT
HETATM    1  S   UNL     1     -10.504  14.884  65.110  1.00  0.00    -0.411 S  
HETATM    2  C   UNL     1     -10.207  13.782  66.350  1.00  0.00    -0.292 C  
ENDROOT
BRANCH   2   3
HETATM    3  S   UNL     1      -8.602  13.659  67.109  1.00  0.00    -0.159 SA 
BRANCH   3   4
HETATM    4  S   UNL     1      -7.975  15.639  67.091  1.00  0.00    -0.238 SA 
BRANCH   4   5
HETATM    5  C   UNL     1      -9.017  16.422  68.301  1.00  0.00    -0.206 C  
HETATM    6  S   UNL     1      -9.472  15.526  69.660  1.00  0.00    -0.152 S  
BRANCH   5   7
HETATM    7  N   UNL     1      -9.292  17.797  68.108  1.00  0.00    -0.273 N  
HETATM    8  C   UNL     1      -8.289  20.001  67.505  1.00  0.00    -0.381 C  
HETATM    9  C   UNL     1      -8.325  18.842  68.500  1.00  0.00    -0.346 C  
HETATM   10  C   UNL     1      -9.678  20.577  67.262  1.00  0.00    -0.600 C  
HETATM   11  C   UNL     1     -10.643  19.472  66.850  1.00  0.00    -0.602 C  
HETATM   12  C   UNL     1     -10.646  18.324  67.859  1.00  0.00    -0.370 C  
ENDBRANCH   5   7
ENDBRANCH   4   5
ENDBRANCH   3   4
ENDBRANCH   2   3
BRANCH   2  13
HETATM   13  N   UNL     1     -11.168  12.903  66.860  1.00  0.00    -0.279 N  
HETATM   14  C   UNL     1     -11.728  12.395  69.228  1.00  0.00    -0.386 C  
HETATM   15  C   UNL     1     -11.221  11.488  66.480  1.00  0.00    -0.259 C  
HETATM   16  C   UNL     1     -12.023  13.258  68.003  1.00  0.00    -0.313 C  
HETATM   17  C   UNL     1     -10.893  10.596  67.683  1.00  0.00    -0.346 C  
HETATM   18  C   UNL     1     -11.793  10.910  68.877  1.00  0.00    -0.340 C  
ENDBRANCH   2  13
TORSDOF 5
ENDMDL
MODEL       52
REMARK 921   NORMALIZED FREE ENERGY PREDICTED BY IDOCK:   -4.56 KCAL/MOL
REMARK 922        TOTAL FREE ENERGY PREDICTED BY IDOCK:   -6.38 KCAL/MOL
REMARK 923 INTER-LIGAND FREE ENERGY PREDICTED BY IDOCK:   -6.12 KCAL/MOL
REMARK 924 INTRA-LIGAND FREE ENERGY PREDICTED BY IDOCK:   -0.27 KCAL/MOL
REMARK 927      BINDING AFFINITY PREDICTED BY RF-SCORE:    0.00 PKD
ROOT
HETATM    1  S   UNL     1     -11.630  13.378  68.779  1.00  0.00    -0.348 S  
HETATM    2  C   UNL     1     -12.359  13.194  70.286  1.00  0.00    -0.249 C  
ENDROOT
BRANCH   2   3
HETATM    3  S   UNL     1     -12.477  11.597  71.064  1.00  0.00    -0.258 SA 
BRANCH   3   4
HETATM    4  S   UNL     1     -11.326  10.425  69.793  1.00  0.00    -0.302 SA 
BRANCH   4   5
HETATM    5  C   UNL     1     -11.277   8.843  70.607  1.00  0.00    -0.266 C  
HETATM    6  S   UNL     1     -12.177   8.650  72.025  1.00  0.00    -0.394 S  
BRANCH   5   7
HETATM    7  N   UNL     1     -10.586   7.806  69.937  1.00  0.00    -0.236 N  
HETATM    8  C   UNL     1     -10.844   5.861  68.395  1.00  0.00    -0.322 C  
HETATM    9  C   UNL     1     -11.184   6.468  69.756  1.00  0.00    -0.395 C  
HETATM   10  C   UNL     1      -9.341   5.849  68.145  1.00  0.00    -0.117 C  
HETATM   11  C   UNL     1      -8.764   7.246  68.330  1.00  0.00    -0.122 C  
HETATM   12  C   UNL     1      -9.132   7.829  69.695  1.00  0.00    -0.146 C  
ENDBRANCH   5   7
ENDBRANCH   4   5
ENDBRANCH   3   4
ENDBRANCH   2   3
BRANCH   2  13
HETATM   13  N   UNL     1     -12.915  14.247  71.018  1.00  0.00    -0.342 N  
HETATM   14  C   UNL     1     -11.833  16.327  71.842  1.00  0.00    -0.538 C  
HETATM   15  C   UNL     1     -13.619  14.037  72.288  1.00  0.00    -0.525 C  
HETATM   16  C   UNL     1     -12.613  15.655  70.716  1.00  0.00    -0.431 C  
HETATM   17  C   UNL     1     -12.839  14.673  73.445  1.00  0.00    -0.526 C  
HETATM   18  C   UNL     1     -12.545  16.149  73.181  1.00  0.00    -0.599 C  
ENDBRANCH   2  13
TORSDOF 5
ENDMDL
MODEL       53
REMARK 921   NORMALIZED FREE ENERGY PREDICTED BY IDOCK:   -4.55 KCAL/MOL
REMARK 922        TOTAL FREE ENERGY PREDICTED BY IDOCK:   -6.38 KCAL/MOL
REMARK 923 INTER-LIGAND FREE ENERGY PREDICTED BY IDOCK:   -5.89 KCAL/MOL
REMARK 924 INTRA-LIGAND FREE ENERGY PREDICTED BY IDOCK:   -0.49 KCAL/MOL
REMARK 927      BINDING AFFINITY PREDICTED BY RF-SCORE:    0.00 PKD
ROOT
HETATM    1  S   UNL     1      -9.092   9.971  63.800  1.00  0.00    -0.274 S  
HETATM    2  C   UNL     1      -9.270  11.063  65.070  1.00  0.00    -0.197 C  
ENDROOT
BRANCH   2   3
HETATM    3  S   UNL     1      -8.469  10.793  66.637  1.00  0.00    -0.147 SA 
BRANCH   3   4
HETATM    4  S   UNL     1      -9.641   9.286  67.453  1.00  0.00    -0.157 SA 
BRANCH   4   5
HETATM    5  C   UNL     1      -9.578   9.604  69.203  1.00  0.00    -0.174 C  
HETATM    6  S   UNL     1      -8.065   9.856  69.912  1.00  0.00    -0.173 S  
BRANCH   5   7
HETATM    7  N   UNL     1     -10.820   9.754  69.865  1.00  0.00    -0.255 N  
HETATM    8  C   UNL     1     -12.133   9.107  71.886  1.00  0.00    -0.448 C  
HETATM    9  C   UNL     1     -11.441   8.638  70.606  1.00  0.00    -0.228 C  
HETATM   10  C   UNL     1     -13.127  10.227  71.610  1.00  0.00    -0.553 C  
HETATM   11  C   UNL     1     -12.447  11.362  70.856  1.00  0.00    -0.478 C  
HETATM   12  C   UNL     1     -11.755  10.859  69.588  1.00  0.00    -0.331 C  
ENDBRANCH   5   7
ENDBRANCH   4   5
ENDBRANCH   3   4
ENDBRANCH   2   3
BRANCH   2  13
HETATM   13  N   UNL     1     -10.041  12.228  64.997  1.00  0.00    -0.270 N  
HETATM   14  C   UNL     1     -11.897  12.975  66.472  1.00  0.00    -0.464 C  
HETATM   15  C   UNL     1     -10.767  12.616  63.784  1.00  0.00    -0.417 C  
HETATM   16  C   UNL     1     -10.397  13.007  66.193  1.00  0.00    -0.278 C  
HETATM   17  C   UNL     1     -12.281  12.559  64.022  1.00  0.00    -0.566 C  
HETATM   18  C   UNL     1     -12.690  13.393  65.235  1.00  0.00    -0.481 C  
ENDBRANCH   2  13
TORSDOF 5
ENDMDL
MODEL       54
REMARK 921   NORMALIZED FREE ENERGY PREDICTED BY IDOCK:   -4.55 KCAL/MOL
REMARK 922        TOTAL FREE ENERGY PREDICTED BY IDOCK:   -6.38 KCAL/MOL
REMARK 923 INTER-LIGAND FREE ENERGY PREDICTED BY IDOCK:   -6.12 KCAL/MOL
REMARK 924 INTRA-LIGAND FREE ENERGY PREDICTED BY IDOCK:   -0.25 KCAL/MOL
REMARK 927      BINDING AFFINITY PREDICTED BY RF-SCORE:    0.00 PKD
ROOT
HETATM    1  S   UNL     1     -10.586  19.579  67.436  1.00  0.00    -0.466 S  
HETATM    2  C   UNL     1      -9.369  18.465  67.772  1.00  0.00    -0.274 C  
ENDROOT
BRANCH   2   3
HETATM    3  S   UNL     1      -9.752  16.773  68.171  1.00  0.00    -0.255 SA 
BRANCH   3   4
HETATM    4  S   UNL     1     -10.341  16.029  66.324  1.00  0.00    -0.331 SA 
BRANCH   4   5
HETATM    5  C   UNL     1     -10.863  14.367  66.685  1.00  0.00    -0.304 C  
HETATM    6  S   UNL     1     -11.749  14.101  68.100  1.00  0.00    -0.363 S  
BRANCH   5   7
HETATM    7  N   UNL     1     -10.611  13.392  65.691  1.00  0.00    -0.277 N  
HETATM    8  C   UNL     1     -10.148  10.972  65.293  1.00  0.00    -0.332 C  
HETATM    9  C   UNL     1      -9.666  12.281  65.920  1.00  0.00    -0.235 C  
HETATM   10  C   UNL     1     -10.475  11.144  63.815  1.00  0.00    -0.444 C  
HETATM   11  C   UNL     1     -11.459  12.291  63.621  1.00  0.00    -0.572 C  
HETATM   12  C   UNL     1     -10.953  13.580  64.270  1.00  0.00    -0.336 C  
ENDBRANCH   5   7
ENDBRANCH   4   5
ENDBRANCH   3   4
ENDBRANCH   2   3
BRANCH   2  13
HETATM   13  N   UNL     1      -8.005  18.773  67.768  1.00  0.00    -0.251 N  
HETATM   14  C   UNL     1      -6.598  19.685  69.603  1.00  0.00    -0.365 C  
HETATM   15  C   UNL     1      -7.404  19.672  66.778  1.00  0.00    -0.228 C  
HETATM   16  C   UNL     1      -7.124  18.438  68.898  1.00  0.00    -0.276 C  
HETATM   17  C   UNL     1      -6.898  20.953  67.453  1.00  0.00    -0.434 C  
HETATM   18  C   UNL     1      -5.946  20.641  68.606  1.00  0.00    -0.379 C  
ENDBRANCH   2  13
TORSDOF 5
ENDMDL
MODEL       55
REMARK 921   NORMALIZED FREE ENERGY PREDICTED BY IDOCK:   -4.55 KCAL/MOL
REMARK 922        TOTAL FREE ENERGY PREDICTED BY IDOCK:   -6.37 KCAL/MOL
REMARK 923 INTER-LIGAND FREE ENERGY PREDICTED BY IDOCK:   -6.11 KCAL/MOL
REMARK 924 INTRA-LIGAND FREE ENERGY PREDICTED BY IDOCK:   -0.26 KCAL/MOL
REMARK 927      BINDING AFFINITY PREDICTED BY RF-SCORE:    0.00 PKD
ROOT
HETATM    1  S   UNL     1     -11.925  14.192  65.858  1.00  0.00    -0.418 S  
HETATM    2  C   UNL     1     -11.337  14.961  67.237  1.00  0.00    -0.349 C  
ENDROOT
BRANCH   2   3
HETATM    3  S   UNL     1     -11.930  14.527  68.858  1.00  0.00    -0.255 SA 
BRANCH   3   4
HETATM    4  S   UNL     1     -11.756  12.458  68.828  1.00  0.00    -0.326 SA 
BRANCH   4   5
HETATM    5  C   UNL     1     -12.171  11.975  70.490  1.00  0.00    -0.325 C  
HETATM    6  S   UNL     1     -12.835  13.143  71.515  1.00  0.00    -0.236 S  
BRANCH   5   7
HETATM    7  N   UNL     1     -12.035  10.602  70.805  1.00  0.00    -0.349 N  
HETATM    8  C   UNL     1     -10.441   8.845  71.579  1.00  0.00    -0.393 C  
HETATM    9  C   UNL     1     -10.802   9.854  70.488  1.00  0.00    -0.326 C  
HETATM   10  C   UNL     1     -11.605   7.914  71.891  1.00  0.00    -0.338 C  
HETATM   11  C   UNL     1     -12.854   8.722  72.222  1.00  0.00    -0.465 C  
HETATM   12  C   UNL     1     -13.180   9.728  71.119  1.00  0.00    -0.331 C  
ENDBRANCH   5   7
ENDBRANCH   4   5
ENDBRANCH   3   4
ENDBRANCH   2   3
BRANCH   2  13
HETATM   13  N   UNL     1     -10.371  15.972  67.215  1.00  0.00    -0.290 N  
HETATM   14  C   UNL     1     -10.135  17.946  68.707  1.00  0.00    -0.384 C  
HETATM   15  C   UNL     1     -10.091  16.767  66.016  1.00  0.00    -0.332 C  
HETATM   16  C   UNL     1      -9.755  16.491  68.446  1.00  0.00    -0.236 C  
HETATM   17  C   UNL     1     -10.496  18.230  66.235  1.00  0.00    -0.397 C  
HETATM   18  C   UNL     1      -9.839  18.814  67.485  1.00  0.00    -0.360 C  
ENDBRANCH   2  13
TORSDOF 5
ENDMDL
MODEL       56
REMARK 921   NORMALIZED FREE ENERGY PREDICTED BY IDOCK:   -4.54 KCAL/MOL
REMARK 922        TOTAL FREE ENERGY PREDICTED BY IDOCK:   -6.36 KCAL/MOL
REMARK 923 INTER-LIGAND FREE ENERGY PREDICTED BY IDOCK:   -5.96 KCAL/MOL
REMARK 924 INTRA-LIGAND FREE ENERGY PREDICTED BY IDOCK:   -0.40 KCAL/MOL
REMARK 927      BINDING AFFINITY PREDICTED BY RF-SCORE:    0.00 PKD
ROOT
HETATM    1  S   UNL     1      -9.017  14.530  67.391  1.00  0.00    -0.211 S  
HETATM    2  C   UNL     1      -9.548  13.221  66.473  1.00  0.00    -0.264 C  
ENDROOT
BRANCH   2   3
HETATM    3  S   UNL     1      -9.156  11.548  66.939  1.00  0.00    -0.185 SA 
BRANCH   3   4
HETATM    4  S   UNL     1     -10.908  10.953  67.882  1.00  0.00    -0.269 SA 
BRANCH   4   5
HETATM    5  C   UNL     1     -10.338   9.946  69.234  1.00  0.00    -0.219 C  
HETATM    6  S   UNL     1      -8.683   9.622  69.343  1.00  0.00    -0.186 S  
BRANCH   5   7
HETATM    7  N   UNL     1     -11.301   9.589  70.208  1.00  0.00    -0.249 N  
HETATM    8  C   UNL     1     -11.683   8.280  72.298  1.00  0.00    -0.453 C  
HETATM    9  C   UNL     1     -11.327   8.242  70.812  1.00  0.00    -0.266 C  
HETATM   10  C   UNL     1     -12.982   9.037  72.546  1.00  0.00    -0.429 C  
HETATM   11  C   UNL     1     -12.912  10.423  71.918  1.00  0.00    -0.555 C  
HETATM   12  C   UNL     1     -12.542  10.351  70.436  1.00  0.00    -0.254 C  
ENDBRANCH   5   7
ENDBRANCH   4   5
ENDBRANCH   3   4
ENDBRANCH   2   3
BRANCH   2  13
HETATM   13  N   UNL     1     -10.311  13.343  65.308  1.00  0.00    -0.313 N  
HETATM   14  C   UNL     1     -12.746  12.967  64.981  1.00  0.00    -0.475 C  
HETATM   15  C   UNL     1      -9.973  12.635  64.069  1.00  0.00    -0.145 C  
HETATM   16  C   UNL     1     -11.642  13.969  65.306  1.00  0.00    -0.337 C  
HETATM   17  C   UNL     1     -11.049  11.594  63.735  1.00  0.00    -0.499 C  
HETATM   18  C   UNL     1     -12.441  12.222  63.684  1.00  0.00    -0.647 C  
ENDBRANCH   2  13
TORSDOF 5
ENDMDL
MODEL       57
REMARK 921   NORMALIZED FREE ENERGY PREDICTED BY IDOCK:   -4.53 KCAL/MOL
REMARK 922        TOTAL FREE ENERGY PREDICTED BY IDOCK:   -6.35 KCAL/MOL
REMARK 923 INTER-LIGAND FREE ENERGY PREDICTED BY IDOCK:   -6.04 KCAL/MOL
REMARK 924 INTRA-LIGAND FREE ENERGY PREDICTED BY IDOCK:   -0.30 KCAL/MOL
REMARK 927      BINDING AFFINITY PREDICTED BY RF-SCORE:    0.00 PKD
ROOT
HETATM    1  S   UNL     1     -10.834  16.184  69.751  1.00  0.00    -0.343 S  
HETATM    2  C   UNL     1     -10.230  17.050  68.438  1.00  0.00    -0.331 C  
ENDROOT
BRANCH   2   3
HETATM    3  S   UNL     1     -10.294  16.385  66.787  1.00  0.00    -0.281 SA 
BRANCH   3   4
HETATM    4  S   UNL     1      -9.780  14.400  67.114  1.00  0.00    -0.255 SA 
BRANCH   4   5
HETATM    5  C   UNL     1     -10.842  13.501  66.006  1.00  0.00    -0.278 C  
HETATM    6  S   UNL     1     -11.789  14.384  64.920  1.00  0.00    -0.436 S  
BRANCH   5   7
HETATM    7  N   UNL     1     -10.727  12.091  66.021  1.00  0.00    -0.269 N  
HETATM    8  C   UNL     1      -9.686  10.127  64.885  1.00  0.00    -0.392 C  
HETATM    9  C   UNL     1     -10.652  11.307  64.772  1.00  0.00    -0.312 C  
HETATM   10  C   UNL     1     -10.010   9.249  66.086  1.00  0.00    -0.348 C  
HETATM   11  C   UNL     1     -10.067  10.090  67.355  1.00  0.00    -0.256 C  
HETATM   12  C   UNL     1     -11.031  11.267  67.205  1.00  0.00    -0.286 C  
ENDBRANCH   5   7
ENDBRANCH   4   5
ENDBRANCH   3   4
ENDBRANCH   2   3
BRANCH   2  13
HETATM   13  N   UNL     1      -9.646  18.316  68.539  1.00  0.00    -0.329 N  
HETATM   14  C   UNL     1      -9.898  20.283  67.041  1.00  0.00    -0.607 C  
HETATM   15  C   UNL     1      -8.197  18.508  68.648  1.00  0.00    -0.308 C  
HETATM   16  C   UNL     1     -10.405  19.550  68.280  1.00  0.00    -0.411 C  
HETATM   17  C   UNL     1      -7.653  19.212  67.400  1.00  0.00    -0.256 C  
HETATM   18  C   UNL     1      -8.392  20.521  67.125  1.00  0.00    -0.348 C  
ENDBRANCH   2  13
TORSDOF 5
ENDMDL
MODEL       58
REMARK 921   NORMALIZED FREE ENERGY PREDICTED BY IDOCK:   -4.51 KCAL/MOL
REMARK 922        TOTAL FREE ENERGY PREDICTED BY IDOCK:   -6.32 KCAL/MOL
REMARK 923 INTER-LIGAND FREE ENERGY PREDICTED BY IDOCK:   -6.06 KCAL/MOL
REMARK 924 INTRA-LIGAND FREE ENERGY PREDICTED BY IDOCK:   -0.26 KCAL/MOL
REMARK 927      BINDING AFFINITY PREDICTED BY RF-SCORE:    0.00 PKD
ROOT
HETATM    1  S   UNL     1      -9.528   9.710  69.803  1.00  0.00    -0.233 S  
HETATM    2  C   UNL     1     -10.951   9.881  70.687  1.00  0.00    -0.337 C  
ENDROOT
BRANCH   2   3
HETATM    3  S   UNL     1     -12.039  11.265  70.426  1.00  0.00    -0.392 SA 
BRANCH   3   4
HETATM    4  S   UNL     1     -11.661  11.727  68.437  1.00  0.00    -0.324 SA 
BRANCH   4   5
HETATM    5  C   UNL     1     -11.907  13.487  68.358  1.00  0.00    -0.373 C  
HETATM    6  S   UNL     1     -12.104  14.329  69.810  1.00  0.00    -0.350 S  
BRANCH   5   7
HETATM    7  N   UNL     1     -11.791  14.087  67.081  1.00  0.00    -0.391 N  
HETATM    8  C   UNL     1     -10.248  15.305  65.544  1.00  0.00    -0.417 C  
HETATM    9  C   UNL     1     -11.002  15.318  66.874  1.00  0.00    -0.315 C  
HETATM   10  C   UNL     1     -11.179  15.025  64.372  1.00  0.00    -0.173 C  
HETATM   11  C   UNL     1     -11.967  13.744  64.618  1.00  0.00    -0.445 C  
HETATM   12  C   UNL     1     -12.698  13.784  65.960  1.00  0.00    -0.354 C  
ENDBRANCH   5   7
ENDBRANCH   4   5
ENDBRANCH   3   4
ENDBRANCH   2   3
BRANCH   2  13
HETATM   13  N   UNL     1     -11.374   8.978  71.669  1.00  0.00    -0.335 N  
HETATM   14  C   UNL     1     -10.562   6.676  72.135  1.00  0.00    -0.238 C  
HETATM   15  C   UNL     1     -12.777   8.581  71.820  1.00  0.00    -0.349 C  
HETATM   16  C   UNL     1     -10.424   8.164  72.443  1.00  0.00    -0.319 C  
HETATM   17  C   UNL     1     -12.954   7.096  71.482  1.00  0.00    -0.431 C  
HETATM   18  C   UNL     1     -12.009   6.217  72.301  1.00  0.00    -0.285 C  
ENDBRANCH   2  13
TORSDOF 5
ENDMDL
MODEL       59
REMARK 921   NORMALIZED FREE ENERGY PREDICTED BY IDOCK:   -4.48 KCAL/MOL
REMARK 922        TOTAL FREE ENERGY PREDICTED BY IDOCK:   -6.28 KCAL/MOL
REMARK 923 INTER-LIGAND FREE ENERGY PREDICTED BY IDOCK:   -5.94 KCAL/MOL
REMARK 924 INTRA-LIGAND FREE ENERGY PREDICTED BY IDOCK:   -0.35 KCAL/MOL
REMARK 927      BINDING AFFINITY PREDICTED BY RF-SCORE:    0.00 PKD
ROOT
HETATM    1  S   UNL     1     -12.824  11.090  71.236  1.00  0.00    -0.392 S  
HETATM    2  C   UNL     1     -11.539  10.269  70.521  1.00  0.00    -0.338 C  
ENDROOT
BRANCH   2   3
HETATM    3  S   UNL     1     -10.674  10.951  69.123  1.00  0.00    -0.233 SA 
BRANCH   3   4
HETATM    4  S   UNL     1     -11.685  12.741  68.836  1.00  0.00    -0.323 SA 
BRANCH   4   5
HETATM    5  C   UNL     1     -10.763  13.545  67.543  1.00  0.00    -0.259 C  
HETATM    6  S   UNL     1      -9.496  14.570  67.990  1.00  0.00    -0.215 S  
BRANCH   5   7
HETATM    7  N   UNL     1     -11.072  13.168  66.215  1.00  0.00    -0.284 N  
HETATM    8  C   UNL     1     -10.678  11.449  64.449  1.00  0.00    -0.405 C  
HETATM    9  C   UNL     1     -10.068  12.533  65.337  1.00  0.00    -0.267 C  
HETATM   10  C   UNL     1     -11.870  11.973  63.660  1.00  0.00    -0.602 C  
HETATM   11  C   UNL     1     -12.887  12.609  64.599  1.00  0.00    -0.361 C  
HETATM   12  C   UNL     1     -12.243  13.680  65.481  1.00  0.00    -0.443 C  
ENDBRANCH   5   7
ENDBRANCH   4   5
ENDBRANCH   3   4
ENDBRANCH   2   3
BRANCH   2  13
HETATM   13  N   UNL     1     -11.069   9.025  70.953  1.00  0.00    -0.261 N  
HETATM   14  C   UNL     1     -11.007   6.861  69.732  1.00  0.00    -0.310 C  
HETATM   15  C   UNL     1     -11.548   8.387  72.184  1.00  0.00    -0.374 C  
HETATM   16  C   UNL     1     -10.266   8.148  70.087  1.00  0.00    -0.199 C  
HETATM   17  C   UNL     1     -12.328   7.108  71.857  1.00  0.00    -0.352 C  
HETATM   18  C   UNL     1     -11.506   6.155  70.991  1.00  0.00    -0.316 C  
ENDBRANCH   2  13
TORSDOF 5
ENDMDL
MODEL       60
REMARK 921   NORMALIZED FREE ENERGY PREDICTED BY IDOCK:   -4.47 KCAL/MOL
REMARK 922        TOTAL FREE ENERGY PREDICTED BY IDOCK:   -6.27 KCAL/MOL
REMARK 923 INTER-LIGAND FREE ENERGY PREDICTED BY IDOCK:   -5.70 KCAL/MOL
REMARK 924 INTRA-LIGAND FREE ENERGY PREDICTED BY IDOCK:   -0.57 KCAL/MOL
REMARK 927      BINDING AFFINITY PREDICTED BY RF-SCORE:    0.00 PKD
ROOT
HETATM    1  S   UNL     1      -8.424   9.296  70.488  1.00  0.00    -0.218 S  
HETATM    2  C   UNL     1      -9.687  10.044  69.662  1.00  0.00    -0.229 C  
ENDROOT
BRANCH   2   3
HETATM    3  S   UNL     1      -9.371  11.174  68.323  1.00  0.00    -0.182 SA 
BRANCH   3   4
HETATM    4  S   UNL     1      -9.962  10.052  66.679  1.00  0.00    -0.227 SA 
BRANCH   4   5
HETATM    5  C   UNL     1     -10.088  11.253  65.372  1.00  0.00    -0.264 C  
HETATM    6  S   UNL     1      -9.773  10.745  63.791  1.00  0.00    -0.348 S  
BRANCH   5   7
HETATM    7  N   UNL     1     -10.575  12.533  65.730  1.00  0.00    -0.264 N  
HETATM    8  C   UNL     1     -12.049  13.772  67.317  1.00  0.00    -0.393 C  
HETATM    9  C   UNL     1     -11.960  12.730  66.202  1.00  0.00    -0.414 C  
HETATM   10  C   UNL     1     -11.396  15.087  66.911  1.00  0.00    -0.302 C  
HETATM   11  C   UNL     1      -9.967  14.844  66.441  1.00  0.00    -0.290 C  
HETATM   12  C   UNL     1      -9.912  13.789  65.336  1.00  0.00    -0.229 C  
ENDBRANCH   5   7
ENDBRANCH   4   5
ENDBRANCH   3   4
ENDBRANCH   2   3
BRANCH   2  13
HETATM   13  N   UNL     1     -11.039   9.846  69.957  1.00  0.00    -0.268 N  
HETATM   14  C   UNL     1     -12.643  11.384  71.070  1.00  0.00    -0.487 C  
HETATM   15  C   UNL     1     -11.515   8.693  70.728  1.00  0.00    -0.259 C  
HETATM   16  C   UNL     1     -12.047  10.898  69.752  1.00  0.00    -0.338 C  
HETATM   17  C   UNL     1     -12.088   9.148  72.075  1.00  0.00    -0.431 C  
HETATM   18  C   UNL     1     -13.170  10.212  71.895  1.00  0.00    -0.557 C  
ENDBRANCH   2  13
TORSDOF 5
ENDMDL
MODEL       61
REMARK 921   NORMALIZED FREE ENERGY PREDICTED BY IDOCK:   -4.45 KCAL/MOL
REMARK 922        TOTAL FREE ENERGY PREDICTED BY IDOCK:   -6.25 KCAL/MOL
REMARK 923 INTER-LIGAND FREE ENERGY PREDICTED BY IDOCK:   -6.01 KCAL/MOL
REMARK 924 INTRA-LIGAND FREE ENERGY PREDICTED BY IDOCK:   -0.24 KCAL/MOL
REMARK 927      BINDING AFFINITY PREDICTED BY RF-SCORE:    0.00 PKD
ROOT
HETATM    1  S   UNL     1      -9.524   9.665  66.159  1.00  0.00    -0.237 S  
HETATM    2  C   UNL     1     -10.437  11.041  66.490  1.00  0.00    -0.257 C  
ENDROOT
BRANCH   2   3
HETATM    3  S   UNL     1     -11.359  11.194  68.004  1.00  0.00    -0.309 SA 
BRANCH   3   4
HETATM    4  S   UNL     1     -10.157  10.147  69.335  1.00  0.00    -0.242 SA 
BRANCH   4   5
HETATM    5  C   UNL     1     -11.269   9.708  70.653  1.00  0.00    -0.320 C  
HETATM    6  S   UNL     1     -12.567  10.742  70.976  1.00  0.00    -0.445 S  
BRANCH   5   7
HETATM    7  N   UNL     1     -11.064   8.448  71.262  1.00  0.00    -0.246 N  
HETATM    8  C   UNL     1     -10.328   7.299  73.351  1.00  0.00    -0.410 C  
HETATM    9  C   UNL     1      -9.938   8.209  72.186  1.00  0.00    -0.247 C  
HETATM   10  C   UNL     1     -10.948   5.996  72.865  1.00  0.00    -0.303 C  
HETATM   11  C   UNL     1     -12.111   6.284  71.924  1.00  0.00    -0.311 C  
HETATM   12  C   UNL     1     -11.692   7.205  70.778  1.00  0.00    -0.323 C  
ENDBRANCH   5   7
ENDBRANCH   4   5
ENDBRANCH   3   4
ENDBRANCH   2   3
BRANCH   2  13
HETATM   13  N   UNL     1     -10.542  12.135  65.624  1.00  0.00    -0.253 N  
HETATM   14  C   UNL     1     -12.191  13.995  65.641  1.00  0.00    -0.462 C  
HETATM   15  C   UNL     1     -10.638  11.981  64.170  1.00  0.00    -0.355 C  
HETATM   16  C   UNL     1     -10.828  13.493  66.112  1.00  0.00    -0.281 C  
HETATM   17  C   UNL     1     -12.012  12.445  63.670  1.00  0.00    -0.626 C  
HETATM   18  C   UNL     1     -12.323  13.870  64.125  1.00  0.00    -0.380 C  
ENDBRANCH   2  13
TORSDOF 5
ENDMDL
MODEL       62
REMARK 921   NORMALIZED FREE ENERGY PREDICTED BY IDOCK:   -4.44 KCAL/MOL
REMARK 922        TOTAL FREE ENERGY PREDICTED BY IDOCK:   -6.24 KCAL/MOL
REMARK 923 INTER-LIGAND FREE ENERGY PREDICTED BY IDOCK:   -5.82 KCAL/MOL
REMARK 924 INTRA-LIGAND FREE ENERGY PREDICTED BY IDOCK:   -0.42 KCAL/MOL
REMARK 927      BINDING AFFINITY PREDICTED BY RF-SCORE:    0.00 PKD
ROOT
HETATM    1  S   UNL     1      -8.933  14.290  68.077  1.00  0.00    -0.191 S  
HETATM    2  C   UNL     1     -10.392  13.672  67.504  1.00  0.00    -0.241 C  
ENDROOT
BRANCH   2   3
HETATM    3  S   UNL     1     -11.391  12.590  68.504  1.00  0.00    -0.323 SA 
BRANCH   3   4
HETATM    4  S   UNL     1     -10.981  10.739  67.658  1.00  0.00    -0.319 SA 
BRANCH   4   5
HETATM    5  C   UNL     1     -10.966   9.632  69.051  1.00  0.00    -0.132 C  
HETATM    6  S   UNL     1     -11.454  10.236  70.552  1.00  0.00    -0.360 S  
BRANCH   5   7
HETATM    7  N   UNL     1     -10.669   8.275  68.780  1.00  0.00    -0.109 N  
HETATM    8  C   UNL     1     -10.912   5.937  69.619  1.00  0.00    -0.447 C  
HETATM    9  C   UNL     1     -10.325   7.328  69.859  1.00  0.00    -0.219 C  
HETATM   10  C   UNL     1     -10.532   5.396  68.248  1.00  0.00    -0.191 C  
HETATM   11  C   UNL     1     -10.912   6.394  67.161  1.00  0.00    -0.476 C  
HETATM   12  C   UNL     1     -10.319   7.776  67.438  1.00  0.00    -0.284 C  
ENDBRANCH   5   7
ENDBRANCH   4   5
ENDBRANCH   3   4
ENDBRANCH   2   3
BRANCH   2  13
HETATM   13  N   UNL     1     -10.913  13.949  66.236  1.00  0.00    -0.297 N  
HETATM   14  C   UNL     1     -12.778  12.833  65.030  1.00  0.00    -0.455 C  
HETATM   15  C   UNL     1     -10.076  13.987  65.033  1.00  0.00    -0.292 C  
HETATM   16  C   UNL     1     -12.360  13.960  65.971  1.00  0.00    -0.475 C  
HETATM   17  C   UNL     1     -10.450  12.843  64.082  1.00  0.00    -0.429 C  
HETATM   18  C   UNL     1     -11.942  12.851  63.753  1.00  0.00    -0.582 C  
ENDBRANCH   2  13
TORSDOF 5
ENDMDL
MODEL       63
REMARK 921   NORMALIZED FREE ENERGY PREDICTED BY IDOCK:   -4.43 KCAL/MOL
REMARK 922        TOTAL FREE ENERGY PREDICTED BY IDOCK:   -6.23 KCAL/MOL
REMARK 923 INTER-LIGAND FREE ENERGY PREDICTED BY IDOCK:   -5.92 KCAL/MOL
REMARK 924 INTRA-LIGAND FREE ENERGY PREDICTED BY IDOCK:   -0.31 KCAL/MOL
REMARK 927      BINDING AFFINITY PREDICTED BY RF-SCORE:    0.00 PKD
ROOT
HETATM    1  S   UNL     1      -9.035   8.584  69.030  1.00  0.00    -0.146 S  
HETATM    2  C   UNL     1     -10.330   9.619  69.325  1.00  0.00    -0.209 C  
ENDROOT
BRANCH   2   3
HETATM    3  S   UNL     1     -11.029  10.615  68.025  1.00  0.00    -0.301 SA 
BRANCH   3   4
HETATM    4  S   UNL     1      -9.984  12.394  68.251  1.00  0.00    -0.215 SA 
BRANCH   4   5
HETATM    5  C   UNL     1     -11.258  13.636  68.255  1.00  0.00    -0.273 C  
HETATM    6  S   UNL     1     -12.062  13.945  69.709  1.00  0.00    -0.338 S  
BRANCH   5   7
HETATM    7  N   UNL     1     -11.426  14.377  67.062  1.00  0.00    -0.346 N  
HETATM    8  C   UNL     1     -10.319  15.963  65.485  1.00  0.00    -0.425 C  
HETATM    9  C   UNL     1     -10.845  15.725  66.900  1.00  0.00    -0.265 C  
HETATM   10  C   UNL     1     -11.382  15.674  64.433  1.00  0.00    -0.272 C  
HETATM   11  C   UNL     1     -11.949  14.273  64.626  1.00  0.00    -0.468 C  
HETATM   12  C   UNL     1     -12.455  14.064  66.053  1.00  0.00    -0.455 C  
ENDBRANCH   5   7
ENDBRANCH   4   5
ENDBRANCH   3   4
ENDBRANCH   2   3
BRANCH   2  13
HETATM   13  N   UNL     1     -10.936   9.776  70.576  1.00  0.00    -0.297 N  
HETATM   14  C   UNL     1     -11.649   8.036  72.201  1.00  0.00    -0.399 C  
HETATM   15  C   UNL     1     -12.171  10.543  70.761  1.00  0.00    -0.369 C  
HETATM   16  C   UNL     1     -10.536   8.975  71.743  1.00  0.00    -0.356 C  
HETATM   17  C   UNL     1     -13.318   9.619  71.188  1.00  0.00    -0.344 C  
HETATM   18  C   UNL     1     -12.951   8.802  72.425  1.00  0.00    -0.442 C  
ENDBRANCH   2  13
TORSDOF 5
ENDMDL
MODEL       64
REMARK 921   NORMALIZED FREE ENERGY PREDICTED BY IDOCK:   -4.43 KCAL/MOL
REMARK 922        TOTAL FREE ENERGY PREDICTED BY IDOCK:   -6.22 KCAL/MOL
REMARK 923 INTER-LIGAND FREE ENERGY PREDICTED BY IDOCK:   -5.76 KCAL/MOL
REMARK 924 INTRA-LIGAND FREE ENERGY PREDICTED BY IDOCK:   -0.46 KCAL/MOL
REMARK 927      BINDING AFFINITY PREDICTED BY RF-SCORE:    0.00 PKD
ROOT
HETATM    1  S   UNL     1     -11.419  16.083  71.309  1.00  0.00    -0.359 S  
HETATM    2  C   UNL     1     -11.892  15.087  70.035  1.00  0.00    -0.319 C  
ENDROOT
BRANCH   2   3
HETATM    3  S   UNL     1     -11.473  15.481  68.351  1.00  0.00    -0.352 SA 
BRANCH   3   4
HETATM    4  S   UNL     1      -9.510  14.813  68.240  1.00  0.00    -0.212 SA 
BRANCH   4   5
HETATM    5  C   UNL     1      -8.547  16.295  68.440  1.00  0.00    -0.200 C  
HETATM    6  S   UNL     1      -7.054  16.175  69.223  1.00  0.00    -0.215 S  
BRANCH   5   7
HETATM    7  N   UNL     1      -9.041  17.462  67.810  1.00  0.00    -0.240 N  
HETATM    8  C   UNL     1     -10.415  18.317  65.910  1.00  0.00    -0.324 C  
HETATM    9  C   UNL     1      -9.159  17.558  66.342  1.00  0.00    -0.240 C  
HETATM   10  C   UNL     1     -10.503  19.683  66.576  1.00  0.00    -0.612 C  
HETATM   11  C   UNL     1     -10.388  19.542  68.088  1.00  0.00    -0.550 C  
HETATM   12  C   UNL     1      -9.130  18.770  68.486  1.00  0.00    -0.342 C  
ENDBRANCH   5   7
ENDBRANCH   4   5
ENDBRANCH   3   4
ENDBRANCH   2   3
BRANCH   2  13
HETATM   13  N   UNL     1     -12.633  13.911  70.197  1.00  0.00    -0.281 N  
HETATM   14  C   UNL     1     -13.246  12.721  72.291  1.00  0.00    -0.491 C  
HETATM   15  C   UNL     1     -12.283  12.661  69.516  1.00  0.00    -0.090 C  
HETATM   16  C   UNL     1     -13.647  13.765  71.253  1.00  0.00    -0.103 C  
HETATM   17  C   UNL     1     -11.842  11.601  70.532  1.00  0.00    -0.328 C  
HETATM   18  C   UNL     1     -12.894  11.394  71.621  1.00  0.00    -0.497 C  
ENDBRANCH   2  13
TORSDOF 5
ENDMDL
MODEL       65
REMARK 921   NORMALIZED FREE ENERGY PREDICTED BY IDOCK:   -4.42 KCAL/MOL
REMARK 922        TOTAL FREE ENERGY PREDICTED BY IDOCK:   -6.21 KCAL/MOL
REMARK 923 INTER-LIGAND FREE ENERGY PREDICTED BY IDOCK:   -5.79 KCAL/MOL
REMARK 924 INTRA-LIGAND FREE ENERGY PREDICTED BY IDOCK:   -0.42 KCAL/MOL
REMARK 927      BINDING AFFINITY PREDICTED BY RF-SCORE:    0.00 PKD
ROOT
HETATM    1  S   UNL     1     -10.313  19.437  67.541  1.00  0.00    -0.472 S  
HETATM    2  C   UNL     1      -8.917  18.531  67.803  1.00  0.00    -0.275 C  
ENDROOT
BRANCH   2   3
HETATM    3  S   UNL     1      -8.982  16.957  68.632  1.00  0.00    -0.258 SA 
BRANCH   3   4
HETATM    4  S   UNL     1     -10.944  16.376  68.279  1.00  0.00    -0.338 SA 
BRANCH   4   5
HETATM    5  C   UNL     1     -10.814  15.274  66.889  1.00  0.00    -0.317 C  
HETATM    6  S   UNL     1     -10.563  15.948  65.360  1.00  0.00    -0.398 S  
BRANCH   5   7
HETATM    7  N   UNL     1     -10.800  13.888  67.177  1.00  0.00    -0.282 N  
HETATM    8  C   UNL     1     -11.729  12.116  68.667  1.00  0.00    -0.382 C  
HETATM    9  C   UNL     1     -10.884  13.385  68.562  1.00  0.00    -0.265 C  
HETATM   10  C   UNL     1     -11.251  11.040  67.702  1.00  0.00    -0.373 C  
HETATM   11  C   UNL     1     -11.188  11.593  66.284  1.00  0.00    -0.332 C  
HETATM   12  C   UNL     1     -10.346  12.867  66.215  1.00  0.00    -0.268 C  
ENDBRANCH   5   7
ENDBRANCH   4   5
ENDBRANCH   3   4
ENDBRANCH   2   3
BRANCH   2  13
HETATM   13  N   UNL     1      -7.638  18.934  67.405  1.00  0.00    -0.230 N  
HETATM   14  C   UNL     1      -6.599  21.188  67.517  1.00  0.00    -0.428 C  
HETATM   15  C   UNL     1      -7.124  18.696  66.052  1.00  0.00    -0.267 C  
HETATM   16  C   UNL     1      -6.820  19.849  68.215  1.00  0.00    -0.295 C  
HETATM   17  C   UNL     1      -6.926  20.025  65.313  1.00  0.00    -0.299 C  
HETATM   18  C   UNL     1      -6.043  20.985  66.110  1.00  0.00    -0.310 C  
ENDBRANCH   2  13
TORSDOF 5
ENDMDL
MODEL       66
REMARK 921   NORMALIZED FREE ENERGY PREDICTED BY IDOCK:   -4.42 KCAL/MOL
REMARK 922        TOTAL FREE ENERGY PREDICTED BY IDOCK:   -6.21 KCAL/MOL
REMARK 923 INTER-LIGAND FREE ENERGY PREDICTED BY IDOCK:   -5.84 KCAL/MOL
REMARK 924 INTRA-LIGAND FREE ENERGY PREDICTED BY IDOCK:   -0.37 KCAL/MOL
REMARK 927      BINDING AFFINITY PREDICTED BY RF-SCORE:    0.00 PKD
ROOT
HETATM    1  S   UNL     1     -11.361  14.878  68.026  1.00  0.00    -0.334 S  
HETATM    2  C   UNL     1     -11.944  14.222  69.463  1.00  0.00    -0.336 C  
ENDROOT
BRANCH   2   3
HETATM    3  S   UNL     1     -11.815  12.479  69.801  1.00  0.00    -0.257 SA 
BRANCH   3   4
HETATM    4  S   UNL     1     -11.643  11.693  67.887  1.00  0.00    -0.272 SA 
BRANCH   4   5
HETATM    5  C   UNL     1     -10.062  10.877  67.906  1.00  0.00    -0.177 C  
HETATM    6  S   UNL     1      -8.671  11.838  67.918  1.00  0.00    -0.172 S  
BRANCH   5   7
HETATM    7  N   UNL     1     -10.076   9.468  68.042  1.00  0.00    -0.178 N  
HETATM    8  C   UNL     1     -10.676   7.582  69.562  1.00  0.00    -0.222 C  
HETATM    9  C   UNL     1      -9.798   8.813  69.336  1.00  0.00    -0.186 C  
HETATM   10  C   UNL     1     -10.581   6.603  68.399  1.00  0.00    -0.289 C  
HETATM   11  C   UNL     1     -10.884   7.313  67.086  1.00  0.00    -0.378 C  
HETATM   12  C   UNL     1      -9.999   8.545  66.896  1.00  0.00    -0.265 C  
ENDBRANCH   5   7
ENDBRANCH   4   5
ENDBRANCH   3   4
ENDBRANCH   2   3
BRANCH   2  13
HETATM   13  N   UNL     1     -12.560  14.972  70.471  1.00  0.00    -0.359 N  
HETATM   14  C   UNL     1     -11.690  15.599  72.712  1.00  0.00    -0.537 C  
HETATM   15  C   UNL     1     -13.880  14.630  71.010  1.00  0.00    -0.171 C  
HETATM   16  C   UNL     1     -11.832  15.989  71.244  1.00  0.00    -0.449 C  
HETATM   17  C   UNL     1     -13.765  14.198  72.477  1.00  0.00    -0.626 C  
HETATM   18  C   UNL     1     -13.049  15.254  73.319  1.00  0.00    -0.630 C  
ENDBRANCH   2  13
TORSDOF 5
ENDMDL
MODEL       67
REMARK 921   NORMALIZED FREE ENERGY PREDICTED BY IDOCK:   -4.41 KCAL/MOL
REMARK 922        TOTAL FREE ENERGY PREDICTED BY IDOCK:   -6.20 KCAL/MOL
REMARK 923 INTER-LIGAND FREE ENERGY PREDICTED BY IDOCK:   -5.85 KCAL/MOL
REMARK 924 INTRA-LIGAND FREE ENERGY PREDICTED BY IDOCK:   -0.34 KCAL/MOL
REMARK 927      BINDING AFFINITY PREDICTED BY RF-SCORE:    0.00 PKD
ROOT
HETATM    1  S   UNL     1     -10.700  18.885  67.106  1.00  0.00    -0.365 S  
HETATM    2  C   UNL     1      -9.393  17.906  66.694  1.00  0.00    -0.286 C  
ENDROOT
BRANCH   2   3
HETATM    3  S   UNL     1      -9.631  16.219  66.179  1.00  0.00    -0.344 SA 
BRANCH   3   4
HETATM    4  S   UNL     1     -11.041  15.556  67.551  1.00  0.00    -0.270 SA 
BRANCH   4   5
HETATM    5  C   UNL     1     -11.033  13.789  67.345  1.00  0.00    -0.284 C  
HETATM    6  S   UNL     1     -10.601  12.835  68.672  1.00  0.00    -0.199 S  
BRANCH   5   7
HETATM    7  N   UNL     1     -11.516  13.291  66.111  1.00  0.00    -0.317 N  
HETATM    8  C   UNL     1     -12.285  13.933  63.826  1.00  0.00    -0.310 C  
HETATM    9  C   UNL     1     -12.537  14.018  65.331  1.00  0.00    -0.505 C  
HETATM   10  C   UNL     1     -12.138  12.490  63.361  1.00  0.00    -0.621 C  
HETATM   11  C   UNL     1     -11.070  11.777  64.181  1.00  0.00    -0.442 C  
HETATM   12  C   UNL     1     -11.345  11.892  65.681  1.00  0.00    -0.284 C  
ENDBRANCH   5   7
ENDBRANCH   4   5
ENDBRANCH   3   4
ENDBRANCH   2   3
BRANCH   2  13
HETATM   13  N   UNL     1      -8.060  18.328  66.729  1.00  0.00    -0.242 N  
HETATM   14  C   UNL     1      -6.575  18.673  68.691  1.00  0.00    -0.273 C  
HETATM   15  C   UNL     1      -7.612  19.571  66.093  1.00  0.00    -0.308 C  
HETATM   16  C   UNL     1      -7.066  17.706  67.617  1.00  0.00    -0.177 C  
HETATM   17  C   UNL     1      -7.145  20.577  67.152  1.00  0.00    -0.359 C  
HETATM   18  C   UNL     1      -6.079  19.976  68.067  1.00  0.00    -0.269 C  
ENDBRANCH   2  13
TORSDOF 5
ENDMDL
MODEL       68
REMARK 921   NORMALIZED FREE ENERGY PREDICTED BY IDOCK:   -4.40 KCAL/MOL
REMARK 922        TOTAL FREE ENERGY PREDICTED BY IDOCK:   -6.18 KCAL/MOL
REMARK 923 INTER-LIGAND FREE ENERGY PREDICTED BY IDOCK:   -5.75 KCAL/MOL
REMARK 924 INTRA-LIGAND FREE ENERGY PREDICTED BY IDOCK:   -0.43 KCAL/MOL
REMARK 927      BINDING AFFINITY PREDICTED BY RF-SCORE:    0.00 PKD
ROOT
HETATM    1  S   UNL     1      -8.157   6.459  69.256  1.00  0.00    -0.112 S  
HETATM    2  C   UNL     1      -9.527   7.426  69.098  1.00  0.00    -0.149 C  
ENDROOT
BRANCH   2   3
HETATM    3  S   UNL     1     -10.055   8.023  67.506  1.00  0.00    -0.241 SA 
BRANCH   3   4
HETATM    4  S   UNL     1      -9.334   9.970  67.528  1.00  0.00    -0.144 SA 
BRANCH   4   5
HETATM    5  C   UNL     1     -10.806  10.966  67.440  1.00  0.00    -0.279 C  
HETATM    6  S   UNL     1     -11.716  11.166  68.849  1.00  0.00    -0.336 S  
BRANCH   5   7
HETATM    7  N   UNL     1     -11.047  11.635  66.216  1.00  0.00    -0.304 N  
HETATM    8  C   UNL     1     -10.904  11.438  63.733  1.00  0.00    -0.468 C  
HETATM    9  C   UNL     1     -10.144  11.481  65.059  1.00  0.00    -0.270 C  
HETATM   10  C   UNL     1     -11.826  12.640  63.575  1.00  0.00    -0.619 C  
HETATM   11  C   UNL     1     -12.748  12.760  64.782  1.00  0.00    -0.469 C  
HETATM   12  C   UNL     1     -11.959  12.787  66.091  1.00  0.00    -0.414 C  
ENDBRANCH   5   7
ENDBRANCH   4   5
ENDBRANCH   3   4
ENDBRANCH   2   3
BRANCH   2  13
HETATM   13  N   UNL     1     -10.328   7.827  70.172  1.00  0.00    -0.213 N  
HETATM   14  C   UNL     1      -9.678   8.288  72.526  1.00  0.00    -0.368 C  
HETATM   15  C   UNL     1     -11.523   7.083  70.583  1.00  0.00    -0.324 C  
HETATM   16  C   UNL     1      -9.896   8.859  71.127  1.00  0.00    -0.275 C  
HETATM   17  C   UNL     1     -11.320   6.467  71.972  1.00  0.00    -0.326 C  
HETATM   18  C   UNL     1     -10.911   7.521  73.000  1.00  0.00    -0.443 C  
ENDBRANCH   2  13
TORSDOF 5
ENDMDL
MODEL       69
REMARK 921   NORMALIZED FREE ENERGY PREDICTED BY IDOCK:   -4.40 KCAL/MOL
REMARK 922        TOTAL FREE ENERGY PREDICTED BY IDOCK:   -6.18 KCAL/MOL
REMARK 923 INTER-LIGAND FREE ENERGY PREDICTED BY IDOCK:   -5.95 KCAL/MOL
REMARK 924 INTRA-LIGAND FREE ENERGY PREDICTED BY IDOCK:   -0.23 KCAL/MOL
REMARK 927      BINDING AFFINITY PREDICTED BY RF-SCORE:    0.00 PKD
ROOT
HETATM    1  S   UNL     1     -10.781  14.179  68.277  1.00  0.00    -0.255 S  
HETATM    2  C   UNL     1     -11.741  13.562  69.517  1.00  0.00    -0.322 C  
ENDROOT
BRANCH   2   3
HETATM    3  S   UNL     1     -11.829  11.812  69.830  1.00  0.00    -0.327 SA 
BRANCH   3   4
HETATM    4  S   UNL     1     -10.077  11.138  68.945  1.00  0.00    -0.152 SA 
BRANCH   4   5
HETATM    5  C   UNL     1     -10.337   9.386  68.774  1.00  0.00    -0.209 C  
HETATM    6  S   UNL     1     -10.183   8.705  67.235  1.00  0.00    -0.291 S  
BRANCH   5   7
HETATM    7  N   UNL     1     -10.529   8.653  69.969  1.00  0.00    -0.218 N  
HETATM    8  C   UNL     1     -11.089   8.837  72.394  1.00  0.00    -0.240 C  
HETATM    9  C   UNL     1     -10.102   9.184  71.279  1.00  0.00    -0.318 C  
HETATM   10  C   UNL     1     -11.368   7.341  72.453  1.00  0.00    -0.324 C  
HETATM   11  C   UNL     1     -11.815   6.834  71.088  1.00  0.00    -0.410 C  
HETATM   12  C   UNL     1     -10.814   7.207  69.994  1.00  0.00    -0.254 C  
ENDBRANCH   5   7
ENDBRANCH   4   5
ENDBRANCH   3   4
ENDBRANCH   2   3
BRANCH   2  13
HETATM   13  N   UNL     1     -12.523  14.352  70.366  1.00  0.00    -0.342 N  
HETATM   14  C   UNL     1     -11.804  15.863  72.203  1.00  0.00    -0.615 C  
HETATM   15  C   UNL     1     -13.619  13.798  71.167  1.00  0.00    -0.027 C  
HETATM   16  C   UNL     1     -12.144  15.728  70.722  1.00  0.00    -0.408 C  
HETATM   17  C   UNL     1     -13.289  13.888  72.662  1.00  0.00    -0.640 C  
HETATM   18  C   UNL     1     -12.932  15.316  73.074  1.00  0.00    -0.599 C  
ENDBRANCH   2  13
TORSDOF 5
ENDMDL
MODEL       70
REMARK 921   NORMALIZED FREE ENERGY PREDICTED BY IDOCK:   -4.37 KCAL/MOL
REMARK 922        TOTAL FREE ENERGY PREDICTED BY IDOCK:   -6.14 KCAL/MOL
REMARK 923 INTER-LIGAND FREE ENERGY PREDICTED BY IDOCK:   -5.81 KCAL/MOL
REMARK 924 INTRA-LIGAND FREE ENERGY PREDICTED BY IDOCK:   -0.33 KCAL/MOL
REMARK 927      BINDING AFFINITY PREDICTED BY RF-SCORE:    0.00 PKD
ROOT
HETATM    1  S   UNL     1     -12.481  13.816  65.336  1.00  0.00    -0.500 S  
HETATM    2  C   UNL     1     -11.276  14.260  66.426  1.00  0.00    -0.337 C  
ENDROOT
BRANCH   2   3
HETATM    3  S   UNL     1     -10.205  13.044  67.163  1.00  0.00    -0.245 SA 
BRANCH   3   4
HETATM    4  S   UNL     1     -11.556  11.890  68.237  1.00  0.00    -0.330 SA 
BRANCH   4   5
HETATM    5  C   UNL     1     -10.522  10.756  69.136  1.00  0.00    -0.218 C  
HETATM    6  S   UNL     1      -8.898  10.630  68.683  1.00  0.00    -0.157 S  
BRANCH   5   7
HETATM    7  N   UNL     1     -11.101  10.126  70.263  1.00  0.00    -0.296 N  
HETATM    8  C   UNL     1     -13.256   9.544  71.379  1.00  0.00    -0.448 C  
HETATM    9  C   UNL     1     -12.320  10.657  70.905  1.00  0.00    -0.401 C  
HETATM   10  C   UNL     1     -12.535   8.545  72.273  1.00  0.00    -0.448 C  
HETATM   11  C   UNL     1     -11.290   8.013  71.573  1.00  0.00    -0.299 C  
HETATM   12  C   UNL     1     -10.382   9.149  71.101  1.00  0.00    -0.317 C  
ENDBRANCH   5   7
ENDBRANCH   4   5
ENDBRANCH   3   4
ENDBRANCH   2   3
BRANCH   2  13
HETATM   13  N   UNL     1     -11.034  15.578  66.829  1.00  0.00    -0.295 N  
HETATM   14  C   UNL     1      -8.975  16.944  66.566  1.00  0.00    -0.303 C  
HETATM   15  C   UNL     1     -11.230  16.027  68.211  1.00  0.00    -0.350 C  
HETATM   16  C   UNL     1     -10.321  16.538  65.972  1.00  0.00    -0.345 C  
HETATM   17  C   UNL     1      -9.888  16.409  68.846  1.00  0.00    -0.260 C  
HETATM   18  C   UNL     1      -9.139  17.439  68.001  1.00  0.00    -0.259 C  
ENDBRANCH   2  13
TORSDOF 5
ENDMDL
MODEL       71
REMARK 921   NORMALIZED FREE ENERGY PREDICTED BY IDOCK:   -4.36 KCAL/MOL
REMARK 922        TOTAL FREE ENERGY PREDICTED BY IDOCK:   -6.13 KCAL/MOL
REMARK 923 INTER-LIGAND FREE ENERGY PREDICTED BY IDOCK:   -5.82 KCAL/MOL
REMARK 924 INTRA-LIGAND FREE ENERGY PREDICTED BY IDOCK:   -0.31 KCAL/MOL
REMARK 927      BINDING AFFINITY PREDICTED BY RF-SCORE:    0.00 PKD
ROOT
HETATM    1  S   UNL     1     -11.294  16.430  70.604  1.00  0.00    -0.013 S  
HETATM    2  C   UNL     1     -10.932  16.362  68.960  1.00  0.00    -0.325 C  
ENDROOT
BRANCH   2   3
HETATM    3  S   UNL     1     -11.515  15.022  67.943  1.00  0.00    -0.331 SA 
BRANCH   3   4
HETATM    4  S   UNL     1     -11.984  13.587  69.368  1.00  0.00    -0.309 SA 
BRANCH   4   5
HETATM    5  C   UNL     1     -10.969  12.197  68.917  1.00  0.00    -0.224 C  
HETATM    6  S   UNL     1      -9.758  12.437  67.762  1.00  0.00    -0.207 S  
BRANCH   5   7
HETATM    7  N   UNL     1     -11.160  11.005  69.655  1.00  0.00    -0.261 N  
HETATM    8  C   UNL     1     -10.007   9.225  70.970  1.00  0.00    -0.364 C  
HETATM    9  C   UNL     1     -10.181   9.901  69.610  1.00  0.00    -0.237 C  
HETATM   10  C   UNL     1     -11.342   8.775  71.549  1.00  0.00    -0.375 C  
HETATM   11  C   UNL     1     -12.320   9.942  71.589  1.00  0.00    -0.496 C  
HETATM   12  C   UNL     1     -12.462  10.603  70.218  1.00  0.00    -0.304 C  
ENDBRANCH   5   7
ENDBRANCH   4   5
ENDBRANCH   3   4
ENDBRANCH   2   3
BRANCH   2  13
HETATM   13  N   UNL     1     -10.165  17.319  68.289  1.00  0.00    -0.326 N  
HETATM   14  C   UNL     1     -10.639  19.732  67.924  1.00  0.00    -0.468 C  
HETATM   15  C   UNL     1      -9.712  17.137  66.906  1.00  0.00    -0.268 C  
HETATM   16  C   UNL     1      -9.980  18.681  68.814  1.00  0.00    -0.383 C  
HETATM   17  C   UNL     1     -10.386  18.157  65.981  1.00  0.00    -0.360 C  
HETATM   18  C   UNL     1     -10.176  19.588  66.476  1.00  0.00    -0.568 C  
ENDBRANCH   2  13
TORSDOF 5
ENDMDL
MODEL       72
REMARK 921   NORMALIZED FREE ENERGY PREDICTED BY IDOCK:   -4.36 KCAL/MOL
REMARK 922        TOTAL FREE ENERGY PREDICTED BY IDOCK:   -6.13 KCAL/MOL
REMARK 923 INTER-LIGAND FREE ENERGY PREDICTED BY IDOCK:   -6.01 KCAL/MOL
REMARK 924 INTRA-LIGAND FREE ENERGY PREDICTED BY IDOCK:   -0.12 KCAL/MOL
REMARK 927      BINDING AFFINITY PREDICTED BY RF-SCORE:    0.00 PKD
ROOT
HETATM    1  S   UNL     1     -11.265  16.091  70.469  1.00  0.00    -0.359 S  
HETATM    2  C   UNL     1     -10.930  16.115  68.818  1.00  0.00    -0.330 C  
ENDROOT
BRANCH   2   3
HETATM    3  S   UNL     1     -11.596  14.879  67.724  1.00  0.00    -0.306 SA 
BRANCH   3   4
HETATM    4  S   UNL     1     -10.466  13.213  68.237  1.00  0.00    -0.254 SA 
BRANCH   4   5
HETATM    5  C   UNL     1      -9.593  12.818  66.738  1.00  0.00    -0.244 C  
HETATM    6  S   UNL     1      -7.997  12.278  66.866  1.00  0.00    -0.001 S  
BRANCH   5   7
HETATM    7  N   UNL     1     -10.341  12.860  65.537  1.00  0.00    -0.287 N  
HETATM    8  C   UNL     1     -12.089  11.690  64.193  1.00  0.00    -0.200 C  
HETATM    9  C   UNL     1     -10.685  11.629  64.797  1.00  0.00    -0.309 C  
HETATM   10  C   UNL     1     -12.280  12.937  63.340  1.00  0.00    -0.574 C  
HETATM   11  C   UNL     1     -11.926  14.184  64.141  1.00  0.00    -0.421 C  
HETATM   12  C   UNL     1     -10.523  14.086  64.740  1.00  0.00    -0.421 C  
ENDBRANCH   5   7
ENDBRANCH   4   5
ENDBRANCH   3   4
ENDBRANCH   2   3
BRANCH   2  13
HETATM   13  N   UNL     1     -10.124  17.076  68.199  1.00  0.00    -0.292 N  
HETATM   14  C   UNL     1     -10.404  19.544  68.125  1.00  0.00    -0.550 C  
HETATM   15  C   UNL     1      -9.776  17.012  66.776  1.00  0.00    -0.269 C  
HETATM   16  C   UNL     1      -9.787  18.351  68.850  1.00  0.00    -0.322 C  
HETATM   17  C   UNL     1     -10.412  18.180  66.014  1.00  0.00    -0.346 C  
HETATM   18  C   UNL     1     -10.046  19.525  66.641  1.00  0.00    -0.523 C  
ENDBRANCH   2  13
TORSDOF 5
ENDMDL
MODEL       73
REMARK 921   NORMALIZED FREE ENERGY PREDICTED BY IDOCK:   -4.35 KCAL/MOL
REMARK 922        TOTAL FREE ENERGY PREDICTED BY IDOCK:   -6.11 KCAL/MOL
REMARK 923 INTER-LIGAND FREE ENERGY PREDICTED BY IDOCK:   -5.80 KCAL/MOL
REMARK 924 INTRA-LIGAND FREE ENERGY PREDICTED BY IDOCK:   -0.31 KCAL/MOL
REMARK 927      BINDING AFFINITY PREDICTED BY RF-SCORE:    0.00 PKD
ROOT
HETATM    1  S   UNL     1     -10.244  10.921  64.626  1.00  0.00    -0.349 S  
HETATM    2  C   UNL     1     -10.852  11.887  65.865  1.00  0.00    -0.297 C  
ENDROOT
BRANCH   2   3
HETATM    3  S   UNL     1     -11.151  11.223  67.489  1.00  0.00    -0.296 SA 
BRANCH   3   4
HETATM    4  S   UNL     1      -9.527   9.951  67.729  1.00  0.00    -0.141 SA 
BRANCH   4   5
HETATM    5  C   UNL     1     -10.270   8.397  68.174  1.00  0.00    -0.208 C  
HETATM    6  S   UNL     1     -10.292   7.165  67.018  1.00  0.00    -0.306 S  
BRANCH   5   7
HETATM    7  N   UNL     1     -10.680   8.253  69.521  1.00  0.00    -0.210 N  
HETATM    8  C   UNL     1     -11.544   9.470  71.521  1.00  0.00    -0.465 C  
HETATM    9  C   UNL     1     -10.392   9.289  70.533  1.00  0.00    -0.254 C  
HETATM   10  C   UNL     1     -11.948   8.149  72.162  1.00  0.00    -0.413 C  
HETATM   11  C   UNL     1     -12.247   7.110  71.088  1.00  0.00    -0.405 C  
HETATM   12  C   UNL     1     -11.081   6.962  70.110  1.00  0.00    -0.299 C  
ENDBRANCH   5   7
ENDBRANCH   4   5
ENDBRANCH   3   4
ENDBRANCH   2   3
BRANCH   2  13
HETATM   13  N   UNL     1     -11.164  13.242  65.718  1.00  0.00    -0.292 N  
HETATM   14  C   UNL     1      -9.666  15.220  65.868  1.00  0.00    -0.390 C  
HETATM   15  C   UNL     1     -12.211  13.899  66.505  1.00  0.00    -0.442 C  
HETATM   16  C   UNL     1     -10.300  14.166  64.965  1.00  0.00    -0.418 C  
HETATM   17  C   UNL     1     -11.600  14.941  67.449  1.00  0.00    -0.347 C  
HETATM   18  C   UNL     1     -10.729  15.943  66.692  1.00  0.00    -0.270 C  
ENDBRANCH   2  13
TORSDOF 5
ENDMDL
MODEL       74
REMARK 921   NORMALIZED FREE ENERGY PREDICTED BY IDOCK:   -4.30 KCAL/MOL
REMARK 922        TOTAL FREE ENERGY PREDICTED BY IDOCK:   -6.05 KCAL/MOL
REMARK 923 INTER-LIGAND FREE ENERGY PREDICTED BY IDOCK:   -5.77 KCAL/MOL
REMARK 924 INTRA-LIGAND FREE ENERGY PREDICTED BY IDOCK:   -0.28 KCAL/MOL
REMARK 927      BINDING AFFINITY PREDICTED BY RF-SCORE:    0.00 PKD
ROOT
HETATM    1  S   UNL     1     -12.057  13.680  70.095  1.00  0.00    -0.343 S  
HETATM    2  C   UNL     1     -11.770  13.461  68.450  1.00  0.00    -0.355 C  
ENDROOT
BRANCH   2   3
HETATM    3  S   UNL     1     -11.715  11.833  67.732  1.00  0.00    -0.208 SA 
BRANCH   3   4
HETATM    4  S   UNL     1     -10.108  10.985  68.737  1.00  0.00    -0.198 SA 
BRANCH   4   5
HETATM    5  C   UNL     1     -10.646   9.322  69.066  1.00  0.00    -0.205 C  
HETATM    6  S   UNL     1     -10.086   8.090  68.053  1.00  0.00    -0.203 S  
BRANCH   5   7
HETATM    7  N   UNL     1     -11.409   9.122  70.240  1.00  0.00    -0.227 N  
HETATM    8  C   UNL     1     -13.273  10.030  71.628  1.00  0.00    -0.518 C  
HETATM    9  C   UNL     1     -11.870  10.256  71.066  1.00  0.00    -0.377 C  
HETATM   10  C   UNL     1     -13.373   8.708  72.376  1.00  0.00    -0.383 C  
HETATM   11  C   UNL     1     -12.900   7.562  71.490  1.00  0.00    -0.397 C  
HETATM   12  C   UNL     1     -11.500   7.824  70.934  1.00  0.00    -0.279 C  
ENDBRANCH   5   7
ENDBRANCH   4   5
ENDBRANCH   3   4
ENDBRANCH   2   3
BRANCH   2  13
HETATM   13  N   UNL     1     -11.554  14.509  67.549  1.00  0.00    -0.365 N  
HETATM   14  C   UNL     1     -10.331  14.489  65.385  1.00  0.00    -0.405 C  
HETATM   15  C   UNL     1     -10.945  15.780  67.952  1.00  0.00    -0.324 C  
HETATM   16  C   UNL     1     -11.673  14.326  66.094  1.00  0.00    -0.390 C  
HETATM   17  C   UNL     1      -9.576  15.956  67.282  1.00  0.00    -0.220 C  
HETATM   18  C   UNL     1      -9.672  15.813  65.763  1.00  0.00    -0.372 C  
ENDBRANCH   2  13
TORSDOF 5
ENDMDL
MODEL       75
REMARK 921   NORMALIZED FREE ENERGY PREDICTED BY IDOCK:   -4.29 KCAL/MOL
REMARK 922        TOTAL FREE ENERGY PREDICTED BY IDOCK:   -6.04 KCAL/MOL
REMARK 923 INTER-LIGAND FREE ENERGY PREDICTED BY IDOCK:   -5.69 KCAL/MOL
REMARK 924 INTRA-LIGAND FREE ENERGY PREDICTED BY IDOCK:   -0.35 KCAL/MOL
REMARK 927      BINDING AFFINITY PREDICTED BY RF-SCORE:    0.00 PKD
ROOT
HETATM    1  S   UNL     1      -8.351   7.098  68.787  1.00  0.00    -0.126 S  
HETATM    2  C   UNL     1      -9.888   7.759  68.593  1.00  0.00    -0.169 C  
ENDROOT
BRANCH   2   3
HETATM    3  S   UNL     1     -10.401   8.461  67.039  1.00  0.00    -0.301 SA 
BRANCH   3   4
HETATM    4  S   UNL     1      -8.836   9.763  66.630  1.00  0.00    -0.139 SA 
BRANCH   4   5
HETATM    5  C   UNL     1      -9.157  10.299  64.964  1.00  0.00    -0.207 C  
HETATM    6  S   UNL     1      -8.459   9.423  63.698  1.00  0.00    -0.204 S  
BRANCH   5   7
HETATM    7  N   UNL     1     -10.087  11.353  64.805  1.00  0.00    -0.260 N  
HETATM    8  C   UNL     1     -12.118  12.097  63.560  1.00  0.00    -0.649 C  
HETATM    9  C   UNL     1     -10.643  11.701  63.482  1.00  0.00    -0.435 C  
HETATM   10  C   UNL     1     -12.349  13.204  64.580  1.00  0.00    -0.463 C  
HETATM   11  C   UNL     1     -11.772  12.804  65.932  1.00  0.00    -0.464 C  
HETATM   12  C   UNL     1     -10.301  12.402  65.818  1.00  0.00    -0.263 C  
ENDBRANCH   5   7
ENDBRANCH   4   5
ENDBRANCH   3   4
ENDBRANCH   2   3
BRANCH   2  13
HETATM   13  N   UNL     1     -10.850   7.811  69.607  1.00  0.00    -0.223 N  
HETATM   14  C   UNL     1     -10.731   8.927  71.824  1.00  0.00    -0.432 C  
HETATM   15  C   UNL     1     -11.456   6.604  70.178  1.00  0.00    -0.385 C  
HETATM   16  C   UNL     1     -11.131   9.045  70.356  1.00  0.00    -0.244 C  
HETATM   17  C   UNL     1     -11.044   6.439  71.645  1.00  0.00    -0.314 C  
HETATM   18  C   UNL     1     -11.361   7.691  72.463  1.00  0.00    -0.409 C  
ENDBRANCH   2  13
TORSDOF 5
ENDMDL
MODEL       76
REMARK 921   NORMALIZED FREE ENERGY PREDICTED BY IDOCK:   -4.29 KCAL/MOL
REMARK 922        TOTAL FREE ENERGY PREDICTED BY IDOCK:   -6.04 KCAL/MOL
REMARK 923 INTER-LIGAND FREE ENERGY PREDICTED BY IDOCK:   -5.78 KCAL/MOL
REMARK 924 INTRA-LIGAND FREE ENERGY PREDICTED BY IDOCK:   -0.25 KCAL/MOL
REMARK 927      BINDING AFFINITY PREDICTED BY RF-SCORE:    0.00 PKD
ROOT
HETATM    1  S   UNL     1      -9.007  13.345  67.561  1.00  0.00    -0.220 S  
HETATM    2  C   UNL     1     -10.248  14.034  66.654  1.00  0.00    -0.275 C  
ENDROOT
BRANCH   2   3
HETATM    3  S   UNL     1     -10.479  15.798  66.598  1.00  0.00    -0.302 SA 
BRANCH   3   4
HETATM    4  S   UNL     1      -8.953  16.461  67.840  1.00  0.00    -0.197 SA 
BRANCH   4   5
HETATM    5  C   UNL     1      -8.921  18.219  67.568  1.00  0.00    -0.253 C  
HETATM    6  S   UNL     1     -10.371  18.989  67.168  1.00  0.00    -0.443 S  
BRANCH   5   7
HETATM    7  N   UNL     1      -7.698  18.880  67.834  1.00  0.00    -0.256 N  
HETATM    8  C   UNL     1      -6.317  20.887  67.295  1.00  0.00    -0.371 C  
HETATM    9  C   UNL     1      -6.963  19.602  66.777  1.00  0.00    -0.201 C  
HETATM   10  C   UNL     1      -5.443  20.625  68.515  1.00  0.00    -0.330 C  
HETATM   11  C   UNL     1      -6.238  19.889  69.586  1.00  0.00    -0.377 C  
HETATM   12  C   UNL     1      -6.881  18.616  69.033  1.00  0.00    -0.280 C  
ENDBRANCH   5   7
ENDBRANCH   4   5
ENDBRANCH   3   4
ENDBRANCH   2   3
BRANCH   2  13
HETATM   13  N   UNL     1     -11.168  13.296  65.901  1.00  0.00    -0.288 N  
HETATM   14  C   UNL     1     -10.780  11.906  63.878  1.00  0.00    -0.450 C  
HETATM   15  C   UNL     1     -12.379  13.895  65.333  1.00  0.00    -0.470 C  
HETATM   16  C   UNL     1     -10.865  11.946  65.402  1.00  0.00    -0.294 C  
HETATM   17  C   UNL     1     -12.308  13.901  63.801  1.00  0.00    -0.260 C  
HETATM   18  C   UNL     1     -12.036  12.503  63.246  1.00  0.00    -0.516 C  
ENDBRANCH   2  13
TORSDOF 5
ENDMDL
MODEL       77
REMARK 921   NORMALIZED FREE ENERGY PREDICTED BY IDOCK:   -4.28 KCAL/MOL
REMARK 922        TOTAL FREE ENERGY PREDICTED BY IDOCK:   -6.03 KCAL/MOL
REMARK 923 INTER-LIGAND FREE ENERGY PREDICTED BY IDOCK:   -5.80 KCAL/MOL
REMARK 924 INTRA-LIGAND FREE ENERGY PREDICTED BY IDOCK:   -0.23 KCAL/MOL
REMARK 927      BINDING AFFINITY PREDICTED BY RF-SCORE:    0.00 PKD
ROOT
HETATM    1  S   UNL     1      -9.986  10.882  66.358  1.00  0.00    -0.228 S  
HETATM    2  C   UNL     1     -11.198  11.834  67.038  1.00  0.00    -0.322 C  
ENDROOT
BRANCH   2   3
HETATM    3  S   UNL     1     -11.600  11.718  68.768  1.00  0.00    -0.332 SA 
BRANCH   3   4
HETATM    4  S   UNL     1     -10.938   9.805  69.226  1.00  0.00    -0.153 SA 
BRANCH   4   5
HETATM    5  C   UNL     1     -11.349   9.616  70.947  1.00  0.00    -0.360 C  
HETATM    6  S   UNL     1     -12.722  10.411  71.528  1.00  0.00    -0.478 S  
BRANCH   5   7
HETATM    7  N   UNL     1     -10.565   8.702  71.690  1.00  0.00    -0.276 N  
HETATM    8  C   UNL     1      -8.460   8.432  73.002  1.00  0.00    -0.209 C  
HETATM    9  C   UNL     1      -9.090   8.730  71.641  1.00  0.00    -0.244 C  
HETATM   10  C   UNL     1      -8.983   7.128  73.591  1.00  0.00    -0.214 C  
HETATM   11  C   UNL     1     -10.506   7.142  73.634  1.00  0.00    -0.412 C  
HETATM   12  C   UNL     1     -11.103   7.454  72.262  1.00  0.00    -0.266 C  
ENDBRANCH   5   7
ENDBRANCH   4   5
ENDBRANCH   3   4
ENDBRANCH   2   3
BRANCH   2  13
HETATM   13  N   UNL     1     -11.962  12.757  66.317  1.00  0.00    -0.417 N  
HETATM   14  C   UNL     1     -11.847  13.344  63.904  1.00  0.00    -0.492 C  
HETATM   15  C   UNL     1     -12.081  14.163  66.716  1.00  0.00    -0.442 C  
HETATM   16  C   UNL     1     -12.485  12.461  64.974  1.00  0.00    -0.316 C  
HETATM   17  C   UNL     1     -11.417  15.074  65.676  1.00  0.00    -0.248 C  
HETATM   18  C   UNL     1     -11.968  14.821  64.274  1.00  0.00    -0.387 C  
ENDBRANCH   2  13
TORSDOF 5
ENDMDL
MODEL       78
REMARK 921   NORMALIZED FREE ENERGY PREDICTED BY IDOCK:   -4.28 KCAL/MOL
REMARK 922        TOTAL FREE ENERGY PREDICTED BY IDOCK:   -6.03 KCAL/MOL
REMARK 923 INTER-LIGAND FREE ENERGY PREDICTED BY IDOCK:   -5.59 KCAL/MOL
REMARK 924 INTRA-LIGAND FREE ENERGY PREDICTED BY IDOCK:   -0.44 KCAL/MOL
REMARK 927      BINDING AFFINITY PREDICTED BY RF-SCORE:    0.00 PKD
ROOT
HETATM    1  S   UNL     1      -9.691  19.065  68.288  1.00  0.00    -0.386 S  
HETATM    2  C   UNL     1      -8.298  18.279  67.758  1.00  0.00    -0.255 C  
ENDROOT
BRANCH   2   3
HETATM    3  S   UNL     1      -8.384  16.929  66.602  1.00  0.00    -0.281 SA 
BRANCH   3   4
HETATM    4  S   UNL     1     -10.380  16.990  66.033  1.00  0.00    -0.254 SA 
BRANCH   4   5
HETATM    5  C   UNL     1     -10.935  15.315  66.262  1.00  0.00    -0.300 C  
HETATM    6  S   UNL     1     -10.747  14.232  64.978  1.00  0.00    -0.441 S  
BRANCH   5   7
HETATM    7  N   UNL     1     -11.383  14.967  67.558  1.00  0.00    -0.331 N  
HETATM    8  C   UNL     1     -11.542  13.113  69.221  1.00  0.00    -0.370 C  
HETATM    9  C   UNL     1     -11.960  13.639  67.847  1.00  0.00    -0.347 C  
HETATM   10  C   UNL     1     -11.850  14.116  70.325  1.00  0.00    -0.373 C  
HETATM   11  C   UNL     1     -11.230  15.469  69.996  1.00  0.00    -0.325 C  
HETATM   12  C   UNL     1     -11.657  15.961  68.613  1.00  0.00    -0.380 C  
ENDBRANCH   5   7
ENDBRANCH   4   5
ENDBRANCH   3   4
ENDBRANCH   2   3
BRANCH   2  13
HETATM   13  N   UNL     1      -7.006  18.614  68.176  1.00  0.00    -0.238 N  
HETATM   14  C   UNL     1      -5.619  17.581  69.961  1.00  0.00    -0.248 C  
HETATM   15  C   UNL     1      -6.641  19.972  68.593  1.00  0.00    -0.306 C  
HETATM   16  C   UNL     1      -5.993  17.592  68.481  1.00  0.00    -0.167 C  
HETATM   17  C   UNL     1      -6.293  20.000  70.086  1.00  0.00    -0.368 C  
HETATM   18  C   UNL     1      -5.211  18.976  70.430  1.00  0.00    -0.222 C  
ENDBRANCH   2  13
TORSDOF 5
ENDMDL
MODEL       79
REMARK 921   NORMALIZED FREE ENERGY PREDICTED BY IDOCK:   -4.26 KCAL/MOL
REMARK 922        TOTAL FREE ENERGY PREDICTED BY IDOCK:   -6.00 KCAL/MOL
REMARK 923 INTER-LIGAND FREE ENERGY PREDICTED BY IDOCK:   -5.72 KCAL/MOL
REMARK 924 INTRA-LIGAND FREE ENERGY PREDICTED BY IDOCK:   -0.28 KCAL/MOL
REMARK 927      BINDING AFFINITY PREDICTED BY RF-SCORE:    0.00 PKD
ROOT
HETATM    1  S   UNL     1     -12.314  11.262  70.650  1.00  0.00    -0.370 S  
HETATM    2  C   UNL     1     -11.329  10.144  69.866  1.00  0.00    -0.275 C  
ENDROOT
BRANCH   2   3
HETATM    3  S   UNL     1     -10.828  10.382  68.174  1.00  0.00    -0.281 SA 
BRANCH   3   4
HETATM    4  S   UNL     1      -9.936  12.255  68.260  1.00  0.00    -0.209 SA 
BRANCH   4   5
HETATM    5  C   UNL     1     -10.736  13.164  66.956  1.00  0.00    -0.262 C  
HETATM    6  S   UNL     1     -11.635  12.296  65.817  1.00  0.00    -0.363 S  
BRANCH   5   7
HETATM    7  N   UNL     1     -10.671  14.575  67.034  1.00  0.00    -0.286 N  
HETATM    8  C   UNL     1     -10.792  16.530  68.580  1.00  0.00    -0.345 C  
HETATM    9  C   UNL     1     -11.526  15.338  67.965  1.00  0.00    -0.341 C  
HETATM   10  C   UNL     1     -10.178  17.425  67.512  1.00  0.00    -0.332 C  
HETATM   11  C   UNL     1      -9.296  16.604  66.579  1.00  0.00    -0.290 C  
HETATM   12  C   UNL     1     -10.055  15.415  65.990  1.00  0.00    -0.324 C  
ENDBRANCH   5   7
ENDBRANCH   4   5
ENDBRANCH   3   4
ENDBRANCH   2   3
BRANCH   2  13
HETATM   13  N   UNL     1     -10.845   8.975  70.463  1.00  0.00    -0.238 N  
HETATM   14  C   UNL     1     -11.739   6.660  70.328  1.00  0.00    -0.432 C  
HETATM   15  C   UNL     1     -10.613   8.867  71.906  1.00  0.00    -0.349 C  
HETATM   16  C   UNL     1     -10.784   7.695  69.740  1.00  0.00    -0.240 C  
HETATM   17  C   UNL     1     -11.583   7.858  72.532  1.00  0.00    -0.443 C  
HETATM   18  C   UNL     1     -11.515   6.503  71.830  1.00  0.00    -0.345 C  
ENDBRANCH   2  13
TORSDOF 5
ENDMDL
MODEL       80
REMARK 921   NORMALIZED FREE ENERGY PREDICTED BY IDOCK:   -4.26 KCAL/MOL
REMARK 922        TOTAL FREE ENERGY PREDICTED BY IDOCK:   -6.00 KCAL/MOL
REMARK 923 INTER-LIGAND FREE ENERGY PREDICTED BY IDOCK:   -5.58 KCAL/MOL
REMARK 924 INTRA-LIGAND FREE ENERGY PREDICTED BY IDOCK:   -0.41 KCAL/MOL
REMARK 927      BINDING AFFINITY PREDICTED BY RF-SCORE:    0.00 PKD
ROOT
HETATM    1  S   UNL     1     -11.641  12.744  68.209  1.00  0.00    -0.353 S  
HETATM    2  C   UNL     1     -10.542  13.303  67.061  1.00  0.00    -0.259 C  
ENDROOT
BRANCH   2   3
HETATM    3  S   UNL     1      -9.019  14.085  67.548  1.00  0.00    -0.207 SA 
BRANCH   3   4
HETATM    4  S   UNL     1      -9.166  15.922  66.591  1.00  0.00    -0.278 SA 
BRANCH   4   5
HETATM    5  C   UNL     1      -9.548  17.054  67.909  1.00  0.00    -0.249 C  
HETATM    6  S   UNL     1     -10.580  16.525  69.138  1.00  0.00    -0.334 S  
BRANCH   5   7
HETATM    7  N   UNL     1      -8.854  18.288  67.907  1.00  0.00    -0.264 N  
HETATM    8  C   UNL     1      -6.717  19.413  67.279  1.00  0.00    -0.213 C  
HETATM    9  C   UNL     1      -7.399  18.357  68.149  1.00  0.00    -0.261 C  
HETATM   10  C   UNL     1      -7.381  20.776  67.424  1.00  0.00    -0.390 C  
HETATM   11  C   UNL     1      -8.877  20.665  67.157  1.00  0.00    -0.335 C  
HETATM   12  C   UNL     1      -9.526  19.594  68.034  1.00  0.00    -0.354 C  
ENDBRANCH   5   7
ENDBRANCH   4   5
ENDBRANCH   3   4
ENDBRANCH   2   3
BRANCH   2  13
HETATM   13  N   UNL     1     -10.737  13.203  65.680  1.00  0.00    -0.277 N  
HETATM   14  C   UNL     1     -12.811  12.654  64.425  1.00  0.00    -0.344 C  
HETATM   15  C   UNL     1      -9.919  12.332  64.831  1.00  0.00    -0.195 C  
HETATM   16  C   UNL     1     -11.931  13.751  65.017  1.00  0.00    -0.383 C  
HETATM   17  C   UNL     1     -10.770  11.197  64.249  1.00  0.00    -0.403 C  
HETATM   18  C   UNL     1     -11.999  11.735  63.516  1.00  0.00    -0.484 C  
ENDBRANCH   2  13
TORSDOF 5
ENDMDL
MODEL       81
REMARK 921   NORMALIZED FREE ENERGY PREDICTED BY IDOCK:   -4.24 KCAL/MOL
REMARK 922        TOTAL FREE ENERGY PREDICTED BY IDOCK:   -5.98 KCAL/MOL
REMARK 923 INTER-LIGAND FREE ENERGY PREDICTED BY IDOCK:   -5.66 KCAL/MOL
REMARK 924 INTRA-LIGAND FREE ENERGY PREDICTED BY IDOCK:   -0.32 KCAL/MOL
REMARK 927      BINDING AFFINITY PREDICTED BY RF-SCORE:    0.00 PKD
ROOT
HETATM    1  S   UNL     1     -12.144   9.915  71.353  1.00  0.00    -0.420 S  
HETATM    2  C   UNL     1     -11.023   9.259  70.281  1.00  0.00    -0.247 C  
ENDROOT
BRANCH   2   3
HETATM    3  S   UNL     1     -10.326  10.234  68.965  1.00  0.00    -0.226 SA 
BRANCH   3   4
HETATM    4  S   UNL     1     -11.753  11.726  68.746  1.00  0.00    -0.331 SA 
BRANCH   4   5
HETATM    5  C   UNL     1     -11.005  12.861  67.599  1.00  0.00    -0.247 C  
HETATM    6  S   UNL     1      -9.759  13.855  68.162  1.00  0.00    -0.226 S  
BRANCH   5   7
HETATM    7  N   UNL     1     -11.419  12.765  66.249  1.00  0.00    -0.334 N  
HETATM    8  C   UNL     1     -12.260  14.057  64.287  1.00  0.00    -0.453 C  
HETATM    9  C   UNL     1     -12.524  13.588  65.718  1.00  0.00    -0.462 C  
HETATM   10  C   UNL     1     -11.928  12.891  63.365  1.00  0.00    -0.612 C  
HETATM   11  C   UNL     1     -10.779  12.074  63.941  1.00  0.00    -0.450 C  
HETATM   12  C   UNL     1     -11.068  11.631  65.376  1.00  0.00    -0.239 C  
ENDBRANCH   5   7
ENDBRANCH   4   5
ENDBRANCH   3   4
ENDBRANCH   2   3
BRANCH   2  13
HETATM   13  N   UNL     1     -10.570   7.937  70.336  1.00  0.00    -0.223 N  
HETATM   14  C   UNL     1      -8.677   6.876  69.125  1.00  0.00    -0.135 C  
HETATM   15  C   UNL     1     -11.452   6.792  70.086  1.00  0.00    -0.349 C  
HETATM   16  C   UNL     1      -9.138   7.602  70.386  1.00  0.00    -0.152 C  
HETATM   17  C   UNL     1     -11.033   6.062  68.804  1.00  0.00    -0.384 C  
HETATM   18  C   UNL     1      -9.559   5.662  68.840  1.00  0.00    -0.168 C  
ENDBRANCH   2  13
TORSDOF 5
ENDMDL
MODEL       82
REMARK 921   NORMALIZED FREE ENERGY PREDICTED BY IDOCK:   -4.23 KCAL/MOL
REMARK 922        TOTAL FREE ENERGY PREDICTED BY IDOCK:   -5.96 KCAL/MOL
REMARK 923 INTER-LIGAND FREE ENERGY PREDICTED BY IDOCK:   -5.55 KCAL/MOL
REMARK 924 INTRA-LIGAND FREE ENERGY PREDICTED BY IDOCK:   -0.41 KCAL/MOL
REMARK 927      BINDING AFFINITY PREDICTED BY RF-SCORE:    0.00 PKD
ROOT
HETATM    1  S   UNL     1      -9.139  10.173  64.091  1.00  0.00    -0.270 S  
HETATM    2  C   UNL     1      -9.530  11.228  65.345  1.00  0.00    -0.225 C  
ENDROOT
BRANCH   2   3
HETATM    3  S   UNL     1      -9.090  10.859  67.030  1.00  0.00    -0.150 SA 
BRANCH   3   4
HETATM    4  S   UNL     1     -10.834   9.980  67.736  1.00  0.00    -0.246 SA 
BRANCH   4   5
HETATM    5  C   UNL     1     -10.280   8.433  68.419  1.00  0.00    -0.206 C  
HETATM    6  S   UNL     1      -9.133   7.545  67.551  1.00  0.00    -0.125 S  
BRANCH   5   7
HETATM    7  N   UNL     1     -10.744   8.110  69.716  1.00  0.00    -0.245 N  
HETATM    8  C   UNL     1     -10.887   6.299  71.428  1.00  0.00    -0.312 C  
HETATM    9  C   UNL     1     -11.291   6.775  70.032  1.00  0.00    -0.342 C  
HETATM   10  C   UNL     1     -11.243   7.324  72.496  1.00  0.00    -0.342 C  
HETATM   11  C   UNL     1     -10.653   8.683  72.141  1.00  0.00    -0.411 C  
HETATM   12  C   UNL     1     -11.065   9.124  70.736  1.00  0.00    -0.275 C  
ENDBRANCH   5   7
ENDBRANCH   4   5
ENDBRANCH   3   4
ENDBRANCH   2   3
BRANCH   2  13
HETATM   13  N   UNL     1     -10.213  12.435  65.166  1.00  0.00    -0.281 N  
HETATM   14  C   UNL     1     -11.747  13.614  66.726  1.00  0.00    -0.426 C  
HETATM   15  C   UNL     1     -11.093  12.679  64.019  1.00  0.00    -0.405 C  
HETATM   16  C   UNL     1     -10.313  13.442  66.234  1.00  0.00    -0.291 C  
HETATM   17  C   UNL     1     -12.549  12.820  64.480  1.00  0.00    -0.463 C  
HETATM   18  C   UNL     1     -12.694  13.890  65.561  1.00  0.00    -0.536 C  
ENDBRANCH   2  13
TORSDOF 5
ENDMDL
MODEL       83
REMARK 921   NORMALIZED FREE ENERGY PREDICTED BY IDOCK:   -4.21 KCAL/MOL
REMARK 922        TOTAL FREE ENERGY PREDICTED BY IDOCK:   -5.94 KCAL/MOL
REMARK 923 INTER-LIGAND FREE ENERGY PREDICTED BY IDOCK:   -5.52 KCAL/MOL
REMARK 924 INTRA-LIGAND FREE ENERGY PREDICTED BY IDOCK:   -0.42 KCAL/MOL
REMARK 927      BINDING AFFINITY PREDICTED BY RF-SCORE:    0.00 PKD
ROOT
HETATM    1  S   UNL     1     -10.424  18.713  67.791  1.00  0.00    -0.391 S  
HETATM    2  C   UNL     1      -9.123  17.771  68.297  1.00  0.00    -0.281 C  
ENDROOT
BRANCH   2   3
HETATM    3  S   UNL     1      -9.368  16.126  68.932  1.00  0.00    -0.245 SA 
BRANCH   3   4
HETATM    4  S   UNL     1     -11.353  15.774  68.433  1.00  0.00    -0.361 SA 
BRANCH   4   5
HETATM    5  C   UNL     1     -11.248  14.696  67.021  1.00  0.00    -0.344 C  
HETATM    6  S   UNL     1     -10.908  15.386  65.516  1.00  0.00    -0.377 S  
BRANCH   5   7
HETATM    7  N   UNL     1     -11.329  13.306  67.276  1.00  0.00    -0.299 N  
HETATM    8  C   UNL     1     -10.592  11.053  66.497  1.00  0.00    -0.310 C  
HETATM    9  C   UNL     1     -11.387  12.320  66.179  1.00  0.00    -0.353 C  
HETATM   10  C   UNL     1     -11.012  10.445  67.828  1.00  0.00    -0.369 C  
HETATM   11  C   UNL     1     -10.929  11.488  68.935  1.00  0.00    -0.279 C  
HETATM   12  C   UNL     1     -11.723  12.746  68.582  1.00  0.00    -0.324 C  
ENDBRANCH   5   7
ENDBRANCH   4   5
ENDBRANCH   3   4
ENDBRANCH   2   3
BRANCH   2  13
HETATM   13  N   UNL     1      -7.791  18.196  68.263  1.00  0.00    -0.283 N  
HETATM   14  C   UNL     1      -5.908  17.569  69.759  1.00  0.00    -0.244 C  
HETATM   15  C   UNL     1      -7.417  19.613  68.283  1.00  0.00    -0.314 C  
HETATM   16  C   UNL     1      -6.669  17.267  68.471  1.00  0.00    -0.185 C  
HETATM   17  C   UNL     1      -6.680  19.955  69.584  1.00  0.00    -0.337 C  
HETATM   18  C   UNL     1      -5.481  19.035  69.809  1.00  0.00    -0.222 C  
ENDBRANCH   2  13
TORSDOF 5
ENDMDL
MODEL       84
REMARK 921   NORMALIZED FREE ENERGY PREDICTED BY IDOCK:   -4.21 KCAL/MOL
REMARK 922        TOTAL FREE ENERGY PREDICTED BY IDOCK:   -5.94 KCAL/MOL
REMARK 923 INTER-LIGAND FREE ENERGY PREDICTED BY IDOCK:   -5.59 KCAL/MOL
REMARK 924 INTRA-LIGAND FREE ENERGY PREDICTED BY IDOCK:   -0.34 KCAL/MOL
REMARK 927      BINDING AFFINITY PREDICTED BY RF-SCORE:    0.00 PKD
ROOT
HETATM    1  S   UNL     1     -11.748  14.785  69.476  1.00  0.00    -0.341 S  
HETATM    2  C   UNL     1     -11.293  13.924  68.101  1.00  0.00    -0.295 C  
ENDROOT
BRANCH   2   3
HETATM    3  S   UNL     1     -10.312  14.680  66.822  1.00  0.00    -0.273 SA 
BRANCH   3   4
HETATM    4  S   UNL     1      -8.554  15.109  67.840  1.00  0.00    -0.158 SA 
BRANCH   4   5
HETATM    5  C   UNL     1      -8.144  16.754  67.299  1.00  0.00    -0.177 C  
HETATM    6  S   UNL     1      -6.648  16.996  66.552  1.00  0.00    -0.164 S  
BRANCH   5   7
HETATM    7  N   UNL     1      -9.161  17.732  67.415  1.00  0.00    -0.242 N  
HETATM    8  C   UNL     1     -10.088  19.532  68.873  1.00  0.00    -0.486 C  
HETATM    9  C   UNL     1      -9.793  18.041  68.713  1.00  0.00    -0.354 C  
HETATM   10  C   UNL     1     -10.901  20.073  67.704  1.00  0.00    -0.211 C  
HETATM   11  C   UNL     1     -10.213  19.744  66.385  1.00  0.00    -0.614 C  
HETATM   12  C   UNL     1      -9.921  18.249  66.262  1.00  0.00    -0.357 C  
ENDBRANCH   5   7
ENDBRANCH   4   5
ENDBRANCH   3   4
ENDBRANCH   2   3
BRANCH   2  13
HETATM   13  N   UNL     1     -11.642  12.591  67.864  1.00  0.00    -0.328 N  
HETATM   14  C   UNL     1     -10.842  10.533  69.005  1.00  0.00    -0.272 C  
HETATM   15  C   UNL     1     -11.533  11.973  66.539  1.00  0.00    -0.349 C  
HETATM   16  C   UNL     1     -11.891  11.641  68.959  1.00  0.00    -0.328 C  
HETATM   17  C   UNL     1     -10.459  10.878  66.544  1.00  0.00    -0.308 C  
HETATM   18  C   UNL     1     -10.712   9.849  67.646  1.00  0.00    -0.339 C  
ENDBRANCH   2  13
TORSDOF 5
ENDMDL
MODEL       85
REMARK 921   NORMALIZED FREE ENERGY PREDICTED BY IDOCK:   -4.21 KCAL/MOL
REMARK 922        TOTAL FREE ENERGY PREDICTED BY IDOCK:   -5.93 KCAL/MOL
REMARK 923 INTER-LIGAND FREE ENERGY PREDICTED BY IDOCK:   -5.62 KCAL/MOL
REMARK 924 INTRA-LIGAND FREE ENERGY PREDICTED BY IDOCK:   -0.31 KCAL/MOL
REMARK 927      BINDING AFFINITY PREDICTED BY RF-SCORE:    0.00 PKD
ROOT
HETATM    1  S   UNL     1     -10.721  15.234  66.400  1.00  0.00    -0.318 S  
HETATM    2  C   UNL     1     -10.348  16.297  67.653  1.00  0.00    -0.284 C  
ENDROOT
BRANCH   2   3
HETATM    3  S   UNL     1     -10.792  15.928  69.337  1.00  0.00    -0.316 SA 
BRANCH   3   4
HETATM    4  S   UNL     1     -12.409  14.653  69.075  1.00  0.00     0.033 SA 
BRANCH   4   5
HETATM    5  C   UNL     1     -12.532  13.801  70.633  1.00  0.00    -0.359 C  
HETATM    6  S   UNL     1     -13.174  14.643  71.950  1.00  0.00    -0.382 S  
BRANCH   5   7
HETATM    7  N   UNL     1     -12.201  12.426  70.631  1.00  0.00    -0.352 N  
HETATM    8  C   UNL     1     -13.060  10.131  71.107  1.00  0.00    -0.480 C  
HETATM    9  C   UNL     1     -12.706  11.507  71.672  1.00  0.00    -0.290 C  
HETATM   10  C   UNL     1     -11.897   9.525  70.333  1.00  0.00    -0.181 C  
HETATM   11  C   UNL     1     -11.411  10.496  69.264  1.00  0.00    -0.323 C  
HETATM   12  C   UNL     1     -11.078  11.865  69.859  1.00  0.00     0.157 C  
ENDBRANCH   5   7
ENDBRANCH   4   5
ENDBRANCH   3   4
ENDBRANCH   2   3
BRANCH   2  13
HETATM   13  N   UNL     1      -9.686  17.515  67.473  1.00  0.00    -0.272 N  
HETATM   14  C   UNL     1      -9.726  19.548  68.902  1.00  0.00    -0.497 C  
HETATM   15  C   UNL     1      -9.808  18.303  66.242  1.00  0.00    -0.321 C  
HETATM   16  C   UNL     1      -9.036  18.224  68.586  1.00  0.00    -0.283 C  
HETATM   17  C   UNL     1     -10.531  19.626  66.521  1.00  0.00    -0.612 C  
HETATM   18  C   UNL     1      -9.855  20.409  67.647  1.00  0.00    -0.538 C  
ENDBRANCH   2  13
TORSDOF 5
ENDMDL
MODEL       86
REMARK 921   NORMALIZED FREE ENERGY PREDICTED BY IDOCK:   -4.19 KCAL/MOL
REMARK 922        TOTAL FREE ENERGY PREDICTED BY IDOCK:   -5.91 KCAL/MOL
REMARK 923 INTER-LIGAND FREE ENERGY PREDICTED BY IDOCK:   -5.52 KCAL/MOL
REMARK 924 INTRA-LIGAND FREE ENERGY PREDICTED BY IDOCK:   -0.40 KCAL/MOL
REMARK 927      BINDING AFFINITY PREDICTED BY RF-SCORE:    0.00 PKD
ROOT
HETATM    1  S   UNL     1      -8.182   9.257  69.868  1.00  0.00    -0.164 S  
HETATM    2  C   UNL     1      -9.794   8.991  69.459  1.00  0.00    -0.180 C  
ENDROOT
BRANCH   2   3
HETATM    3  S   UNL     1     -10.460   9.562  67.910  1.00  0.00    -0.243 SA 
BRANCH   3   4
HETATM    4  S   UNL     1     -11.178  11.440  68.429  1.00  0.00    -0.293 SA 
BRANCH   4   5
HETATM    5  C   UNL     1     -10.132  12.558  67.522  1.00  0.00    -0.207 C  
HETATM    6  S   UNL     1      -8.512  12.685  67.987  1.00  0.00    -0.184 S  
BRANCH   5   7
HETATM    7  N   UNL     1     -10.700  13.174  66.382  1.00  0.00    -0.282 N  
HETATM    8  C   UNL     1     -12.825  13.574  65.138  1.00  0.00    -0.381 C  
HETATM    9  C   UNL     1     -11.808  12.547  65.635  1.00  0.00    -0.438 C  
HETATM   10  C   UNL     1     -12.158  14.684  64.336  1.00  0.00    -0.481 C  
HETATM   11  C   UNL     1     -11.029  15.312  65.143  1.00  0.00    -0.428 C  
HETATM   12  C   UNL     1     -10.037  14.258  65.635  1.00  0.00    -0.341 C  
ENDBRANCH   5   7
ENDBRANCH   4   5
ENDBRANCH   3   4
ENDBRANCH   2   3
BRANCH   2  13
HETATM   13  N   UNL     1     -10.709   8.325  70.282  1.00  0.00    -0.232 N  
HETATM   14  C   UNL     1     -10.633   7.966  72.740  1.00  0.00    -0.418 C  
HETATM   15  C   UNL     1     -11.132   6.944  70.031  1.00  0.00    -0.299 C  
HETATM   16  C   UNL     1     -11.109   8.855  71.595  1.00  0.00    -0.350 C  
HETATM   17  C   UNL     1     -10.637   6.019  71.149  1.00  0.00    -0.303 C  
HETATM   18  C   UNL     1     -11.073   6.519  72.526  1.00  0.00    -0.294 C  
ENDBRANCH   2  13
TORSDOF 5
ENDMDL
MODEL       87
REMARK 921   NORMALIZED FREE ENERGY PREDICTED BY IDOCK:   -4.17 KCAL/MOL
REMARK 922        TOTAL FREE ENERGY PREDICTED BY IDOCK:   -5.89 KCAL/MOL
REMARK 923 INTER-LIGAND FREE ENERGY PREDICTED BY IDOCK:   -5.51 KCAL/MOL
REMARK 924 INTRA-LIGAND FREE ENERGY PREDICTED BY IDOCK:   -0.38 KCAL/MOL
REMARK 927      BINDING AFFINITY PREDICTED BY RF-SCORE:    0.00 PKD
ROOT
HETATM    1  S   UNL     1      -9.847  19.871  68.256  1.00  0.00    -0.378 S  
HETATM    2  C   UNL     1      -9.198  18.351  68.579  1.00  0.00    -0.328 C  
ENDROOT
BRANCH   2   3
HETATM    3  S   UNL     1     -10.248  16.940  68.854  1.00  0.00    -0.328 SA 
BRANCH   3   4
HETATM    4  S   UNL     1     -10.527  16.241  66.919  1.00  0.00    -0.276 SA 
BRANCH   4   5
HETATM    5  C   UNL     1     -11.066  14.561  67.151  1.00  0.00    -0.321 C  
HETATM    6  S   UNL     1     -11.540  14.084  68.702  1.00  0.00    -0.347 S  
BRANCH   5   7
HETATM    7  N   UNL     1     -11.187  13.767  65.986  1.00  0.00    -0.302 N  
HETATM    8  C   UNL     1     -10.617  11.562  64.965  1.00  0.00    -0.354 C  
HETATM    9  C   UNL     1     -10.095  12.879  65.538  1.00  0.00    -0.257 C  
HETATM   10  C   UNL     1     -11.644  11.795  63.866  1.00  0.00    -0.469 C  
HETATM   11  C   UNL     1     -12.758  12.705  64.368  1.00  0.00    -0.417 C  
HETATM   12  C   UNL     1     -12.203  14.007  64.945  1.00  0.00    -0.437 C  
ENDBRANCH   5   7
ENDBRANCH   4   5
ENDBRANCH   3   4
ENDBRANCH   2   3
BRANCH   2  13
HETATM   13  N   UNL     1      -7.827  18.088  68.659  1.00  0.00    -0.300 N  
HETATM   14  C   UNL     1      -6.051  18.502  66.970  1.00  0.00    -0.179 C  
HETATM   15  C   UNL     1      -7.298  16.758  68.979  1.00  0.00    -0.231 C  
HETATM   16  C   UNL     1      -6.818  19.042  68.174  1.00  0.00    -0.244 C  
HETATM   17  C   UNL     1      -6.550  16.173  67.775  1.00  0.00    -0.172 C  
HETATM   18  C   UNL     1      -5.465  17.124  67.271  1.00  0.00    -0.168 C  
ENDBRANCH   2  13
TORSDOF 5
ENDMDL
MODEL       88
REMARK 921   NORMALIZED FREE ENERGY PREDICTED BY IDOCK:   -4.17 KCAL/MOL
REMARK 922        TOTAL FREE ENERGY PREDICTED BY IDOCK:   -5.88 KCAL/MOL
REMARK 923 INTER-LIGAND FREE ENERGY PREDICTED BY IDOCK:   -5.48 KCAL/MOL
REMARK 924 INTRA-LIGAND FREE ENERGY PREDICTED BY IDOCK:   -0.40 KCAL/MOL
REMARK 927      BINDING AFFINITY PREDICTED BY RF-SCORE:    0.00 PKD
ROOT
HETATM    1  S   UNL     1      -7.861   9.644  69.802  1.00  0.00    -0.161 S  
HETATM    2  C   UNL     1      -9.491   9.226  69.731  1.00  0.00    -0.191 C  
ENDROOT
BRANCH   2   3
HETATM    3  S   UNL     1     -10.524   9.769  68.387  1.00  0.00    -0.227 SA 
BRANCH   3   4
HETATM    4  S   UNL     1     -11.061  11.674  69.014  1.00  0.00    -0.248 SA 
BRANCH   4   5
HETATM    5  C   UNL     1     -10.151  12.749  67.926  1.00  0.00    -0.231 C  
HETATM    6  S   UNL     1      -8.492  12.928  68.191  1.00  0.00    -0.172 S  
BRANCH   5   7
HETATM    7  N   UNL     1     -10.860  13.285  66.825  1.00  0.00    -0.279 N  
HETATM    8  C   UNL     1     -10.709  14.834  64.874  1.00  0.00    -0.438 C  
HETATM    9  C   UNL     1     -10.677  14.686  66.395  1.00  0.00    -0.309 C  
HETATM   10  C   UNL     1     -11.966  14.217  64.275  1.00  0.00    -0.460 C  
HETATM   11  C   UNL     1     -12.114  12.771  64.732  1.00  0.00    -0.488 C  
HETATM   12  C   UNL     1     -12.066  12.656  66.256  1.00  0.00    -0.289 C  
ENDBRANCH   5   7
ENDBRANCH   4   5
ENDBRANCH   3   4
ENDBRANCH   2   3
BRANCH   2  13
HETATM   13  N   UNL     1     -10.140   8.447  70.694  1.00  0.00    -0.190 N  
HETATM   14  C   UNL     1     -11.670   6.515  70.377  1.00  0.00    -0.439 C  
HETATM   15  C   UNL     1     -10.995   9.032  71.732  1.00  0.00    -0.372 C  
HETATM   16  C   UNL     1     -10.233   6.983  70.584  1.00  0.00    -0.191 C  
HETATM   17  C   UNL     1     -12.454   8.607  71.529  1.00  0.00    -0.364 C  
HETATM   18  C   UNL     1     -12.591   7.087  71.453  1.00  0.00    -0.428 C  
ENDBRANCH   2  13
TORSDOF 5
ENDMDL
MODEL       89
REMARK 921   NORMALIZED FREE ENERGY PREDICTED BY IDOCK:   -4.15 KCAL/MOL
REMARK 922        TOTAL FREE ENERGY PREDICTED BY IDOCK:   -5.86 KCAL/MOL
REMARK 923 INTER-LIGAND FREE ENERGY PREDICTED BY IDOCK:   -5.25 KCAL/MOL
REMARK 924 INTRA-LIGAND FREE ENERGY PREDICTED BY IDOCK:   -0.61 KCAL/MOL
REMARK 927      BINDING AFFINITY PREDICTED BY RF-SCORE:    0.00 PKD
ROOT
HETATM    1  S   UNL     1      -7.740  13.758  67.694  1.00  0.00    -0.188 S  
HETATM    2  C   UNL     1      -9.331  13.823  68.245  1.00  0.00    -0.209 C  
ENDROOT
BRANCH   2   3
HETATM    3  S   UNL     1      -9.874  15.114  69.343  1.00  0.00    -0.180 SA 
BRANCH   3   4
HETATM    4  S   UNL     1     -11.353  16.033  68.212  1.00  0.00    -0.280 SA 
BRANCH   4   5
HETATM    5  C   UNL     1     -10.470  16.683  66.810  1.00  0.00    -0.261 C  
HETATM    6  S   UNL     1     -10.718  15.953  65.306  1.00  0.00    -0.387 S  
BRANCH   5   7
HETATM    7  N   UNL     1      -9.713  17.858  67.027  1.00  0.00    -0.287 N  
HETATM    8  C   UNL     1      -7.754  19.185  66.233  1.00  0.00    -0.296 C  
HETATM    9  C   UNL     1      -8.247  17.877  66.852  1.00  0.00    -0.237 C  
HETATM   10  C   UNL     1      -8.247  20.397  67.012  1.00  0.00    -0.349 C  
HETATM   11  C   UNL     1      -9.763  20.347  67.162  1.00  0.00    -0.601 C  
HETATM   12  C   UNL     1     -10.223  19.023  67.772  1.00  0.00    -0.402 C  
ENDBRANCH   5   7
ENDBRANCH   4   5
ENDBRANCH   3   4
ENDBRANCH   2   3
BRANCH   2  13
HETATM   13  N   UNL     1     -10.316  12.894  67.897  1.00  0.00    -0.225 N  
HETATM   14  C   UNL     1     -10.917  10.754  69.009  1.00  0.00    -0.289 C  
HETATM   15  C   UNL     1     -10.395  12.293  66.562  1.00  0.00    -0.227 C  
HETATM   16  C   UNL     1     -11.178  12.254  68.903  1.00  0.00    -0.273 C  
HETATM   17  C   UNL     1     -10.101  10.790  66.631  1.00  0.00    -0.265 C  
HETATM   18  C   UNL     1     -11.010  10.086  67.639  1.00  0.00    -0.297 C  
ENDBRANCH   2  13
TORSDOF 5
ENDMDL
MODEL       90
REMARK 921   NORMALIZED FREE ENERGY PREDICTED BY IDOCK:   -4.14 KCAL/MOL
REMARK 922        TOTAL FREE ENERGY PREDICTED BY IDOCK:   -5.84 KCAL/MOL
REMARK 923 INTER-LIGAND FREE ENERGY PREDICTED BY IDOCK:   -5.50 KCAL/MOL
REMARK 924 INTRA-LIGAND FREE ENERGY PREDICTED BY IDOCK:   -0.34 KCAL/MOL
REMARK 927      BINDING AFFINITY PREDICTED BY RF-SCORE:    0.00 PKD
ROOT
HETATM    1  S   UNL     1     -10.123   8.303  68.732  1.00  0.00    -0.202 S  
HETATM    2  C   UNL     1     -10.423   9.827  69.384  1.00  0.00    -0.223 C  
ENDROOT
BRANCH   2   3
HETATM    3  S   UNL     1      -9.895  11.307  68.549  1.00  0.00    -0.196 SA 
BRANCH   3   4
HETATM    4  S   UNL     1     -11.467  11.629  67.231  1.00  0.00    -0.232 SA 
BRANCH   4   5
HETATM    5  C   UNL     1     -10.849  12.889  66.137  1.00  0.00    -0.279 C  
HETATM    6  S   UNL     1     -10.514  12.460  64.537  1.00  0.00    -0.343 S  
BRANCH   5   7
HETATM    7  N   UNL     1     -10.802  14.207  66.650  1.00  0.00    -0.296 N  
HETATM    8  C   UNL     1     -11.272  15.625  68.649  1.00  0.00    -0.338 C  
HETATM    9  C   UNL     1     -11.847  14.722  67.558  1.00  0.00    -0.301 C  
HETATM   10  C   UNL     1     -10.427  16.749  68.063  1.00  0.00    -0.333 C  
HETATM   11  C   UNL     1      -9.356  16.178  67.142  1.00  0.00    -0.225 C  
HETATM   12  C   UNL     1      -9.962  15.271  66.071  1.00  0.00    -0.319 C  
ENDBRANCH   5   7
ENDBRANCH   4   5
ENDBRANCH   3   4
ENDBRANCH   2   3
BRANCH   2  13
HETATM   13  N   UNL     1     -11.086  10.040  70.597  1.00  0.00    -0.319 N  
HETATM   14  C   UNL     1     -11.934   8.374  72.234  1.00  0.00    -0.455 C  
HETATM   15  C   UNL     1     -12.306  10.849  70.695  1.00  0.00    -0.376 C  
HETATM   16  C   UNL     1     -10.771   9.266  71.807  1.00  0.00    -0.254 C  
HETATM   17  C   UNL     1     -13.501   9.972  71.089  1.00  0.00    -0.299 C  
HETATM   18  C   UNL     1     -13.222   9.184  72.368  1.00  0.00    -0.512 C  
ENDBRANCH   2  13
TORSDOF 5
ENDMDL
MODEL       91
REMARK 921   NORMALIZED FREE ENERGY PREDICTED BY IDOCK:   -4.13 KCAL/MOL
REMARK 922        TOTAL FREE ENERGY PREDICTED BY IDOCK:   -5.83 KCAL/MOL
REMARK 923 INTER-LIGAND FREE ENERGY PREDICTED BY IDOCK:   -5.53 KCAL/MOL
REMARK 924 INTRA-LIGAND FREE ENERGY PREDICTED BY IDOCK:   -0.30 KCAL/MOL
REMARK 927      BINDING AFFINITY PREDICTED BY RF-SCORE:    0.00 PKD
ROOT
HETATM    1  S   UNL     1      -9.041  14.442  67.010  1.00  0.00    -0.244 S  
HETATM    2  C   UNL     1     -10.362  13.423  67.237  1.00  0.00    -0.244 C  
ENDROOT
BRANCH   2   3
HETATM    3  S   UNL     1     -10.871  12.922  68.868  1.00  0.00    -0.155 SA 
BRANCH   3   4
HETATM    4  S   UNL     1     -11.168  10.884  68.608  1.00  0.00    -0.292 SA 
BRANCH   4   5
HETATM    5  C   UNL     1      -9.722  10.149  69.340  1.00  0.00    -0.229 C  
HETATM    6  S   UNL     1      -8.207  10.720  68.853  1.00  0.00    -0.138 S  
BRANCH   5   7
HETATM    7  N   UNL     1      -9.941   9.219  70.383  1.00  0.00    -0.219 N  
HETATM    8  C   UNL     1      -9.069   8.369  72.561  1.00  0.00    -0.326 C  
HETATM    9  C   UNL     1      -8.820   8.540  71.062  1.00  0.00    -0.175 C  
HETATM   10  C   UNL     1     -10.399   7.681  72.836  1.00  0.00    -0.380 C  
HETATM   11  C   UNL     1     -11.530   8.416  72.128  1.00  0.00    -0.442 C  
HETATM   12  C   UNL     1     -11.246   8.580  70.635  1.00  0.00    -0.252 C  
ENDBRANCH   5   7
ENDBRANCH   4   5
ENDBRANCH   3   4
ENDBRANCH   2   3
BRANCH   2  13
HETATM   13  N   UNL     1     -11.136  12.903  66.195  1.00  0.00    -0.280 N  
HETATM   14  C   UNL     1     -10.484  12.430  63.843  1.00  0.00    -0.469 C  
HETATM   15  C   UNL     1     -12.410  13.503  65.785  1.00  0.00    -0.468 C  
HETATM   16  C   UNL     1     -10.615  11.889  65.265  1.00  0.00    -0.275 C  
HETATM   17  C   UNL     1     -12.299  14.087  64.372  1.00  0.00    -0.401 C  
HETATM   18  C   UNL     1     -11.799  13.046  63.371  1.00  0.00    -0.543 C  
ENDBRANCH   2  13
TORSDOF 5
ENDMDL
MODEL       92
REMARK 921   NORMALIZED FREE ENERGY PREDICTED BY IDOCK:   -4.12 KCAL/MOL
REMARK 922        TOTAL FREE ENERGY PREDICTED BY IDOCK:   -5.82 KCAL/MOL
REMARK 923 INTER-LIGAND FREE ENERGY PREDICTED BY IDOCK:   -5.53 KCAL/MOL
REMARK 924 INTRA-LIGAND FREE ENERGY PREDICTED BY IDOCK:   -0.29 KCAL/MOL
REMARK 927      BINDING AFFINITY PREDICTED BY RF-SCORE:    0.00 PKD
ROOT
HETATM    1  S   UNL     1     -12.335  13.606  66.520  1.00  0.00    -0.300 S  
HETATM    2  C   UNL     1     -11.586  14.219  67.899  1.00  0.00    -0.336 C  
ENDROOT
BRANCH   2   3
HETATM    3  S   UNL     1     -12.191  13.829  69.527  1.00  0.00    -0.226 SA 
BRANCH   3   4
HETATM    4  S   UNL     1     -12.003  11.762  69.561  1.00  0.00    -0.275 SA 
BRANCH   4   5
HETATM    5  C   UNL     1     -12.549  11.315  71.194  1.00  0.00    -0.397 C  
HETATM    6  S   UNL     1     -13.196  12.529  72.176  1.00  0.00    -0.268 S  
BRANCH   5   7
HETATM    7  N   UNL     1     -12.525   9.937  71.517  1.00  0.00    -0.382 N  
HETATM    8  C   UNL     1     -13.859   7.829  71.517  1.00  0.00    -0.439 C  
HETATM    9  C   UNL     1     -13.711   9.249  72.063  1.00  0.00    -0.428 C  
HETATM   10  C   UNL     1     -12.589   7.014  71.719  1.00  0.00    -0.388 C  
HETATM   11  C   UNL     1     -11.390   7.750  71.134  1.00  0.00    -0.290 C  
HETATM   12  C   UNL     1     -11.278   9.170  71.690  1.00  0.00    -0.377 C  
ENDBRANCH   5   7
ENDBRANCH   4   5
ENDBRANCH   3   4
ENDBRANCH   2   3
BRANCH   2  13
HETATM   13  N   UNL     1     -10.469  15.060  67.872  1.00  0.00    -0.245 N  
HETATM   14  C   UNL     1      -9.841  16.781  66.193  1.00  0.00    -0.330 C  
HETATM   15  C   UNL     1      -9.097  14.547  67.950  1.00  0.00    -0.191 C  
HETATM   16  C   UNL     1     -10.567  16.480  67.501  1.00  0.00    -0.313 C  
HETATM   17  C   UNL     1      -8.352  14.804  66.635  1.00  0.00    -0.004 C  
HETATM   18  C   UNL     1      -8.399  16.280  66.241  1.00  0.00    -0.343 C  
ENDBRANCH   2  13
TORSDOF 5
ENDMDL
MODEL       93
REMARK 921   NORMALIZED FREE ENERGY PREDICTED BY IDOCK:   -4.12 KCAL/MOL
REMARK 922        TOTAL FREE ENERGY PREDICTED BY IDOCK:   -5.82 KCAL/MOL
REMARK 923 INTER-LIGAND FREE ENERGY PREDICTED BY IDOCK:   -5.24 KCAL/MOL
REMARK 924 INTRA-LIGAND FREE ENERGY PREDICTED BY IDOCK:   -0.58 KCAL/MOL
REMARK 927      BINDING AFFINITY PREDICTED BY RF-SCORE:    0.00 PKD
ROOT
HETATM    1  S   UNL     1      -9.148  15.345  69.296  1.00  0.00    -0.252 S  
HETATM    2  C   UNL     1      -9.214  14.856  67.686  1.00  0.00    -0.187 C  
ENDROOT
BRANCH   2   3
HETATM    3  S   UNL     1      -8.638  15.915  66.376  1.00  0.00    -0.309 SA 
BRANCH   3   4
HETATM    4  S   UNL     1      -6.787  16.513  67.103  1.00  0.00    -0.210 SA 
BRANCH   4   5
HETATM    5  C   UNL     1      -6.821  18.285  66.939  1.00  0.00    -0.188 C  
HETATM    6  S   UNL     1      -5.408  19.064  66.437  1.00  0.00    -0.156 S  
BRANCH   5   7
HETATM    7  N   UNL     1      -8.076  18.914  67.116  1.00  0.00    -0.260 N  
HETATM    8  C   UNL     1     -10.207  19.550  65.983  1.00  0.00    -0.567 C  
HETATM    9  C   UNL     1      -8.690  19.731  66.050  1.00  0.00    -0.265 C  
HETATM   10  C   UNL     1     -10.863  19.797  67.334  1.00  0.00    -0.440 C  
HETATM   11  C   UNL     1     -10.211  18.930  68.405  1.00  0.00    -0.433 C  
HETATM   12  C   UNL     1      -8.695  19.125  68.438  1.00  0.00    -0.351 C  
ENDBRANCH   5   7
ENDBRANCH   4   5
ENDBRANCH   3   4
ENDBRANCH   2   3
BRANCH   2  13
HETATM   13  N   UNL     1      -9.714  13.619  67.265  1.00  0.00    -0.237 N  
HETATM   14  C   UNL     1     -12.030  12.732  67.418  1.00  0.00    -0.335 C  
HETATM   15  C   UNL     1      -9.131  12.346  67.699  1.00  0.00    -0.186 C  
HETATM   16  C   UNL     1     -11.009  13.493  66.578  1.00  0.00    -0.291 C  
HETATM   17  C   UNL     1     -10.123  11.573  68.576  1.00  0.00    -0.211 C  
HETATM   18  C   UNL     1     -11.468  11.387  67.873  1.00  0.00    -0.361 C  
ENDBRANCH   2  13
TORSDOF 5
ENDMDL
MODEL       94
REMARK 921   NORMALIZED FREE ENERGY PREDICTED BY IDOCK:   -4.11 KCAL/MOL
REMARK 922        TOTAL FREE ENERGY PREDICTED BY IDOCK:   -5.81 KCAL/MOL
REMARK 923 INTER-LIGAND FREE ENERGY PREDICTED BY IDOCK:   -5.53 KCAL/MOL
REMARK 924 INTRA-LIGAND FREE ENERGY PREDICTED BY IDOCK:   -0.28 KCAL/MOL
REMARK 927      BINDING AFFINITY PREDICTED BY RF-SCORE:    0.00 PKD
ROOT
HETATM    1  S   UNL     1     -10.853   6.423  67.090  1.00  0.00    -0.398 S  
HETATM    2  C   UNL     1     -10.727   7.050  68.648  1.00  0.00    -0.189 C  
ENDROOT
BRANCH   2   3
HETATM    3  S   UNL     1     -10.024   8.659  68.940  1.00  0.00    -0.194 SA 
BRANCH   3   4
HETATM    4  S   UNL     1     -10.262   9.564  67.086  1.00  0.00    -0.250 SA 
BRANCH   4   5
HETATM    5  C   UNL     1     -11.113  11.080  67.462  1.00  0.00    -0.302 C  
HETATM    6  S   UNL     1     -11.856  11.221  68.974  1.00  0.00    -0.336 S  
BRANCH   5   7
HETATM    7  N   UNL     1     -11.001  12.123  66.513  1.00  0.00    -0.270 N  
HETATM    8  C   UNL     1     -12.276  13.827  65.209  1.00  0.00    -0.461 C  
HETATM    9  C   UNL     1     -12.031  12.342  65.478  1.00  0.00    -0.391 C  
HETATM   10  C   UNL     1     -10.981  14.561  64.884  1.00  0.00    -0.421 C  
HETATM   11  C   UNL     1      -9.949  14.320  65.979  1.00  0.00    -0.337 C  
HETATM   12  C   UNL     1      -9.737  12.827  66.231  1.00  0.00    -0.262 C  
ENDBRANCH   5   7
ENDBRANCH   4   5
ENDBRANCH   3   4
ENDBRANCH   2   3
BRANCH   2  13
HETATM   13  N   UNL     1     -11.148   6.375  69.798  1.00  0.00    -0.360 N  
HETATM   14  C   UNL     1     -11.743   7.298  72.028  1.00  0.00    -0.329 C  
HETATM   15  C   UNL     1     -10.380   5.275  70.390  1.00  0.00    -0.275 C  
HETATM   16  C   UNL     1     -12.239   6.881  70.646  1.00  0.00    -0.258 C  
HETATM   17  C   UNL     1      -9.838   5.678  71.767  1.00  0.00    -0.208 C  
HETATM   18  C   UNL     1     -10.954   6.169  72.688  1.00  0.00    -0.291 C  
ENDBRANCH   2  13
TORSDOF 5
ENDMDL
MODEL       95
REMARK 921   NORMALIZED FREE ENERGY PREDICTED BY IDOCK:   -4.11 KCAL/MOL
REMARK 922        TOTAL FREE ENERGY PREDICTED BY IDOCK:   -5.81 KCAL/MOL
REMARK 923 INTER-LIGAND FREE ENERGY PREDICTED BY IDOCK:   -5.54 KCAL/MOL
REMARK 924 INTRA-LIGAND FREE ENERGY PREDICTED BY IDOCK:   -0.27 KCAL/MOL
REMARK 927      BINDING AFFINITY PREDICTED BY RF-SCORE:    0.00 PKD
ROOT
HETATM    1  S   UNL     1     -12.304  11.317  70.843  1.00  0.00    -0.357 S  
HETATM    2  C   UNL     1     -12.379  12.869  70.190  1.00  0.00    -0.179 C  
ENDROOT
BRANCH   2   3
HETATM    3  S   UNL     1     -11.790  13.205  68.544  1.00  0.00    -0.309 SA 
BRANCH   3   4
HETATM    4  S   UNL     1     -11.354  11.296  67.855  1.00  0.00    -0.294 SA 
BRANCH   4   5
HETATM    5  C   UNL     1     -10.347  11.586  66.417  1.00  0.00    -0.237 C  
HETATM    6  S   UNL     1     -10.595  13.013  65.547  1.00  0.00    -0.286 S  
BRANCH   5   7
HETATM    7  N   UNL     1      -9.310  10.655  66.171  1.00  0.00    -0.171 N  
HETATM    8  C   UNL     1      -7.091   9.833  66.963  1.00  0.00    -0.086 C  
HETATM    9  C   UNL     1      -7.891  11.002  66.389  1.00  0.00    -0.150 C  
HETATM   10  C   UNL     1      -7.243   8.577  66.115  1.00  0.00    -0.081 C  
HETATM   11  C   UNL     1      -8.718   8.246  65.921  1.00  0.00    -0.187 C  
HETATM   12  C   UNL     1      -9.491   9.439  65.358  1.00  0.00    -0.253 C  
ENDBRANCH   5   7
ENDBRANCH   4   5
ENDBRANCH   3   4
ENDBRANCH   2   3
BRANCH   2  13
HETATM   13  N   UNL     1     -12.889  13.979  70.871  1.00  0.00    -0.332 N  
HETATM   14  C   UNL     1     -11.698  16.002  71.686  1.00  0.00    -0.583 C  
HETATM   15  C   UNL     1     -13.657  13.855  72.114  1.00  0.00    -0.506 C  
HETATM   16  C   UNL     1     -12.477  15.353  70.545  1.00  0.00    -0.422 C  
HETATM   17  C   UNL     1     -12.882  14.467  73.287  1.00  0.00    -0.510 C  
HETATM   18  C   UNL     1     -12.474  15.912  72.997  1.00  0.00    -0.599 C  
ENDBRANCH   2  13
TORSDOF 5
ENDMDL
MODEL       96
REMARK 921   NORMALIZED FREE ENERGY PREDICTED BY IDOCK:   -4.10 KCAL/MOL
REMARK 922        TOTAL FREE ENERGY PREDICTED BY IDOCK:   -5.79 KCAL/MOL
REMARK 923 INTER-LIGAND FREE ENERGY PREDICTED BY IDOCK:   -5.43 KCAL/MOL
REMARK 924 INTRA-LIGAND FREE ENERGY PREDICTED BY IDOCK:   -0.36 KCAL/MOL
REMARK 927      BINDING AFFINITY PREDICTED BY RF-SCORE:    0.00 PKD
ROOT
HETATM    1  S   UNL     1      -9.402  10.425  63.199  1.00  0.00    -0.329 S  
HETATM    2  C   UNL     1     -10.039  10.907  64.682  1.00  0.00    -0.328 C  
ENDROOT
BRANCH   2   3
HETATM    3  S   UNL     1      -9.233  10.486  66.212  1.00  0.00    -0.173 SA 
BRANCH   3   4
HETATM    4  S   UNL     1     -10.015   8.601  66.594  1.00  0.00    -0.291 SA 
BRANCH   4   5
HETATM    5  C   UNL     1      -9.405   8.212  68.220  1.00  0.00    -0.134 C  
HETATM    6  S   UNL     1      -7.732   8.207  68.462  1.00  0.00    -0.114 S  
BRANCH   5   7
HETATM    7  N   UNL     1     -10.373   8.059  69.241  1.00  0.00    -0.218 N  
HETATM    8  C   UNL     1     -11.291   6.486  70.947  1.00  0.00    -0.393 C  
HETATM    9  C   UNL     1     -11.067   6.775  69.463  1.00  0.00    -0.273 C  
HETATM   10  C   UNL     1     -11.999   7.641  71.644  1.00  0.00    -0.329 C  
HETATM   11  C   UNL     1     -11.249   8.944  71.401  1.00  0.00    -0.382 C  
HETATM   12  C   UNL     1     -11.030   9.197  69.909  1.00  0.00    -0.204 C  
ENDBRANCH   5   7
ENDBRANCH   4   5
ENDBRANCH   3   4
ENDBRANCH   2   3
BRANCH   2  13
HETATM   13  N   UNL     1     -11.217  11.648  64.822  1.00  0.00    -0.272 N  
HETATM   14  C   UNL     1     -12.088  13.491  63.400  1.00  0.00    -0.351 C  
HETATM   15  C   UNL     1     -11.556  12.359  66.059  1.00  0.00    -0.401 C  
HETATM   16  C   UNL     1     -12.068  11.989  63.672  1.00  0.00    -0.527 C  
HETATM   17  C   UNL     1     -11.550  13.875  65.825  1.00  0.00    -0.343 C  
HETATM   18  C   UNL     1     -12.459  14.268  64.661  1.00  0.00    -0.371 C  
ENDBRANCH   2  13
TORSDOF 5
ENDMDL
MODEL       97
REMARK 921   NORMALIZED FREE ENERGY PREDICTED BY IDOCK:   -4.09 KCAL/MOL
REMARK 922        TOTAL FREE ENERGY PREDICTED BY IDOCK:   -5.79 KCAL/MOL
REMARK 923 INTER-LIGAND FREE ENERGY PREDICTED BY IDOCK:   -5.57 KCAL/MOL
REMARK 924 INTRA-LIGAND FREE ENERGY PREDICTED BY IDOCK:   -0.21 KCAL/MOL
REMARK 927      BINDING AFFINITY PREDICTED BY RF-SCORE:    0.00 PKD
ROOT
HETATM    1  S   UNL     1      -8.094  10.078  69.326  1.00  0.00    -0.154 S  
HETATM    2  C   UNL     1      -9.702   9.650  69.586  1.00  0.00    -0.213 C  
ENDROOT
BRANCH   2   3
HETATM    3  S   UNL     1     -11.028  10.501  68.759  1.00  0.00    -0.269 SA 
BRANCH   3   4
HETATM    4  S   UNL     1     -10.021  12.086  67.872  1.00  0.00    -0.203 SA 
BRANCH   4   5
HETATM    5  C   UNL     1     -11.166  13.441  68.006  1.00  0.00    -0.268 C  
HETATM    6  S   UNL     1     -12.063  13.863  66.637  1.00  0.00    -0.433 S  
BRANCH   5   7
HETATM    7  N   UNL     1     -11.345  13.996  69.295  1.00  0.00    -0.261 N  
HETATM    8  C   UNL     1     -11.175  16.088  70.646  1.00  0.00    -0.395 C  
HETATM    9  C   UNL     1     -10.435  15.032  69.825  1.00  0.00    -0.186 C  
HETATM   10  C   UNL     1     -12.016  15.456  71.747  1.00  0.00    -0.473 C  
HETATM   11  C   UNL     1     -12.947  14.402  71.161  1.00  0.00    -0.419 C  
HETATM   12  C   UNL     1     -12.179  13.369  70.337  1.00  0.00    -0.345 C  
ENDBRANCH   5   7
ENDBRANCH   4   5
ENDBRANCH   3   4
ENDBRANCH   2   3
BRANCH   2  13
HETATM   13  N   UNL     1     -10.108   8.627  70.449  1.00  0.00    -0.183 N  
HETATM   14  C   UNL     1     -11.443   6.591  69.949  1.00  0.00    -0.467 C  
HETATM   15  C   UNL     1     -10.855   8.888  71.683  1.00  0.00    -0.349 C  
HETATM   16  C   UNL     1     -10.052   7.209  70.062  1.00  0.00    -0.188 C  
HETATM   17  C   UNL     1     -12.272   8.309  71.586  1.00  0.00    -0.350 C  
HETATM   18  C   UNL     1     -12.248   6.825  71.225  1.00  0.00    -0.415 C  
ENDBRANCH   2  13
TORSDOF 5
ENDMDL
MODEL       98
REMARK 921   NORMALIZED FREE ENERGY PREDICTED BY IDOCK:   -4.09 KCAL/MOL
REMARK 922        TOTAL FREE ENERGY PREDICTED BY IDOCK:   -5.78 KCAL/MOL
REMARK 923 INTER-LIGAND FREE ENERGY PREDICTED BY IDOCK:   -5.40 KCAL/MOL
REMARK 924 INTRA-LIGAND FREE ENERGY PREDICTED BY IDOCK:   -0.38 KCAL/MOL
REMARK 927      BINDING AFFINITY PREDICTED BY RF-SCORE:    0.00 PKD
ROOT
HETATM    1  S   UNL     1     -11.336  11.828  68.345  1.00  0.00    -0.298 S  
HETATM    2  C   UNL     1     -11.468  13.243  67.441  1.00  0.00    -0.332 C  
ENDROOT
BRANCH   2   3
HETATM    3  S   UNL     1     -11.768  14.813  68.225  1.00  0.00    -0.287 SA 
BRANCH   3   4
HETATM    4  S   UNL     1      -9.878  15.292  68.940  1.00  0.00    -0.231 SA 
BRANCH   4   5
HETATM    5  C   UNL     1      -9.239  16.420  67.722  1.00  0.00    -0.201 C  
HETATM    6  S   UNL     1     -10.085  16.583  66.268  1.00  0.00    -0.348 S  
BRANCH   5   7
HETATM    7  N   UNL     1      -8.129  17.208  68.107  1.00  0.00    -0.211 N  
HETATM    8  C   UNL     1      -7.419  19.466  68.898  1.00  0.00    -0.399 C  
HETATM    9  C   UNL     1      -8.045  18.644  67.772  1.00  0.00    -0.251 C  
HETATM   10  C   UNL     1      -6.069  18.903  69.322  1.00  0.00    -0.274 C  
HETATM   11  C   UNL     1      -6.198  17.426  69.670  1.00  0.00    -0.233 C  
HETATM   12  C   UNL     1      -6.838  16.634  68.529  1.00  0.00    -0.157 C  
ENDBRANCH   5   7
ENDBRANCH   4   5
ENDBRANCH   3   4
ENDBRANCH   2   3
BRANCH   2  13
HETATM   13  N   UNL     1     -11.361  13.292  66.048  1.00  0.00    -0.299 N  
HETATM   14  C   UNL     1     -12.804  12.228  64.326  1.00  0.00    -0.336 C  
HETATM   15  C   UNL     1     -10.134  12.917  65.339  1.00  0.00    -0.251 C  
HETATM   16  C   UNL     1     -12.536  13.465  65.179  1.00  0.00    -0.459 C  
HETATM   17  C   UNL     1     -10.362  11.655  64.499  1.00  0.00    -0.349 C  
HETATM   18  C   UNL     1     -11.552  11.817  63.554  1.00  0.00    -0.487 C  
ENDBRANCH   2  13
TORSDOF 5
ENDMDL
MODEL       99
REMARK 921   NORMALIZED FREE ENERGY PREDICTED BY IDOCK:   -4.09 KCAL/MOL
REMARK 922        TOTAL FREE ENERGY PREDICTED BY IDOCK:   -5.78 KCAL/MOL
REMARK 923 INTER-LIGAND FREE ENERGY PREDICTED BY IDOCK:   -5.27 KCAL/MOL
REMARK 924 INTRA-LIGAND FREE ENERGY PREDICTED BY IDOCK:   -0.51 KCAL/MOL
REMARK 927      BINDING AFFINITY PREDICTED BY RF-SCORE:    0.00 PKD
ROOT
HETATM    1  S   UNL     1      -8.449   7.975  69.788  1.00  0.00    -0.128 S  
HETATM    2  C   UNL     1      -9.855   8.851  69.484  1.00  0.00    -0.180 C  
ENDROOT
BRANCH   2   3
HETATM    3  S   UNL     1     -10.531   8.968  67.841  1.00  0.00    -0.209 SA 
BRANCH   3   4
HETATM    4  S   UNL     1      -8.964   9.850  66.804  1.00  0.00    -0.139 SA 
BRANCH   4   5
HETATM    5  C   UNL     1      -9.765  11.062  65.777  1.00  0.00    -0.224 C  
HETATM    6  S   UNL     1      -9.832  10.776  64.113  1.00  0.00    -0.350 S  
BRANCH   5   7
HETATM    7  N   UNL     1     -10.412  12.130  66.443  1.00  0.00    -0.226 N  
HETATM    8  C   UNL     1     -10.124  14.450  67.315  1.00  0.00    -0.251 C  
HETATM    9  C   UNL     1      -9.696  12.986  67.410  1.00  0.00    -0.213 C  
HETATM   10  C   UNL     1     -11.634  14.604  67.432  1.00  0.00    -0.408 C  
HETATM   11  C   UNL     1     -12.336  13.715  66.413  1.00  0.00    -0.441 C  
HETATM   12  C   UNL     1     -11.878  12.261  66.527  1.00  0.00    -0.306 C  
ENDBRANCH   5   7
ENDBRANCH   4   5
ENDBRANCH   3   4
ENDBRANCH   2   3
BRANCH   2  13
HETATM   13  N   UNL     1     -10.576   9.537  70.467  1.00  0.00    -0.273 N  
HETATM   14  C   UNL     1     -12.360   8.695  71.977  1.00  0.00    -0.435 C  
HETATM   15  C   UNL     1     -11.313  10.773  70.183  1.00  0.00    -0.309 C  
HETATM   16  C   UNL     1     -10.867   8.943  71.780  1.00  0.00    -0.365 C  
HETATM   17  C   UNL     1     -12.821  10.545  70.338  1.00  0.00    -0.274 C  
HETATM   18  C   UNL     1     -13.164   9.966  71.711  1.00  0.00    -0.535 C  
ENDBRANCH   2  13
TORSDOF 5
ENDMDL
MODEL      100
REMARK 921   NORMALIZED FREE ENERGY PREDICTED BY IDOCK:   -4.09 KCAL/MOL
REMARK 922        TOTAL FREE ENERGY PREDICTED BY IDOCK:   -5.78 KCAL/MOL
REMARK 923 INTER-LIGAND FREE ENERGY PREDICTED BY IDOCK:   -5.40 KCAL/MOL
REMARK 924 INTRA-LIGAND FREE ENERGY PREDICTED BY IDOCK:   -0.38 KCAL/MOL
REMARK 927      BINDING AFFINITY PREDICTED BY RF-SCORE:    0.00 PKD
ROOT
HETATM    1  S   UNL     1     -12.301  10.407  71.104  1.00  0.00    -0.424 S  
HETATM    2  C   UNL     1     -10.875   9.707  70.544  1.00  0.00    -0.309 C  
ENDROOT
BRANCH   2   3
HETATM    3  S   UNL     1      -9.926  10.465  69.243  1.00  0.00    -0.219 SA 
BRANCH   3   4
HETATM    4  S   UNL     1     -11.403  11.444  68.161  1.00  0.00    -0.321 SA 
BRANCH   4   5
HETATM    5  C   UNL     1     -10.748  13.083  67.941  1.00  0.00    -0.235 C  
HETATM    6  S   UNL     1      -9.700  13.354  66.643  1.00  0.00    -0.279 S  
BRANCH   5   7
HETATM    7  N   UNL     1     -11.255  14.089  68.797  1.00  0.00    -0.256 N  
HETATM    8  C   UNL     1     -12.320  14.522  71.012  1.00  0.00    -0.417 C  
HETATM    9  C   UNL     1     -12.446  13.860  69.640  1.00  0.00    -0.143 C  
HETATM   10  C   UNL     1     -11.986  16.003  70.895  1.00  0.00    -0.376 C  
HETATM   11  C   UNL     1     -10.748  16.197  70.028  1.00  0.00    -0.318 C  
HETATM   12  C   UNL     1     -10.901  15.514  68.669  1.00  0.00    -0.267 C  
ENDBRANCH   5   7
ENDBRANCH   4   5
ENDBRANCH   3   4
ENDBRANCH   2   3
BRANCH   2  13
HETATM   13  N   UNL     1     -10.345   8.511  71.039  1.00  0.00    -0.201 N  
HETATM   14  C   UNL     1     -11.361   6.244  71.080  1.00  0.00    -0.378 C  
HETATM   15  C   UNL     1      -9.847   8.380  72.412  1.00  0.00    -0.308 C  
HETATM   16  C   UNL     1     -10.486   7.236  70.319  1.00  0.00    -0.219 C  
HETATM   17  C   UNL     1     -10.729   7.415  73.213  1.00  0.00    -0.441 C  
HETATM   18  C   UNL     1     -10.862   6.063  72.512  1.00  0.00    -0.286 C  
ENDBRANCH   2  13
TORSDOF 5
ENDMDL
MODEL      101
REMARK 921   NORMALIZED FREE ENERGY PREDICTED BY IDOCK:   -4.07 KCAL/MOL
REMARK 922        TOTAL FREE ENERGY PREDICTED BY IDOCK:   -5.75 KCAL/MOL
REMARK 923 INTER-LIGAND FREE ENERGY PREDICTED BY IDOCK:   -5.20 KCAL/MOL
REMARK 924 INTRA-LIGAND FREE ENERGY PREDICTED BY IDOCK:   -0.56 KCAL/MOL
REMARK 927      BINDING AFFINITY PREDICTED BY RF-SCORE:    0.00 PKD
ROOT
HETATM    1  S   UNL     1      -9.824  10.754  64.678  1.00  0.00    -0.335 S  
HETATM    2  C   UNL     1      -9.883  11.334  66.258  1.00  0.00    -0.214 C  
ENDROOT
BRANCH   2   3
HETATM    3  S   UNL     1      -9.102  10.452  67.593  1.00  0.00    -0.138 SA 
BRANCH   3   4
HETATM    4  S   UNL     1     -10.435   8.890  67.902  1.00  0.00    -0.194 SA 
BRANCH   4   5
HETATM    5  C   UNL     1     -10.069   8.343  69.555  1.00  0.00    -0.200 C  
HETATM    6  S   UNL     1      -8.536   7.699  69.858  1.00  0.00    -0.138 S  
BRANCH   5   7
HETATM    7  N   UNL     1     -11.048   8.605  70.542  1.00  0.00    -0.242 N  
HETATM    8  C   UNL     1     -12.680  10.296  71.383  1.00  0.00    -0.547 C  
HETATM    9  C   UNL     1     -11.212   9.949  71.131  1.00  0.00    -0.334 C  
HETATM   10  C   UNL     1     -13.377   9.224  72.211  1.00  0.00    -0.547 C  
HETATM   11  C   UNL     1     -13.194   7.856  71.566  1.00  0.00    -0.342 C  
HETATM   12  C   UNL     1     -11.718   7.545  71.317  1.00  0.00    -0.287 C  
ENDBRANCH   5   7
ENDBRANCH   4   5
ENDBRANCH   3   4
ENDBRANCH   2   3
BRANCH   2  13
HETATM   13  N   UNL     1     -10.534  12.513  66.634  1.00  0.00    -0.232 N  
HETATM   14  C   UNL     1      -9.734  14.343  68.114  1.00  0.00    -0.223 C  
HETATM   15  C   UNL     1     -11.866  12.515  67.248  1.00  0.00    -0.311 C  
HETATM   16  C   UNL     1      -9.838  13.808  66.688  1.00  0.00    -0.284 C  
HETATM   17  C   UNL     1     -11.788  13.016  68.696  1.00  0.00    -0.353 C  
HETATM   18  C   UNL     1     -11.106  14.380  68.783  1.00  0.00    -0.275 C  
ENDBRANCH   2  13
TORSDOF 5
ENDMDL
MODEL      102
REMARK 921   NORMALIZED FREE ENERGY PREDICTED BY IDOCK:   -4.06 KCAL/MOL
REMARK 922        TOTAL FREE ENERGY PREDICTED BY IDOCK:   -5.74 KCAL/MOL
REMARK 923 INTER-LIGAND FREE ENERGY PREDICTED BY IDOCK:   -5.37 KCAL/MOL
REMARK 924 INTRA-LIGAND FREE ENERGY PREDICTED BY IDOCK:   -0.37 KCAL/MOL
REMARK 927      BINDING AFFINITY PREDICTED BY RF-SCORE:    0.00 PKD
ROOT
HETATM    1  S   UNL     1     -11.534  12.158  68.750  1.00  0.00    -0.332 S  
HETATM    2  C   UNL     1     -10.377  12.258  67.529  1.00  0.00    -0.203 C  
ENDROOT
BRANCH   2   3
HETATM    3  S   UNL     1      -9.802  13.833  66.931  1.00  0.00    -0.272 SA 
BRANCH   3   4
HETATM    4  S   UNL     1     -11.513  14.997  67.105  1.00  0.00    -0.244 SA 
BRANCH   4   5
HETATM    5  C   UNL     1     -11.056  16.245  68.288  1.00  0.00    -0.346 C  
HETATM    6  S   UNL     1     -11.233  15.887  69.930  1.00  0.00    -0.373 S  
BRANCH   5   7
HETATM    7  N   UNL     1     -10.448  17.415  67.773  1.00  0.00    -0.364 N  
HETATM    8  C   UNL     1     -10.592  19.165  66.001  1.00  0.00    -0.524 C  
HETATM    9  C   UNL     1     -10.392  17.684  66.323  1.00  0.00    -0.342 C  
HETATM   10  C   UNL     1      -9.622  20.046  66.778  1.00  0.00    -0.543 C  
HETATM   11  C   UNL     1      -9.716  19.746  68.269  1.00  0.00    -0.499 C  
HETATM   12  C   UNL     1      -9.525  18.257  68.555  1.00  0.00    -0.331 C  
ENDBRANCH   5   7
ENDBRANCH   4   5
ENDBRANCH   3   4
ENDBRANCH   2   3
BRANCH   2  13
HETATM   13  N   UNL     1      -9.798  11.147  66.908  1.00  0.00    -0.191 N  
HETATM   14  C   UNL     1     -10.306   8.734  67.223  1.00  0.00    -0.360 C  
HETATM   15  C   UNL     1      -8.352  10.906  66.914  1.00  0.00    -0.133 C  
HETATM   16  C   UNL     1     -10.602  10.008  66.437  1.00  0.00    -0.068 C  
HETATM   17  C   UNL     1      -8.020   9.650  67.727  1.00  0.00    -0.105 C  
HETATM   18  C   UNL     1      -8.808   8.437  67.235  1.00  0.00    -0.137 C  
ENDBRANCH   2  13
TORSDOF 5
ENDMDL
MODEL      103
REMARK 921   NORMALIZED FREE ENERGY PREDICTED BY IDOCK:   -4.04 KCAL/MOL
REMARK 922        TOTAL FREE ENERGY PREDICTED BY IDOCK:   -5.72 KCAL/MOL
REMARK 923 INTER-LIGAND FREE ENERGY PREDICTED BY IDOCK:   -5.23 KCAL/MOL
REMARK 924 INTRA-LIGAND FREE ENERGY PREDICTED BY IDOCK:   -0.49 KCAL/MOL
REMARK 927      BINDING AFFINITY PREDICTED BY RF-SCORE:    0.00 PKD
ROOT
HETATM    1  S   UNL     1     -10.671   6.628  66.999  1.00  0.00    -0.370 S  
HETATM    2  C   UNL     1     -10.579   7.772  68.232  1.00  0.00    -0.117 C  
ENDROOT
BRANCH   2   3
HETATM    3  S   UNL     1     -10.640   9.516  67.878  1.00  0.00    -0.226 SA 
BRANCH   3   4
HETATM    4  S   UNL     1      -9.623   9.613  66.071  1.00  0.00    -0.261 SA 
BRANCH   4   5
HETATM    5  C   UNL     1     -10.195  11.134  65.345  1.00  0.00    -0.271 C  
HETATM    6  S   UNL     1     -10.531  11.148  63.689  1.00  0.00    -0.339 S  
BRANCH   5   7
HETATM    7  N   UNL     1     -10.455  12.203  66.235  1.00  0.00    -0.233 N  
HETATM    8  C   UNL     1     -12.139  13.179  67.796  1.00  0.00    -0.262 C  
HETATM    9  C   UNL     1     -11.800  12.800  66.355  1.00  0.00    -0.408 C  
HETATM   10  C   UNL     1     -11.068  14.070  68.410  1.00  0.00    -0.275 C  
HETATM   11  C   UNL     1      -9.698  13.417  68.277  1.00  0.00    -0.226 C  
HETATM   12  C   UNL     1      -9.395  13.038  66.827  1.00  0.00    -0.244 C  
ENDBRANCH   5   7
ENDBRANCH   4   5
ENDBRANCH   3   4
ENDBRANCH   2   3
BRANCH   2  13
HETATM   13  N   UNL     1     -10.447   7.452  69.587  1.00  0.00    -0.227 N  
HETATM   14  C   UNL     1     -12.213   7.191  71.315  1.00  0.00    -0.403 C  
HETATM   15  C   UNL     1      -9.584   8.214  70.495  1.00  0.00    -0.170 C  
HETATM   16  C   UNL     1     -11.352   6.506  70.258  1.00  0.00    -0.395 C  
HETATM   17  C   UNL     1     -10.426   8.943  71.549  1.00  0.00    -0.393 C  
HETATM   18  C   UNL     1     -11.349   7.981  72.296  1.00  0.00    -0.413 C  
ENDBRANCH   2  13
TORSDOF 5
ENDMDL
MODEL      104
REMARK 921   NORMALIZED FREE ENERGY PREDICTED BY IDOCK:   -4.04 KCAL/MOL
REMARK 922        TOTAL FREE ENERGY PREDICTED BY IDOCK:   -5.71 KCAL/MOL
REMARK 923 INTER-LIGAND FREE ENERGY PREDICTED BY IDOCK:   -5.44 KCAL/MOL
REMARK 924 INTRA-LIGAND FREE ENERGY PREDICTED BY IDOCK:   -0.27 KCAL/MOL
REMARK 927      BINDING AFFINITY PREDICTED BY RF-SCORE:    0.00 PKD
ROOT
HETATM    1  S   UNL     1     -12.130  13.208  66.105  1.00  0.00    -0.391 S  
HETATM    2  C   UNL     1     -11.397  13.845  67.481  1.00  0.00    -0.318 C  
ENDROOT
BRANCH   2   3
HETATM    3  S   UNL     1     -11.896  13.335  69.112  1.00  0.00    -0.317 SA 
BRANCH   3   4
HETATM    4  S   UNL     1     -11.623  11.279  69.011  1.00  0.00    -0.348 SA 
BRANCH   4   5
HETATM    5  C   UNL     1     -12.029  10.719  70.651  1.00  0.00    -0.367 C  
HETATM    6  S   UNL     1     -13.019  11.701  71.605  1.00  0.00    -0.273 S  
BRANCH   5   7
HETATM    7  N   UNL     1     -11.597   9.417  71.001  1.00  0.00    -0.305 N  
HETATM    8  C   UNL     1      -9.814   7.707  70.651  1.00  0.00    -0.182 C  
HETATM    9  C   UNL     1     -10.938   8.531  70.022  1.00  0.00    -0.196 C  
HETATM   10  C   UNL     1     -10.297   6.940  71.875  1.00  0.00    -0.210 C  
HETATM   11  C   UNL     1     -10.960   7.888  72.865  1.00  0.00    -0.452 C  
HETATM   12  C   UNL     1     -12.070   8.705  72.202  1.00  0.00    -0.381 C  
ENDBRANCH   5   7
ENDBRANCH   4   5
ENDBRANCH   3   4
ENDBRANCH   2   3
BRANCH   2  13
HETATM   13  N   UNL     1     -10.373  14.797  67.451  1.00  0.00    -0.242 N  
HETATM   14  C   UNL     1     -10.421  17.175  68.171  1.00  0.00    -0.366 C  
HETATM   15  C   UNL     1      -9.634  15.119  66.226  1.00  0.00    -0.297 C  
HETATM   16  C   UNL     1     -10.137  15.728  68.565  1.00  0.00    -0.215 C  
HETATM   17  C   UNL     1      -9.927  16.558  65.785  1.00  0.00    -0.302 C  
HETATM   18  C   UNL     1      -9.653  17.557  66.908  1.00  0.00    -0.279 C  
ENDBRANCH   2  13
TORSDOF 5
ENDMDL
MODEL      105
REMARK 921   NORMALIZED FREE ENERGY PREDICTED BY IDOCK:   -4.04 KCAL/MOL
REMARK 922        TOTAL FREE ENERGY PREDICTED BY IDOCK:   -5.71 KCAL/MOL
REMARK 923 INTER-LIGAND FREE ENERGY PREDICTED BY IDOCK:   -5.33 KCAL/MOL
REMARK 924 INTRA-LIGAND FREE ENERGY PREDICTED BY IDOCK:   -0.38 KCAL/MOL
REMARK 927      BINDING AFFINITY PREDICTED BY RF-SCORE:    0.00 PKD
ROOT
HETATM    1  S   UNL     1     -10.712  19.409  67.087  1.00  0.00    -0.441 S  
HETATM    2  C   UNL     1      -9.622  18.137  66.909  1.00  0.00    -0.299 C  
ENDROOT
BRANCH   2   3
HETATM    3  S   UNL     1     -10.149  16.551  66.295  1.00  0.00    -0.348 SA 
BRANCH   3   4
HETATM    4  S   UNL     1     -11.068  15.736  67.968  1.00  0.00    -0.323 SA 
BRANCH   4   5
HETATM    5  C   UNL     1     -10.903  13.981  67.729  1.00  0.00    -0.247 C  
HETATM    6  S   UNL     1     -10.256  13.435  66.266  1.00  0.00    -0.303 S  
BRANCH   5   7
HETATM    7  N   UNL     1     -11.208  13.158  68.838  1.00  0.00    -0.265 N  
HETATM    8  C   UNL     1     -12.687  12.903  70.832  1.00  0.00    -0.291 C  
HETATM    9  C   UNL     1     -11.602  13.730  70.141  1.00  0.00    -0.160 C  
HETATM   10  C   UNL     1     -12.287  11.439  70.954  1.00  0.00    -0.483 C  
HETATM   11  C   UNL     1     -11.898  10.883  69.590  1.00  0.00    -0.416 C  
HETATM   12  C   UNL     1     -10.821  11.738  68.921  1.00  0.00    -0.223 C  
ENDBRANCH   5   7
ENDBRANCH   4   5
ENDBRANCH   3   4
ENDBRANCH   2   3
BRANCH   2  13
HETATM   13  N   UNL     1      -8.263  18.223  67.224  1.00  0.00    -0.235 N  
HETATM   14  C   UNL     1      -6.970  16.981  68.946  1.00  0.00    -0.219 C  
HETATM   15  C   UNL     1      -7.613  19.493  67.565  1.00  0.00    -0.255 C  
HETATM   16  C   UNL     1      -7.445  17.031  67.496  1.00  0.00    -0.161 C  
HETATM   17  C   UNL     1      -7.156  19.486  69.029  1.00  0.00    -0.399 C  
HETATM   18  C   UNL     1      -6.269  18.280  69.334  1.00  0.00    -0.261 C  
ENDBRANCH   2  13
TORSDOF 5
ENDMDL
MODEL      106
REMARK 921   NORMALIZED FREE ENERGY PREDICTED BY IDOCK:   -4.03 KCAL/MOL
REMARK 922        TOTAL FREE ENERGY PREDICTED BY IDOCK:   -5.70 KCAL/MOL
REMARK 923 INTER-LIGAND FREE ENERGY PREDICTED BY IDOCK:   -5.08 KCAL/MOL
REMARK 924 INTRA-LIGAND FREE ENERGY PREDICTED BY IDOCK:   -0.62 KCAL/MOL
REMARK 927      BINDING AFFINITY PREDICTED BY RF-SCORE:    0.00 PKD
ROOT
HETATM    1  S   UNL     1      -9.887  18.004  68.660  1.00  0.00    -0.372 S  
HETATM    2  C   UNL     1     -10.050  16.446  69.280  1.00  0.00    -0.271 C  
ENDROOT
BRANCH   2   3
HETATM    3  S   UNL     1      -8.658  15.341  69.376  1.00  0.00    -0.177 SA 
BRANCH   3   4
HETATM    4  S   UNL     1      -8.332  14.901  67.374  1.00  0.00    -0.207 SA 
BRANCH   4   5
HETATM    5  C   UNL     1      -7.804  13.202  67.396  1.00  0.00    -0.165 C  
HETATM    6  S   UNL     1      -6.171  12.880  67.693  1.00  0.00    -0.152 S  
BRANCH   5   7
HETATM    7  N   UNL     1      -8.818  12.221  67.290  1.00  0.00    -0.182 N  
HETATM    8  C   UNL     1      -9.926  10.313  68.456  1.00  0.00    -0.177 C  
HETATM    9  C   UNL     1      -8.640  10.861  67.838  1.00  0.00    -0.130 C  
HETATM   10  C   UNL     1     -11.093  10.382  67.480  1.00  0.00    -0.336 C  
HETATM   11  C   UNL     1     -11.251  11.799  66.945  1.00  0.00    -0.387 C  
HETATM   12  C   UNL     1      -9.945  12.322  66.345  1.00  0.00    -0.228 C  
ENDBRANCH   5   7
ENDBRANCH   4   5
ENDBRANCH   3   4
ENDBRANCH   2   3
BRANCH   2  13
HETATM   13  N   UNL     1     -11.256  15.914  69.747  1.00  0.00    -0.311 N  
HETATM   14  C   UNL     1     -11.790  14.968  71.983  1.00  0.00    -0.462 C  
HETATM   15  C   UNL     1     -11.961  14.832  69.053  1.00  0.00    -0.273 C  
HETATM   16  C   UNL     1     -11.771  16.209  71.094  1.00  0.00    -0.407 C  
HETATM   17  C   UNL     1     -11.966  13.559  69.909  1.00  0.00    -0.416 C  
HETATM   18  C   UNL     1     -12.534  13.821  71.303  1.00  0.00    -0.428 C  
ENDBRANCH   2  13
TORSDOF 5
ENDMDL
MODEL      107
REMARK 921   NORMALIZED FREE ENERGY PREDICTED BY IDOCK:   -4.01 KCAL/MOL
REMARK 922        TOTAL FREE ENERGY PREDICTED BY IDOCK:   -5.68 KCAL/MOL
REMARK 923 INTER-LIGAND FREE ENERGY PREDICTED BY IDOCK:   -5.37 KCAL/MOL
REMARK 924 INTRA-LIGAND FREE ENERGY PREDICTED BY IDOCK:   -0.31 KCAL/MOL
REMARK 927      BINDING AFFINITY PREDICTED BY RF-SCORE:    0.00 PKD
ROOT
HETATM    1  S   UNL     1      -8.378  12.058  67.679  1.00  0.00    -0.171 S  
HETATM    2  C   UNL     1     -10.050  12.224  67.559  1.00  0.00    -0.201 C  
ENDROOT
BRANCH   2   3
HETATM    3  S   UNL     1     -11.149  11.033  68.295  1.00  0.00    -0.282 SA 
BRANCH   3   4
HETATM    4  S   UNL     1      -9.820   9.814  69.324  1.00  0.00    -0.213 SA 
BRANCH   4   5
HETATM    5  C   UNL     1     -10.420   8.170  69.004  1.00  0.00    -0.198 C  
HETATM    6  S   UNL     1     -10.329   7.584  67.421  1.00  0.00    -0.302 S  
BRANCH   5   7
HETATM    7  N   UNL     1     -10.818   7.409  70.129  1.00  0.00    -0.252 N  
HETATM    8  C   UNL     1     -10.519   5.236  71.317  1.00  0.00    -0.274 C  
HETATM    9  C   UNL     1     -10.994   5.946  70.050  1.00  0.00    -0.360 C  
HETATM   10  C   UNL     1     -11.168   5.818  72.566  1.00  0.00    -0.347 C  
HETATM   11  C   UNL     1     -10.955   7.326  72.617  1.00  0.00    -0.341 C  
HETATM   12  C   UNL     1     -11.430   8.004  71.331  1.00  0.00    -0.258 C  
ENDBRANCH   5   7
ENDBRANCH   4   5
ENDBRANCH   3   4
ENDBRANCH   2   3
BRANCH   2  13
HETATM   13  N   UNL     1     -10.685  13.275  66.889  1.00  0.00    -0.270 N  
HETATM   14  C   UNL     1     -12.703  13.218  65.439  1.00  0.00    -0.460 C  
HETATM   15  C   UNL     1      -9.972  14.165  65.968  1.00  0.00    -0.322 C  
HETATM   16  C   UNL     1     -12.150  13.405  66.850  1.00  0.00    -0.354 C  
HETATM   17  C   UNL     1     -10.483  13.974  64.534  1.00  0.00    -0.285 C  
HETATM   18  C   UNL     1     -11.999  14.144  64.450  1.00  0.00    -0.478 C  
ENDBRANCH   2  13
TORSDOF 5
ENDMDL
MODEL      108
REMARK 921   NORMALIZED FREE ENERGY PREDICTED BY IDOCK:   -4.01 KCAL/MOL
REMARK 922        TOTAL FREE ENERGY PREDICTED BY IDOCK:   -5.68 KCAL/MOL
REMARK 923 INTER-LIGAND FREE ENERGY PREDICTED BY IDOCK:   -5.36 KCAL/MOL
REMARK 924 INTRA-LIGAND FREE ENERGY PREDICTED BY IDOCK:   -0.32 KCAL/MOL
REMARK 927      BINDING AFFINITY PREDICTED BY RF-SCORE:    0.00 PKD
ROOT
HETATM    1  S   UNL     1     -11.871  12.051  69.307  1.00  0.00    -0.298 S  
HETATM    2  C   UNL     1     -11.466  11.866  67.682  1.00  0.00    -0.317 C  
ENDROOT
BRANCH   2   3
HETATM    3  S   UNL     1     -10.522  10.465  67.120  1.00  0.00    -0.261 SA 
BRANCH   3   4
HETATM    4  S   UNL     1      -8.954  10.443  68.481  1.00  0.00    -0.146 SA 
BRANCH   4   5
HETATM    5  C   UNL     1      -8.849   8.738  68.977  1.00  0.00    -0.137 C  
HETATM    6  S   UNL     1      -7.765   7.735  68.154  1.00  0.00    -0.121 S  
BRANCH   5   7
HETATM    7  N   UNL     1      -9.593   8.363  70.121  1.00  0.00    -0.164 N  
HETATM    8  C   UNL     1      -9.429   7.720  72.527  1.00  0.00    -0.239 C  
HETATM    9  C   UNL     1      -9.084   7.363  71.081  1.00  0.00    -0.148 C  
HETATM   10  C   UNL     1     -10.921   7.967  72.704  1.00  0.00    -0.448 C  
HETATM   11  C   UNL     1     -11.405   9.011  71.705  1.00  0.00    -0.447 C  
HETATM   12  C   UNL     1     -11.034   8.630  70.272  1.00  0.00    -0.236 C  
ENDBRANCH   5   7
ENDBRANCH   4   5
ENDBRANCH   3   4
ENDBRANCH   2   3
BRANCH   2  13
HETATM   13  N   UNL     1     -11.825  12.773  66.680  1.00  0.00    -0.401 N  
HETATM   14  C   UNL     1     -10.716  13.221  64.501  1.00  0.00    -0.428 C  
HETATM   15  C   UNL     1     -12.019  14.202  66.945  1.00  0.00    -0.449 C  
HETATM   16  C   UNL     1     -11.776  12.421  65.252  1.00  0.00    -0.390 C  
HETATM   17  C   UNL     1     -10.945  15.032  66.230  1.00  0.00    -0.338 C  
HETATM   18  C   UNL     1     -10.897  14.720  64.735  1.00  0.00    -0.395 C  
ENDBRANCH   2  13
TORSDOF 5
ENDMDL
MODEL      109
REMARK 921   NORMALIZED FREE ENERGY PREDICTED BY IDOCK:   -3.99 KCAL/MOL
REMARK 922        TOTAL FREE ENERGY PREDICTED BY IDOCK:   -5.65 KCAL/MOL
REMARK 923 INTER-LIGAND FREE ENERGY PREDICTED BY IDOCK:   -5.36 KCAL/MOL
REMARK 924 INTRA-LIGAND FREE ENERGY PREDICTED BY IDOCK:   -0.29 KCAL/MOL
REMARK 927      BINDING AFFINITY PREDICTED BY RF-SCORE:    0.00 PKD
ROOT
HETATM    1  S   UNL     1     -11.496  14.078  69.227  1.00  0.00    -0.312 S  
HETATM    2  C   UNL     1     -11.521  12.936  67.988  1.00  0.00    -0.319 C  
ENDROOT
BRANCH   2   3
HETATM    3  S   UNL     1     -12.007  11.252  68.296  1.00  0.00     0.007 SA 
BRANCH   3   4
HETATM    4  S   UNL     1     -10.609  10.664  69.714  1.00  0.00    -0.124 SA 
BRANCH   4   5
HETATM    5  C   UNL     1     -11.568   9.744  70.897  1.00  0.00    -0.361 C  
HETATM    6  S   UNL     1     -13.032  10.408  71.422  1.00  0.00    -0.457 S  
BRANCH   5   7
HETATM    7  N   UNL     1     -11.101   8.450  71.225  1.00  0.00    -0.246 N  
HETATM    8  C   UNL     1     -11.656   6.336  72.430  1.00  0.00    -0.325 C  
HETATM    9  C   UNL     1     -11.379   7.836  72.539  1.00  0.00    -0.374 C  
HETATM   10  C   UNL     1     -10.539   5.610  71.691  1.00  0.00    -0.301 C  
HETATM   11  C   UNL     1     -10.289   6.265  70.338  1.00  0.00    -0.260 C  
HETATM   12  C   UNL     1     -10.028   7.765  70.480  1.00  0.00    -0.187 C  
ENDBRANCH   5   7
ENDBRANCH   4   5
ENDBRANCH   3   4
ENDBRANCH   2   3
BRANCH   2  13
HETATM   13  N   UNL     1     -11.167  13.213  66.664  1.00  0.00    -0.296 N  
HETATM   14  C   UNL     1     -10.250  15.309  65.692  1.00  0.00    -0.398 C  
HETATM   15  C   UNL     1     -12.099  13.031  65.547  1.00  0.00    -0.452 C  
HETATM   16  C   UNL     1      -9.942  13.952  66.320  1.00  0.00    -0.306 C  
HETATM   17  C   UNL     1     -12.455  14.383  64.917  1.00  0.00    -0.368 C  
HETATM   18  C   UNL     1     -11.203  15.159  64.509  1.00  0.00    -0.283 C  
ENDBRANCH   2  13
TORSDOF 5
ENDMDL
MODEL      110
REMARK 921   NORMALIZED FREE ENERGY PREDICTED BY IDOCK:   -3.98 KCAL/MOL
REMARK 922        TOTAL FREE ENERGY PREDICTED BY IDOCK:   -5.64 KCAL/MOL
REMARK 923 INTER-LIGAND FREE ENERGY PREDICTED BY IDOCK:   -4.99 KCAL/MOL
REMARK 924 INTRA-LIGAND FREE ENERGY PREDICTED BY IDOCK:   -0.65 KCAL/MOL
REMARK 927      BINDING AFFINITY PREDICTED BY RF-SCORE:    0.00 PKD
ROOT
HETATM    1  S   UNL     1      -8.344  12.606  67.923  1.00  0.00    -0.184 S  
HETATM    2  C   UNL     1      -9.606  12.419  66.823  1.00  0.00    -0.224 C  
ENDROOT
BRANCH   2   3
HETATM    3  S   UNL     1     -10.110  13.756  65.762  1.00  0.00    -0.290 SA 
BRANCH   3   4
HETATM    4  S   UNL     1     -11.842  14.408  66.704  1.00  0.00    -0.374 SA 
BRANCH   4   5
HETATM    5  C   UNL     1     -11.249  15.159  68.204  1.00  0.00    -0.320 C  
HETATM    6  S   UNL     1     -11.877  14.606  69.672  1.00  0.00    -0.337 S  
BRANCH   5   7
HETATM    7  N   UNL     1     -10.188  16.086  68.074  1.00  0.00    -0.240 N  
HETATM    8  C   UNL     1      -7.756  16.460  68.491  1.00  0.00    -0.195 C  
HETATM    9  C   UNL     1      -9.135  16.207  69.102  1.00  0.00    -0.243 C  
HETATM   10  C   UNL     1      -7.769  17.658  67.550  1.00  0.00    -0.210 C  
HETATM   11  C   UNL     1      -8.860  17.492  66.500  1.00  0.00    -0.291 C  
HETATM   12  C   UNL     1     -10.223  17.228  67.142  1.00  0.00    -0.319 C  
ENDBRANCH   5   7
ENDBRANCH   4   5
ENDBRANCH   3   4
ENDBRANCH   2   3
BRANCH   2  13
HETATM   13  N   UNL     1     -10.335  11.236  66.665  1.00  0.00    -0.229 N  
HETATM   14  C   UNL     1     -10.514   9.289  68.199  1.00  0.00    -0.263 C  
HETATM   15  C   UNL     1     -10.191  10.373  65.488  1.00  0.00    -0.246 C  
HETATM   16  C   UNL     1     -11.096  10.633  67.771  1.00  0.00    -0.321 C  
HETATM   17  C   UNL     1      -9.575   9.025  65.882  1.00  0.00    -0.317 C  
HETATM   18  C   UNL     1     -10.367   8.352  67.002  1.00  0.00    -0.385 C  
ENDBRANCH   2  13
TORSDOF 5
ENDMDL
MODEL      111
REMARK 921   NORMALIZED FREE ENERGY PREDICTED BY IDOCK:   -3.97 KCAL/MOL
REMARK 922        TOTAL FREE ENERGY PREDICTED BY IDOCK:   -5.63 KCAL/MOL
REMARK 923 INTER-LIGAND FREE ENERGY PREDICTED BY IDOCK:   -5.38 KCAL/MOL
REMARK 924 INTRA-LIGAND FREE ENERGY PREDICTED BY IDOCK:   -0.26 KCAL/MOL
REMARK 927      BINDING AFFINITY PREDICTED BY RF-SCORE:    0.00 PKD
ROOT
HETATM    1  S   UNL     1     -11.916  15.609  70.401  1.00  0.00    -0.379 S  
HETATM    2  C   UNL     1     -11.092  15.283  68.968  1.00  0.00    -0.260 C  
ENDROOT
BRANCH   2   3
HETATM    3  S   UNL     1     -11.189  13.684  68.192  1.00  0.00    -0.292 SA 
BRANCH   3   4
HETATM    4  S   UNL     1     -12.010  12.530  69.711  1.00  0.00    -0.234 SA 
BRANCH   4   5
HETATM    5  C   UNL     1     -11.163  10.972  69.563  1.00  0.00    -0.279 C  
HETATM    6  S   UNL     1     -10.120  10.756  68.251  1.00  0.00    -0.178 S  
BRANCH   5   7
HETATM    7  N   UNL     1     -11.321  10.060  70.633  1.00  0.00    -0.323 N  
HETATM    8  C   UNL     1     -12.978   8.708  71.919  1.00  0.00    -0.409 C  
HETATM    9  C   UNL     1     -12.500  10.104  71.520  1.00  0.00    -0.427 C  
HETATM   10  C   UNL     1     -11.851   7.877  72.517  1.00  0.00    -0.390 C  
HETATM   11  C   UNL     1     -10.658   7.846  71.569  1.00  0.00    -0.262 C  
HETATM   12  C   UNL     1     -10.213   9.256  71.180  1.00  0.00    -0.317 C  
ENDBRANCH   5   7
ENDBRANCH   4   5
ENDBRANCH   3   4
ENDBRANCH   2   3
BRANCH   2  13
HETATM   13  N   UNL     1     -10.290  16.213  68.300  1.00  0.00    -0.257 N  
HETATM   14  C   UNL     1      -9.116  15.990  66.120  1.00  0.00    -0.387 C  
HETATM   15  C   UNL     1      -9.128  16.847  68.931  1.00  0.00    -0.223 C  
HETATM   16  C   UNL     1     -10.385  16.427  66.847  1.00  0.00    -0.300 C  
HETATM   17  C   UNL     1      -7.833  16.399  68.243  1.00  0.00    -0.168 C  
HETATM   18  C   UNL     1      -7.882  16.647  66.736  1.00  0.00    -0.290 C  
ENDBRANCH   2  13
TORSDOF 5
ENDMDL
MODEL      112
REMARK 921   NORMALIZED FREE ENERGY PREDICTED BY IDOCK:   -3.97 KCAL/MOL
REMARK 922        TOTAL FREE ENERGY PREDICTED BY IDOCK:   -5.63 KCAL/MOL
REMARK 923 INTER-LIGAND FREE ENERGY PREDICTED BY IDOCK:   -5.27 KCAL/MOL
REMARK 924 INTRA-LIGAND FREE ENERGY PREDICTED BY IDOCK:   -0.36 KCAL/MOL
REMARK 927      BINDING AFFINITY PREDICTED BY RF-SCORE:    0.00 PKD
ROOT
HETATM    1  S   UNL     1     -11.736   9.081  71.838  1.00  0.00    -0.363 S  
HETATM    2  C   UNL     1     -10.993   9.034  70.327  1.00  0.00    -0.244 C  
ENDROOT
BRANCH   2   3
HETATM    3  S   UNL     1     -10.331  10.507  69.579  1.00  0.00    -0.189 SA 
BRANCH   3   4
HETATM    4  S   UNL     1     -12.027  11.343  68.722  1.00  0.00    -0.203 SA 
BRANCH   4   5
HETATM    5  C   UNL     1     -11.655  13.081  68.657  1.00  0.00    -0.318 C  
HETATM    6  S   UNL     1     -11.334  13.770  67.148  1.00  0.00    -0.340 S  
BRANCH   5   7
HETATM    7  N   UNL     1     -11.781  13.803  69.868  1.00  0.00    -0.291 N  
HETATM    8  C   UNL     1     -11.703  16.077  70.893  1.00  0.00    -0.438 C  
HETATM    9  C   UNL     1     -10.934  14.976  70.161  1.00  0.00    -0.221 C  
HETATM   10  C   UNL     1     -12.389  15.547  72.145  1.00  0.00    -0.476 C  
HETATM   11  C   UNL     1     -13.260  14.345  71.800  1.00  0.00    -0.435 C  
HETATM   12  C   UNL     1     -12.466  13.269  71.059  1.00  0.00    -0.336 C  
ENDBRANCH   5   7
ENDBRANCH   4   5
ENDBRANCH   3   4
ENDBRANCH   2   3
BRANCH   2  13
HETATM   13  N   UNL     1     -10.847   7.871  69.564  1.00  0.00    -0.187 N  
HETATM   14  C   UNL     1     -10.320   5.560  70.313  1.00  0.00    -0.349 C  
HETATM   15  C   UNL     1      -9.918   7.782  68.434  1.00  0.00    -0.178 C  
HETATM   16  C   UNL     1     -11.409   6.580  69.991  1.00  0.00    -0.410 C  
HETATM   17  C   UNL     1      -8.790   6.790  68.742  1.00  0.00    -0.131 C  
HETATM   18  C   UNL     1      -9.340   5.423  69.150  1.00  0.00    -0.158 C  
ENDBRANCH   2  13
TORSDOF 5
ENDMDL
MODEL      113
REMARK 921   NORMALIZED FREE ENERGY PREDICTED BY IDOCK:   -3.97 KCAL/MOL
REMARK 922        TOTAL FREE ENERGY PREDICTED BY IDOCK:   -5.63 KCAL/MOL
REMARK 923 INTER-LIGAND FREE ENERGY PREDICTED BY IDOCK:   -5.23 KCAL/MOL
REMARK 924 INTRA-LIGAND FREE ENERGY PREDICTED BY IDOCK:   -0.39 KCAL/MOL
REMARK 927      BINDING AFFINITY PREDICTED BY RF-SCORE:    0.00 PKD
ROOT
HETATM    1  S   UNL     1      -9.554  15.013  67.811  1.00  0.00    -0.203 S  
HETATM    2  C   UNL     1     -10.851  14.073  67.290  1.00  0.00    -0.284 C  
ENDROOT
BRANCH   2   3
HETATM    3  S   UNL     1     -11.745  13.028  68.420  1.00  0.00    -0.354 SA 
BRANCH   3   4
HETATM    4  S   UNL     1     -10.741  11.223  68.206  1.00  0.00    -0.210 SA 
BRANCH   4   5
HETATM    5  C   UNL     1     -11.232  10.294  69.642  1.00  0.00    -0.269 C  
HETATM    6  S   UNL     1     -12.400  10.965  70.663  1.00  0.00    -0.397 S  
BRANCH   5   7
HETATM    7  N   UNL     1     -10.701   8.988  69.766  1.00  0.00    -0.228 N  
HETATM    8  C   UNL     1      -9.201   7.298  68.705  1.00  0.00    -0.137 C  
HETATM    9  C   UNL     1     -10.480   8.128  68.586  1.00  0.00    -0.165 C  
HETATM   10  C   UNL     1      -9.167   6.501  70.002  1.00  0.00    -0.157 C  
HETATM   11  C   UNL     1      -9.388   7.422  71.195  1.00  0.00    -0.156 C  
HETATM   12  C   UNL     1     -10.667   8.246  71.039  1.00  0.00    -0.218 C  
ENDBRANCH   5   7
ENDBRANCH   4   5
ENDBRANCH   3   4
ENDBRANCH   2   3
BRANCH   2  13
HETATM   13  N   UNL     1     -11.309  14.037  65.969  1.00  0.00    -0.322 N  
HETATM   14  C   UNL     1     -12.782  12.368  64.865  1.00  0.00    -0.256 C  
HETATM   15  C   UNL     1     -10.400  14.087  64.820  1.00  0.00    -0.380 C  
HETATM   16  C   UNL     1     -12.697  13.685  65.632  1.00  0.00    -0.454 C  
HETATM   17  C   UNL     1     -10.438  12.763  64.048  1.00  0.00    -0.433 C  
HETATM   18  C   UNL     1     -11.864  12.387  63.645  1.00  0.00    -0.610 C  
ENDBRANCH   2  13
TORSDOF 5
ENDMDL
MODEL      114
REMARK 921   NORMALIZED FREE ENERGY PREDICTED BY IDOCK:   -3.96 KCAL/MOL
REMARK 922        TOTAL FREE ENERGY PREDICTED BY IDOCK:   -5.61 KCAL/MOL
REMARK 923 INTER-LIGAND FREE ENERGY PREDICTED BY IDOCK:   -5.23 KCAL/MOL
REMARK 924 INTRA-LIGAND FREE ENERGY PREDICTED BY IDOCK:   -0.38 KCAL/MOL
REMARK 927      BINDING AFFINITY PREDICTED BY RF-SCORE:    0.00 PKD
ROOT
HETATM    1  S   UNL     1     -10.432  18.611  67.059  1.00  0.00    -0.402 S  
HETATM    2  C   UNL     1      -8.946  17.987  66.567  1.00  0.00    -0.265 C  
ENDROOT
BRANCH   2   3
HETATM    3  S   UNL     1      -8.694  16.234  66.392  1.00  0.00    -0.340 SA 
BRANCH   3   4
HETATM    4  S   UNL     1     -10.645  15.524  66.430  1.00  0.00    -0.311 SA 
BRANCH   4   5
HETATM    5  C   UNL     1     -10.573  14.151  67.560  1.00  0.00    -0.257 C  
HETATM    6  S   UNL     1      -9.533  12.871  67.190  1.00  0.00    -0.236 S  
BRANCH   5   7
HETATM    7  N   UNL     1     -11.300  14.283  68.766  1.00  0.00    -0.259 N  
HETATM    8  C   UNL     1     -12.193  13.049  70.743  1.00  0.00    -0.359 C  
HETATM    9  C   UNL     1     -12.233  13.235  69.226  1.00  0.00    -0.147 C  
HETATM   10  C   UNL     1     -12.413  14.365  71.477  1.00  0.00    -0.430 C  
HETATM   11  C   UNL     1     -11.427  15.416  70.983  1.00  0.00    -0.407 C  
HETATM   12  C   UNL     1     -11.483  15.569  69.463  1.00  0.00    -0.333 C  
ENDBRANCH   5   7
ENDBRANCH   4   5
ENDBRANCH   3   4
ENDBRANCH   2   3
BRANCH   2  13
HETATM   13  N   UNL     1      -7.828  18.774  66.272  1.00  0.00    -0.281 N  
HETATM   14  C   UNL     1      -5.463  18.461  66.966  1.00  0.00    -0.143 C  
HETATM   15  C   UNL     1      -7.784  20.213  66.549  1.00  0.00    -0.277 C  
HETATM   16  C   UNL     1      -6.530  18.184  65.911  1.00  0.00    -0.269 C  
HETATM   17  C   UNL     1      -6.743  20.519  67.633  1.00  0.00    -0.350 C  
HETATM   18  C   UNL     1      -5.370  19.955  67.269  1.00  0.00    -0.161 C  
ENDBRANCH   2  13
TORSDOF 5
ENDMDL
MODEL      115
REMARK 921   NORMALIZED FREE ENERGY PREDICTED BY IDOCK:   -3.95 KCAL/MOL
REMARK 922        TOTAL FREE ENERGY PREDICTED BY IDOCK:   -5.61 KCAL/MOL
REMARK 923 INTER-LIGAND FREE ENERGY PREDICTED BY IDOCK:   -5.31 KCAL/MOL
REMARK 924 INTRA-LIGAND FREE ENERGY PREDICTED BY IDOCK:   -0.29 KCAL/MOL
REMARK 927      BINDING AFFINITY PREDICTED BY RF-SCORE:    0.00 PKD
ROOT
HETATM    1  S   UNL     1      -8.834   8.625  67.227  1.00  0.00    -0.134 S  
HETATM    2  C   UNL     1      -9.962   9.189  68.344  1.00  0.00    -0.181 C  
ENDROOT
BRANCH   2   3
HETATM    3  S   UNL     1     -11.005  10.583  67.977  1.00  0.00    -0.303 SA 
BRANCH   3   4
HETATM    4  S   UNL     1      -9.799  11.683  66.693  1.00  0.00    -0.205 SA 
BRANCH   4   5
HETATM    5  C   UNL     1     -10.847  13.025  66.175  1.00  0.00    -0.279 C  
HETATM    6  S   UNL     1     -12.155  12.669  65.166  1.00  0.00    -0.459 S  
BRANCH   5   7
HETATM    7  N   UNL     1     -10.589  14.290  66.753  1.00  0.00    -0.276 N  
HETATM    8  C   UNL     1     -10.189  16.703  66.258  1.00  0.00    -0.344 C  
HETATM    9  C   UNL     1      -9.689  15.267  66.107  1.00  0.00    -0.314 C  
HETATM   10  C   UNL     1     -10.454  17.056  67.715  1.00  0.00    -0.349 C  
HETATM   11  C   UNL     1     -11.393  16.034  68.344  1.00  0.00    -0.355 C  
HETATM   12  C   UNL     1     -10.871  14.608  68.164  1.00  0.00    -0.252 C  
ENDBRANCH   5   7
ENDBRANCH   4   5
ENDBRANCH   3   4
ENDBRANCH   2   3
BRANCH   2  13
HETATM   13  N   UNL     1     -10.157   8.625  69.609  1.00  0.00    -0.196 N  
HETATM   14  C   UNL     1     -11.537   6.662  70.255  1.00  0.00    -0.454 C  
HETATM   15  C   UNL     1     -10.626   9.409  70.756  1.00  0.00    -0.303 C  
HETATM   16  C   UNL     1     -10.164   7.170  69.824  1.00  0.00    -0.208 C  
HETATM   17  C   UNL     1     -12.021   8.944  71.190  1.00  0.00    -0.344 C  
HETATM   18  C   UNL     1     -12.053   7.441  71.462  1.00  0.00    -0.357 C  
ENDBRANCH   2  13
TORSDOF 5
ENDMDL
MODEL      116
REMARK 921   NORMALIZED FREE ENERGY PREDICTED BY IDOCK:   -3.94 KCAL/MOL
REMARK 922        TOTAL FREE ENERGY PREDICTED BY IDOCK:   -5.59 KCAL/MOL
REMARK 923 INTER-LIGAND FREE ENERGY PREDICTED BY IDOCK:   -5.28 KCAL/MOL
REMARK 924 INTRA-LIGAND FREE ENERGY PREDICTED BY IDOCK:   -0.32 KCAL/MOL
REMARK 927      BINDING AFFINITY PREDICTED BY RF-SCORE:    0.00 PKD
ROOT
HETATM    1  S   UNL     1      -9.934  18.862  68.883  1.00  0.00    -0.293 S  
HETATM    2  C   UNL     1      -9.133  18.500  67.446  1.00  0.00    -0.275 C  
ENDROOT
BRANCH   2   3
HETATM    3  S   UNL     1      -9.968  17.679  66.106  1.00  0.00    -0.228 SA 
BRANCH   3   4
HETATM    4  S   UNL     1      -9.501  15.690  66.476  1.00  0.00    -0.300 SA 
BRANCH   4   5
HETATM    5  C   UNL     1     -10.483  14.799  65.290  1.00  0.00    -0.404 C  
HETATM    6  S   UNL     1     -11.520  15.683  64.290  1.00  0.00    -0.033 S  
BRANCH   5   7
HETATM    7  N   UNL     1     -10.232  13.411  65.174  1.00  0.00    -0.315 N  
HETATM    8  C   UNL     1     -10.118  11.257  66.429  1.00  0.00    -0.260 C  
HETATM    9  C   UNL     1      -9.538  12.658  66.238  1.00  0.00    -0.244 C  
HETATM   10  C   UNL     1     -10.157  10.481  65.119  1.00  0.00    -0.383 C  
HETATM   11  C   UNL     1     -10.889  11.284  64.051  1.00  0.00    -0.414 C  
HETATM   12  C   UNL     1     -10.293  12.683  63.893  1.00  0.00    -0.377 C  
ENDBRANCH   5   7
ENDBRANCH   4   5
ENDBRANCH   3   4
ENDBRANCH   2   3
BRANCH   2  13
HETATM   13  N   UNL     1      -7.789  18.804  67.204  1.00  0.00    -0.234 N  
HETATM   14  C   UNL     1      -6.559  20.921  67.629  1.00  0.00    -0.409 C  
HETATM   15  C   UNL     1      -7.170  18.637  65.885  1.00  0.00    -0.232 C  
HETATM   16  C   UNL     1      -6.971  19.554  68.169  1.00  0.00    -0.279 C  
HETATM   17  C   UNL     1      -6.777  19.999  65.301  1.00  0.00    -0.335 C  
HETATM   18  C   UNL     1      -5.890  20.788  66.262  1.00  0.00    -0.259 C  
ENDBRANCH   2  13
TORSDOF 5
ENDMDL
MODEL      117
REMARK 921   NORMALIZED FREE ENERGY PREDICTED BY IDOCK:   -3.94 KCAL/MOL
REMARK 922        TOTAL FREE ENERGY PREDICTED BY IDOCK:   -5.59 KCAL/MOL
REMARK 923 INTER-LIGAND FREE ENERGY PREDICTED BY IDOCK:   -5.22 KCAL/MOL
REMARK 924 INTRA-LIGAND FREE ENERGY PREDICTED BY IDOCK:   -0.37 KCAL/MOL
REMARK 927      BINDING AFFINITY PREDICTED BY RF-SCORE:    0.00 PKD
ROOT
HETATM    1  S   UNL     1     -11.086  15.774  65.146  1.00  0.00    -0.281 S  
HETATM    2  C   UNL     1     -10.185  16.003  66.550  1.00  0.00    -0.293 C  
ENDROOT
BRANCH   2   3
HETATM    3  S   UNL     1     -10.469  15.011  68.001  1.00  0.00    -0.246 SA 
BRANCH   3   4
HETATM    4  S   UNL     1     -12.032  13.795  67.377  1.00  0.00    -0.357 SA 
BRANCH   4   5
HETATM    5  C   UNL     1     -11.390  12.147  67.573  1.00  0.00    -0.326 C  
HETATM    6  S   UNL     1     -11.781  11.304  68.985  1.00  0.00    -0.362 S  
BRANCH   5   7
HETATM    7  N   UNL     1     -10.695  11.601  66.468  1.00  0.00    -0.260 N  
HETATM    8  C   UNL     1      -9.448   9.604  65.640  1.00  0.00    -0.318 C  
HETATM    9  C   UNL     1      -9.500  10.753  66.648  1.00  0.00    -0.175 C  
HETATM   10  C   UNL     1      -9.576  10.106  64.208  1.00  0.00    -0.354 C  
HETATM   11  C   UNL     1     -10.824  10.967  64.060  1.00  0.00    -0.236 C  
HETATM   12  C   UNL     1     -10.852  12.098  65.089  1.00  0.00    -0.300 C  
ENDBRANCH   5   7
ENDBRANCH   4   5
ENDBRANCH   3   4
ENDBRANCH   2   3
BRANCH   2  13
HETATM   13  N   UNL     1      -9.176  16.963  66.683  1.00  0.00    -0.243 N  
HETATM   14  C   UNL     1      -7.565  17.297  68.546  1.00  0.00    -0.251 C  
HETATM   15  C   UNL     1      -9.440  18.401  66.572  1.00  0.00    -0.317 C  
HETATM   16  C   UNL     1      -7.841  16.628  67.202  1.00  0.00    -0.179 C  
HETATM   17  C   UNL     1      -9.205  19.096  67.919  1.00  0.00    -0.358 C  
HETATM   18  C   UNL     1      -7.809  18.802  68.467  1.00  0.00    -0.367 C  
ENDBRANCH   2  13
TORSDOF 5
ENDMDL
MODEL      118
REMARK 921   NORMALIZED FREE ENERGY PREDICTED BY IDOCK:   -3.93 KCAL/MOL
REMARK 922        TOTAL FREE ENERGY PREDICTED BY IDOCK:   -5.58 KCAL/MOL
REMARK 923 INTER-LIGAND FREE ENERGY PREDICTED BY IDOCK:   -5.29 KCAL/MOL
REMARK 924 INTRA-LIGAND FREE ENERGY PREDICTED BY IDOCK:   -0.29 KCAL/MOL
REMARK 927      BINDING AFFINITY PREDICTED BY RF-SCORE:    0.00 PKD
ROOT
HETATM    1  S   UNL     1     -12.039   9.749  71.637  1.00  0.00    -0.354 S  
HETATM    2  C   UNL     1     -11.361   8.699  70.508  1.00  0.00    -0.218 C  
ENDROOT
BRANCH   2   3
HETATM    3  S   UNL     1     -10.354   9.306  69.172  1.00  0.00    -0.215 SA 
BRANCH   3   4
HETATM    4  S   UNL     1     -11.483  10.911  68.492  1.00  0.00    -0.292 SA 
BRANCH   4   5
HETATM    5  C   UNL     1     -10.362  11.797  67.432  1.00  0.00    -0.204 C  
HETATM    6  S   UNL     1      -9.296  12.898  68.146  1.00  0.00    -0.202 S  
BRANCH   5   7
HETATM    7  N   UNL     1     -10.349  11.423  66.068  1.00  0.00    -0.242 N  
HETATM    8  C   UNL     1     -10.478  12.280  63.727  1.00  0.00    -0.476 C  
HETATM    9  C   UNL     1     -11.191  12.111  65.069  1.00  0.00    -0.322 C  
HETATM   10  C   UNL     1      -9.946  10.953  63.202  1.00  0.00    -0.368 C  
HETATM   11  C   UNL     1      -9.074  10.280  64.255  1.00  0.00    -0.278 C  
HETATM   12  C   UNL     1      -9.812  10.137  65.587  1.00  0.00    -0.280 C  
ENDBRANCH   5   7
ENDBRANCH   4   5
ENDBRANCH   3   4
ENDBRANCH   2   3
BRANCH   2  13
HETATM   13  N   UNL     1     -11.534   7.311  70.530  1.00  0.00    -0.291 N  
HETATM   14  C   UNL     1     -10.575   5.636  72.097  1.00  0.00    -0.274 C  
HETATM   15  C   UNL     1     -11.262   6.466  69.363  1.00  0.00    -0.394 C  
HETATM   16  C   UNL     1     -11.742   6.569  71.783  1.00  0.00    -0.324 C  
HETATM   17  C   UNL     1     -10.070   5.541  69.636  1.00  0.00    -0.309 C  
HETATM   18  C   UNL     1     -10.273   4.723  70.911  1.00  0.00    -0.247 C  
ENDBRANCH   2  13
TORSDOF 5
ENDMDL
MODEL      119
REMARK 921   NORMALIZED FREE ENERGY PREDICTED BY IDOCK:   -3.91 KCAL/MOL
REMARK 922        TOTAL FREE ENERGY PREDICTED BY IDOCK:   -5.55 KCAL/MOL
REMARK 923 INTER-LIGAND FREE ENERGY PREDICTED BY IDOCK:   -4.84 KCAL/MOL
REMARK 924 INTRA-LIGAND FREE ENERGY PREDICTED BY IDOCK:   -0.71 KCAL/MOL
REMARK 927      BINDING AFFINITY PREDICTED BY RF-SCORE:    0.00 PKD
ROOT
HETATM    1  S   UNL     1      -6.614   8.181  72.741  1.00  0.00    -0.088 S  
HETATM    2  C   UNL     1      -7.575   6.957  72.097  1.00  0.00    -0.092 C  
ENDROOT
BRANCH   2   3
HETATM    3  S   UNL     1      -7.777   6.773  70.338  1.00  0.00    -0.102 SA 
BRANCH   3   4
HETATM    4  S   UNL     1      -9.063   8.342  69.897  1.00  0.00    -0.147 SA 
BRANCH   4   5
HETATM    5  C   UNL     1     -10.670   7.578  69.876  1.00  0.00    -0.246 C  
HETATM    6  S   UNL     1     -10.914   6.268  68.837  1.00  0.00    -0.359 S  
BRANCH   5   7
HETATM    7  N   UNL     1     -11.604   8.040  70.833  1.00  0.00    -0.282 N  
HETATM    8  C   UNL     1     -12.609  10.075  71.871  1.00  0.00    -0.454 C  
HETATM    9  C   UNL     1     -11.346   9.243  71.650  1.00  0.00    -0.397 C  
HETATM   10  C   UNL     1     -13.742   9.235  72.444  1.00  0.00    -0.517 C  
HETATM   11  C   UNL     1     -13.986   8.011  71.570  1.00  0.00    -0.433 C  
HETATM   12  C   UNL     1     -12.702   7.208  71.358  1.00  0.00    -0.391 C  
ENDBRANCH   5   7
ENDBRANCH   4   5
ENDBRANCH   3   4
ENDBRANCH   2   3
BRANCH   2  13
HETATM   13  N   UNL     1      -8.270   6.021  72.869  1.00  0.00    -0.117 N  
HETATM   14  C   UNL     1     -10.209   4.600  72.240  1.00  0.00    -0.256 C  
HETATM   15  C   UNL     1      -8.859   6.357  74.169  1.00  0.00    -0.144 C  
HETATM   16  C   UNL     1      -8.690   4.719  72.330  1.00  0.00    -0.120 C  
HETATM   17  C   UNL     1     -10.389   6.280  74.101  1.00  0.00    -0.319 C  
HETATM   18  C   UNL     1     -10.861   4.922  73.583  1.00  0.00    -0.374 C  
ENDBRANCH   2  13
TORSDOF 5
ENDMDL
MODEL      120
REMARK 921   NORMALIZED FREE ENERGY PREDICTED BY IDOCK:   -3.87 KCAL/MOL
REMARK 922        TOTAL FREE ENERGY PREDICTED BY IDOCK:   -5.50 KCAL/MOL
REMARK 923 INTER-LIGAND FREE ENERGY PREDICTED BY IDOCK:   -5.08 KCAL/MOL
REMARK 924 INTRA-LIGAND FREE ENERGY PREDICTED BY IDOCK:   -0.43 KCAL/MOL
REMARK 927      BINDING AFFINITY PREDICTED BY RF-SCORE:    0.00 PKD
ROOT
HETATM    1  S   UNL     1      -9.459  10.674  64.429  1.00  0.00    -0.295 S  
HETATM    2  C   UNL     1      -9.355  11.132  66.047  1.00  0.00    -0.206 C  
ENDROOT
BRANCH   2   3
HETATM    3  S   UNL     1      -8.819   9.984  67.297  1.00  0.00    -0.134 SA 
BRANCH   3   4
HETATM    4  S   UNL     1     -10.449   8.703  67.419  1.00  0.00    -0.247 SA 
BRANCH   4   5
HETATM    5  C   UNL     1      -9.987   7.552  68.694  1.00  0.00    -0.172 C  
HETATM    6  S   UNL     1      -8.668   6.535  68.409  1.00  0.00    -0.120 S  
BRANCH   5   7
HETATM    7  N   UNL     1     -10.681   7.655  69.923  1.00  0.00    -0.249 N  
HETATM    8  C   UNL     1     -11.469   9.240  71.682  1.00  0.00    -0.468 C  
HETATM    9  C   UNL     1     -10.271   8.618  70.965  1.00  0.00    -0.220 C  
HETATM   10  C   UNL     1     -12.409   8.176  72.233  1.00  0.00    -0.371 C  
HETATM   11  C   UNL     1     -12.817   7.210  71.129  1.00  0.00    -0.340 C  
HETATM   12  C   UNL     1     -11.598   6.615  70.424  1.00  0.00    -0.398 C  
ENDBRANCH   5   7
ENDBRANCH   4   5
ENDBRANCH   3   4
ENDBRANCH   2   3
BRANCH   2  13
HETATM   13  N   UNL     1      -9.677  12.408  66.519  1.00  0.00    -0.235 N  
HETATM   14  C   UNL     1     -10.859  13.055  68.607  1.00  0.00    -0.287 C  
HETATM   15  C   UNL     1     -10.433  13.376  65.718  1.00  0.00    -0.290 C  
HETATM   16  C   UNL     1      -9.518  12.782  67.933  1.00  0.00    -0.208 C  
HETATM   17  C   UNL     1     -11.803  13.645  66.353  1.00  0.00    -0.433 C  
HETATM   18  C   UNL     1     -11.671  14.076  67.813  1.00  0.00    -0.403 C  
ENDBRANCH   2  13
TORSDOF 5
ENDMDL
MODEL      121
REMARK 921   NORMALIZED FREE ENERGY PREDICTED BY IDOCK:   -3.87 KCAL/MOL
REMARK 922        TOTAL FREE ENERGY PREDICTED BY IDOCK:   -5.50 KCAL/MOL
REMARK 923 INTER-LIGAND FREE ENERGY PREDICTED BY IDOCK:   -4.99 KCAL/MOL
REMARK 924 INTRA-LIGAND FREE ENERGY PREDICTED BY IDOCK:   -0.51 KCAL/MOL
REMARK 927      BINDING AFFINITY PREDICTED BY RF-SCORE:    0.00 PKD
ROOT
HETATM    1  S   UNL     1      -9.508   8.249  72.655  1.00  0.00    -0.272 S  
HETATM    2  C   UNL     1     -10.182   8.025  71.127  1.00  0.00    -0.193 C  
ENDROOT
BRANCH   2   3
HETATM    3  S   UNL     1      -9.192   7.477  69.754  1.00  0.00    -0.146 SA 
BRANCH   3   4
HETATM    4  S   UNL     1     -10.020   8.552  68.183  1.00  0.00    -0.189 SA 
BRANCH   4   5
HETATM    5  C   UNL     1      -9.306  10.172  68.357  1.00  0.00    -0.136 C  
HETATM    6  S   UNL     1      -7.777  10.295  69.067  1.00  0.00    -0.121 S  
BRANCH   5   7
HETATM    7  N   UNL     1     -10.014  11.245  67.766  1.00  0.00    -0.174 N  
HETATM    8  C   UNL     1     -11.167  12.019  65.693  1.00  0.00    -0.377 C  
HETATM    9  C   UNL     1      -9.850  11.589  66.340  1.00  0.00    -0.205 C  
HETATM   10  C   UNL     1     -11.836  13.143  66.473  1.00  0.00    -0.456 C  
HETATM   11  C   UNL     1     -11.997  12.748  67.935  1.00  0.00    -0.320 C  
HETATM   12  C   UNL     1     -10.666  12.312  68.548  1.00  0.00    -0.237 C  
ENDBRANCH   5   7
ENDBRANCH   4   5
ENDBRANCH   3   4
ENDBRANCH   2   3
BRANCH   2  13
HETATM   13  N   UNL     1     -11.530   8.250  70.828  1.00  0.00    -0.269 N  
HETATM   14  C   UNL     1     -13.216   9.571  72.088  1.00  0.00    -0.539 C  
HETATM   15  C   UNL     1     -12.475   7.156  70.588  1.00  0.00    -0.101 C  
HETATM   16  C   UNL     1     -12.157   9.571  70.989  1.00  0.00    -0.318 C  
HETATM   17  C   UNL     1     -13.533   7.108  71.697  1.00  0.00    -0.397 C  
HETATM   18  C   UNL     1     -14.235   8.455  71.863  1.00  0.00    -0.541 C  
ENDBRANCH   2  13
TORSDOF 5
ENDMDL
MODEL      122
REMARK 921   NORMALIZED FREE ENERGY PREDICTED BY IDOCK:   -3.87 KCAL/MOL
REMARK 922        TOTAL FREE ENERGY PREDICTED BY IDOCK:   -5.49 KCAL/MOL
REMARK 923 INTER-LIGAND FREE ENERGY PREDICTED BY IDOCK:   -4.66 KCAL/MOL
REMARK 924 INTRA-LIGAND FREE ENERGY PREDICTED BY IDOCK:   -0.83 KCAL/MOL
REMARK 927      BINDING AFFINITY PREDICTED BY RF-SCORE:    0.00 PKD
ROOT
HETATM    1  S   UNL     1      -9.872  17.126  66.823  1.00  0.00    -0.297 S  
HETATM    2  C   UNL     1     -10.243  15.498  67.050  1.00  0.00    -0.271 C  
ENDROOT
BRANCH   2   3
HETATM    3  S   UNL     1      -9.351  14.505  68.228  1.00  0.00    -0.208 SA 
BRANCH   3   4
HETATM    4  S   UNL     1      -8.154  13.351  66.984  1.00  0.00     0.100 SA 
BRANCH   4   5
HETATM    5  C   UNL     1      -7.761  11.929  67.978  1.00  0.00    -0.132 C  
HETATM    6  S   UNL     1      -6.575  12.096  69.171  1.00  0.00    -0.100 S  
BRANCH   5   7
HETATM    7  N   UNL     1      -8.564  10.780  67.787  1.00  0.00    -0.126 N  
HETATM    8  C   UNL     1     -10.614   9.586  68.561  1.00  0.00    -0.247 C  
HETATM    9  C   UNL     1      -9.219  10.097  68.921  1.00  0.00    -0.172 C  
HETATM   10  C   UNL     1     -10.589   8.714  67.313  1.00  0.00    -0.308 C  
HETATM   11  C   UNL     1      -9.916   9.455  66.165  1.00  0.00    -0.351 C  
HETATM   12  C   UNL     1      -8.530   9.964  66.560  1.00  0.00    -0.125 C  
ENDBRANCH   5   7
ENDBRANCH   4   5
ENDBRANCH   3   4
ENDBRANCH   2   3
BRANCH   2  13
HETATM   13  N   UNL     1     -11.246  14.820  66.349  1.00  0.00    -0.341 N  
HETATM   14  C   UNL     1     -11.907  12.428  66.481  1.00  0.00    -0.407 C  
HETATM   15  C   UNL     1     -11.323  14.825  64.885  1.00  0.00    -0.410 C  
HETATM   16  C   UNL     1     -12.133  13.845  67.002  1.00  0.00    -0.415 C  
HETATM   17  C   UNL     1     -11.065  13.419  64.329  1.00  0.00    -0.396 C  
HETATM   18  C   UNL     1     -12.000  12.386  64.957  1.00  0.00    -0.458 C  
ENDBRANCH   2  13
TORSDOF 5
ENDMDL
MODEL      123
REMARK 921   NORMALIZED FREE ENERGY PREDICTED BY IDOCK:   -3.86 KCAL/MOL
REMARK 922        TOTAL FREE ENERGY PREDICTED BY IDOCK:   -5.48 KCAL/MOL
REMARK 923 INTER-LIGAND FREE ENERGY PREDICTED BY IDOCK:   -5.14 KCAL/MOL
REMARK 924 INTRA-LIGAND FREE ENERGY PREDICTED BY IDOCK:   -0.34 KCAL/MOL
REMARK 927      BINDING AFFINITY PREDICTED BY RF-SCORE:    0.00 PKD
ROOT
HETATM    1  S   UNL     1      -7.348  15.198  67.319  1.00  0.00    -0.120 S  
HETATM    2  C   UNL     1      -8.769  14.683  68.061  1.00  0.00    -0.167 C  
ENDROOT
BRANCH   2   3
HETATM    3  S   UNL     1      -9.488  15.596  69.411  1.00  0.00    -0.275 SA 
BRANCH   3   4
HETATM    4  S   UNL     1     -10.962  16.689  68.440  1.00  0.00    -0.298 SA 
BRANCH   4   5
HETATM    5  C   UNL     1     -10.134  17.332  67.003  1.00  0.00    -0.303 C  
HETATM    6  S   UNL     1     -10.523  16.669  65.497  1.00  0.00    -0.179 S  
BRANCH   5   7
HETATM    7  N   UNL     1      -9.293  18.453  67.203  1.00  0.00    -0.266 N  
HETATM    8  C   UNL     1      -7.461  19.389  68.615  1.00  0.00    -0.385 C  
HETATM    9  C   UNL     1      -8.908  18.899  68.557  1.00  0.00    -0.352 C  
HETATM   10  C   UNL     1      -7.187  20.459  67.567  1.00  0.00    -0.353 C  
HETATM   11  C   UNL     1      -7.587  19.958  66.184  1.00  0.00    -0.338 C  
HETATM   12  C   UNL     1      -9.034  19.465  66.163  1.00  0.00    -0.283 C  
ENDBRANCH   5   7
ENDBRANCH   4   5
ENDBRANCH   3   4
ENDBRANCH   2   3
BRANCH   2  13
HETATM   13  N   UNL     1      -9.472  13.532  67.690  1.00  0.00    -0.215 N  
HETATM   14  C   UNL     1     -10.555  12.988  65.520  1.00  0.00    -0.297 C  
HETATM   15  C   UNL     1     -10.614  13.026  68.457  1.00  0.00    -0.258 C  
HETATM   16  C   UNL     1      -9.293  12.897  66.375  1.00  0.00    -0.187 C  
HETATM   17  C   UNL     1     -11.904  13.137  67.636  1.00  0.00    -0.405 C  
HETATM   18  C   UNL     1     -11.767  12.450  66.278  1.00  0.00    -0.457 C  
ENDBRANCH   2  13
TORSDOF 5
ENDMDL
MODEL      124
REMARK 921   NORMALIZED FREE ENERGY PREDICTED BY IDOCK:   -3.85 KCAL/MOL
REMARK 922        TOTAL FREE ENERGY PREDICTED BY IDOCK:   -5.48 KCAL/MOL
REMARK 923 INTER-LIGAND FREE ENERGY PREDICTED BY IDOCK:   -5.09 KCAL/MOL
REMARK 924 INTRA-LIGAND FREE ENERGY PREDICTED BY IDOCK:   -0.39 KCAL/MOL
REMARK 927      BINDING AFFINITY PREDICTED BY RF-SCORE:    0.00 PKD
ROOT
HETATM    1  S   UNL     1      -9.891   7.075  66.980  1.00  0.00    -0.198 S  
HETATM    2  C   UNL     1      -9.719   8.083  68.318  1.00  0.00    -0.164 C  
ENDROOT
BRANCH   2   3
HETATM    3  S   UNL     1      -9.236   9.786  68.133  1.00  0.00    -0.128 SA 
BRANCH   3   4
HETATM    4  S   UNL     1     -10.533  10.432  66.646  1.00  0.00    -0.184 SA 
BRANCH   4   5
HETATM    5  C   UNL     1     -11.305  11.870  67.355  1.00  0.00    -0.324 C  
HETATM    6  S   UNL     1     -11.657  11.851  69.008  1.00  0.00    -0.341 S  
BRANCH   5   7
HETATM    7  N   UNL     1     -11.456  12.992  66.506  1.00  0.00    -0.323 N  
HETATM    8  C   UNL     1     -10.305  15.001  65.574  1.00  0.00    -0.397 C  
HETATM    9  C   UNL     1     -10.829  14.291  66.822  1.00  0.00    -0.298 C  
HETATM   10  C   UNL     1     -11.386  15.137  64.509  1.00  0.00    -0.297 C  
HETATM   11  C   UNL     1     -12.000  13.777  64.203  1.00  0.00    -0.473 C  
HETATM   12  C   UNL     1     -12.503  13.089  65.473  1.00  0.00    -0.438 C  
ENDBRANCH   5   7
ENDBRANCH   4   5
ENDBRANCH   3   4
ENDBRANCH   2   3
BRANCH   2  13
HETATM   13  N   UNL     1      -9.931   7.672  69.638  1.00  0.00    -0.182 N  
HETATM   14  C   UNL     1     -10.809   8.975  71.563  1.00  0.00    -0.416 C  
HETATM   15  C   UNL     1      -8.874   7.064  70.452  1.00  0.00    -0.155 C  
HETATM   16  C   UNL     1     -11.136   8.053  70.391  1.00  0.00    -0.238 C  
HETATM   17  C   UNL     1      -8.500   7.985  71.620  1.00  0.00    -0.155 C  
HETATM   18  C   UNL     1      -9.725   8.367  72.450  1.00  0.00    -0.376 C  
ENDBRANCH   2  13
TORSDOF 5
ENDMDL
MODEL      125
REMARK 921   NORMALIZED FREE ENERGY PREDICTED BY IDOCK:   -3.85 KCAL/MOL
REMARK 922        TOTAL FREE ENERGY PREDICTED BY IDOCK:   -5.47 KCAL/MOL
REMARK 923 INTER-LIGAND FREE ENERGY PREDICTED BY IDOCK:   -5.09 KCAL/MOL
REMARK 924 INTRA-LIGAND FREE ENERGY PREDICTED BY IDOCK:   -0.39 KCAL/MOL
REMARK 927      BINDING AFFINITY PREDICTED BY RF-SCORE:    0.00 PKD
ROOT
HETATM    1  S   UNL     1     -10.757   5.852  68.072  1.00  0.00    -0.222 S  
HETATM    2  C   UNL     1     -10.357   7.250  68.922  1.00  0.00    -0.201 C  
ENDROOT
BRANCH   2   3
HETATM    3  S   UNL     1      -9.060   8.332  68.358  1.00  0.00    -0.135 SA 
BRANCH   3   4
HETATM    4  S   UNL     1      -9.957   9.246  66.724  1.00  0.00    -0.263 SA 
BRANCH   4   5
HETATM    5  C   UNL     1      -9.345  10.916  66.786  1.00  0.00    -0.165 C  
HETATM    6  S   UNL     1      -7.680  11.159  66.631  1.00  0.00    -0.145 S  
BRANCH   5   7
HETATM    7  N   UNL     1     -10.315  11.946  66.832  1.00  0.00    -0.208 N  
HETATM    8  C   UNL     1     -11.654  13.406  68.348  1.00  0.00    -0.368 C  
HETATM    9  C   UNL     1     -11.356  11.982  67.878  1.00  0.00    -0.305 C  
HETATM   10  C   UNL     1     -11.991  14.325  67.181  1.00  0.00    -0.449 C  
HETATM   11  C   UNL     1     -10.890  14.268  66.130  1.00  0.00    -0.310 C  
HETATM   12  C   UNL     1     -10.608  12.831  65.690  1.00  0.00    -0.275 C  
ENDBRANCH   5   7
ENDBRANCH   4   5
ENDBRANCH   3   4
ENDBRANCH   2   3
BRANCH   2  13
HETATM   13  N   UNL     1     -10.989   7.655  70.101  1.00  0.00    -0.256 N  
HETATM   14  C   UNL     1      -9.981   8.487  72.215  1.00  0.00    -0.385 C  
HETATM   15  C   UNL     1     -11.938   6.797  70.819  1.00  0.00    -0.378 C  
HETATM   16  C   UNL     1     -10.560   8.847  70.849  1.00  0.00    -0.233 C  
HETATM   17  C   UNL     1     -11.367   6.390  72.183  1.00  0.00    -0.332 C  
HETATM   18  C   UNL     1     -10.949   7.609  73.004  1.00  0.00    -0.457 C  
ENDBRANCH   2  13
TORSDOF 5
ENDMDL
MODEL      126
REMARK 921   NORMALIZED FREE ENERGY PREDICTED BY IDOCK:   -3.85 KCAL/MOL
REMARK 922        TOTAL FREE ENERGY PREDICTED BY IDOCK:   -5.47 KCAL/MOL
REMARK 923 INTER-LIGAND FREE ENERGY PREDICTED BY IDOCK:   -4.59 KCAL/MOL
REMARK 924 INTRA-LIGAND FREE ENERGY PREDICTED BY IDOCK:   -0.88 KCAL/MOL
REMARK 927      BINDING AFFINITY PREDICTED BY RF-SCORE:    0.00 PKD
ROOT
HETATM    1  S   UNL     1      -9.586   8.845  69.465  1.00  0.00    -0.175 S  
HETATM    2  C   UNL     1     -10.752   7.754  70.000  1.00  0.00    -0.244 C  
ENDROOT
BRANCH   2   3
HETATM    3  S   UNL     1     -11.034   6.215  69.150  1.00  0.00    -0.373 SA 
BRANCH   3   4
HETATM    4  S   UNL     1      -9.278   5.184  69.556  1.00  0.00    -0.127 SA 
BRANCH   4   5
HETATM    5  C   UNL     1      -9.286   5.019  71.328  1.00  0.00    -0.145 C  
HETATM    6  S   UNL     1      -9.993   3.636  71.995  1.00  0.00    -0.133 S  
BRANCH   5   7
HETATM    7  N   UNL     1      -8.578   6.001  72.060  1.00  0.00    -0.135 N  
HETATM    8  C   UNL     1      -6.841   7.786  71.907  1.00  0.00    -0.060 C  
HETATM    9  C   UNL     1      -7.157   6.296  71.787  1.00  0.00    -0.085 C  
HETATM   10  C   UNL     1      -7.288   8.350  73.249  1.00  0.00    -0.111 C  
HETATM   11  C   UNL     1      -8.759   8.036  73.490  1.00  0.00    -0.330 C  
HETATM   12  C   UNL     1      -9.044   6.540  73.350  1.00  0.00    -0.128 C  
ENDBRANCH   5   7
ENDBRANCH   4   5
ENDBRANCH   3   4
ENDBRANCH   2   3
BRANCH   2  13
HETATM   13  N   UNL     1     -11.567   7.966  71.117  1.00  0.00    -0.278 N  
HETATM   14  C   UNL     1     -13.939   7.316  71.473  1.00  0.00    -0.486 C  
HETATM   15  C   UNL     1     -11.782   9.298  71.692  1.00  0.00    -0.392 C  
HETATM   16  C   UNL     1     -12.472   6.928  71.634  1.00  0.00    -0.375 C  
HETATM   17  C   UNL     1     -13.242   9.731  71.513  1.00  0.00    -0.493 C  
HETATM   18  C   UNL     1     -14.209   8.691  72.079  1.00  0.00    -0.524 C  
ENDBRANCH   2  13
TORSDOF 5
ENDMDL
MODEL      127
REMARK 921   NORMALIZED FREE ENERGY PREDICTED BY IDOCK:   -3.84 KCAL/MOL
REMARK 922        TOTAL FREE ENERGY PREDICTED BY IDOCK:   -5.45 KCAL/MOL
REMARK 923 INTER-LIGAND FREE ENERGY PREDICTED BY IDOCK:   -4.74 KCAL/MOL
REMARK 924 INTRA-LIGAND FREE ENERGY PREDICTED BY IDOCK:   -0.71 KCAL/MOL
REMARK 927      BINDING AFFINITY PREDICTED BY RF-SCORE:    0.00 PKD
ROOT
HETATM    1  S   UNL     1      -9.299   7.966  73.004  1.00  0.00    -0.283 S  
HETATM    2  C   UNL     1     -10.555   7.168  72.215  1.00  0.00    -0.215 C  
ENDROOT
BRANCH   2   3
HETATM    3  S   UNL     1     -10.709   5.396  72.285  1.00  0.00    -0.225 SA 
BRANCH   3   4
HETATM    4  S   UNL     1      -8.880   4.785  71.514  1.00  0.00    -0.131 SA 
BRANCH   4   5
HETATM    5  C   UNL     1      -9.212   4.539  69.783  1.00  0.00    -0.125 C  
HETATM    6  S   UNL     1      -9.199   2.958  69.187  1.00  0.00    -0.148 S  
BRANCH   5   7
HETATM    7  N   UNL     1      -9.596   5.682  69.042  1.00  0.00    -0.129 N  
HETATM    8  C   UNL     1      -8.760   7.546  67.609  1.00  0.00    -0.122 C  
HETATM    9  C   UNL     1      -8.749   6.891  68.990  1.00  0.00    -0.131 C  
HETATM   10  C   UNL     1     -10.179   7.828  67.131  1.00  0.00    -0.365 C  
HETATM   11  C   UNL     1     -11.017   6.557  67.190  1.00  0.00    -0.480 C  
HETATM   12  C   UNL     1     -10.975   5.919  68.579  1.00  0.00    -0.197 C  
ENDBRANCH   5   7
ENDBRANCH   4   5
ENDBRANCH   3   4
ENDBRANCH   2   3
BRANCH   2  13
HETATM   13  N   UNL     1     -11.541   7.814  71.463  1.00  0.00    -0.263 N  
HETATM   14  C   UNL     1     -11.996  10.247  71.236  1.00  0.00    -0.457 C  
HETATM   15  C   UNL     1     -12.966   7.497  71.595  1.00  0.00    -0.358 C  
HETATM   16  C   UNL     1     -11.259   9.030  70.684  1.00  0.00    -0.270 C  
HETATM   17  C   UNL     1     -13.729   8.691  72.182  1.00  0.00    -0.462 C  
HETATM   18  C   UNL     1     -13.491   9.964  71.371  1.00  0.00    -0.379 C  
ENDBRANCH   2  13
TORSDOF 5
ENDMDL
MODEL      128
REMARK 921   NORMALIZED FREE ENERGY PREDICTED BY IDOCK:   -3.82 KCAL/MOL
REMARK 922        TOTAL FREE ENERGY PREDICTED BY IDOCK:   -5.43 KCAL/MOL
REMARK 923 INTER-LIGAND FREE ENERGY PREDICTED BY IDOCK:   -4.83 KCAL/MOL
REMARK 924 INTRA-LIGAND FREE ENERGY PREDICTED BY IDOCK:   -0.60 KCAL/MOL
REMARK 927      BINDING AFFINITY PREDICTED BY RF-SCORE:    0.00 PKD
ROOT
HETATM    1  S   UNL     1      -8.520   5.067  71.185  1.00  0.00    -0.122 S  
HETATM    2  C   UNL     1      -9.243   6.580  71.026  1.00  0.00    -0.160 C  
ENDROOT
BRANCH   2   3
HETATM    3  S   UNL     1      -8.687   7.743  69.799  1.00  0.00    -0.139 SA 
BRANCH   3   4
HETATM    4  S   UNL     1     -10.250   7.690  68.433  1.00  0.00    -0.199 SA 
BRANCH   4   5
HETATM    5  C   UNL     1      -9.725   8.804  67.148  1.00  0.00    -0.191 C  
HETATM    6  S   UNL     1      -8.847   8.167  65.852  1.00  0.00    -0.135 S  
BRANCH   5   7
HETATM    7  N   UNL     1     -10.194  10.137  67.234  1.00  0.00    -0.209 N  
HETATM    8  C   UNL     1     -11.201  12.021  65.944  1.00  0.00    -0.385 C  
HETATM    9  C   UNL     1      -9.996  11.099  66.131  1.00  0.00    -0.229 C  
HETATM   10  C   UNL     1     -11.583  12.719  67.243  1.00  0.00    -0.420 C  
HETATM   11  C   UNL     1     -11.788  11.694  68.352  1.00  0.00    -0.346 C  
HETATM   12  C   UNL     1     -10.571  10.781  68.505  1.00  0.00    -0.195 C  
ENDBRANCH   5   7
ENDBRANCH   4   5
ENDBRANCH   3   4
ENDBRANCH   2   3
BRANCH   2  13
HETATM   13  N   UNL     1     -10.300   7.028  71.825  1.00  0.00    -0.197 N  
HETATM   14  C   UNL     1     -12.739   7.023  71.345  1.00  0.00    -0.421 C  
HETATM   15  C   UNL     1     -10.349   8.385  72.377  1.00  0.00    -0.329 C  
HETATM   16  C   UNL     1     -11.557   6.274  71.953  1.00  0.00    -0.317 C  
HETATM   17  C   UNL     1     -11.507   9.176  71.757  1.00  0.00    -0.452 C  
HETATM   18  C   UNL     1     -12.837   8.438  71.910  1.00  0.00    -0.384 C  
ENDBRANCH   2  13
TORSDOF 5
ENDMDL
MODEL      129
REMARK 921   NORMALIZED FREE ENERGY PREDICTED BY IDOCK:   -3.82 KCAL/MOL
REMARK 922        TOTAL FREE ENERGY PREDICTED BY IDOCK:   -5.43 KCAL/MOL
REMARK 923 INTER-LIGAND FREE ENERGY PREDICTED BY IDOCK:   -5.13 KCAL/MOL
REMARK 924 INTRA-LIGAND FREE ENERGY PREDICTED BY IDOCK:   -0.30 KCAL/MOL
REMARK 927      BINDING AFFINITY PREDICTED BY RF-SCORE:    0.00 PKD
ROOT
HETATM    1  S   UNL     1     -10.900   6.136  69.021  1.00  0.00    -0.365 S  
HETATM    2  C   UNL     1     -10.926   7.660  69.740  1.00  0.00    -0.170 C  
ENDROOT
BRANCH   2   3
HETATM    3  S   UNL     1     -10.138   9.057  68.970  1.00  0.00    -0.200 SA 
BRANCH   3   4
HETATM    4  S   UNL     1     -10.475   8.672  66.957  1.00  0.00    -0.232 SA 
BRANCH   4   5
HETATM    5  C   UNL     1     -10.174  10.239  66.171  1.00  0.00    -0.217 C  
HETATM    6  S   UNL     1     -11.021  11.588  66.737  1.00  0.00    -0.294 S  
BRANCH   5   7
HETATM    7  N   UNL     1      -9.143  10.276  65.203  1.00  0.00    -0.181 N  
HETATM    8  C   UNL     1      -6.923   9.331  64.565  1.00  0.00    -0.093 C  
HETATM    9  C   UNL     1      -7.721  10.148  65.582  1.00  0.00    -0.143 C  
HETATM   10  C   UNL     1      -7.086   9.877  63.153  1.00  0.00    -0.126 C  
HETATM   11  C   UNL     1      -8.563   9.985  62.796  1.00  0.00    -0.196 C  
HETATM   12  C   UNL     1      -9.335  10.796  63.837  1.00  0.00    -0.253 C  
ENDBRANCH   5   7
ENDBRANCH   4   5
ENDBRANCH   3   4
ENDBRANCH   2   3
BRANCH   2  13
HETATM   13  N   UNL     1     -11.547   7.935  70.963  1.00  0.00    -0.282 N  
HETATM   14  C   UNL     1     -13.931   7.663  71.608  1.00  0.00    -0.510 C  
HETATM   15  C   UNL     1     -11.457   9.246  71.613  1.00  0.00    -0.398 C  
HETATM   16  C   UNL     1     -12.543   7.030  71.556  1.00  0.00    -0.385 C  
HETATM   17  C   UNL     1     -12.832   9.923  71.648  1.00  0.00    -0.537 C  
HETATM   18  C   UNL     1     -13.884   9.025  72.297  1.00  0.00    -0.547 C  
ENDBRANCH   2  13
TORSDOF 5
ENDMDL
MODEL      130
REMARK 921   NORMALIZED FREE ENERGY PREDICTED BY IDOCK:   -3.80 KCAL/MOL
REMARK 922        TOTAL FREE ENERGY PREDICTED BY IDOCK:   -5.41 KCAL/MOL
REMARK 923 INTER-LIGAND FREE ENERGY PREDICTED BY IDOCK:   -5.01 KCAL/MOL
REMARK 924 INTRA-LIGAND FREE ENERGY PREDICTED BY IDOCK:   -0.40 KCAL/MOL
REMARK 927      BINDING AFFINITY PREDICTED BY RF-SCORE:    0.00 PKD
ROOT
HETATM    1  S   UNL     1     -10.308  18.530  68.283  1.00  0.00    -0.296 S  
HETATM    2  C   UNL     1      -9.147  17.368  68.660  1.00  0.00    -0.261 C  
ENDROOT
BRANCH   2   3
HETATM    3  S   UNL     1      -9.612  15.777  69.308  1.00  0.00    -0.279 SA 
BRANCH   3   4
HETATM    4  S   UNL     1     -11.528  15.554  68.539  1.00  0.00    -0.365 SA 
BRANCH   4   5
HETATM    5  C   UNL     1     -11.514  13.918  67.840  1.00  0.00    -0.318 C  
HETATM    6  S   UNL     1     -11.602  13.771  66.158  1.00  0.00    -0.369 S  
BRANCH   5   7
HETATM    7  N   UNL     1     -11.299  12.846  68.738  1.00  0.00    -0.271 N  
HETATM    8  C   UNL     1     -12.372  11.397  70.463  1.00  0.00    -0.439 C  
HETATM    9  C   UNL     1     -11.941  12.809  70.067  1.00  0.00    -0.301 C  
HETATM   10  C   UNL     1     -11.218  10.408  70.363  1.00  0.00    -0.399 C  
HETATM   11  C   UNL     1     -10.590  10.467  68.976  1.00  0.00    -0.250 C  
HETATM   12  C   UNL     1     -10.182  11.893  68.606  1.00  0.00    -0.191 C  
ENDBRANCH   5   7
ENDBRANCH   4   5
ENDBRANCH   3   4
ENDBRANCH   2   3
BRANCH   2  13
HETATM   13  N   UNL     1      -7.771  17.560  68.502  1.00  0.00    -0.263 N  
HETATM   14  C   UNL     1      -6.490  18.102  66.443  1.00  0.00    -0.248 C  
HETATM   15  C   UNL     1      -6.784  16.562  68.928  1.00  0.00    -0.179 C  
HETATM   16  C   UNL     1      -7.222  18.641  67.669  1.00  0.00    -0.215 C  
HETATM   17  C   UNL     1      -6.055  15.977  67.713  1.00  0.00    -0.162 C  
HETATM   18  C   UNL     1      -5.436  17.073  66.846  1.00  0.00    -0.204 C  
ENDBRANCH   2  13
TORSDOF 5
ENDMDL
MODEL      131
REMARK 921   NORMALIZED FREE ENERGY PREDICTED BY IDOCK:   -3.79 KCAL/MOL
REMARK 922        TOTAL FREE ENERGY PREDICTED BY IDOCK:   -5.40 KCAL/MOL
REMARK 923 INTER-LIGAND FREE ENERGY PREDICTED BY IDOCK:   -5.02 KCAL/MOL
REMARK 924 INTRA-LIGAND FREE ENERGY PREDICTED BY IDOCK:   -0.38 KCAL/MOL
REMARK 927      BINDING AFFINITY PREDICTED BY RF-SCORE:    0.00 PKD
ROOT
HETATM    1  S   UNL     1      -7.567  10.238  67.288  1.00  0.00    -0.095 S  
HETATM    2  C   UNL     1      -9.088   9.627  67.680  1.00  0.00    -0.131 C  
ENDROOT
BRANCH   2   3
HETATM    3  S   UNL     1     -10.575  10.424  67.114  1.00  0.00    -0.251 SA 
BRANCH   3   4
HETATM    4  S   UNL     1     -10.037  11.001  65.193  1.00  0.00    -0.309 SA 
BRANCH   4   5
HETATM    5  C   UNL     1     -11.171  12.320  64.815  1.00  0.00    -0.318 C  
HETATM    6  S   UNL     1     -12.402  12.014  63.699  1.00  0.00    -0.487 S  
BRANCH   5   7
HETATM    7  N   UNL     1     -11.042  13.505  65.577  1.00  0.00    -0.292 N  
HETATM    8  C   UNL     1     -11.254  14.480  67.865  1.00  0.00    -0.310 C  
HETATM    9  C   UNL     1     -11.966  13.816  66.687  1.00  0.00    -0.431 C  
HETATM   10  C   UNL     1     -10.463  15.706  67.426  1.00  0.00    -0.291 C  
HETATM   11  C   UNL     1      -9.515  15.343  66.289  1.00  0.00    -0.342 C  
HETATM   12  C   UNL     1     -10.256  14.670  65.133  1.00  0.00    -0.382 C  
ENDBRANCH   5   7
ENDBRANCH   4   5
ENDBRANCH   3   4
ENDBRANCH   2   3
BRANCH   2  13
HETATM   13  N   UNL     1      -9.293   8.485  68.461  1.00  0.00    -0.139 N  
HETATM   14  C   UNL     1     -10.920   6.635  68.134  1.00  0.00    -0.323 C  
HETATM   15  C   UNL     1      -9.566   8.554  69.899  1.00  0.00    -0.171 C  
HETATM   16  C   UNL     1      -9.512   7.159  67.863  1.00  0.00    -0.130 C  
HETATM   17  C   UNL     1     -10.989   8.066  70.199  1.00  0.00    -0.226 C  
HETATM   18  C   UNL     1     -11.237   6.671  69.627  1.00  0.00    -0.397 C  
ENDBRANCH   2  13
TORSDOF 5
ENDMDL
MODEL      132
REMARK 921   NORMALIZED FREE ENERGY PREDICTED BY IDOCK:   -3.79 KCAL/MOL
REMARK 922        TOTAL FREE ENERGY PREDICTED BY IDOCK:   -5.40 KCAL/MOL
REMARK 923 INTER-LIGAND FREE ENERGY PREDICTED BY IDOCK:   -5.07 KCAL/MOL
REMARK 924 INTRA-LIGAND FREE ENERGY PREDICTED BY IDOCK:   -0.33 KCAL/MOL
REMARK 927      BINDING AFFINITY PREDICTED BY RF-SCORE:    0.00 PKD
ROOT
HETATM    1  S   UNL     1      -9.795  11.772  65.876  1.00  0.00    -0.243 S  
HETATM    2  C   UNL     1     -10.454  11.965  67.414  1.00  0.00    -0.217 C  
ENDROOT
BRANCH   2   3
HETATM    3  S   UNL     1     -10.418  13.541  68.241  1.00  0.00    -0.257 SA 
BRANCH   3   4
HETATM    4  S   UNL     1      -8.599  14.311  67.601  1.00  0.00    -0.197 SA 
BRANCH   4   5
HETATM    5  C   UNL     1      -9.054  15.775  66.699  1.00  0.00    -0.268 C  
HETATM    6  S   UNL     1     -10.345  15.672  65.613  1.00  0.00    -0.409 S  
BRANCH   5   7
HETATM    7  N   UNL     1      -8.382  16.970  67.049  1.00  0.00    -0.193 N  
HETATM    8  C   UNL     1      -7.472  19.120  66.167  1.00  0.00    -0.294 C  
HETATM    9  C   UNL     1      -7.392  17.594  66.148  1.00  0.00    -0.309 C  
HETATM   10  C   UNL     1      -7.375  19.671  67.583  1.00  0.00    -0.289 C  
HETATM   11  C   UNL     1      -8.417  19.013  68.478  1.00  0.00    -0.387 C  
HETATM   12  C   UNL     1      -8.318  17.488  68.428  1.00  0.00    -0.278 C  
ENDBRANCH   5   7
ENDBRANCH   4   5
ENDBRANCH   3   4
ENDBRANCH   2   3
BRANCH   2  13
HETATM   13  N   UNL     1     -11.057  10.934  68.141  1.00  0.00    -0.257 N  
HETATM   14  C   UNL     1     -11.601  10.833  70.564  1.00  0.00    -0.425 C  
HETATM   15  C   UNL     1     -10.540   9.562  68.137  1.00  0.00    -0.217 C  
HETATM   16  C   UNL     1     -12.084  11.193  69.162  1.00  0.00    -0.283 C  
HETATM   17  C   UNL     1     -10.013   9.183  69.526  1.00  0.00    -0.193 C  
HETATM   18  C   UNL     1     -11.071   9.401  70.607  1.00  0.00    -0.351 C  
ENDBRANCH   2  13
TORSDOF 5
ENDMDL
MODEL      133
REMARK 921   NORMALIZED FREE ENERGY PREDICTED BY IDOCK:   -3.79 KCAL/MOL
REMARK 922        TOTAL FREE ENERGY PREDICTED BY IDOCK:   -5.39 KCAL/MOL
REMARK 923 INTER-LIGAND FREE ENERGY PREDICTED BY IDOCK:   -4.95 KCAL/MOL
REMARK 924 INTRA-LIGAND FREE ENERGY PREDICTED BY IDOCK:   -0.44 KCAL/MOL
REMARK 927      BINDING AFFINITY PREDICTED BY RF-SCORE:    0.00 PKD
ROOT
HETATM    1  S   UNL     1      -9.756  15.276  65.842  1.00  0.00    -0.356 S  
HETATM    2  C   UNL     1     -10.103  13.774  66.520  1.00  0.00    -0.286 C  
ENDROOT
BRANCH   2   3
HETATM    3  S   UNL     1      -9.591  13.370  68.177  1.00  0.00    -0.222 SA 
BRANCH   3   4
HETATM    4  S   UNL     1      -8.831  11.454  67.926  1.00  0.00    -0.155 SA 
BRANCH   4   5
HETATM    5  C   UNL     1     -10.143  10.401  68.504  1.00  0.00    -0.171 C  
HETATM    6  S   UNL     1     -11.392  11.104  69.400  1.00  0.00    -0.311 S  
BRANCH   5   7
HETATM    7  N   UNL     1     -10.119   9.057  68.062  1.00  0.00    -0.181 N  
HETATM    8  C   UNL     1      -9.164   7.494  66.366  1.00  0.00    -0.212 C  
HETATM    9  C   UNL     1     -10.046   8.715  66.627  1.00  0.00    -0.294 C  
HETATM   10  C   UNL     1      -9.591   6.301  67.211  1.00  0.00    -0.138 C  
HETATM   11  C   UNL     1      -9.644   6.689  68.684  1.00  0.00    -0.130 C  
HETATM   12  C   UNL     1     -10.524   7.920  68.909  1.00  0.00    -0.190 C  
ENDBRANCH   5   7
ENDBRANCH   4   5
ENDBRANCH   3   4
ENDBRANCH   2   3
BRANCH   2  13
HETATM   13  N   UNL     1     -10.794  12.757  65.854  1.00  0.00    -0.265 N  
HETATM   14  C   UNL     1     -10.789  12.181  63.436  1.00  0.00    -0.474 C  
HETATM   15  C   UNL     1     -12.249  12.600  65.951  1.00  0.00    -0.307 C  
HETATM   16  C   UNL     1     -10.163  11.938  64.807  1.00  0.00    -0.276 C  
HETATM   17  C   UNL     1     -12.910  12.873  64.595  1.00  0.00    -0.323 C  
HETATM   18  C   UNL     1     -12.305  12.007  63.490  1.00  0.00    -0.661 C  
ENDBRANCH   2  13
TORSDOF 5
ENDMDL
MODEL      134
REMARK 921   NORMALIZED FREE ENERGY PREDICTED BY IDOCK:   -3.78 KCAL/MOL
REMARK 922        TOTAL FREE ENERGY PREDICTED BY IDOCK:   -5.38 KCAL/MOL
REMARK 923 INTER-LIGAND FREE ENERGY PREDICTED BY IDOCK:   -4.85 KCAL/MOL
REMARK 924 INTRA-LIGAND FREE ENERGY PREDICTED BY IDOCK:   -0.54 KCAL/MOL
REMARK 927      BINDING AFFINITY PREDICTED BY RF-SCORE:    0.00 PKD
ROOT
HETATM    1  S   UNL     1     -11.387   6.589  70.288  1.00  0.00    -0.415 S  
HETATM    2  C   UNL     1     -10.543   7.684  69.326  1.00  0.00    -0.201 C  
ENDROOT
BRANCH   2   3
HETATM    3  S   UNL     1     -10.129   9.309  69.924  1.00  0.00    -0.225 SA 
BRANCH   3   4
HETATM    4  S   UNL     1     -11.287  10.516  68.694  1.00  0.00    -0.222 SA 
BRANCH   4   5
HETATM    5  C   UNL     1     -10.101  11.268  67.602  1.00  0.00    -0.179 C  
HETATM    6  S   UNL     1      -8.469  11.210  68.038  1.00  0.00    -0.141 S  
BRANCH   5   7
HETATM    7  N   UNL     1     -10.594  11.754  66.368  1.00  0.00    -0.245 N  
HETATM    8  C   UNL     1     -11.083  11.148  63.997  1.00  0.00    -0.173 C  
HETATM    9  C   UNL     1     -10.018  11.321  65.079  1.00  0.00    -0.274 C  
HETATM   10  C   UNL     1     -11.937  12.400  63.843  1.00  0.00    -0.572 C  
HETATM   11  C   UNL     1     -12.521  12.809  65.189  1.00  0.00    -0.565 C  
HETATM   12  C   UNL     1     -11.432  12.961  66.251  1.00  0.00    -0.348 C  
ENDBRANCH   5   7
ENDBRANCH   4   5
ENDBRANCH   3   4
ENDBRANCH   2   3
BRANCH   2  13
HETATM   13  N   UNL     1     -10.118   7.412  68.021  1.00  0.00    -0.172 N  
HETATM   14  C   UNL     1     -10.581   5.422  66.605  1.00  0.00    -0.359 C  
HETATM   15  C   UNL     1      -8.705   7.436  67.633  1.00  0.00    -0.125 C  
HETATM   16  C   UNL     1     -11.016   6.828  67.013  1.00  0.00    -0.368 C  
HETATM   17  C   UNL     1      -8.229   6.029  67.251  1.00  0.00    -0.106 C  
HETATM   18  C   UNL     1      -9.117   5.409  66.173  1.00  0.00    -0.154 C  
ENDBRANCH   2  13
TORSDOF 5
ENDMDL
MODEL      135
REMARK 921   NORMALIZED FREE ENERGY PREDICTED BY IDOCK:   -3.76 KCAL/MOL
REMARK 922        TOTAL FREE ENERGY PREDICTED BY IDOCK:   -5.36 KCAL/MOL
REMARK 923 INTER-LIGAND FREE ENERGY PREDICTED BY IDOCK:   -4.96 KCAL/MOL
REMARK 924 INTRA-LIGAND FREE ENERGY PREDICTED BY IDOCK:   -0.40 KCAL/MOL
REMARK 927      BINDING AFFINITY PREDICTED BY RF-SCORE:    0.00 PKD
ROOT
HETATM    1  S   UNL     1     -10.800  16.858  68.076  1.00  0.00    -0.280 S  
HETATM    2  C   UNL     1      -9.267  16.509  67.471  1.00  0.00    -0.202 C  
ENDROOT
BRANCH   2   3
HETATM    3  S   UNL     1      -8.900  14.923  66.749  1.00  0.00    -0.246 SA 
BRANCH   3   4
HETATM    4  S   UNL     1     -10.119  14.936  65.068  1.00  0.00    -0.137 SA 
BRANCH   4   5
HETATM    5  C   UNL     1     -11.188  13.535  65.311  1.00  0.00    -0.292 C  
HETATM    6  S   UNL     1     -12.773  13.824  65.825  1.00  0.00    -0.363 S  
BRANCH   5   7
HETATM    7  N   UNL     1     -10.676  12.272  64.932  1.00  0.00    -0.285 N  
HETATM    8  C   UNL     1      -9.616  10.987  63.074  1.00  0.00    -0.386 C  
HETATM    9  C   UNL     1     -10.849  11.747  63.562  1.00  0.00    -0.426 C  
HETATM   10  C   UNL     1      -9.204   9.895  64.051  1.00  0.00    -0.302 C  
HETATM   11  C   UNL     1      -9.026  10.476  65.448  1.00  0.00    -0.207 C  
HETATM   12  C   UNL     1     -10.271  11.239  65.902  1.00  0.00    -0.249 C  
ENDBRANCH   5   7
ENDBRANCH   4   5
ENDBRANCH   3   4
ENDBRANCH   2   3
BRANCH   2  13
HETATM   13  N   UNL     1      -8.196  17.407  67.493  1.00  0.00    -0.199 N  
HETATM   14  C   UNL     1      -8.185  19.846  67.014  1.00  0.00    -0.356 C  
HETATM   15  C   UNL     1      -6.969  17.188  66.719  1.00  0.00    -0.225 C  
HETATM   16  C   UNL     1      -8.316  18.754  68.072  1.00  0.00    -0.289 C  
HETATM   17  C   UNL     1      -6.828  18.251  65.623  1.00  0.00    -0.264 C  
HETATM   18  C   UNL     1      -6.906  19.664  66.198  1.00  0.00    -0.249 C  
ENDBRANCH   2  13
TORSDOF 5
ENDMDL
MODEL      136
REMARK 921   NORMALIZED FREE ENERGY PREDICTED BY IDOCK:   -3.76 KCAL/MOL
REMARK 922        TOTAL FREE ENERGY PREDICTED BY IDOCK:   -5.35 KCAL/MOL
REMARK 923 INTER-LIGAND FREE ENERGY PREDICTED BY IDOCK:   -4.99 KCAL/MOL
REMARK 924 INTRA-LIGAND FREE ENERGY PREDICTED BY IDOCK:   -0.36 KCAL/MOL
REMARK 927      BINDING AFFINITY PREDICTED BY RF-SCORE:    0.00 PKD
ROOT
HETATM    1  S   UNL     1      -8.944  16.543  68.420  1.00  0.00    -0.227 S  
HETATM    2  C   UNL     1      -9.971  15.226  68.639  1.00  0.00    -0.216 C  
ENDROOT
BRANCH   2   3
HETATM    3  S   UNL     1      -9.613  13.645  67.903  1.00  0.00    -0.230 SA 
BRANCH   3   4
HETATM    4  S   UNL     1     -10.157  13.969  65.925  1.00  0.00    -0.319 SA 
BRANCH   4   5
HETATM    5  C   UNL     1     -10.315  12.328  65.256  1.00  0.00    -0.281 C  
HETATM    6  S   UNL     1     -10.913  12.165  63.684  1.00  0.00    -0.481 S  
BRANCH   5   7
HETATM    7  N   UNL     1      -9.805  11.270  66.045  1.00  0.00    -0.219 N  
HETATM    8  C   UNL     1      -7.853  10.505  67.398  1.00  0.00    -0.106 C  
HETATM    9  C   UNL     1      -8.375  10.904  66.018  1.00  0.00    -0.165 C  
HETATM   10  C   UNL     1      -8.706   9.411  68.027  1.00  0.00    -0.124 C  
HETATM   11  C   UNL     1     -10.171   9.828  68.046  1.00  0.00    -0.229 C  
HETATM   12  C   UNL     1     -10.658  10.233  66.654  1.00  0.00    -0.162 C  
ENDBRANCH   5   7
ENDBRANCH   4   5
ENDBRANCH   3   4
ENDBRANCH   2   3
BRANCH   2  13
HETATM   13  N   UNL     1     -11.151  15.271  69.388  1.00  0.00    -0.262 N  
HETATM   14  C   UNL     1     -11.439  15.468  71.849  1.00  0.00    -0.506 C  
HETATM   15  C   UNL     1     -12.188  14.239  69.287  1.00  0.00    -0.252 C  
HETATM   16  C   UNL     1     -11.327  16.201  70.514  1.00  0.00    -0.373 C  
HETATM   17  C   UNL     1     -12.300  13.461  70.604  1.00  0.00    -0.423 C  
HETATM   18  C   UNL     1     -12.525  14.396  71.792  1.00  0.00    -0.414 C  
ENDBRANCH   2  13
TORSDOF 5
ENDMDL
MODEL      137
REMARK 921   NORMALIZED FREE ENERGY PREDICTED BY IDOCK:   -3.76 KCAL/MOL
REMARK 922        TOTAL FREE ENERGY PREDICTED BY IDOCK:   -5.35 KCAL/MOL
REMARK 923 INTER-LIGAND FREE ENERGY PREDICTED BY IDOCK:   -5.19 KCAL/MOL
REMARK 924 INTRA-LIGAND FREE ENERGY PREDICTED BY IDOCK:   -0.16 KCAL/MOL
REMARK 927      BINDING AFFINITY PREDICTED BY RF-SCORE:    0.00 PKD
ROOT
HETATM    1  S   UNL     1      -7.099  13.634  68.068  1.00  0.00    -0.153 S  
HETATM    2  C   UNL     1      -7.897  14.953  67.388  1.00  0.00    -0.199 C  
ENDROOT
BRANCH   2   3
HETATM    3  S   UNL     1      -7.005  16.404  66.871  1.00  0.00    -0.179 SA 
BRANCH   3   4
HETATM    4  S   UNL     1      -6.416  17.206  68.694  1.00  0.00    -0.184 SA 
BRANCH   4   5
HETATM    5  C   UNL     1      -7.042  18.871  68.644  1.00  0.00    -0.297 C  
HETATM    6  S   UNL     1      -6.151  20.079  69.421  1.00  0.00    -0.337 S  
BRANCH   5   7
HETATM    7  N   UNL     1      -8.186  19.095  67.842  1.00  0.00    -0.282 N  
HETATM    8  C   UNL     1     -10.654  19.466  67.884  1.00  0.00    -0.501 C  
HETATM    9  C   UNL     1      -9.498  18.511  68.185  1.00  0.00    -0.317 C  
HETATM   10  C   UNL     1     -10.613  19.962  66.445  1.00  0.00    -0.532 C  
HETATM   11  C   UNL     1      -9.250  20.567  66.134  1.00  0.00    -0.043 C  
HETATM   12  C   UNL     1      -8.117  19.592  66.456  1.00  0.00    -0.320 C  
ENDBRANCH   5   7
ENDBRANCH   4   5
ENDBRANCH   3   4
ENDBRANCH   2   3
BRANCH   2  13
HETATM   13  N   UNL     1      -9.280  15.010  67.187  1.00  0.00    -0.207 N  
HETATM   14  C   UNL     1     -10.929  13.152  67.100  1.00  0.00    -0.289 C  
HETATM   15  C   UNL     1      -9.879  15.678  66.028  1.00  0.00    -0.333 C  
HETATM   16  C   UNL     1     -10.218  14.188  67.967  1.00  0.00    -0.232 C  
HETATM   17  C   UNL     1     -10.572  14.657  65.118  1.00  0.00    -0.441 C  
HETATM   18  C   UNL     1     -11.586  13.813  65.889  1.00  0.00    -0.346 C  
ENDBRANCH   2  13
TORSDOF 5
ENDMDL
MODEL      138
REMARK 921   NORMALIZED FREE ENERGY PREDICTED BY IDOCK:   -3.75 KCAL/MOL
REMARK 922        TOTAL FREE ENERGY PREDICTED BY IDOCK:   -5.35 KCAL/MOL
REMARK 923 INTER-LIGAND FREE ENERGY PREDICTED BY IDOCK:   -4.95 KCAL/MOL
REMARK 924 INTRA-LIGAND FREE ENERGY PREDICTED BY IDOCK:   -0.40 KCAL/MOL
REMARK 927      BINDING AFFINITY PREDICTED BY RF-SCORE:    0.00 PKD
ROOT
HETATM    1  S   UNL     1      -7.565   7.207  67.647  1.00  0.00    -0.112 S  
HETATM    2  C   UNL     1      -9.118   7.475  68.242  1.00  0.00    -0.132 C  
ENDROOT
BRANCH   2   3
HETATM    3  S   UNL     1     -10.389   8.183  67.216  1.00  0.00    -0.315 SA 
BRANCH   3   4
HETATM    4  S   UNL     1     -10.094  10.215  67.524  1.00  0.00    -0.214 SA 
BRANCH   4   5
HETATM    5  C   UNL     1     -10.015  10.884  65.877  1.00  0.00    -0.243 C  
HETATM    6  S   UNL     1      -9.310   9.938  64.667  1.00  0.00    -0.258 S  
BRANCH   5   7
HETATM    7  N   UNL     1     -10.669  12.120  65.662  1.00  0.00    -0.265 N  
HETATM    8  C   UNL     1     -10.331  14.514  65.041  1.00  0.00    -0.442 C  
HETATM    9  C   UNL     1     -10.048  13.402  66.052  1.00  0.00    -0.304 C  
HETATM   10  C   UNL     1     -11.823  14.665  64.775  1.00  0.00    -0.444 C  
HETATM   11  C   UNL     1     -12.425  13.326  64.367  1.00  0.00    -0.356 C  
HETATM   12  C   UNL     1     -12.113  12.234  65.391  1.00  0.00    -0.276 C  
ENDBRANCH   5   7
ENDBRANCH   4   5
ENDBRANCH   3   4
ENDBRANCH   2   3
BRANCH   2  13
HETATM   13  N   UNL     1      -9.516   7.176  69.549  1.00  0.00    -0.151 N  
HETATM   14  C   UNL     1     -11.784   6.646  70.414  1.00  0.00    -0.446 C  
HETATM   15  C   UNL     1      -9.222   8.059  70.682  1.00  0.00    -0.154 C  
HETATM   16  C   UNL     1     -10.476   6.102  69.847  1.00  0.00    -0.233 C  
HETATM   17  C   UNL     1     -10.518   8.650  71.252  1.00  0.00    -0.311 C  
HETATM   18  C   UNL     1     -11.523   7.557  71.612  1.00  0.00    -0.292 C  
ENDBRANCH   2  13
TORSDOF 5
ENDMDL
MODEL      139
REMARK 921   NORMALIZED FREE ENERGY PREDICTED BY IDOCK:   -3.75 KCAL/MOL
REMARK 922        TOTAL FREE ENERGY PREDICTED BY IDOCK:   -5.34 KCAL/MOL
REMARK 923 INTER-LIGAND FREE ENERGY PREDICTED BY IDOCK:   -4.89 KCAL/MOL
REMARK 924 INTRA-LIGAND FREE ENERGY PREDICTED BY IDOCK:   -0.45 KCAL/MOL
REMARK 927      BINDING AFFINITY PREDICTED BY RF-SCORE:    0.00 PKD
ROOT
HETATM    1  S   UNL     1      -7.557   9.809  66.576  1.00  0.00    -0.099 S  
HETATM    2  C   UNL     1      -9.123   9.901  67.191  1.00  0.00    -0.138 C  
ENDROOT
BRANCH   2   3
HETATM    3  S   UNL     1     -10.347  10.956  66.444  1.00  0.00    -0.247 SA 
BRANCH   3   4
HETATM    4  S   UNL     1      -9.614  12.842  66.907  1.00  0.00    -0.246 SA 
BRANCH   4   5
HETATM    5  C   UNL     1     -11.076  13.782  67.288  1.00  0.00    -0.304 C  
HETATM    6  S   UNL     1     -12.247  13.955  66.081  1.00  0.00    -0.460 S  
BRANCH   5   7
HETATM    7  N   UNL     1     -11.221  14.215  68.627  1.00  0.00    -0.252 N  
HETATM    8  C   UNL     1     -11.266  16.214  70.120  1.00  0.00    -0.374 C  
HETATM    9  C   UNL     1     -10.445  15.352  69.161  1.00  0.00    -0.239 C  
HETATM   10  C   UNL     1     -11.889  15.381  71.232  1.00  0.00    -0.437 C  
HETATM   11  C   UNL     1     -12.689  14.226  70.643  1.00  0.00    -0.409 C  
HETATM   12  C   UNL     1     -11.844  13.392  69.680  1.00  0.00    -0.331 C  
ENDBRANCH   5   7
ENDBRANCH   4   5
ENDBRANCH   3   4
ENDBRANCH   2   3
BRANCH   2  13
HETATM   13  N   UNL     1      -9.568   9.181  68.304  1.00  0.00    -0.146 N  
HETATM   14  C   UNL     1     -10.805   9.990  70.302  1.00  0.00    -0.370 C  
HETATM   15  C   UNL     1      -8.669   8.356  69.118  1.00  0.00    -0.142 C  
HETATM   16  C   UNL     1     -10.896   9.400  68.897  1.00  0.00    -0.123 C  
HETATM   17  C   UNL     1      -8.530   8.945  70.527  1.00  0.00    -0.198 C  
HETATM   18  C   UNL     1      -9.892   9.146  71.190  1.00  0.00    -0.371 C  
ENDBRANCH   2  13
TORSDOF 5
ENDMDL
MODEL      140
REMARK 921   NORMALIZED FREE ENERGY PREDICTED BY IDOCK:   -3.74 KCAL/MOL
REMARK 922        TOTAL FREE ENERGY PREDICTED BY IDOCK:   -5.32 KCAL/MOL
REMARK 923 INTER-LIGAND FREE ENERGY PREDICTED BY IDOCK:   -4.96 KCAL/MOL
REMARK 924 INTRA-LIGAND FREE ENERGY PREDICTED BY IDOCK:   -0.37 KCAL/MOL
REMARK 927      BINDING AFFINITY PREDICTED BY RF-SCORE:    0.00 PKD
ROOT
HETATM    1  S   UNL     1      -8.266   9.046  66.627  1.00  0.00    -0.119 S  
HETATM    2  C   UNL     1      -9.451   9.502  67.735  1.00  0.00    -0.131 C  
ENDROOT
BRANCH   2   3
HETATM    3  S   UNL     1     -10.415  10.980  67.498  1.00  0.00    -0.223 SA 
BRANCH   3   4
HETATM    4  S   UNL     1      -9.970  11.459  65.527  1.00  0.00    -0.250 SA 
BRANCH   4   5
HETATM    5  C   UNL     1     -11.182  12.692  65.108  1.00  0.00    -0.301 C  
HETATM    6  S   UNL     1     -12.391  12.276  64.003  1.00  0.00    -0.455 S  
BRANCH   5   7
HETATM    7  N   UNL     1     -11.128  13.907  65.833  1.00  0.00    -0.290 N  
HETATM    8  C   UNL     1     -11.459  14.948  68.077  1.00  0.00    -0.355 C  
HETATM    9  C   UNL     1     -12.102  14.216  66.899  1.00  0.00    -0.432 C  
HETATM   10  C   UNL     1     -10.703  16.189  67.622  1.00  0.00    -0.318 C  
HETATM   11  C   UNL     1      -9.702  15.829  66.531  1.00  0.00    -0.285 C  
HETATM   12  C   UNL     1     -10.375  15.088  65.375  1.00  0.00    -0.383 C  
ENDBRANCH   5   7
ENDBRANCH   4   5
ENDBRANCH   3   4
ENDBRANCH   2   3
BRANCH   2  13
HETATM   13  N   UNL     1      -9.756   8.781  68.894  1.00  0.00    -0.169 N  
HETATM   14  C   UNL     1     -10.786   9.577  71.010  1.00  0.00    -0.411 C  
HETATM   15  C   UNL     1      -8.757   7.981  69.609  1.00  0.00    -0.133 C  
HETATM   16  C   UNL     1     -11.016   8.976  69.627  1.00  0.00    -0.136 C  
HETATM   17  C   UNL     1      -8.478   8.582  70.991  1.00  0.00    -0.185 C  
HETATM   18  C   UNL     1      -9.764   8.760  71.797  1.00  0.00    -0.380 C  
ENDBRANCH   2  13
TORSDOF 5
ENDMDL
MODEL      141
REMARK 921   NORMALIZED FREE ENERGY PREDICTED BY IDOCK:   -3.73 KCAL/MOL
REMARK 922        TOTAL FREE ENERGY PREDICTED BY IDOCK:   -5.32 KCAL/MOL
REMARK 923 INTER-LIGAND FREE ENERGY PREDICTED BY IDOCK:   -4.82 KCAL/MOL
REMARK 924 INTRA-LIGAND FREE ENERGY PREDICTED BY IDOCK:   -0.50 KCAL/MOL
REMARK 927      BINDING AFFINITY PREDICTED BY RF-SCORE:    0.00 PKD
ROOT
HETATM    1  S   UNL     1     -12.406  13.569  65.649  1.00  0.00    -0.480 S  
HETATM    2  C   UNL     1     -11.112  14.020  66.630  1.00  0.00    -0.309 C  
ENDROOT
BRANCH   2   3
HETATM    3  S   UNL     1     -10.198  12.811  67.563  1.00  0.00    -0.218 SA 
BRANCH   3   4
HETATM    4  S   UNL     1     -11.724  11.765  68.504  1.00  0.00    -0.314 SA 
BRANCH   4   5
HETATM    5  C   UNL     1     -10.897  10.358  69.213  1.00  0.00    -0.241 C  
HETATM    6  S   UNL     1     -11.324   9.891  70.780  1.00  0.00    -0.376 S  
BRANCH   5   7
HETATM    7  N   UNL     1     -10.023   9.641  68.362  1.00  0.00    -0.154 N  
HETATM    8  C   UNL     1      -9.576   8.989  65.995  1.00  0.00    -0.342 C  
HETATM    9  C   UNL     1     -10.524   8.893  67.191  1.00  0.00    -0.274 C  
HETATM   10  C   UNL     1      -8.158   8.577  66.367  1.00  0.00    -0.103 C  
HETATM   11  C   UNL     1      -7.674   9.375  67.570  1.00  0.00    -0.091 C  
HETATM   12  C   UNL     1      -8.649   9.269  68.744  1.00  0.00    -0.131 C  
ENDBRANCH   5   7
ENDBRANCH   4   5
ENDBRANCH   3   4
ENDBRANCH   2   3
BRANCH   2  13
HETATM   13  N   UNL     1     -10.672  15.339  66.785  1.00  0.00    -0.309 N  
HETATM   14  C   UNL     1      -8.412  16.294  66.391  1.00  0.00    -0.365 C  
HETATM   15  C   UNL     1     -10.833  16.078  68.041  1.00  0.00    -0.335 C  
HETATM   16  C   UNL     1      -9.788  15.989  65.806  1.00  0.00    -0.323 C  
HETATM   17  C   UNL     1      -9.466  16.370  68.672  1.00  0.00    -0.239 C  
HETATM   18  C   UNL     1      -8.536  17.084  67.692  1.00  0.00    -0.213 C  
ENDBRANCH   2  13
TORSDOF 5
ENDMDL
MODEL      142
REMARK 921   NORMALIZED FREE ENERGY PREDICTED BY IDOCK:   -3.72 KCAL/MOL
REMARK 922        TOTAL FREE ENERGY PREDICTED BY IDOCK:   -5.30 KCAL/MOL
REMARK 923 INTER-LIGAND FREE ENERGY PREDICTED BY IDOCK:   -4.96 KCAL/MOL
REMARK 924 INTRA-LIGAND FREE ENERGY PREDICTED BY IDOCK:   -0.34 KCAL/MOL
REMARK 927      BINDING AFFINITY PREDICTED BY RF-SCORE:    0.00 PKD
ROOT
HETATM    1  S   UNL     1     -12.068  13.174  66.084  1.00  0.00    -0.391 S  
HETATM    2  C   UNL     1     -10.550  13.067  66.806  1.00  0.00    -0.262 C  
ENDROOT
BRANCH   2   3
HETATM    3  S   UNL     1      -9.731  11.498  67.002  1.00  0.00    -0.186 SA 
BRANCH   3   4
HETATM    4  S   UNL     1     -11.045  10.493  68.257  1.00  0.00    -0.280 SA 
BRANCH   4   5
HETATM    5  C   UNL     1      -9.975   9.662  69.410  1.00  0.00    -0.197 C  
HETATM    6  S   UNL     1      -8.363  10.163  69.503  1.00  0.00    -0.150 S  
BRANCH   5   7
HETATM    7  N   UNL     1     -10.581   8.717  70.271  1.00  0.00    -0.217 N  
HETATM    8  C   UNL     1     -12.162   8.433  72.181  1.00  0.00    -0.434 C  
HETATM    9  C   UNL     1     -10.836   9.018  71.694  1.00  0.00    -0.366 C  
HETATM   10  C   UNL     1     -12.258   6.940  71.892  1.00  0.00    -0.370 C  
HETATM   11  C   UNL     1     -12.000   6.671  70.415  1.00  0.00    -0.342 C  
HETATM   12  C   UNL     1     -10.674   7.280  69.957  1.00  0.00    -0.245 C  
ENDBRANCH   5   7
ENDBRANCH   4   5
ENDBRANCH   3   4
ENDBRANCH   2   3
BRANCH   2  13
HETATM   13  N   UNL     1      -9.839  14.167  67.296  1.00  0.00    -0.235 N  
HETATM   14  C   UNL     1     -10.134  15.397  69.435  1.00  0.00    -0.269 C  
HETATM   15  C   UNL     1      -9.685  15.408  66.532  1.00  0.00    -0.272 C  
HETATM   16  C   UNL     1      -9.421  14.264  68.703  1.00  0.00    -0.178 C  
HETATM   17  C   UNL     1     -10.422  16.560  67.226  1.00  0.00    -0.304 C  
HETATM   18  C   UNL     1      -9.980  16.716  68.680  1.00  0.00    -0.261 C  
ENDBRANCH   2  13
TORSDOF 5
ENDMDL
MODEL      143
REMARK 921   NORMALIZED FREE ENERGY PREDICTED BY IDOCK:   -3.71 KCAL/MOL
REMARK 922        TOTAL FREE ENERGY PREDICTED BY IDOCK:   -5.29 KCAL/MOL
REMARK 923 INTER-LIGAND FREE ENERGY PREDICTED BY IDOCK:   -4.97 KCAL/MOL
REMARK 924 INTRA-LIGAND FREE ENERGY PREDICTED BY IDOCK:   -0.31 KCAL/MOL
REMARK 927      BINDING AFFINITY PREDICTED BY RF-SCORE:    0.00 PKD
ROOT
HETATM    1  S   UNL     1     -11.922  14.190  67.458  1.00  0.00    -0.335 S  
HETATM    2  C   UNL     1     -11.912  14.924  68.974  1.00  0.00    -0.272 C  
ENDROOT
BRANCH   2   3
HETATM    3  S   UNL     1     -10.706  16.165  69.390  1.00  0.00    -0.331 SA 
BRANCH   3   4
HETATM    4  S   UNL     1     -10.643  17.291  67.646  1.00  0.00    -0.316 SA 
BRANCH   4   5
HETATM    5  C   UNL     1      -8.912  17.343  67.239  1.00  0.00    -0.236 C  
HETATM    6  S   UNL     1      -8.176  15.917  66.709  1.00  0.00    -0.282 S  
BRANCH   5   7
HETATM    7  N   UNL     1      -8.292  18.615  67.264  1.00  0.00    -0.258 N  
HETATM    8  C   UNL     1      -6.894  20.166  68.631  1.00  0.00    -0.301 C  
HETATM    9  C   UNL     1      -8.221  19.418  68.501  1.00  0.00    -0.357 C  
HETATM   10  C   UNL     1      -6.598  21.004  67.394  1.00  0.00    -0.439 C  
HETATM   11  C   UNL     1      -6.671  20.141  66.141  1.00  0.00    -0.264 C  
HETATM   12  C   UNL     1      -8.004  19.397  66.048  1.00  0.00    -0.269 C  
ENDBRANCH   5   7
ENDBRANCH   4   5
ENDBRANCH   3   4
ENDBRANCH   2   3
BRANCH   2  13
HETATM   13  N   UNL     1     -12.821  14.622  69.994  1.00  0.00    -0.159 N  
HETATM   14  C   UNL     1     -12.974  15.567  72.287  1.00  0.00    -0.504 C  
HETATM   15  C   UNL     1     -13.035  13.255  70.476  1.00  0.00     0.133 C  
HETATM   16  C   UNL     1     -13.429  15.666  70.834  1.00  0.00    -0.115 C  
HETATM   17  C   UNL     1     -12.554  13.115  71.926  1.00  0.00    -0.114 C  
HETATM   18  C   UNL     1     -13.200  14.160  72.835  1.00  0.00    -0.553 C  
ENDBRANCH   2  13
TORSDOF 5
ENDMDL
MODEL      144
REMARK 921   NORMALIZED FREE ENERGY PREDICTED BY IDOCK:   -3.70 KCAL/MOL
REMARK 922        TOTAL FREE ENERGY PREDICTED BY IDOCK:   -5.28 KCAL/MOL
REMARK 923 INTER-LIGAND FREE ENERGY PREDICTED BY IDOCK:   -5.03 KCAL/MOL
REMARK 924 INTRA-LIGAND FREE ENERGY PREDICTED BY IDOCK:   -0.25 KCAL/MOL
REMARK 927      BINDING AFFINITY PREDICTED BY RF-SCORE:    0.00 PKD
ROOT
HETATM    1  S   UNL     1     -12.108   9.652  71.460  1.00  0.00    -0.416 S  
HETATM    2  C   UNL     1     -11.352   8.625  70.359  1.00  0.00    -0.187 C  
ENDROOT
BRANCH   2   3
HETATM    3  S   UNL     1     -10.334   9.268  69.048  1.00  0.00    -0.217 SA 
BRANCH   3   4
HETATM    4  S   UNL     1     -11.478  10.864  68.373  1.00  0.00    -0.274 SA 
BRANCH   4   5
HETATM    5  C   UNL     1     -10.508  11.548  67.047  1.00  0.00    -0.228 C  
HETATM    6  S   UNL     1      -9.976  10.502  65.829  1.00  0.00    -0.266 S  
BRANCH   5   7
HETATM    7  N   UNL     1     -10.355  12.954  67.032  1.00  0.00    -0.241 N  
HETATM    8  C   UNL     1      -8.693  14.814  66.954  1.00  0.00    -0.264 C  
HETATM    9  C   UNL     1      -9.239  13.619  67.735  1.00  0.00    -0.214 C  
HETATM   10  C   UNL     1      -9.797  15.797  66.587  1.00  0.00    -0.266 C  
HETATM   11  C   UNL     1     -10.923  15.078  65.855  1.00  0.00    -0.343 C  
HETATM   12  C   UNL     1     -11.438  13.881  66.656  1.00  0.00    -0.355 C  
ENDBRANCH   5   7
ENDBRANCH   4   5
ENDBRANCH   3   4
ENDBRANCH   2   3
BRANCH   2  13
HETATM   13  N   UNL     1     -11.465   7.231  70.386  1.00  0.00    -0.273 N  
HETATM   14  C   UNL     1     -10.364   5.598  71.901  1.00  0.00    -0.266 C  
HETATM   15  C   UNL     1     -11.213   6.399  69.205  1.00  0.00    -0.375 C  
HETATM   16  C   UNL     1     -11.583   6.481  71.645  1.00  0.00    -0.308 C  
HETATM   17  C   UNL     1      -9.972   5.525  69.419  1.00  0.00    -0.276 C  
HETATM   18  C   UNL     1     -10.081   4.698  70.700  1.00  0.00    -0.261 C  
ENDBRANCH   2  13
TORSDOF 5
ENDMDL
MODEL      145
REMARK 921   NORMALIZED FREE ENERGY PREDICTED BY IDOCK:   -3.70 KCAL/MOL
REMARK 922        TOTAL FREE ENERGY PREDICTED BY IDOCK:   -5.28 KCAL/MOL
REMARK 923 INTER-LIGAND FREE ENERGY PREDICTED BY IDOCK:   -4.66 KCAL/MOL
REMARK 924 INTRA-LIGAND FREE ENERGY PREDICTED BY IDOCK:   -0.62 KCAL/MOL
REMARK 927      BINDING AFFINITY PREDICTED BY RF-SCORE:    0.00 PKD
ROOT
HETATM    1  S   UNL     1     -10.297   5.360  66.612  1.00  0.00    -0.292 S  
HETATM    2  C   UNL     1      -9.574   6.494  67.627  1.00  0.00    -0.122 C  
ENDROOT
BRANCH   2   3
HETATM    3  S   UNL     1      -9.394   6.187  69.371  1.00  0.00    -0.139 SA 
BRANCH   3   4
HETATM    4  S   UNL     1     -11.374   6.133  69.994  1.00  0.00    -0.278 SA 
BRANCH   4   5
HETATM    5  C   UNL     1     -11.321   6.835  71.628  1.00  0.00    -0.266 C  
HETATM    6  S   UNL     1     -10.705   5.885  72.883  1.00  0.00    -0.265 S  
BRANCH   5   7
HETATM    7  N   UNL     1     -11.682   8.198  71.745  1.00  0.00    -0.279 N  
HETATM    8  C   UNL     1     -11.482  10.449  70.686  1.00  0.00    -0.438 C  
HETATM    9  C   UNL     1     -10.757   9.280  71.353  1.00  0.00    -0.362 C  
HETATM   10  C   UNL     1     -12.626  10.967  71.548  1.00  0.00    -0.480 C  
HETATM   11  C   UNL     1     -13.563   9.826  71.923  1.00  0.00    -0.421 C  
HETATM   12  C   UNL     1     -12.805   8.669  72.576  1.00  0.00    -0.292 C  
ENDBRANCH   5   7
ENDBRANCH   4   5
ENDBRANCH   3   4
ENDBRANCH   2   3
BRANCH   2  13
HETATM   13  N   UNL     1      -9.079   7.728  67.192  1.00  0.00    -0.130 N  
HETATM   14  C   UNL     1      -8.387   9.700  68.537  1.00  0.00    -0.117 C  
HETATM   15  C   UNL     1      -9.790   8.563  66.220  1.00  0.00    -0.215 C  
HETATM   16  C   UNL     1      -7.956   8.400  67.864  1.00  0.00    -0.115 C  
HETATM   17  C   UNL     1     -10.268   9.863  66.876  1.00  0.00    -0.302 C  
HETATM   18  C   UNL     1      -9.116  10.609  67.549  1.00  0.00    -0.144 C  
ENDBRANCH   2  13
TORSDOF 5
ENDMDL
MODEL      146
REMARK 921   NORMALIZED FREE ENERGY PREDICTED BY IDOCK:   -3.70 KCAL/MOL
REMARK 922        TOTAL FREE ENERGY PREDICTED BY IDOCK:   -5.27 KCAL/MOL
REMARK 923 INTER-LIGAND FREE ENERGY PREDICTED BY IDOCK:   -4.98 KCAL/MOL
REMARK 924 INTRA-LIGAND FREE ENERGY PREDICTED BY IDOCK:   -0.29 KCAL/MOL
REMARK 927      BINDING AFFINITY PREDICTED BY RF-SCORE:    0.00 PKD
ROOT
HETATM    1  S   UNL     1      -8.750  14.007  67.492  1.00  0.00    -0.211 S  
HETATM    2  C   UNL     1      -9.972  13.949  66.335  1.00  0.00    -0.297 C  
ENDROOT
BRANCH   2   3
HETATM    3  S   UNL     1     -10.729  15.437  65.717  1.00  0.00    -0.362 SA 
BRANCH   3   4
HETATM    4  S   UNL     1     -10.514  16.720  67.335  1.00  0.00    -0.288 SA 
BRANCH   4   5
HETATM    5  C   UNL     1      -9.682  18.133  66.646  1.00  0.00    -0.334 C  
HETATM    6  S   UNL     1     -10.627  19.403  66.054  1.00  0.00    -0.426 S  
BRANCH   5   7
HETATM    7  N   UNL     1      -8.271  18.156  66.758  1.00  0.00    -0.244 N  
HETATM    8  C   UNL     1      -6.343  19.250  67.904  1.00  0.00    -0.237 C  
HETATM    9  C   UNL     1      -7.531  19.418  66.955  1.00  0.00    -0.222 C  
HETATM   10  C   UNL     1      -5.426  18.118  67.461  1.00  0.00    -0.141 C  
HETATM   11  C   UNL     1      -6.223  16.833  67.279  1.00  0.00    -0.207 C  
HETATM   12  C   UNL     1      -7.409  17.037  66.335  1.00  0.00    -0.293 C  
ENDBRANCH   5   7
ENDBRANCH   4   5
ENDBRANCH   3   4
ENDBRANCH   2   3
BRANCH   2  13
HETATM   13  N   UNL     1     -10.475  12.763  65.789  1.00  0.00    -0.271 N  
HETATM   14  C   UNL     1     -10.200  10.428  66.592  1.00  0.00    -0.292 C  
HETATM   15  C   UNL     1     -10.240  12.377  64.395  1.00  0.00    -0.315 C  
HETATM   16  C   UNL     1     -11.046  11.697  66.627  1.00  0.00    -0.307 C  
HETATM   17  C   UNL     1      -9.361  11.122  64.326  1.00  0.00    -0.183 C  
HETATM   18  C   UNL     1      -9.948   9.979  65.154  1.00  0.00    -0.350 C  
ENDBRANCH   2  13
TORSDOF 5
ENDMDL
MODEL      147
REMARK 921   NORMALIZED FREE ENERGY PREDICTED BY IDOCK:   -3.66 KCAL/MOL
REMARK 922        TOTAL FREE ENERGY PREDICTED BY IDOCK:   -5.22 KCAL/MOL
REMARK 923 INTER-LIGAND FREE ENERGY PREDICTED BY IDOCK:   -4.77 KCAL/MOL
REMARK 924 INTRA-LIGAND FREE ENERGY PREDICTED BY IDOCK:   -0.45 KCAL/MOL
REMARK 927      BINDING AFFINITY PREDICTED BY RF-SCORE:    0.00 PKD
ROOT
HETATM    1  S   UNL     1     -10.901   6.470  67.231  1.00  0.00    -0.404 S  
HETATM    2  C   UNL     1      -9.673   7.492  67.766  1.00  0.00    -0.146 C  
ENDROOT
BRANCH   2   3
HETATM    3  S   UNL     1      -9.515   7.921  69.486  1.00  0.00    -0.160 SA 
BRANCH   3   4
HETATM    4  S   UNL     1     -10.089   9.917  69.475  1.00  0.00    -0.236 SA 
BRANCH   4   5
HETATM    5  C   UNL     1     -11.324  10.008  70.753  1.00  0.00    -0.360 C  
HETATM    6  S   UNL     1     -11.424   8.732  71.856  1.00  0.00    -0.370 S  
BRANCH   5   7
HETATM    7  N   UNL     1     -12.060  11.214  70.838  1.00  0.00    -0.344 N  
HETATM    8  C   UNL     1     -13.294  12.732  72.386  1.00  0.00    -0.479 C  
HETATM    9  C   UNL     1     -13.221  11.349  71.740  1.00  0.00    -0.367 C  
HETATM   10  C   UNL     1     -13.254  13.843  71.345  1.00  0.00    -0.392 C  
HETATM   11  C   UNL     1     -12.038  13.675  70.442  1.00  0.00    -0.421 C  
HETATM   12  C   UNL     1     -11.988  12.279  69.821  1.00  0.00    -0.295 C  
ENDBRANCH   5   7
ENDBRANCH   4   5
ENDBRANCH   3   4
ENDBRANCH   2   3
BRANCH   2  13
HETATM   13  N   UNL     1      -8.715   8.068  66.926  1.00  0.00    -0.127 N  
HETATM   14  C   UNL     1      -6.789   9.525  67.512  1.00  0.00    -0.083 C  
HETATM   15  C   UNL     1      -9.077   8.904  65.777  1.00  0.00    -0.221 C  
HETATM   16  C   UNL     1      -7.287   8.101  67.277  1.00  0.00    -0.089 C  
HETATM   17  C   UNL     1      -8.620  10.350  66.001  1.00  0.00    -0.158 C  
HETATM   18  C   UNL     1      -7.129  10.425  66.326  1.00  0.00    -0.123 C  
ENDBRANCH   2  13
TORSDOF 5
ENDMDL
MODEL      148
REMARK 921   NORMALIZED FREE ENERGY PREDICTED BY IDOCK:   -3.65 KCAL/MOL
REMARK 922        TOTAL FREE ENERGY PREDICTED BY IDOCK:   -5.21 KCAL/MOL
REMARK 923 INTER-LIGAND FREE ENERGY PREDICTED BY IDOCK:   -4.67 KCAL/MOL
REMARK 924 INTRA-LIGAND FREE ENERGY PREDICTED BY IDOCK:   -0.54 KCAL/MOL
REMARK 927      BINDING AFFINITY PREDICTED BY RF-SCORE:    0.00 PKD
ROOT
HETATM    1  S   UNL     1      -7.630  12.526  67.713  1.00  0.00    -0.153 S  
HETATM    2  C   UNL     1      -8.425  11.332  66.830  1.00  0.00    -0.161 C  
ENDROOT
BRANCH   2   3
HETATM    3  S   UNL     1      -9.964  11.669  66.002  1.00  0.00    -0.237 SA 
BRANCH   3   4
HETATM    4  S   UNL     1     -11.330  11.451  67.550  1.00  0.00    -0.270 SA 
BRANCH   4   5
HETATM    5  C   UNL     1     -11.785  13.124  67.951  1.00  0.00    -0.357 C  
HETATM    6  S   UNL     1     -12.031  13.513  69.577  1.00  0.00    -0.316 S  
BRANCH   5   7
HETATM    7  N   UNL     1     -11.783  14.055  66.885  1.00  0.00    -0.388 N  
HETATM    8  C   UNL     1     -10.396  15.718  65.645  1.00  0.00    -0.411 C  
HETATM    9  C   UNL     1     -11.046  15.331  66.973  1.00  0.00    -0.305 C  
HETATM   10  C   UNL     1     -11.407  15.725  64.505  1.00  0.00    -0.324 C  
HETATM   11  C   UNL     1     -12.138  14.390  64.440  1.00  0.00    -0.491 C  
HETATM   12  C   UNL     1     -12.766  14.027  65.786  1.00  0.00    -0.450 C  
ENDBRANCH   5   7
ENDBRANCH   4   5
ENDBRANCH   3   4
ENDBRANCH   2   3
BRANCH   2  13
HETATM   13  N   UNL     1      -7.955  10.023  66.687  1.00  0.00    -0.113 N  
HETATM   14  C   UNL     1      -7.717   8.659  64.623  1.00  0.00    -0.121 C  
HETATM   15  C   UNL     1      -8.519   8.897  67.439  1.00  0.00    -0.115 C  
HETATM   16  C   UNL     1      -7.052   9.631  65.594  1.00  0.00    -0.097 C  
HETATM   17  C   UNL     1      -9.226   7.920  66.492  1.00  0.00    -0.238 C  
HETATM   18  C   UNL     1      -8.301   7.460  65.366  1.00  0.00    -0.122 C  
ENDBRANCH   2  13
TORSDOF 5
ENDMDL
MODEL      149
REMARK 921   NORMALIZED FREE ENERGY PREDICTED BY IDOCK:   -3.63 KCAL/MOL
REMARK 922        TOTAL FREE ENERGY PREDICTED BY IDOCK:   -5.19 KCAL/MOL
REMARK 923 INTER-LIGAND FREE ENERGY PREDICTED BY IDOCK:   -4.91 KCAL/MOL
REMARK 924 INTRA-LIGAND FREE ENERGY PREDICTED BY IDOCK:   -0.28 KCAL/MOL
REMARK 927      BINDING AFFINITY PREDICTED BY RF-SCORE:    0.00 PKD
ROOT
HETATM    1  S   UNL     1      -8.497   8.253  67.048  1.00  0.00    -0.124 S  
HETATM    2  C   UNL     1      -9.354   9.701  66.971  1.00  0.00    -0.147 C  
ENDROOT
BRANCH   2   3
HETATM    3  S   UNL     1     -10.522  10.149  68.237  1.00  0.00    -0.226 SA 
BRANCH   3   4
HETATM    4  S   UNL     1      -9.670   9.282  69.920  1.00  0.00    -0.216 SA 
BRANCH   4   5
HETATM    5  C   UNL     1     -11.057   9.005  71.000  1.00  0.00    -0.289 C  
HETATM    6  S   UNL     1     -12.295  10.155  71.016  1.00  0.00    -0.405 S  
BRANCH   5   7
HETATM    7  N   UNL     1     -11.091   7.766  71.683  1.00  0.00    -0.234 N  
HETATM    8  C   UNL     1     -10.746   5.306  71.444  1.00  0.00    -0.203 C  
HETATM    9  C   UNL     1     -11.558   6.531  71.023  1.00  0.00    -0.348 C  
HETATM   10  C   UNL     1     -10.700   5.156  72.959  1.00  0.00    -0.308 C  
HETATM   11  C   UNL     1     -10.205   6.445  73.603  1.00  0.00    -0.284 C  
HETATM   12  C   UNL     1     -11.030   7.651  73.152  1.00  0.00    -0.353 C  
ENDBRANCH   5   7
ENDBRANCH   4   5
ENDBRANCH   3   4
ENDBRANCH   2   3
BRANCH   2  13
HETATM   13  N   UNL     1      -9.222  10.632  65.936  1.00  0.00    -0.175 N  
HETATM   14  C   UNL     1     -10.985  11.936  64.767  1.00  0.00    -0.366 C  
HETATM   15  C   UNL     1      -8.533  10.321  64.680  1.00  0.00    -0.175 C  
HETATM   16  C   UNL     1      -9.982  11.892  65.916  1.00  0.00    -0.234 C  
HETATM   17  C   UNL     1      -9.524  10.323  63.509  1.00  0.00    -0.345 C  
HETATM   18  C   UNL     1     -10.302  11.636  63.434  1.00  0.00    -0.482 C  
ENDBRANCH   2  13
TORSDOF 5
ENDMDL
MODEL      150
REMARK 921   NORMALIZED FREE ENERGY PREDICTED BY IDOCK:   -3.63 KCAL/MOL
REMARK 922        TOTAL FREE ENERGY PREDICTED BY IDOCK:   -5.19 KCAL/MOL
REMARK 923 INTER-LIGAND FREE ENERGY PREDICTED BY IDOCK:   -4.87 KCAL/MOL
REMARK 924 INTRA-LIGAND FREE ENERGY PREDICTED BY IDOCK:   -0.32 KCAL/MOL
REMARK 927      BINDING AFFINITY PREDICTED BY RF-SCORE:    0.00 PKD
ROOT
HETATM    1  S   UNL     1     -11.886  13.538  66.647  1.00  0.00    -0.418 S  
HETATM    2  C   UNL     1     -11.295  13.404  68.218  1.00  0.00    -0.295 C  
ENDROOT
BRANCH   2   3
HETATM    3  S   UNL     1     -11.661  11.980  69.222  1.00  0.00    -0.339 SA 
BRANCH   3   4
HETATM    4  S   UNL     1     -10.218  10.632  68.580  1.00  0.00    -0.193 SA 
BRANCH   4   5
HETATM    5  C   UNL     1     -10.563   9.164  69.524  1.00  0.00    -0.223 C  
HETATM    6  S   UNL     1     -10.922   9.340  71.167  1.00  0.00    -0.369 S  
BRANCH   5   7
HETATM    7  N   UNL     1     -10.640   7.949  68.803  1.00  0.00    -0.172 N  
HETATM    8  C   UNL     1      -9.844   6.742  66.769  1.00  0.00    -0.236 C  
HETATM    9  C   UNL     1     -10.637   7.924  67.327  1.00  0.00    -0.295 C  
HETATM   10  C   UNL     1     -10.318   5.419  67.357  1.00  0.00    -0.258 C  
HETATM   11  C   UNL     1     -10.298   5.480  68.879  1.00  0.00    -0.289 C  
HETATM   12  C   UNL     1     -11.088   6.679  69.404  1.00  0.00    -0.310 C  
ENDBRANCH   5   7
ENDBRANCH   4   5
ENDBRANCH   3   4
ENDBRANCH   2   3
BRANCH   2  13
HETATM   13  N   UNL     1     -10.500  14.372  68.839  1.00  0.00    -0.245 N  
HETATM   14  C   UNL     1     -10.765  16.843  68.855  1.00  0.00    -0.321 C  
HETATM   15  C   UNL     1      -9.055  14.467  68.612  1.00  0.00    -0.187 C  
HETATM   16  C   UNL     1     -11.080  15.522  69.550  1.00  0.00    -0.286 C  
HETATM   17  C   UNL     1      -8.710  15.771  67.881  1.00  0.00    -0.170 C  
HETATM   18  C   UNL     1      -9.263  16.990  68.618  1.00  0.00    -0.266 C  
ENDBRANCH   2  13
TORSDOF 5
ENDMDL
MODEL      151
REMARK 921   NORMALIZED FREE ENERGY PREDICTED BY IDOCK:   -3.63 KCAL/MOL
REMARK 922        TOTAL FREE ENERGY PREDICTED BY IDOCK:   -5.18 KCAL/MOL
REMARK 923 INTER-LIGAND FREE ENERGY PREDICTED BY IDOCK:   -4.84 KCAL/MOL
REMARK 924 INTRA-LIGAND FREE ENERGY PREDICTED BY IDOCK:   -0.34 KCAL/MOL
REMARK 927      BINDING AFFINITY PREDICTED BY RF-SCORE:    0.00 PKD
ROOT
HETATM    1  S   UNL     1     -11.404   9.501  70.995  1.00  0.00    -0.383 S  
HETATM    2  C   UNL     1     -10.510   8.350  70.151  1.00  0.00    -0.228 C  
ENDROOT
BRANCH   2   3
HETATM    3  S   UNL     1     -10.380   8.403  68.376  1.00  0.00    -0.174 SA 
BRANCH   3   4
HETATM    4  S   UNL     1      -9.434  10.227  68.079  1.00  0.00    -0.147 SA 
BRANCH   4   5
HETATM    5  C   UNL     1      -9.836  10.642  66.396  1.00  0.00    -0.211 C  
HETATM    6  S   UNL     1      -9.195   9.680  65.164  1.00  0.00    -0.249 S  
BRANCH   5   7
HETATM    7  N   UNL     1     -10.778  11.681  66.207  1.00  0.00    -0.263 N  
HETATM    8  C   UNL     1     -11.792  13.714  67.240  1.00  0.00    -0.429 C  
HETATM    9  C   UNL     1     -11.592  12.201  67.325  1.00  0.00    -0.334 C  
HETATM   10  C   UNL     1     -12.355  14.132  65.888  1.00  0.00    -0.486 C  
HETATM   11  C   UNL     1     -11.484  13.587  64.763  1.00  0.00    -0.365 C  
HETATM   12  C   UNL     1     -11.293  12.075  64.883  1.00  0.00    -0.310 C  
ENDBRANCH   5   7
ENDBRANCH   4   5
ENDBRANCH   3   4
ENDBRANCH   2   3
BRANCH   2  13
HETATM   13  N   UNL     1      -9.825   7.293  70.759  1.00  0.00    -0.179 N  
HETATM   14  C   UNL     1      -9.462   4.978  69.932  1.00  0.00    -0.225 C  
HETATM   15  C   UNL     1     -10.141   6.826  72.112  1.00  0.00    -0.181 C  
HETATM   16  C   UNL     1      -8.928   6.406  70.003  1.00  0.00    -0.146 C  
HETATM   17  C   UNL     1     -10.715   5.405  72.069  1.00  0.00    -0.281 C  
HETATM   18  C   UNL     1      -9.785   4.446  71.326  1.00  0.00    -0.252 C  
ENDBRANCH   2  13
TORSDOF 5
ENDMDL
MODEL      152
REMARK 921   NORMALIZED FREE ENERGY PREDICTED BY IDOCK:   -3.62 KCAL/MOL
REMARK 922        TOTAL FREE ENERGY PREDICTED BY IDOCK:   -5.18 KCAL/MOL
REMARK 923 INTER-LIGAND FREE ENERGY PREDICTED BY IDOCK:   -4.84 KCAL/MOL
REMARK 924 INTRA-LIGAND FREE ENERGY PREDICTED BY IDOCK:   -0.34 KCAL/MOL
REMARK 927      BINDING AFFINITY PREDICTED BY RF-SCORE:    0.00 PKD
ROOT
HETATM    1  S   UNL     1     -12.121  13.425  68.692  1.00  0.00    -0.138 S  
HETATM    2  C   UNL     1     -10.564  12.909  68.308  1.00  0.00    -0.246 C  
ENDROOT
BRANCH   2   3
HETATM    3  S   UNL     1      -9.317  14.061  67.771  1.00  0.00    -0.214 SA 
BRANCH   3   4
HETATM    4  S   UNL     1      -9.537  15.594  69.154  1.00  0.00    -0.267 SA 
BRANCH   4   5
HETATM    5  C   UNL     1      -8.270  16.757  68.700  1.00  0.00    -0.252 C  
HETATM    6  S   UNL     1      -6.678  16.418  69.156  1.00  0.00    -0.215 S  
BRANCH   5   7
HETATM    7  N   UNL     1      -8.664  17.833  67.869  1.00  0.00    -0.246 N  
HETATM    8  C   UNL     1     -10.493  19.461  67.388  1.00  0.00    -0.581 C  
HETATM    9  C   UNL     1     -10.062  17.994  67.424  1.00  0.00    -0.349 C  
HETATM   10  C   UNL     1      -9.534  20.308  66.562  1.00  0.00    -0.460 C  
HETATM   11  C   UNL     1      -8.105  20.123  67.058  1.00  0.00    -0.368 C  
HETATM   12  C   UNL     1      -7.710  18.646  67.093  1.00  0.00    -0.229 C  
ENDBRANCH   5   7
ENDBRANCH   4   5
ENDBRANCH   3   4
ENDBRANCH   2   3
BRANCH   2  13
HETATM   13  N   UNL     1     -10.144  11.577  68.375  1.00  0.00    -0.199 N  
HETATM   14  C   UNL     1     -10.358   9.959  70.249  1.00  0.00    -0.339 C  
HETATM   15  C   UNL     1      -8.761  11.174  68.104  1.00  0.00    -0.144 C  
HETATM   16  C   UNL     1     -10.978  10.524  68.974  1.00  0.00    -0.243 C  
HETATM   17  C   UNL     1      -8.099  10.634  69.377  1.00  0.00    -0.102 C  
HETATM   18  C   UNL     1      -8.920   9.507  70.003  1.00  0.00    -0.249 C  
ENDBRANCH   2  13
TORSDOF 5
ENDMDL
MODEL      153
REMARK 921   NORMALIZED FREE ENERGY PREDICTED BY IDOCK:   -3.61 KCAL/MOL
REMARK 922        TOTAL FREE ENERGY PREDICTED BY IDOCK:   -5.16 KCAL/MOL
REMARK 923 INTER-LIGAND FREE ENERGY PREDICTED BY IDOCK:   -5.02 KCAL/MOL
REMARK 924 INTRA-LIGAND FREE ENERGY PREDICTED BY IDOCK:   -0.14 KCAL/MOL
REMARK 927      BINDING AFFINITY PREDICTED BY RF-SCORE:    0.00 PKD
ROOT
HETATM    1  S   UNL     1      -8.739  12.411  68.030  1.00  0.00    -0.191 S  
HETATM    2  C   UNL     1     -10.112  12.998  68.811  1.00  0.00    -0.055 C  
ENDROOT
BRANCH   2   3
HETATM    3  S   UNL     1     -10.243  14.710  69.280  1.00  0.00    -0.088 SA 
BRANCH   3   4
HETATM    4  S   UNL     1     -11.616  15.421  67.895  1.00  0.00    -0.173 SA 
BRANCH   4   5
HETATM    5  C   UNL     1     -10.883  15.014  66.326  1.00  0.00    -0.333 C  
HETATM    6  S   UNL     1      -9.370  15.673  65.960  1.00  0.00    -0.330 S  
BRANCH   5   7
HETATM    7  N   UNL     1     -11.562  14.054  65.538  1.00  0.00    -0.323 N  
HETATM    8  C   UNL     1     -12.153  13.394  63.205  1.00  0.00    -0.329 C  
HETATM    9  C   UNL     1     -12.296  14.436  64.315  1.00  0.00    -0.373 C  
HETATM   10  C   UNL     1     -12.540  12.002  63.687  1.00  0.00    -0.605 C  
HETATM   11  C   UNL     1     -11.755  11.641  64.942  1.00  0.00    -0.090 C  
HETATM   12  C   UNL     1     -11.909  12.707  66.027  1.00  0.00    -0.436 C  
ENDBRANCH   5   7
ENDBRANCH   4   5
ENDBRANCH   3   4
ENDBRANCH   2   3
BRANCH   2  13
HETATM   13  N   UNL     1     -11.218  12.211  69.144  1.00  0.00    -0.248 N  
HETATM   14  C   UNL     1     -12.384  11.989  71.327  1.00  0.00    -0.195 C  
HETATM   15  C   UNL     1     -11.254  10.764  68.908  1.00  0.00    -0.268 C  
HETATM   16  C   UNL     1     -12.312  12.716  69.987  1.00  0.00    -0.094 C  
HETATM   17  C   UNL     1     -11.291  10.004  70.239  1.00  0.00    -0.376 C  
HETATM   18  C   UNL     1     -12.444  10.476  71.124  1.00  0.00    -0.517 C  
ENDBRANCH   2  13
TORSDOF 5
ENDMDL
MODEL      154
REMARK 921   NORMALIZED FREE ENERGY PREDICTED BY IDOCK:   -3.60 KCAL/MOL
REMARK 922        TOTAL FREE ENERGY PREDICTED BY IDOCK:   -5.15 KCAL/MOL
REMARK 923 INTER-LIGAND FREE ENERGY PREDICTED BY IDOCK:   -4.69 KCAL/MOL
REMARK 924 INTRA-LIGAND FREE ENERGY PREDICTED BY IDOCK:   -0.46 KCAL/MOL
REMARK 927      BINDING AFFINITY PREDICTED BY RF-SCORE:    0.00 PKD
ROOT
HETATM    1  S   UNL     1      -6.997   7.899  68.573  1.00  0.00    -0.073 S  
HETATM    2  C   UNL     1      -8.376   8.705  68.036  1.00  0.00    -0.123 C  
ENDROOT
BRANCH   2   3
HETATM    3  S   UNL     1      -9.298   9.774  69.120  1.00  0.00    -0.194 SA 
BRANCH   3   4
HETATM    4  S   UNL     1      -9.106   8.795  70.940  1.00  0.00    -0.229 SA 
BRANCH   4   5
HETATM    5  C   UNL     1     -10.348   7.523  70.869  1.00  0.00    -0.201 C  
HETATM    6  S   UNL     1      -9.879   5.980  70.365  1.00  0.00    -0.185 S  
BRANCH   5   7
HETATM    7  N   UNL     1     -11.629   7.860  71.367  1.00  0.00    -0.266 N  
HETATM    8  C   UNL     1     -13.348   9.665  71.493  1.00  0.00    -0.468 C  
HETATM    9  C   UNL     1     -11.935   9.216  71.864  1.00  0.00    -0.373 C  
HETATM   10  C   UNL     1     -14.395   8.650  71.935  1.00  0.00    -0.492 C  
HETATM   11  C   UNL     1     -14.051   7.268  71.395  1.00  0.00    -0.456 C  
HETATM   12  C   UNL     1     -12.628   6.855  71.773  1.00  0.00    -0.344 C  
ENDBRANCH   5   7
ENDBRANCH   4   5
ENDBRANCH   3   4
ENDBRANCH   2   3
BRANCH   2  13
HETATM   13  N   UNL     1      -8.889   8.597  66.740  1.00  0.00    -0.130 N  
HETATM   14  C   UNL     1      -7.851   9.264  64.582  1.00  0.00    -0.120 C  
HETATM   15  C   UNL     1     -10.189   9.158  66.359  1.00  0.00    -0.230 C  
HETATM   16  C   UNL     1      -8.063   8.153  65.606  1.00  0.00    -0.119 C  
HETATM   17  C   UNL     1     -10.006  10.303  65.356  1.00  0.00    -0.371 C  
HETATM   18  C   UNL     1      -9.186   9.863  64.144  1.00  0.00    -0.312 C  
ENDBRANCH   2  13
TORSDOF 5
ENDMDL
MODEL      155
REMARK 921   NORMALIZED FREE ENERGY PREDICTED BY IDOCK:   -3.59 KCAL/MOL
REMARK 922        TOTAL FREE ENERGY PREDICTED BY IDOCK:   -5.13 KCAL/MOL
REMARK 923 INTER-LIGAND FREE ENERGY PREDICTED BY IDOCK:   -4.59 KCAL/MOL
REMARK 924 INTRA-LIGAND FREE ENERGY PREDICTED BY IDOCK:   -0.54 KCAL/MOL
REMARK 927      BINDING AFFINITY PREDICTED BY RF-SCORE:    0.00 PKD
ROOT
HETATM    1  S   UNL     1     -11.422   6.372  69.813  1.00  0.00    -0.300 S  
HETATM    2  C   UNL     1     -10.461   7.379  70.762  1.00  0.00    -0.212 C  
ENDROOT
BRANCH   2   3
HETATM    3  S   UNL     1      -8.731   7.038  71.008  1.00  0.00    -0.139 SA 
BRANCH   3   4
HETATM    4  S   UNL     1      -7.847   8.397  69.711  1.00  0.00    -0.101 SA 
BRANCH   4   5
HETATM    5  C   UNL     1      -8.063   7.654  68.109  1.00  0.00    -0.124 C  
HETATM    6  S   UNL     1      -7.569   6.051  67.902  1.00  0.00    -0.098 S  
BRANCH   5   7
HETATM    7  N   UNL     1      -8.758   8.420  67.143  1.00  0.00    -0.125 N  
HETATM    8  C   UNL     1     -10.542  10.134  66.812  1.00  0.00    -0.239 C  
HETATM    9  C   UNL     1     -10.197   8.721  67.284  1.00  0.00    -0.263 C  
HETATM   10  C   UNL     1     -10.045  10.391  65.396  1.00  0.00    -0.354 C  
HETATM   11  C   UNL     1      -8.557  10.079  65.293  1.00  0.00    -0.166 C  
HETATM   12  C   UNL     1      -8.245   8.665  65.783  1.00  0.00    -0.126 C  
ENDBRANCH   5   7
ENDBRANCH   4   5
ENDBRANCH   3   4
ENDBRANCH   2   3
BRANCH   2  13
HETATM   13  N   UNL     1     -10.933   8.523  71.413  1.00  0.00    -0.248 N  
HETATM   14  C   UNL     1     -13.187   8.971  72.359  1.00  0.00    -0.507 C  
HETATM   15  C   UNL     1     -10.851   9.859  70.814  1.00  0.00    -0.317 C  
HETATM   16  C   UNL     1     -11.776   8.446  72.615  1.00  0.00    -0.294 C  
HETATM   17  C   UNL     1     -12.254  10.399  70.513  1.00  0.00    -0.412 C  
HETATM   18  C   UNL     1     -13.146  10.372  71.754  1.00  0.00    -0.567 C  
ENDBRANCH   2  13
TORSDOF 5
ENDMDL
MODEL      156
REMARK 921   NORMALIZED FREE ENERGY PREDICTED BY IDOCK:   -3.56 KCAL/MOL
REMARK 922        TOTAL FREE ENERGY PREDICTED BY IDOCK:   -5.09 KCAL/MOL
REMARK 923 INTER-LIGAND FREE ENERGY PREDICTED BY IDOCK:   -4.94 KCAL/MOL
REMARK 924 INTRA-LIGAND FREE ENERGY PREDICTED BY IDOCK:   -0.16 KCAL/MOL
REMARK 927      BINDING AFFINITY PREDICTED BY RF-SCORE:    0.00 PKD
ROOT
HETATM    1  S   UNL     1     -11.309  14.023  69.691  1.00  0.00    -0.173 S  
HETATM    2  C   UNL     1     -11.807  12.756  68.699  1.00  0.00    -0.304 C  
ENDROOT
BRANCH   2   3
HETATM    3  S   UNL     1     -12.267  11.177  69.381  1.00  0.00    -0.152 SA 
BRANCH   3   4
HETATM    4  S   UNL     1     -10.456  10.162  69.351  1.00  0.00    -0.249 SA 
BRANCH   4   5
HETATM    5  C   UNL     1     -10.746   8.750  70.393  1.00  0.00    -0.225 C  
HETATM    6  S   UNL     1     -11.723   8.955  71.757  1.00  0.00    -0.385 S  
BRANCH   5   7
HETATM    7  N   UNL     1     -10.242   7.509  69.936  1.00  0.00    -0.205 N  
HETATM    8  C   UNL     1      -8.186   6.113  69.713  1.00  0.00    -0.123 C  
HETATM    9  C   UNL     1      -8.908   7.399  69.312  1.00  0.00    -0.136 C  
HETATM   10  C   UNL     1      -9.040   4.881  69.445  1.00  0.00    -0.149 C  
HETATM   11  C   UNL     1     -10.402   5.028  70.113  1.00  0.00    -0.306 C  
HETATM   12  C   UNL     1     -11.092   6.328  69.701  1.00  0.00    -0.412 C  
ENDBRANCH   5   7
ENDBRANCH   4   5
ENDBRANCH   3   4
ENDBRANCH   2   3
BRANCH   2  13
HETATM   13  N   UNL     1     -11.890  12.841  67.305  1.00  0.00    -0.373 N  
HETATM   14  C   UNL     1     -10.116  12.475  65.604  1.00  0.00    -0.285 C  
HETATM   15  C   UNL     1     -12.388  14.037  66.619  1.00  0.00    -0.371 C  
HETATM   16  C   UNL     1     -11.246  11.857  66.422  1.00  0.00    -0.331 C  
HETATM   17  C   UNL     1     -11.264  14.702  65.815  1.00  0.00    -0.336 C  
HETATM   18  C   UNL     1     -10.600  13.715  64.855  1.00  0.00    -0.421 C  
ENDBRANCH   2  13
TORSDOF 5
ENDMDL
MODEL      157
REMARK 921   NORMALIZED FREE ENERGY PREDICTED BY IDOCK:   -3.53 KCAL/MOL
REMARK 922        TOTAL FREE ENERGY PREDICTED BY IDOCK:   -5.05 KCAL/MOL
REMARK 923 INTER-LIGAND FREE ENERGY PREDICTED BY IDOCK:   -4.91 KCAL/MOL
REMARK 924 INTRA-LIGAND FREE ENERGY PREDICTED BY IDOCK:   -0.14 KCAL/MOL
REMARK 927      BINDING AFFINITY PREDICTED BY RF-SCORE:    0.00 PKD
ROOT
HETATM    1  S   UNL     1      -8.791  10.955  65.636  1.00  0.00    -0.176 S  
HETATM    2  C   UNL     1      -9.499  11.695  66.974  1.00  0.00    -0.182 C  
ENDROOT
BRANCH   2   3
HETATM    3  S   UNL     1      -9.596  10.861  68.544  1.00  0.00    -0.193 SA 
BRANCH   3   4
HETATM    4  S   UNL     1     -11.609  11.069  69.006  1.00  0.00    -0.344 SA 
BRANCH   4   5
HETATM    5  C   UNL     1     -11.764  10.272  70.589  1.00  0.00    -0.348 C  
HETATM    6  S   UNL     1     -12.666  11.051  71.787  1.00  0.00    -0.205 S  
BRANCH   5   7
HETATM    7  N   UNL     1     -11.224   8.969  70.699  1.00  0.00    -0.263 N  
HETATM    8  C   UNL     1     -10.662   7.132  72.293  1.00  0.00    -0.252 C  
HETATM    9  C   UNL     1     -10.391   8.571  71.852  1.00  0.00    -0.308 C  
HETATM   10  C   UNL     1     -10.530   6.154  71.134  1.00  0.00    -0.281 C  
HETATM   11  C   UNL     1     -11.411   6.592  69.970  1.00  0.00    -0.472 C  
HETATM   12  C   UNL     1     -11.123   8.037  69.561  1.00  0.00     0.037 C  
ENDBRANCH   5   7
ENDBRANCH   4   5
ENDBRANCH   3   4
ENDBRANCH   2   3
BRANCH   2  13
HETATM   13  N   UNL     1     -10.052  12.979  66.955  1.00  0.00    -0.240 N  
HETATM   14  C   UNL     1     -10.744  14.359  65.007  1.00  0.00    -0.440 C  
HETATM   15  C   UNL     1      -9.412  14.121  67.615  1.00  0.00    -0.213 C  
HETATM   16  C   UNL     1     -11.164  13.338  66.061  1.00  0.00    -0.297 C  
HETATM   17  C   UNL     1      -8.947  15.149  66.577  1.00  0.00    -0.326 C  
HETATM   18  C   UNL     1     -10.090  15.576  65.657  1.00  0.00    -0.406 C  
ENDBRANCH   2  13
TORSDOF 5
ENDMDL
MODEL      158
REMARK 921   NORMALIZED FREE ENERGY PREDICTED BY IDOCK:   -3.50 KCAL/MOL
REMARK 922        TOTAL FREE ENERGY PREDICTED BY IDOCK:   -5.02 KCAL/MOL
REMARK 923 INTER-LIGAND FREE ENERGY PREDICTED BY IDOCK:   -4.63 KCAL/MOL
REMARK 924 INTRA-LIGAND FREE ENERGY PREDICTED BY IDOCK:   -0.39 KCAL/MOL
REMARK 927      BINDING AFFINITY PREDICTED BY RF-SCORE:    0.00 PKD
ROOT
HETATM    1  S   UNL     1      -7.081  12.715  69.089  1.00  0.00     0.100 S  
HETATM    2  C   UNL     1      -8.320  12.814  67.953  1.00  0.00    -0.172 C  
ENDROOT
BRANCH   2   3
HETATM    3  S   UNL     1      -9.507  14.140  67.995  1.00  0.00    -0.220 SA 
BRANCH   3   4
HETATM    4  S   UNL     1      -8.563  15.508  69.239  1.00  0.00    -0.262 SA 
BRANCH   4   5
HETATM    5  C   UNL     1      -7.873  16.698  68.110  1.00  0.00    -0.175 C  
HETATM    6  S   UNL     1      -6.432  16.304  67.320  1.00  0.00    -0.179 S  
BRANCH   5   7
HETATM    7  N   UNL     1      -8.652  17.851  67.849  1.00  0.00    -0.247 N  
HETATM    8  C   UNL     1      -8.561  20.307  67.419  1.00  0.00    -0.420 C  
HETATM    9  C   UNL     1      -8.292  19.170  68.405  1.00  0.00    -0.349 C  
HETATM   10  C   UNL     1      -9.995  20.281  66.907  1.00  0.00    -0.592 C  
HETATM   11  C   UNL     1     -10.325  18.909  66.332  1.00  0.00    -0.503 C  
HETATM   12  C   UNL     1     -10.034  17.794  67.337  1.00  0.00    -0.323 C  
ENDBRANCH   5   7
ENDBRANCH   4   5
ENDBRANCH   3   4
ENDBRANCH   2   3
BRANCH   2  13
HETATM   13  N   UNL     1      -8.510  11.888  66.921  1.00  0.00    -0.173 N  
HETATM   14  C   UNL     1     -10.620  10.852  66.113  1.00  0.00    -0.270 C  
HETATM   15  C   UNL     1      -7.790  10.612  66.868  1.00  0.00    -0.121 C  
HETATM   16  C   UNL     1      -9.623  11.999  65.966  1.00  0.00    -0.234 C  
HETATM   17  C   UNL     1      -8.762   9.439  67.049  1.00  0.00    -0.135 C  
HETATM   18  C   UNL     1      -9.911   9.501  66.042  1.00  0.00    -0.353 C  
ENDBRANCH   2  13
TORSDOF 5
ENDMDL
MODEL      159
REMARK 921   NORMALIZED FREE ENERGY PREDICTED BY IDOCK:   -3.50 KCAL/MOL
REMARK 922        TOTAL FREE ENERGY PREDICTED BY IDOCK:   -5.02 KCAL/MOL
REMARK 923 INTER-LIGAND FREE ENERGY PREDICTED BY IDOCK:   -4.61 KCAL/MOL
REMARK 924 INTRA-LIGAND FREE ENERGY PREDICTED BY IDOCK:   -0.41 KCAL/MOL
REMARK 927      BINDING AFFINITY PREDICTED BY RF-SCORE:    0.00 PKD
ROOT
HETATM    1  S   UNL     1      -7.589   6.150  67.577  1.00  0.00    -0.094 S  
HETATM    2  C   UNL     1      -9.229   5.858  67.326  1.00  0.00    -0.113 C  
ENDROOT
BRANCH   2   3
HETATM    3  S   UNL     1     -10.454   7.090  67.714  1.00  0.00    -0.241 SA 
BRANCH   3   4
HETATM    4  S   UNL     1     -11.226   6.366  69.501  1.00  0.00    -0.394 SA 
BRANCH   4   5
HETATM    5  C   UNL     1     -10.453   7.384  70.738  1.00  0.00    -0.212 C  
HETATM    6  S   UNL     1      -8.869   7.014  71.196  1.00  0.00    -0.141 S  
BRANCH   5   7
HETATM    7  N   UNL     1     -11.176   8.523  71.165  1.00  0.00    -0.257 N  
HETATM    8  C   UNL     1     -12.218  10.664  70.418  1.00  0.00    -0.432 C  
HETATM    9  C   UNL     1     -10.930   9.858  70.586  1.00  0.00    -0.337 C  
HETATM   10  C   UNL     1     -13.003  10.747  71.720  1.00  0.00    -0.568 C  
HETATM   11  C   UNL     1     -13.247   9.352  72.280  1.00  0.00    -0.528 C  
HETATM   12  C   UNL     1     -11.941   8.569  72.425  1.00  0.00    -0.364 C  
ENDBRANCH   5   7
ENDBRANCH   4   5
ENDBRANCH   3   4
ENDBRANCH   2   3
BRANCH   2  13
HETATM   13  N   UNL     1      -9.740   4.661  66.814  1.00  0.00    -0.181 N  
HETATM   14  C   UNL     1      -8.518   2.661  65.989  1.00  0.00    -0.098 C  
HETATM   15  C   UNL     1     -10.683   4.625  65.692  1.00  0.00    -0.148 C  
HETATM   16  C   UNL     1      -9.178   3.352  67.179  1.00  0.00    -0.191 C  
HETATM   17  C   UNL     1     -10.035   3.967  64.468  1.00  0.00    -0.205 C  
HETATM   18  C   UNL     1      -9.477   2.584  64.802  1.00  0.00    -0.102 C  
ENDBRANCH   2  13
TORSDOF 5
ENDMDL
MODEL      160
REMARK 921   NORMALIZED FREE ENERGY PREDICTED BY IDOCK:   -3.50 KCAL/MOL
REMARK 922        TOTAL FREE ENERGY PREDICTED BY IDOCK:   -5.02 KCAL/MOL
REMARK 923 INTER-LIGAND FREE ENERGY PREDICTED BY IDOCK:   -4.65 KCAL/MOL
REMARK 924 INTRA-LIGAND FREE ENERGY PREDICTED BY IDOCK:   -0.37 KCAL/MOL
REMARK 927      BINDING AFFINITY PREDICTED BY RF-SCORE:    0.00 PKD
ROOT
HETATM    1  S   UNL     1      -9.858  11.147  64.953  1.00  0.00    -0.285 S  
HETATM    2  C   UNL     1     -10.239  10.518  66.468  1.00  0.00    -0.231 C  
ENDROOT
BRANCH   2   3
HETATM    3  S   UNL     1     -11.365  11.359  67.560  1.00  0.00    -0.270 SA 
BRANCH   3   4
HETATM    4  S   UNL     1     -10.233  12.998  68.148  1.00  0.00    -0.242 SA 
BRANCH   4   5
HETATM    5  C   UNL     1     -10.805  14.308  67.089  1.00  0.00    -0.296 C  
HETATM    6  S   UNL     1     -12.182  14.028  66.150  1.00  0.00    -0.450 S  
BRANCH   5   7
HETATM    7  N   UNL     1     -10.139  15.552  67.202  1.00  0.00    -0.250 N  
HETATM    8  C   UNL     1      -9.989  17.661  68.527  1.00  0.00    -0.368 C  
HETATM    9  C   UNL     1     -10.849  16.774  67.626  1.00  0.00    -0.252 C  
HETATM   10  C   UNL     1      -8.646  17.981  67.883  1.00  0.00    -0.258 C  
HETATM   11  C   UNL     1      -7.940  16.695  67.469  1.00  0.00    -0.186 C  
HETATM   12  C   UNL     1      -8.830  15.827  66.581  1.00  0.00    -0.288 C  
ENDBRANCH   5   7
ENDBRANCH   4   5
ENDBRANCH   3   4
ENDBRANCH   2   3
BRANCH   2  13
HETATM   13  N   UNL     1      -9.713   9.323  66.972  1.00  0.00    -0.172 N  
HETATM   14  C   UNL     1      -8.619   7.455  65.753  1.00  0.00    -0.150 C  
HETATM   15  C   UNL     1     -10.501   8.404  67.799  1.00  0.00    -0.220 C  
HETATM   16  C   UNL     1      -8.433   8.772  66.501  1.00  0.00    -0.116 C  
HETATM   17  C   UNL     1     -10.734   7.082  67.058  1.00  0.00    -0.423 C  
HETATM   18  C   UNL     1      -9.419   6.460  66.591  1.00  0.00    -0.191 C  
ENDBRANCH   2  13
TORSDOF 5
ENDMDL
MODEL      161
REMARK 921   NORMALIZED FREE ENERGY PREDICTED BY IDOCK:   -3.49 KCAL/MOL
REMARK 922        TOTAL FREE ENERGY PREDICTED BY IDOCK:   -5.01 KCAL/MOL
REMARK 923 INTER-LIGAND FREE ENERGY PREDICTED BY IDOCK:   -4.67 KCAL/MOL
REMARK 924 INTRA-LIGAND FREE ENERGY PREDICTED BY IDOCK:   -0.34 KCAL/MOL
REMARK 927      BINDING AFFINITY PREDICTED BY RF-SCORE:    0.00 PKD
ROOT
HETATM    1  S   UNL     1     -11.438  15.940  70.338  1.00  0.00    -0.387 S  
HETATM    2  C   UNL     1     -11.187  16.000  68.673  1.00  0.00    -0.366 C  
ENDROOT
BRANCH   2   3
HETATM    3  S   UNL     1     -11.968  14.833  67.580  1.00  0.00    -0.088 SA 
BRANCH   3   4
HETATM    4  S   UNL     1     -11.310  13.024  68.356  1.00  0.00    -0.316 SA 
BRANCH   4   5
HETATM    5  C   UNL     1     -10.368  12.311  67.026  1.00  0.00    -0.219 C  
HETATM    6  S   UNL     1     -10.429  13.065  65.515  1.00  0.00    -0.289 S  
BRANCH   5   7
HETATM    7  N   UNL     1      -9.523  11.226  67.357  1.00  0.00    -0.165 N  
HETATM    8  C   UNL     1      -9.433   8.758  67.715  1.00  0.00    -0.164 C  
HETATM    9  C   UNL     1      -9.998  10.098  68.184  1.00  0.00    -0.147 C  
HETATM   10  C   UNL     1      -7.914   8.789  67.621  1.00  0.00    -0.106 C  
HETATM   11  C   UNL     1      -7.463   9.958  66.753  1.00  0.00    -0.095 C  
HETATM   12  C   UNL     1      -8.054  11.281  67.241  1.00  0.00    -0.140 C  
ENDBRANCH   5   7
ENDBRANCH   4   5
ENDBRANCH   3   4
ENDBRANCH   2   3
BRANCH   2  13
HETATM   13  N   UNL     1     -10.366  16.940  68.041  1.00  0.00    -0.318 N  
HETATM   14  C   UNL     1     -10.695  19.390  67.789  1.00  0.00    -0.480 C  
HETATM   15  C   UNL     1      -9.930  16.793  66.649  1.00  0.00    -0.293 C  
HETATM   16  C   UNL     1     -10.097  18.263  68.626  1.00  0.00    -0.385 C  
HETATM   17  C   UNL     1     -10.543  17.894  65.775  1.00  0.00    -0.175 C  
HETATM   18  C   UNL     1     -10.246  19.285  66.333  1.00  0.00    -0.533 C  
ENDBRANCH   2  13
TORSDOF 5
ENDMDL
MODEL      162
REMARK 921   NORMALIZED FREE ENERGY PREDICTED BY IDOCK:   -3.47 KCAL/MOL
REMARK 922        TOTAL FREE ENERGY PREDICTED BY IDOCK:   -4.97 KCAL/MOL
REMARK 923 INTER-LIGAND FREE ENERGY PREDICTED BY IDOCK:   -4.56 KCAL/MOL
REMARK 924 INTRA-LIGAND FREE ENERGY PREDICTED BY IDOCK:   -0.42 KCAL/MOL
REMARK 927      BINDING AFFINITY PREDICTED BY RF-SCORE:    0.00 PKD
ROOT
HETATM    1  S   UNL     1     -11.731  11.196  68.349  1.00  0.00    -0.224 S  
HETATM    2  C   UNL     1     -10.176  11.252  67.703  1.00  0.00    -0.181 C  
ENDROOT
BRANCH   2   3
HETATM    3  S   UNL     1      -8.787  10.571  68.585  1.00  0.00    -0.154 SA 
BRANCH   3   4
HETATM    4  S   UNL     1      -9.000   8.542  68.200  1.00  0.00    -0.141 SA 
BRANCH   4   5
HETATM    5  C   UNL     1      -8.796   7.785  69.798  1.00  0.00    -0.139 C  
HETATM    6  S   UNL     1      -7.317   7.043  70.143  1.00  0.00    -0.082 S  
BRANCH   5   7
HETATM    7  N   UNL     1      -9.847   7.971  70.727  1.00  0.00    -0.182 N  
HETATM    8  C   UNL     1     -12.198   7.345  71.282  1.00  0.00    -0.374 C  
HETATM    9  C   UNL     1     -11.258   8.038  70.296  1.00  0.00    -0.190 C  
HETATM   10  C   UNL     1     -12.014   7.871  72.699  1.00  0.00    -0.299 C  
HETATM   11  C   UNL     1     -10.550   7.776  73.111  1.00  0.00    -0.415 C  
HETATM   12  C   UNL     1      -9.636   8.467  72.099  1.00  0.00    -0.297 C  
ENDBRANCH   5   7
ENDBRANCH   4   5
ENDBRANCH   3   4
ENDBRANCH   2   3
BRANCH   2  13
HETATM   13  N   UNL     1      -9.864  11.823  66.466  1.00  0.00    -0.202 N  
HETATM   14  C   UNL     1     -10.764  13.891  65.422  1.00  0.00    -0.330 C  
HETATM   15  C   UNL     1      -9.957  11.075  65.208  1.00  0.00    -0.266 C  
HETATM   16  C   UNL     1      -9.678  13.272  66.298  1.00  0.00    -0.268 C  
HETATM   17  C   UNL     1     -11.066  11.652  64.320  1.00  0.00    -0.406 C  
HETATM   18  C   UNL     1     -10.879  13.151  64.091  1.00  0.00    -0.407 C  
ENDBRANCH   2  13
TORSDOF 5
ENDMDL
MODEL      163
REMARK 921   NORMALIZED FREE ENERGY PREDICTED BY IDOCK:   -3.46 KCAL/MOL
REMARK 922        TOTAL FREE ENERGY PREDICTED BY IDOCK:   -4.97 KCAL/MOL
REMARK 923 INTER-LIGAND FREE ENERGY PREDICTED BY IDOCK:   -4.52 KCAL/MOL
REMARK 924 INTRA-LIGAND FREE ENERGY PREDICTED BY IDOCK:   -0.45 KCAL/MOL
REMARK 927      BINDING AFFINITY PREDICTED BY RF-SCORE:    0.00 PKD
ROOT
HETATM    1  S   UNL     1      -8.329   9.049  66.694  1.00  0.00    -0.120 S  
HETATM    2  C   UNL     1      -9.460   9.785  67.703  1.00  0.00    -0.144 C  
ENDROOT
BRANCH   2   3
HETATM    3  S   UNL     1     -10.576  11.026  67.087  1.00  0.00    -0.264 SA 
BRANCH   3   4
HETATM    4  S   UNL     1      -9.934  12.714  68.112  1.00  0.00    -0.226 SA 
BRANCH   4   5
HETATM    5  C   UNL     1     -11.398  13.718  68.233  1.00  0.00    -0.285 C  
HETATM    6  S   UNL     1     -12.128  14.236  66.799  1.00  0.00    -0.341 S  
BRANCH   5   7
HETATM    7  N   UNL     1     -11.931  13.908  69.530  1.00  0.00    -0.325 N  
HETATM    8  C   UNL     1     -13.461  15.318  70.908  1.00  0.00    -0.441 C  
HETATM    9  C   UNL     1     -12.182  15.258  70.072  1.00  0.00    -0.349 C  
HETATM   10  C   UNL     1     -13.469  14.258  72.001  1.00  0.00    -0.499 C  
HETATM   11  C   UNL     1     -13.218  12.880  71.402  1.00  0.00    -0.262 C  
HETATM   12  C   UNL     1     -11.940  12.857  70.563  1.00  0.00    -0.198 C  
ENDBRANCH   5   7
ENDBRANCH   4   5
ENDBRANCH   3   4
ENDBRANCH   2   3
BRANCH   2  13
HETATM   13  N   UNL     1      -9.601   9.489  69.063  1.00  0.00    -0.161 N  
HETATM   14  C   UNL     1      -8.258   7.953  70.482  1.00  0.00    -0.118 C  
HETATM   15  C   UNL     1     -10.864   9.015  69.638  1.00  0.00    -0.186 C  
HETATM   16  C   UNL     1      -8.443   9.376  69.963  1.00  0.00    -0.190 C  
HETATM   17  C   UNL     1     -10.719   7.572  70.136  1.00  0.00    -0.248 C  
HETATM   18  C   UNL     1      -9.548   7.428  71.108  1.00  0.00    -0.162 C  
ENDBRANCH   2  13
TORSDOF 5
ENDMDL
MODEL      164
REMARK 921   NORMALIZED FREE ENERGY PREDICTED BY IDOCK:   -3.44 KCAL/MOL
REMARK 922        TOTAL FREE ENERGY PREDICTED BY IDOCK:   -4.95 KCAL/MOL
REMARK 923 INTER-LIGAND FREE ENERGY PREDICTED BY IDOCK:   -4.65 KCAL/MOL
REMARK 924 INTRA-LIGAND FREE ENERGY PREDICTED BY IDOCK:   -0.30 KCAL/MOL
REMARK 927      BINDING AFFINITY PREDICTED BY RF-SCORE:    0.00 PKD
ROOT
HETATM    1  S   UNL     1     -11.767  12.100  63.935  1.00  0.00    -0.487 S  
HETATM    2  C   UNL     1     -10.914  12.837  65.187  1.00  0.00    -0.293 C  
ENDROOT
BRANCH   2   3
HETATM    3  S   UNL     1      -9.546  12.019  65.977  1.00  0.00    -0.215 SA 
BRANCH   3   4
HETATM    4  S   UNL     1     -10.099  10.024  65.814  1.00  0.00    -0.208 SA 
BRANCH   4   5
HETATM    5  C   UNL     1      -8.945   9.178  66.871  1.00  0.00    -0.123 C  
HETATM    6  S   UNL     1      -7.746  10.093  67.634  1.00  0.00    -0.090 S  
BRANCH   5   7
HETATM    7  N   UNL     1      -9.188   7.804  67.105  1.00  0.00    -0.141 N  
HETATM    8  C   UNL     1     -10.867   6.152  67.929  1.00  0.00    -0.406 C  
HETATM    9  C   UNL     1      -9.973   7.344  68.268  1.00  0.00    -0.163 C  
HETATM   10  C   UNL     1     -10.074   5.016  67.296  1.00  0.00    -0.226 C  
HETATM   11  C   UNL     1      -9.288   5.526  66.095  1.00  0.00    -0.169 C  
HETATM   12  C   UNL     1      -8.414   6.725  66.465  1.00  0.00    -0.124 C  
ENDBRANCH   5   7
ENDBRANCH   4   5
ENDBRANCH   3   4
ENDBRANCH   2   3
BRANCH   2  13
HETATM   13  N   UNL     1     -11.209  14.109  65.689  1.00  0.00    -0.303 N  
HETATM   14  C   UNL     1      -9.676  15.797  66.677  1.00  0.00    -0.266 C  
HETATM   15  C   UNL     1     -12.221  14.330  66.727  1.00  0.00    -0.352 C  
HETATM   16  C   UNL     1     -10.355  15.275  65.414  1.00  0.00    -0.393 C  
HETATM   17  C   UNL     1     -11.563  14.822  68.022  1.00  0.00    -0.367 C  
HETATM   18  C   UNL     1     -10.701  16.060  67.779  1.00  0.00    -0.323 C  
ENDBRANCH   2  13
TORSDOF 5
ENDMDL
MODEL      165
REMARK 921   NORMALIZED FREE ENERGY PREDICTED BY IDOCK:   -3.43 KCAL/MOL
REMARK 922        TOTAL FREE ENERGY PREDICTED BY IDOCK:   -4.93 KCAL/MOL
REMARK 923 INTER-LIGAND FREE ENERGY PREDICTED BY IDOCK:   -4.48 KCAL/MOL
REMARK 924 INTRA-LIGAND FREE ENERGY PREDICTED BY IDOCK:   -0.46 KCAL/MOL
REMARK 927      BINDING AFFINITY PREDICTED BY RF-SCORE:    0.00 PKD
ROOT
HETATM    1  S   UNL     1     -12.817   9.857  71.765  1.00  0.00    -0.456 S  
HETATM    2  C   UNL     1     -11.686   9.230  70.685  1.00  0.00    -0.222 C  
ENDROOT
BRANCH   2   3
HETATM    3  S   UNL     1     -10.594  10.297  69.770  1.00  0.00    -0.268 SA 
BRANCH   3   4
HETATM    4  S   UNL     1     -11.776  11.985  69.511  1.00  0.00    -0.335 SA 
BRANCH   4   5
HETATM    5  C   UNL     1     -10.798  13.026  68.451  1.00  0.00    -0.258 C  
HETATM    6  S   UNL     1     -10.914  14.700  68.654  1.00  0.00    -0.268 S  
BRANCH   5   7
HETATM    7  N   UNL     1      -9.885  12.375  67.589  1.00  0.00    -0.194 N  
HETATM    8  C   UNL     1      -7.610  11.361  67.435  1.00  0.00    -0.124 C  
HETATM    9  C   UNL     1      -8.432  12.629  67.667  1.00  0.00    -0.173 C  
HETATM   10  C   UNL     1      -7.995  10.671  66.133  1.00  0.00    -0.151 C  
HETATM   11  C   UNL     1      -9.497  10.417  66.094  1.00  0.00    -0.227 C  
HETATM   12  C   UNL     1     -10.290  11.701  66.342  1.00  0.00    -0.230 C  
ENDBRANCH   5   7
ENDBRANCH   4   5
ENDBRANCH   3   4
ENDBRANCH   2   3
BRANCH   2  13
HETATM   13  N   UNL     1     -11.526   7.865  70.428  1.00  0.00    -0.204 N  
HETATM   14  C   UNL     1     -11.159   6.000  72.030  1.00  0.00    -0.325 C  
HETATM   15  C   UNL     1     -10.509   7.352  69.504  1.00  0.00    -0.232 C  
HETATM   16  C   UNL     1     -12.174   6.832  71.251  1.00  0.00    -0.364 C  
HETATM   17  C   UNL     1      -9.453   6.540  70.264  1.00  0.00    -0.169 C  
HETATM   18  C   UNL     1     -10.092   5.430  71.098  1.00  0.00    -0.276 C  
ENDBRANCH   2  13
TORSDOF 5
ENDMDL
MODEL      166
REMARK 921   NORMALIZED FREE ENERGY PREDICTED BY IDOCK:   -3.43 KCAL/MOL
REMARK 922        TOTAL FREE ENERGY PREDICTED BY IDOCK:   -4.93 KCAL/MOL
REMARK 923 INTER-LIGAND FREE ENERGY PREDICTED BY IDOCK:   -4.32 KCAL/MOL
REMARK 924 INTRA-LIGAND FREE ENERGY PREDICTED BY IDOCK:   -0.60 KCAL/MOL
REMARK 927      BINDING AFFINITY PREDICTED BY RF-SCORE:    0.00 PKD
ROOT
HETATM    1  S   UNL     1      -7.880  12.734  68.489  1.00  0.00    -0.056 S  
HETATM    2  C   UNL     1      -8.576  11.270  68.031  1.00  0.00    -0.140 C  
ENDROOT
BRANCH   2   3
HETATM    3  S   UNL     1      -9.761  11.187  66.706  1.00  0.00    -0.197 SA 
BRANCH   3   4
HETATM    4  S   UNL     1     -11.553  11.097  67.751  1.00  0.00    -0.139 SA 
BRANCH   4   5
HETATM    5  C   UNL     1     -11.763  12.751  68.373  1.00  0.00    -0.339 C  
HETATM    6  S   UNL     1     -12.013  12.951  70.032  1.00  0.00    -0.243 S  
BRANCH   5   7
HETATM    7  N   UNL     1     -11.576  13.805  67.448  1.00  0.00    -0.341 N  
HETATM    8  C   UNL     1     -10.111  15.730  66.833  1.00  0.00    -0.267 C  
HETATM    9  C   UNL     1     -11.056  15.121  67.869  1.00  0.00    -0.321 C  
HETATM   10  C   UNL     1     -10.753  15.790  65.453  1.00  0.00    -0.420 C  
HETATM   11  C   UNL     1     -11.267  14.413  65.050  1.00  0.00    -0.376 C  
HETATM   12  C   UNL     1     -12.198  13.828  66.112  1.00  0.00    -0.459 C  
ENDBRANCH   5   7
ENDBRANCH   4   5
ENDBRANCH   3   4
ENDBRANCH   2   3
BRANCH   2  13
HETATM   13  N   UNL     1      -8.288  10.044  68.641  1.00  0.00    -0.112 N  
HETATM   14  C   UNL     1      -9.654   7.969  68.707  1.00  0.00    -0.149 C  
HETATM   15  C   UNL     1      -7.940   9.934  70.061  1.00  0.00    -0.180 C  
HETATM   16  C   UNL     1      -8.568   8.759  67.982  1.00  0.00    -0.134 C  
HETATM   17  C   UNL     1      -9.031   9.174  70.824  1.00  0.00    -0.296 C  
HETATM   18  C   UNL     1      -9.317   7.814  70.189  1.00  0.00    -0.153 C  
ENDBRANCH   2  13
TORSDOF 5
ENDMDL
MODEL      167
REMARK 921   NORMALIZED FREE ENERGY PREDICTED BY IDOCK:   -3.43 KCAL/MOL
REMARK 922        TOTAL FREE ENERGY PREDICTED BY IDOCK:   -4.92 KCAL/MOL
REMARK 923 INTER-LIGAND FREE ENERGY PREDICTED BY IDOCK:   -4.57 KCAL/MOL
REMARK 924 INTRA-LIGAND FREE ENERGY PREDICTED BY IDOCK:   -0.36 KCAL/MOL
REMARK 927      BINDING AFFINITY PREDICTED BY RF-SCORE:    0.00 PKD
ROOT
HETATM    1  S   UNL     1     -11.901  13.838  65.303  1.00  0.00    -0.374 S  
HETATM    2  C   UNL     1     -10.693  13.529  66.435  1.00  0.00    -0.287 C  
ENDROOT
BRANCH   2   3
HETATM    3  S   UNL     1     -10.098  14.808  67.522  1.00  0.00    -0.224 SA 
BRANCH   3   4
HETATM    4  S   UNL     1      -8.042  14.612  67.315  1.00  0.00    -0.188 SA 
BRANCH   4   5
HETATM    5  C   UNL     1      -7.387  15.820  68.445  1.00  0.00    -0.117 C  
HETATM    6  S   UNL     1      -6.612  15.265  69.841  1.00  0.00    -0.128 S  
BRANCH   5   7
HETATM    7  N   UNL     1      -7.445  17.172  68.033  1.00  0.00    -0.189 N  
HETATM    8  C   UNL     1      -8.701  18.816  66.636  1.00  0.00    -0.306 C  
HETATM    9  C   UNL     1      -7.848  17.547  66.663  1.00  0.00    -0.250 C  
HETATM   10  C   UNL     1      -8.017  19.968  67.360  1.00  0.00    -0.340 C  
HETATM   11  C   UNL     1      -7.626  19.547  68.771  1.00  0.00    -0.386 C  
HETATM   12  C   UNL     1      -6.786  18.270  68.764  1.00  0.00    -0.249 C  
ENDBRANCH   5   7
ENDBRANCH   4   5
ENDBRANCH   3   4
ENDBRANCH   2   3
BRANCH   2  13
HETATM   13  N   UNL     1     -10.078  12.284  66.602  1.00  0.00    -0.212 N  
HETATM   14  C   UNL     1     -10.273  10.241  65.200  1.00  0.00    -0.295 C  
HETATM   15  C   UNL     1     -10.183  11.515  67.846  1.00  0.00    -0.184 C  
HETATM   16  C   UNL     1      -9.510  11.535  65.470  1.00  0.00    -0.212 C  
HETATM   17  C   UNL     1     -10.976  10.223  67.613  1.00  0.00    -0.356 C  
HETATM   18  C   UNL     1     -10.386   9.399  66.470  1.00  0.00    -0.268 C  
ENDBRANCH   2  13
TORSDOF 5
ENDMDL
MODEL      168
REMARK 921   NORMALIZED FREE ENERGY PREDICTED BY IDOCK:   -3.42 KCAL/MOL
REMARK 922        TOTAL FREE ENERGY PREDICTED BY IDOCK:   -4.91 KCAL/MOL
REMARK 923 INTER-LIGAND FREE ENERGY PREDICTED BY IDOCK:   -4.35 KCAL/MOL
REMARK 924 INTRA-LIGAND FREE ENERGY PREDICTED BY IDOCK:   -0.56 KCAL/MOL
REMARK 927      BINDING AFFINITY PREDICTED BY RF-SCORE:    0.00 PKD
ROOT
HETATM    1  S   UNL     1      -7.893   7.020  64.733  1.00  0.00    -0.125 S  
HETATM    2  C   UNL     1      -8.322   8.222  65.832  1.00  0.00    -0.129 C  
ENDROOT
BRANCH   2   3
HETATM    3  S   UNL     1      -7.294   8.597  67.237  1.00  0.00    -0.089 SA 
BRANCH   3   4
HETATM    4  S   UNL     1      -8.029   7.276  68.660  1.00  0.00    -0.125 SA 
BRANCH   4   5
HETATM    5  C   UNL     1      -8.615   8.339  69.960  1.00  0.00    -0.128 C  
HETATM    6  S   UNL     1      -7.634   9.631  70.434  1.00  0.00    -0.139 S  
BRANCH   5   7
HETATM    7  N   UNL     1      -9.931   8.107  70.426  1.00  0.00    -0.187 N  
HETATM    8  C   UNL     1     -11.645   6.349  70.872  1.00  0.00    -0.393 C  
HETATM    9  C   UNL     1     -10.791   7.067  69.827  1.00  0.00    -0.248 C  
HETATM   10  C   UNL     1     -12.447   7.331  71.715  1.00  0.00    -0.378 C  
HETATM   11  C   UNL     1     -11.525   8.380  72.324  1.00  0.00    -0.454 C  
HETATM   12  C   UNL     1     -10.677   9.071  71.255  1.00  0.00    -0.309 C  
ENDBRANCH   5   7
ENDBRANCH   4   5
ENDBRANCH   3   4
ENDBRANCH   2   3
BRANCH   2  13
HETATM   13  N   UNL     1      -9.485   8.992  65.733  1.00  0.00    -0.250 N  
HETATM   14  C   UNL     1      -9.719  11.458  65.524  1.00  0.00    -0.263 C  
HETATM   15  C   UNL     1     -10.569   8.911  66.717  1.00  0.00    -0.142 C  
HETATM   16  C   UNL     1      -9.597  10.121  64.797  1.00  0.00    -0.314 C  
HETATM   17  C   UNL     1     -10.693  10.230  67.489  1.00  0.00    -0.348 C  
HETATM   18  C   UNL     1     -10.854  11.421  66.546  1.00  0.00    -0.334 C  
ENDBRANCH   2  13
TORSDOF 5
ENDMDL
MODEL      169
REMARK 921   NORMALIZED FREE ENERGY PREDICTED BY IDOCK:   -3.41 KCAL/MOL
REMARK 922        TOTAL FREE ENERGY PREDICTED BY IDOCK:   -4.90 KCAL/MOL
REMARK 923 INTER-LIGAND FREE ENERGY PREDICTED BY IDOCK:   -4.58 KCAL/MOL
REMARK 924 INTRA-LIGAND FREE ENERGY PREDICTED BY IDOCK:   -0.33 KCAL/MOL
REMARK 927      BINDING AFFINITY PREDICTED BY RF-SCORE:    0.00 PKD
ROOT
HETATM    1  S   UNL     1      -8.494   7.894  68.183  1.00  0.00    -0.123 S  
HETATM    2  C   UNL     1      -9.557   8.874  69.047  1.00  0.00    -0.158 C  
ENDROOT
BRANCH   2   3
HETATM    3  S   UNL     1     -10.687   9.968  68.213  1.00  0.00    -0.239 SA 
BRANCH   3   4
HETATM    4  S   UNL     1      -9.457  11.579  67.764  1.00  0.00    -0.173 SA 
BRANCH   4   5
HETATM    5  C   UNL     1     -10.476  12.997  68.108  1.00  0.00    -0.245 C  
HETATM    6  S   UNL     1     -11.593  12.886  69.372  1.00  0.00    -0.285 S  
BRANCH   5   7
HETATM    7  N   UNL     1     -10.191  14.175  67.379  1.00  0.00    -0.243 N  
HETATM    8  C   UNL     1     -10.498  15.330  65.188  1.00  0.00    -0.438 C  
HETATM    9  C   UNL     1      -9.897  14.138  65.932  1.00  0.00    -0.289 C  
HETATM   10  C   UNL     1     -10.082  16.654  65.817  1.00  0.00    -0.301 C  
HETATM   11  C   UNL     1     -10.411  16.658  67.304  1.00  0.00    -0.298 C  
HETATM   12  C   UNL     1      -9.806  15.447  68.016  1.00  0.00    -0.216 C  
ENDBRANCH   5   7
ENDBRANCH   4   5
ENDBRANCH   3   4
ENDBRANCH   2   3
BRANCH   2  13
HETATM   13  N   UNL     1      -9.630   8.907  70.443  1.00  0.00    -0.181 N  
HETATM   14  C   UNL     1      -9.304   7.059  72.073  1.00  0.00    -0.149 C  
HETATM   15  C   UNL     1     -10.806   9.412  71.158  1.00  0.00    -0.357 C  
HETATM   16  C   UNL     1      -8.659   8.201  71.293  1.00  0.00    -0.137 C  
HETATM   17  C   UNL     1     -11.498   8.278  71.924  1.00  0.00    -0.372 C  
HETATM   18  C   UNL     1     -10.524   7.550  72.850  1.00  0.00    -0.372 C  
ENDBRANCH   2  13
TORSDOF 5
ENDMDL
MODEL      170
REMARK 921   NORMALIZED FREE ENERGY PREDICTED BY IDOCK:   -3.41 KCAL/MOL
REMARK 922        TOTAL FREE ENERGY PREDICTED BY IDOCK:   -4.90 KCAL/MOL
REMARK 923 INTER-LIGAND FREE ENERGY PREDICTED BY IDOCK:   -4.25 KCAL/MOL
REMARK 924 INTRA-LIGAND FREE ENERGY PREDICTED BY IDOCK:   -0.65 KCAL/MOL
REMARK 927      BINDING AFFINITY PREDICTED BY RF-SCORE:    0.00 PKD
ROOT
HETATM    1  S   UNL     1      -7.730   6.635  67.363  1.00  0.00    -0.110 S  
HETATM    2  C   UNL     1      -8.338   7.878  68.324  1.00  0.00    -0.124 C  
ENDROOT
BRANCH   2   3
HETATM    3  S   UNL     1      -7.469   8.431  69.775  1.00  0.00    -0.073 SA 
BRANCH   3   4
HETATM    4  S   UNL     1      -7.577   6.753  70.994  1.00  0.00    -0.085 SA 
BRANCH   4   5
HETATM    5  C   UNL     1      -8.634   7.269  72.329  1.00  0.00    -0.116 C  
HETATM    6  S   UNL     1      -7.916   7.991  73.678  1.00  0.00    -0.209 S  
BRANCH   5   7
HETATM    7  N   UNL     1     -10.028   7.156  72.115  1.00  0.00    -0.165 N  
HETATM    8  C   UNL     1     -12.187   8.406  72.106  1.00  0.00    -0.434 C  
HETATM    9  C   UNL     1     -11.000   7.911  72.931  1.00  0.00    -0.388 C  
HETATM   10  C   UNL     1     -12.853   7.271  71.339  1.00  0.00    -0.425 C  
HETATM   11  C   UNL     1     -11.822   6.524  70.503  1.00  0.00    -0.393 C  
HETATM   12  C   UNL     1     -10.642   6.053  71.354  1.00  0.00    -0.246 C  
ENDBRANCH   5   7
ENDBRANCH   4   5
ENDBRANCH   3   4
ENDBRANCH   2   3
BRANCH   2  13
HETATM   13  N   UNL     1      -9.538   8.549  68.066  1.00  0.00    -0.147 N  
HETATM   14  C   UNL     1     -10.135  10.012  66.148  1.00  0.00    -0.317 C  
HETATM   15  C   UNL     1     -10.152   9.463  69.034  1.00  0.00    -0.194 C  
HETATM   16  C   UNL     1     -10.133   8.598  66.721  1.00  0.00    -0.296 C  
HETATM   17  C   UNL     1     -10.137  10.900  68.499  1.00  0.00    -0.193 C  
HETATM   18  C   UNL     1     -10.787  10.993  67.120  1.00  0.00    -0.336 C  
ENDBRANCH   2  13
TORSDOF 5
ENDMDL
MODEL      171
REMARK 921   NORMALIZED FREE ENERGY PREDICTED BY IDOCK:   -3.41 KCAL/MOL
REMARK 922        TOTAL FREE ENERGY PREDICTED BY IDOCK:   -4.90 KCAL/MOL
REMARK 923 INTER-LIGAND FREE ENERGY PREDICTED BY IDOCK:   -4.47 KCAL/MOL
REMARK 924 INTRA-LIGAND FREE ENERGY PREDICTED BY IDOCK:   -0.43 KCAL/MOL
REMARK 927      BINDING AFFINITY PREDICTED BY RF-SCORE:    0.00 PKD
ROOT
HETATM    1  S   UNL     1      -9.302  10.283  64.973  1.00  0.00    -0.263 S  
HETATM    2  C   UNL     1      -9.549  11.587  66.011  1.00  0.00    -0.228 C  
ENDROOT
BRANCH   2   3
HETATM    3  S   UNL     1      -9.047  11.514  67.718  1.00  0.00    -0.170 SA 
BRANCH   3   4
HETATM    4  S   UNL     1     -10.630  10.481  68.577  1.00  0.00    -0.223 SA 
BRANCH   4   5
HETATM    5  C   UNL     1      -9.840   9.148  69.450  1.00  0.00    -0.172 C  
HETATM    6  S   UNL     1     -10.042   9.065  71.126  1.00  0.00    -0.315 S  
BRANCH   5   7
HETATM    7  N   UNL     1      -9.196   8.166  68.661  1.00  0.00    -0.143 N  
HETATM    8  C   UNL     1      -7.464   6.370  68.671  1.00  0.00    -0.088 C  
HETATM    9  C   UNL     1      -7.760   7.862  68.823  1.00  0.00    -0.112 C  
HETATM   10  C   UNL     1      -8.016   5.817  67.364  1.00  0.00    -0.102 C  
HETATM   11  C   UNL     1      -9.499   6.141  67.238  1.00  0.00    -0.121 C  
HETATM   12  C   UNL     1      -9.763   7.637  67.407  1.00  0.00    -0.161 C  
ENDBRANCH   5   7
ENDBRANCH   4   5
ENDBRANCH   3   4
ENDBRANCH   2   3
BRANCH   2  13
HETATM   13  N   UNL     1     -10.152  12.788  65.626  1.00  0.00    -0.276 N  
HETATM   14  C   UNL     1     -12.175  13.894  66.552  1.00  0.00    -0.482 C  
HETATM   15  C   UNL     1     -10.563  13.054  64.244  1.00  0.00    -0.412 C  
HETATM   16  C   UNL     1     -10.656  13.760  66.608  1.00  0.00    -0.274 C  
HETATM   17  C   UNL     1     -12.090  13.159  64.150  1.00  0.00    -0.496 C  
HETATM   18  C   UNL     1     -12.644  14.193  65.130  1.00  0.00    -0.426 C  
ENDBRANCH   2  13
TORSDOF 5
ENDMDL
MODEL      172
REMARK 921   NORMALIZED FREE ENERGY PREDICTED BY IDOCK:   -3.40 KCAL/MOL
REMARK 922        TOTAL FREE ENERGY PREDICTED BY IDOCK:   -4.88 KCAL/MOL
REMARK 923 INTER-LIGAND FREE ENERGY PREDICTED BY IDOCK:   -4.43 KCAL/MOL
REMARK 924 INTRA-LIGAND FREE ENERGY PREDICTED BY IDOCK:   -0.45 KCAL/MOL
REMARK 927      BINDING AFFINITY PREDICTED BY RF-SCORE:    0.00 PKD
ROOT
HETATM    1  S   UNL     1      -8.388  12.402  67.357  1.00  0.00    -0.189 S  
HETATM    2  C   UNL     1      -9.880  12.974  66.822  1.00  0.00    -0.243 C  
ENDROOT
BRANCH   2   3
HETATM    3  S   UNL     1     -10.580  14.474  67.476  1.00  0.00    -0.265 SA 
BRANCH   3   4
HETATM    4  S   UNL     1     -10.283  14.221  69.515  1.00  0.00     0.294 SA 
BRANCH   4   5
HETATM    5  C   UNL     1     -11.917  13.903  70.143  1.00  0.00    -0.332 C  
HETATM    6  S   UNL     1     -12.971  15.213  70.321  1.00  0.00    -0.102 S  
BRANCH   5   7
HETATM    7  N   UNL     1     -12.271  12.546  70.332  1.00  0.00    -0.333 N  
HETATM    8  C   UNL     1     -11.698  10.195  69.723  1.00  0.00    -0.205 C  
HETATM    9  C   UNL     1     -12.178  11.562  69.235  1.00  0.00    -0.179 C  
HETATM   10  C   UNL     1     -12.548   9.678  70.876  1.00  0.00    -0.299 C  
HETATM   11  C   UNL     1     -12.612  10.715  71.990  1.00  0.00    -0.163 C  
HETATM   12  C   UNL     1     -13.083  12.073  71.468  1.00  0.00    -0.261 C  
ENDBRANCH   5   7
ENDBRANCH   4   5
ENDBRANCH   3   4
ENDBRANCH   2   3
BRANCH   2  13
HETATM   13  N   UNL     1     -10.661  12.332  65.855  1.00  0.00    -0.251 N  
HETATM   14  C   UNL     1     -10.318  12.200  63.397  1.00  0.00    -0.438 C  
HETATM   15  C   UNL     1     -12.096  12.594  65.703  1.00  0.00    -0.443 C  
HETATM   16  C   UNL     1     -10.065  11.556  64.757  1.00  0.00    -0.269 C  
HETATM   17  C   UNL     1     -12.378  13.275  64.358  1.00  0.00    -0.410 C  
HETATM   18  C   UNL     1     -11.807  12.471  63.191  1.00  0.00    -0.346 C  
ENDBRANCH   2  13
TORSDOF 5
ENDMDL
MODEL      173
REMARK 921   NORMALIZED FREE ENERGY PREDICTED BY IDOCK:   -3.38 KCAL/MOL
REMARK 922        TOTAL FREE ENERGY PREDICTED BY IDOCK:   -4.86 KCAL/MOL
REMARK 923 INTER-LIGAND FREE ENERGY PREDICTED BY IDOCK:   -4.56 KCAL/MOL
REMARK 924 INTRA-LIGAND FREE ENERGY PREDICTED BY IDOCK:   -0.30 KCAL/MOL
REMARK 927      BINDING AFFINITY PREDICTED BY RF-SCORE:    0.00 PKD
ROOT
HETATM    1  S   UNL     1      -6.591  12.641  68.035  1.00  0.00    -0.112 S  
HETATM    2  C   UNL     1      -8.064  11.882  67.728  1.00  0.00    -0.146 C  
ENDROOT
BRANCH   2   3
HETATM    3  S   UNL     1      -9.394  12.744  66.919  1.00  0.00    -0.238 SA 
BRANCH   3   4
HETATM    4  S   UNL     1      -9.684  14.358  68.192  1.00  0.00    -0.229 SA 
BRANCH   4   5
HETATM    5  C   UNL     1      -9.914  15.733  67.086  1.00  0.00    -0.242 C  
HETATM    6  S   UNL     1     -10.472  15.411  65.524  1.00  0.00    -0.408 S  
BRANCH   5   7
HETATM    7  N   UNL     1      -9.736  17.025  67.634  1.00  0.00    -0.253 N  
HETATM    8  C   UNL     1      -8.045  18.755  68.247  1.00  0.00    -0.353 C  
HETATM    9  C   UNL     1      -8.584  17.347  68.500  1.00  0.00    -0.270 C  
HETATM   10  C   UNL     1      -9.144  19.805  68.352  1.00  0.00    -0.338 C  
HETATM   11  C   UNL     1     -10.308  19.444  67.439  1.00  0.00    -0.559 C  
HETATM   12  C   UNL     1     -10.815  18.027  67.708  1.00  0.00    -0.228 C  
ENDBRANCH   5   7
ENDBRANCH   4   5
ENDBRANCH   3   4
ENDBRANCH   2   3
BRANCH   2  13
HETATM   13  N   UNL     1      -8.348  10.558  68.077  1.00  0.00    -0.115 N  
HETATM   14  C   UNL     1      -9.975   8.981  67.055  1.00  0.00    -0.295 C  
HETATM   15  C   UNL     1      -8.731  10.168  69.438  1.00  0.00    -0.176 C  
HETATM   16  C   UNL     1      -8.542   9.507  67.066  1.00  0.00    -0.128 C  
HETATM   17  C   UNL     1     -10.180   9.668  69.465  1.00  0.00    -0.233 C  
HETATM   18  C   UNL     1     -10.406   8.545  68.454  1.00  0.00    -0.241 C  
ENDBRANCH   2  13
TORSDOF 5
ENDMDL
MODEL      174
REMARK 921   NORMALIZED FREE ENERGY PREDICTED BY IDOCK:   -3.36 KCAL/MOL
REMARK 922        TOTAL FREE ENERGY PREDICTED BY IDOCK:   -4.84 KCAL/MOL
REMARK 923 INTER-LIGAND FREE ENERGY PREDICTED BY IDOCK:   -4.25 KCAL/MOL
REMARK 924 INTRA-LIGAND FREE ENERGY PREDICTED BY IDOCK:   -0.60 KCAL/MOL
REMARK 927      BINDING AFFINITY PREDICTED BY RF-SCORE:    0.00 PKD
ROOT
HETATM    1  S   UNL     1      -9.458   8.185  73.058  1.00  0.00    -0.233 S  
HETATM    2  C   UNL     1     -10.188   7.445  71.732  1.00  0.00    -0.191 C  
ENDROOT
BRANCH   2   3
HETATM    3  S   UNL     1      -9.382   6.122  70.855  1.00  0.00    -0.158 SA 
BRANCH   3   4
HETATM    4  S   UNL     1      -8.194   7.170  69.514  1.00  0.00    -0.133 SA 
BRANCH   4   5
HETATM    5  C   UNL     1      -9.365   7.881  68.378  1.00  0.00    -0.140 C  
HETATM    6  S   UNL     1     -10.320   6.831  67.461  1.00  0.00    -0.244 S  
BRANCH   5   7
HETATM    7  N   UNL     1      -9.509   9.288  68.414  1.00  0.00    -0.138 N  
HETATM    8  C   UNL     1      -8.292  11.459  68.227  1.00  0.00    -0.152 C  
HETATM    9  C   UNL     1      -8.475  10.158  69.008  1.00  0.00    -0.151 C  
HETATM   10  C   UNL     1      -9.613  12.194  68.043  1.00  0.00    -0.204 C  
HETATM   11  C   UNL     1     -10.650  11.269  67.418  1.00  0.00    -0.262 C  
HETATM   12  C   UNL     1     -10.799   9.973  68.216  1.00  0.00    -0.241 C  
ENDBRANCH   5   7
ENDBRANCH   4   5
ENDBRANCH   3   4
ENDBRANCH   2   3
BRANCH   2  13
HETATM   13  N   UNL     1     -11.443   7.804  71.231  1.00  0.00    -0.264 N  
HETATM   14  C   UNL     1     -13.194   9.233  72.265  1.00  0.00    -0.535 C  
HETATM   15  C   UNL     1     -12.428   6.811  70.789  1.00  0.00    -0.155 C  
HETATM   16  C   UNL     1     -11.972   9.171  71.353  1.00  0.00    -0.339 C  
HETATM   17  C   UNL     1     -13.654   6.825  71.709  1.00  0.00    -0.163 C  
HETATM   18  C   UNL     1     -14.254   8.225  71.824  1.00  0.00    -0.544 C  
ENDBRANCH   2  13
TORSDOF 5
ENDMDL
MODEL      175
REMARK 921   NORMALIZED FREE ENERGY PREDICTED BY IDOCK:   -3.36 KCAL/MOL
REMARK 922        TOTAL FREE ENERGY PREDICTED BY IDOCK:   -4.84 KCAL/MOL
REMARK 923 INTER-LIGAND FREE ENERGY PREDICTED BY IDOCK:   -4.31 KCAL/MOL
REMARK 924 INTRA-LIGAND FREE ENERGY PREDICTED BY IDOCK:   -0.52 KCAL/MOL
REMARK 927      BINDING AFFINITY PREDICTED BY RF-SCORE:    0.00 PKD
ROOT
HETATM    1  S   UNL     1      -9.371   7.209  72.375  1.00  0.00    -0.135 S  
HETATM    2  C   UNL     1     -10.053   8.231  71.224  1.00  0.00    -0.198 C  
ENDROOT
BRANCH   2   3
HETATM    3  S   UNL     1      -9.071   9.449  70.375  1.00  0.00    -0.249 SA 
BRANCH   3   4
HETATM    4  S   UNL     1      -8.261   8.329  68.825  1.00  0.00    -0.117 SA 
BRANCH   4   5
HETATM    5  C   UNL     1      -9.566   8.274  67.617  1.00  0.00    -0.152 C  
HETATM    6  S   UNL     1     -10.562   9.631  67.460  1.00  0.00    -0.253 S  
BRANCH   5   7
HETATM    7  N   UNL     1      -9.602   7.139  66.773  1.00  0.00    -0.170 N  
HETATM    8  C   UNL     1      -8.224   5.629  65.343  1.00  0.00    -0.132 C  
HETATM    9  C   UNL     1      -8.756   7.044  65.567  1.00  0.00    -0.025 C  
HETATM   10  C   UNL     1      -9.348   4.601  65.328  1.00  0.00    -0.159 C  
HETATM   11  C   UNL     1     -10.191   4.723  66.591  1.00  0.00    -0.274 C  
HETATM   12  C   UNL     1     -10.697   6.152  66.792  1.00  0.00    -0.299 C  
ENDBRANCH   5   7
ENDBRANCH   4   5
ENDBRANCH   3   4
ENDBRANCH   2   3
BRANCH   2  13
HETATM   13  N   UNL     1     -11.403   8.207  70.860  1.00  0.00    -0.267 N  
HETATM   14  C   UNL     1     -13.333   9.363  71.917  1.00  0.00    -0.508 C  
HETATM   15  C   UNL     1     -12.155   6.958  70.709  1.00  0.00    -0.349 C  
HETATM   16  C   UNL     1     -12.235   9.421  70.859  1.00  0.00    -0.227 C  
HETATM   17  C   UNL     1     -13.245   6.854  71.782  1.00  0.00    -0.281 C  
HETATM   18  C   UNL     1     -14.154   8.082  71.781  1.00  0.00    -0.517 C  
ENDBRANCH   2  13
TORSDOF 5
ENDMDL
MODEL      176
REMARK 921   NORMALIZED FREE ENERGY PREDICTED BY IDOCK:   -3.34 KCAL/MOL
REMARK 922        TOTAL FREE ENERGY PREDICTED BY IDOCK:   -4.82 KCAL/MOL
REMARK 923 INTER-LIGAND FREE ENERGY PREDICTED BY IDOCK:   -4.43 KCAL/MOL
REMARK 924 INTRA-LIGAND FREE ENERGY PREDICTED BY IDOCK:   -0.39 KCAL/MOL
REMARK 927      BINDING AFFINITY PREDICTED BY RF-SCORE:    0.00 PKD
ROOT
HETATM    1  S   UNL     1     -11.318   6.669  70.313  1.00  0.00    -0.390 S  
HETATM    2  C   UNL     1     -10.619   7.820  69.301  1.00  0.00    -0.192 C  
ENDROOT
BRANCH   2   3
HETATM    3  S   UNL     1     -10.416   9.509  69.826  1.00  0.00    -0.248 SA 
BRANCH   3   4
HETATM    4  S   UNL     1     -11.473  10.534  68.362  1.00  0.00    -0.125 SA 
BRANCH   4   5
HETATM    5  C   UNL     1     -11.624  12.178  69.024  1.00  0.00    -0.319 C  
HETATM    6  S   UNL     1     -12.326  12.360  70.551  1.00  0.00    -0.175 S  
BRANCH   5   7
HETATM    7  N   UNL     1     -11.024  13.220  68.278  1.00  0.00    -0.246 N  
HETATM    8  C   UNL     1      -8.973  13.902  67.030  1.00  0.00    -0.251 C  
HETATM    9  C   UNL     1      -9.580  13.511  68.377  1.00  0.00    -0.196 C  
HETATM   10  C   UNL     1      -9.738  15.048  66.380  1.00  0.00    -0.305 C  
HETATM   11  C   UNL     1     -11.220  14.707  66.286  1.00  0.00    -0.340 C  
HETATM   12  C   UNL     1     -11.792  14.308  67.646  1.00  0.00    -0.385 C  
ENDBRANCH   5   7
ENDBRANCH   4   5
ENDBRANCH   3   4
ENDBRANCH   2   3
BRANCH   2  13
HETATM   13  N   UNL     1     -10.162   7.548  68.007  1.00  0.00    -0.187 N  
HETATM   14  C   UNL     1     -10.508   5.516  66.618  1.00  0.00    -0.355 C  
HETATM   15  C   UNL     1      -8.746   7.634  67.638  1.00  0.00    -0.122 C  
HETATM   16  C   UNL     1     -11.016   6.904  66.996  1.00  0.00    -0.334 C  
HETATM   17  C   UNL     1      -8.197   6.246  67.287  1.00  0.00    -0.109 C  
HETATM   18  C   UNL     1      -9.038   5.566  66.207  1.00  0.00    -0.149 C  
ENDBRANCH   2  13
TORSDOF 5
ENDMDL
MODEL      177
REMARK 921   NORMALIZED FREE ENERGY PREDICTED BY IDOCK:   -3.34 KCAL/MOL
REMARK 922        TOTAL FREE ENERGY PREDICTED BY IDOCK:   -4.81 KCAL/MOL
REMARK 923 INTER-LIGAND FREE ENERGY PREDICTED BY IDOCK:   -4.09 KCAL/MOL
REMARK 924 INTRA-LIGAND FREE ENERGY PREDICTED BY IDOCK:   -0.72 KCAL/MOL
REMARK 927      BINDING AFFINITY PREDICTED BY RF-SCORE:    0.00 PKD
ROOT
HETATM    1  S   UNL     1     -11.626  12.716  66.701  1.00  0.00    -0.394 S  
HETATM    2  C   UNL     1     -10.366  11.704  67.176  1.00  0.00    -0.217 C  
ENDROOT
BRANCH   2   3
HETATM    3  S   UNL     1     -10.084  11.325  68.892  1.00  0.00    -0.126 SA 
BRANCH   3   4
HETATM    4  S   UNL     1     -12.022  11.062  69.588  1.00  0.00    -0.356 SA 
BRANCH   4   5
HETATM    5  C   UNL     1     -11.838   9.895  70.919  1.00  0.00    -0.356 C  
HETATM    6  S   UNL     1     -13.049   9.834  72.096  1.00  0.00    -0.377 S  
BRANCH   5   7
HETATM    7  N   UNL     1     -10.745   9.000  70.831  1.00  0.00    -0.232 N  
HETATM    8  C   UNL     1      -9.440   7.535  69.289  1.00  0.00    -0.154 C  
HETATM    9  C   UNL     1     -10.788   7.811  69.957  1.00  0.00    -0.241 C  
HETATM   10  C   UNL     1      -8.314   7.448  70.310  1.00  0.00    -0.134 C  
HETATM   11  C   UNL     1      -8.296   8.695  71.185  1.00  0.00    -0.201 C  
HETATM   12  C   UNL     1      -9.660   8.949  71.828  1.00  0.00    -0.282 C  
ENDBRANCH   5   7
ENDBRANCH   4   5
ENDBRANCH   3   4
ENDBRANCH   2   3
BRANCH   2  13
HETATM   13  N   UNL     1      -9.468  11.105  66.286  1.00  0.00    -0.190 N  
HETATM   14  C   UNL     1      -9.226   8.707  65.680  1.00  0.00    -0.204 C  
HETATM   15  C   UNL     1      -8.017  11.289  66.389  1.00  0.00    -0.125 C  
HETATM   16  C   UNL     1      -9.882  10.046  65.352  1.00  0.00    -0.314 C  
HETATM   17  C   UNL     1      -7.333   9.965  66.753  1.00  0.00    -0.095 C  
HETATM   18  C   UNL     1      -7.709   8.852  65.776  1.00  0.00    -0.094 C  
ENDBRANCH   2  13
TORSDOF 5
ENDMDL
MODEL      178
REMARK 921   NORMALIZED FREE ENERGY PREDICTED BY IDOCK:   -3.33 KCAL/MOL
REMARK 922        TOTAL FREE ENERGY PREDICTED BY IDOCK:   -4.80 KCAL/MOL
REMARK 923 INTER-LIGAND FREE ENERGY PREDICTED BY IDOCK:   -4.18 KCAL/MOL
REMARK 924 INTRA-LIGAND FREE ENERGY PREDICTED BY IDOCK:   -0.62 KCAL/MOL
REMARK 927      BINDING AFFINITY PREDICTED BY RF-SCORE:    0.00 PKD
ROOT
HETATM    1  S   UNL     1     -11.672  10.920  69.133  1.00  0.00    -0.319 S  
HETATM    2  C   UNL     1     -10.389  10.022  68.514  1.00  0.00    -0.193 C  
ENDROOT
BRANCH   2   3
HETATM    3  S   UNL     1      -9.618  10.458  66.970  1.00  0.00    -0.170 SA 
BRANCH   3   4
HETATM    4  S   UNL     1      -8.463  12.092  67.525  1.00  0.00    -0.175 SA 
BRANCH   4   5
HETATM    5  C   UNL     1      -9.562  13.475  67.320  1.00  0.00    -0.235 C  
HETATM    6  S   UNL     1      -9.386  14.793  68.364  1.00  0.00    -0.202 S  
BRANCH   5   7
HETATM    7  N   UNL     1     -10.433  13.435  66.205  1.00  0.00    -0.284 N  
HETATM    8  C   UNL     1     -10.706  12.589  63.874  1.00  0.00    -0.473 C  
HETATM    9  C   UNL     1      -9.922  13.496  64.822  1.00  0.00    -0.125 C  
HETATM   10  C   UNL     1     -12.202  12.868  63.938  1.00  0.00    -0.525 C  
HETATM   11  C   UNL     1     -12.693  12.786  65.378  1.00  0.00    -0.234 C  
HETATM   12  C   UNL     1     -11.881  13.694  66.301  1.00  0.00    -0.392 C  
ENDBRANCH   5   7
ENDBRANCH   4   5
ENDBRANCH   3   4
ENDBRANCH   2   3
BRANCH   2  13
HETATM   13  N   UNL     1      -9.849   8.895  69.143  1.00  0.00    -0.175 N  
HETATM   14  C   UNL     1      -7.470   8.212  69.363  1.00  0.00    -0.091 C  
HETATM   15  C   UNL     1     -10.275   7.531  68.814  1.00  0.00    -0.197 C  
HETATM   16  C   UNL     1      -8.642   8.970  69.980  1.00  0.00    -0.151 C  
HETATM   17  C   UNL     1      -9.126   6.754  68.159  1.00  0.00    -0.123 C  
HETATM   18  C   UNL     1      -7.867   6.776  69.024  1.00  0.00    -0.111 C  
ENDBRANCH   2  13
TORSDOF 5
ENDMDL
MODEL      179
REMARK 921   NORMALIZED FREE ENERGY PREDICTED BY IDOCK:   -3.32 KCAL/MOL
REMARK 922        TOTAL FREE ENERGY PREDICTED BY IDOCK:   -4.78 KCAL/MOL
REMARK 923 INTER-LIGAND FREE ENERGY PREDICTED BY IDOCK:   -4.09 KCAL/MOL
REMARK 924 INTRA-LIGAND FREE ENERGY PREDICTED BY IDOCK:   -0.69 KCAL/MOL
REMARK 927      BINDING AFFINITY PREDICTED BY RF-SCORE:    0.00 PKD
ROOT
HETATM    1  S   UNL     1      -6.133  11.754  66.987  1.00  0.00    -0.141 S  
HETATM    2  C   UNL     1      -6.892  13.040  67.767  1.00  0.00    -0.144 C  
ENDROOT
BRANCH   2   3
HETATM    3  S   UNL     1      -8.593  12.933  68.280  1.00  0.00    -0.138 SA 
BRANCH   3   4
HETATM    4  S   UNL     1      -9.590  13.496  66.548  1.00  0.00    -0.260 SA 
BRANCH   4   5
HETATM    5  C   UNL     1     -10.303  15.072  66.964  1.00  0.00    -0.269 C  
HETATM    6  S   UNL     1     -10.166  16.329  65.842  1.00  0.00    -0.364 S  
BRANCH   5   7
HETATM    7  N   UNL     1     -11.055  15.132  68.161  1.00  0.00    -0.290 N  
HETATM    8  C   UNL     1     -12.392  13.792  69.787  1.00  0.00    -0.311 C  
HETATM    9  C   UNL     1     -12.268  14.312  68.355  1.00  0.00    -0.162 C  
HETATM   10  C   UNL     1     -12.303  14.922  70.805  1.00  0.00    -0.392 C  
HETATM   11  C   UNL     1     -11.036  15.737  70.580  1.00  0.00    -0.383 C  
HETATM   12  C   UNL     1     -10.936  16.231  69.136  1.00  0.00    -0.324 C  
ENDBRANCH   5   7
ENDBRANCH   4   5
ENDBRANCH   3   4
ENDBRANCH   2   3
BRANCH   2  13
HETATM   13  N   UNL     1      -6.265  14.256  68.059  1.00  0.00    -0.139 N  
HETATM   14  C   UNL     1      -5.893  15.337  70.266  1.00  0.00    -0.141 C  
HETATM   15  C   UNL     1      -6.673  15.521  67.439  1.00  0.00    -0.166 C  
HETATM   16  C   UNL     1      -5.339  14.406  69.192  1.00  0.00    -0.081 C  
HETATM   17  C   UNL     1      -7.268  16.466  68.490  1.00  0.00    -0.170 C  
HETATM   18  C   UNL     1      -6.312  16.676  69.662  1.00  0.00    -0.217 C  
ENDBRANCH   2  13
TORSDOF 5
ENDMDL
MODEL      180
REMARK 921   NORMALIZED FREE ENERGY PREDICTED BY IDOCK:   -3.31 KCAL/MOL
REMARK 922        TOTAL FREE ENERGY PREDICTED BY IDOCK:   -4.77 KCAL/MOL
REMARK 923 INTER-LIGAND FREE ENERGY PREDICTED BY IDOCK:   -3.66 KCAL/MOL
REMARK 924 INTRA-LIGAND FREE ENERGY PREDICTED BY IDOCK:   -1.11 KCAL/MOL
REMARK 927      BINDING AFFINITY PREDICTED BY RF-SCORE:    0.00 PKD
ROOT
HETATM    1  S   UNL     1      -6.719   7.089  71.405  1.00  0.00    -0.052 S  
HETATM    2  C   UNL     1      -7.922   6.774  70.268  1.00  0.00    -0.115 C  
ENDROOT
BRANCH   2   3
HETATM    3  S   UNL     1      -8.813   5.233  70.270  1.00  0.00    -0.128 SA 
BRANCH   3   4
HETATM    4  S   UNL     1      -8.404   4.515  72.175  1.00  0.00    -0.111 SA 
BRANCH   4   5
HETATM    5  C   UNL     1      -9.941   4.727  73.045  1.00  0.00    -0.152 C  
HETATM    6  S   UNL     1     -10.383   3.552  74.177  1.00  0.00    -0.200 S  
BRANCH   5   7
HETATM    7  N   UNL     1     -10.634   5.940  72.823  1.00  0.00    -0.213 N  
HETATM    8  C   UNL     1     -10.365   8.397  72.481  1.00  0.00    -0.371 C  
HETATM    9  C   UNL     1     -10.183   7.210  73.426  1.00  0.00    -0.325 C  
HETATM   10  C   UNL     1     -11.795   8.492  71.965  1.00  0.00    -0.429 C  
HETATM   11  C   UNL     1     -12.220   7.168  71.342  1.00  0.00    -0.399 C  
HETATM   12  C   UNL     1     -12.014   6.001  72.308  1.00  0.00    -0.204 C  
ENDBRANCH   5   7
ENDBRANCH   4   5
ENDBRANCH   3   4
ENDBRANCH   2   3
BRANCH   2  13
HETATM   13  N   UNL     1      -8.300   7.670  69.263  1.00  0.00    -0.133 N  
HETATM   14  C   UNL     1      -9.163   9.991  69.475  1.00  0.00    -0.238 C  
HETATM   15  C   UNL     1      -9.290   7.330  68.237  1.00  0.00    -0.135 C  
HETATM   16  C   UNL     1      -7.938   9.096  69.309  1.00  0.00    -0.097 C  
HETATM   17  C   UNL     1     -10.549   8.191  68.399  1.00  0.00    -0.148 C  
HETATM   18  C   UNL     1     -10.213   9.681  68.410  1.00  0.00    -0.214 C  
ENDBRANCH   2  13
TORSDOF 5
ENDMDL
MODEL      181
REMARK 921   NORMALIZED FREE ENERGY PREDICTED BY IDOCK:   -3.30 KCAL/MOL
REMARK 922        TOTAL FREE ENERGY PREDICTED BY IDOCK:   -4.77 KCAL/MOL
REMARK 923 INTER-LIGAND FREE ENERGY PREDICTED BY IDOCK:   -4.33 KCAL/MOL
REMARK 924 INTRA-LIGAND FREE ENERGY PREDICTED BY IDOCK:   -0.44 KCAL/MOL
REMARK 927      BINDING AFFINITY PREDICTED BY RF-SCORE:    0.00 PKD
ROOT
HETATM    1  S   UNL     1      -7.364   9.227  67.041  1.00  0.00    -0.091 S  
HETATM    2  C   UNL     1      -8.869   9.691  67.641  1.00  0.00    -0.125 C  
ENDROOT
BRANCH   2   3
HETATM    3  S   UNL     1      -9.760  11.061  66.935  1.00  0.00    -0.191 SA 
BRANCH   3   4
HETATM    4  S   UNL     1      -8.858  12.677  67.875  1.00  0.00    -0.190 SA 
BRANCH   4   5
HETATM    5  C   UNL     1     -10.189  13.837  68.093  1.00  0.00    -0.253 C  
HETATM    6  S   UNL     1     -11.771  13.240  68.100  1.00  0.00    -0.367 S  
BRANCH   5   7
HETATM    7  N   UNL     1      -9.826  15.175  68.377  1.00  0.00    -0.218 N  
HETATM    8  C   UNL     1      -7.912  16.695  68.876  1.00  0.00    -0.236 C  
HETATM    9  C   UNL     1      -8.745  15.497  69.330  1.00  0.00    -0.260 C  
HETATM   10  C   UNL     1      -8.784  17.907  68.579  1.00  0.00    -0.297 C  
HETATM   11  C   UNL     1      -9.880  17.538  67.586  1.00  0.00    -0.291 C  
HETATM   12  C   UNL     1     -10.686  16.330  68.063  1.00  0.00    -0.331 C  
ENDBRANCH   5   7
ENDBRANCH   4   5
ENDBRANCH   3   4
ENDBRANCH   2   3
BRANCH   2  13
HETATM   13  N   UNL     1      -9.513   9.058  68.709  1.00  0.00    -0.147 N  
HETATM   14  C   UNL     1     -10.870  10.057  70.535  1.00  0.00    -0.380 C  
HETATM   15  C   UNL     1      -8.808   8.167  69.636  1.00  0.00    -0.143 C  
HETATM   16  C   UNL     1     -10.867   9.437  69.141  1.00  0.00    -0.155 C  
HETATM   17  C   UNL     1      -8.764   8.781  71.040  1.00  0.00    -0.248 C  
HETATM   18  C   UNL     1     -10.161   9.148  71.538  1.00  0.00    -0.403 C  
ENDBRANCH   2  13
TORSDOF 5
ENDMDL
MODEL      182
REMARK 921   NORMALIZED FREE ENERGY PREDICTED BY IDOCK:   -3.28 KCAL/MOL
REMARK 922        TOTAL FREE ENERGY PREDICTED BY IDOCK:   -4.74 KCAL/MOL
REMARK 923 INTER-LIGAND FREE ENERGY PREDICTED BY IDOCK:   -4.25 KCAL/MOL
REMARK 924 INTRA-LIGAND FREE ENERGY PREDICTED BY IDOCK:   -0.48 KCAL/MOL
REMARK 927      BINDING AFFINITY PREDICTED BY RF-SCORE:    0.00 PKD
ROOT
HETATM    1  S   UNL     1      -9.326  18.959  68.476  1.00  0.00    -0.378 S  
HETATM    2  C   UNL     1      -9.207  17.329  68.067  1.00  0.00    -0.256 C  
ENDROOT
BRANCH   2   3
HETATM    3  S   UNL     1     -10.657  16.356  67.723  1.00  0.00    -0.319 SA 
BRANCH   3   4
HETATM    4  S   UNL     1     -10.072  15.316  66.025  1.00  0.00    -0.345 SA 
BRANCH   4   5
HETATM    5  C   UNL     1     -11.027  13.816  66.099  1.00  0.00    -0.292 C  
HETATM    6  S   UNL     1     -12.537  13.796  65.339  1.00  0.00    -0.463 S  
BRANCH   5   7
HETATM    7  N   UNL     1     -10.398  12.691  66.682  1.00  0.00    -0.235 N  
HETATM    8  C   UNL     1      -9.473  10.419  66.226  1.00  0.00    -0.215 C  
HETATM    9  C   UNL     1     -10.710  11.316  66.245  1.00  0.00    -0.257 C  
HETATM   10  C   UNL     1      -8.745  10.436  67.563  1.00  0.00    -0.125 C  
HETATM   11  C   UNL     1      -8.430  11.869  67.975  1.00  0.00    -0.162 C  
HETATM   12  C   UNL     1      -9.686  12.742  67.972  1.00  0.00    -0.220 C  
ENDBRANCH   5   7
ENDBRANCH   4   5
ENDBRANCH   3   4
ENDBRANCH   2   3
BRANCH   2  13
HETATM   13  N   UNL     1      -7.997  16.635  67.972  1.00  0.00    -0.168 N  
HETATM   14  C   UNL     1      -6.355  16.096  69.758  1.00  0.00    -0.175 C  
HETATM   15  C   UNL     1      -6.940  17.020  67.031  1.00  0.00    -0.193 C  
HETATM   16  C   UNL     1      -7.584  15.642  68.976  1.00  0.00    -0.187 C  
HETATM   17  C   UNL     1      -5.701  17.514  67.788  1.00  0.00    -0.146 C  
HETATM   18  C   UNL     1      -5.221  16.487  68.812  1.00  0.00    -0.120 C  
ENDBRANCH   2  13
TORSDOF 5
ENDMDL
MODEL      183
REMARK 921   NORMALIZED FREE ENERGY PREDICTED BY IDOCK:   -3.26 KCAL/MOL
REMARK 922        TOTAL FREE ENERGY PREDICTED BY IDOCK:   -4.71 KCAL/MOL
REMARK 923 INTER-LIGAND FREE ENERGY PREDICTED BY IDOCK:   -4.43 KCAL/MOL
REMARK 924 INTRA-LIGAND FREE ENERGY PREDICTED BY IDOCK:   -0.28 KCAL/MOL
REMARK 927      BINDING AFFINITY PREDICTED BY RF-SCORE:    0.00 PKD
ROOT
HETATM    1  S   UNL     1     -12.425  10.560  70.362  1.00  0.00    -0.275 S  
HETATM    2  C   UNL     1     -11.705  11.872  69.590  1.00  0.00    -0.343 C  
ENDROOT
BRANCH   2   3
HETATM    3  S   UNL     1     -10.296  11.656  68.524  1.00  0.00    -0.212 SA 
BRANCH   3   4
HETATM    4  S   UNL     1     -10.862   9.998  67.410  1.00  0.00    -0.185 SA 
BRANCH   4   5
HETATM    5  C   UNL     1      -9.361   9.054  67.264  1.00  0.00    -0.139 C  
HETATM    6  S   UNL     1      -7.919   9.892  66.987  1.00  0.00    -0.109 S  
BRANCH   5   7
HETATM    7  N   UNL     1      -9.456   7.666  67.519  1.00  0.00    -0.138 N  
HETATM    8  C   UNL     1     -10.246   5.952  69.152  1.00  0.00    -0.275 C  
HETATM    9  C   UNL     1      -9.293   7.116  68.880  1.00  0.00    -0.139 C  
HETATM   10  C   UNL     1     -10.131   4.870  68.087  1.00  0.00    -0.141 C  
HETATM   11  C   UNL     1     -10.315   5.473  66.700  1.00  0.00    -0.322 C  
HETATM   12  C   UNL     1      -9.357   6.641  66.464  1.00  0.00    -0.159 C  
ENDBRANCH   5   7
ENDBRANCH   4   5
ENDBRANCH   3   4
ENDBRANCH   2   3
BRANCH   2  13
HETATM   13  N   UNL     1     -12.142  13.194  69.725  1.00  0.00    -0.298 N  
HETATM   14  C   UNL     1     -10.846  15.304  69.511  1.00  0.00    -0.275 C  
HETATM   15  C   UNL     1     -12.841  13.673  70.922  1.00  0.00    -0.251 C  
HETATM   16  C   UNL     1     -11.708  14.259  68.808  1.00  0.00    -0.343 C  
HETATM   17  C   UNL     1     -11.983  14.699  71.670  1.00  0.00    -0.379 C  
HETATM   18  C   UNL     1     -11.549  15.843  70.754  1.00  0.00    -0.441 C  
ENDBRANCH   2  13
TORSDOF 5
ENDMDL
MODEL      184
REMARK 921   NORMALIZED FREE ENERGY PREDICTED BY IDOCK:   -3.26 KCAL/MOL
REMARK 922        TOTAL FREE ENERGY PREDICTED BY IDOCK:   -4.71 KCAL/MOL
REMARK 923 INTER-LIGAND FREE ENERGY PREDICTED BY IDOCK:   -4.17 KCAL/MOL
REMARK 924 INTRA-LIGAND FREE ENERGY PREDICTED BY IDOCK:   -0.54 KCAL/MOL
REMARK 927      BINDING AFFINITY PREDICTED BY RF-SCORE:    0.00 PKD
ROOT
HETATM    1  S   UNL     1     -11.944  10.770  70.778  1.00  0.00    -0.355 S  
HETATM    2  C   UNL     1     -11.803  12.051  69.692  1.00  0.00    -0.333 C  
ENDROOT
BRANCH   2   3
HETATM    3  S   UNL     1     -11.005  11.839  68.116  1.00  0.00    -0.247 SA 
BRANCH   3   4
HETATM    4  S   UNL     1      -9.163  11.063  68.679  1.00  0.00    -0.171 SA 
BRANCH   4   5
HETATM    5  C   UNL     1      -8.070  11.580  67.373  1.00  0.00    -0.146 C  
HETATM    6  S   UNL     1      -8.076  10.696  65.933  1.00  0.00    -0.148 S  
BRANCH   5   7
HETATM    7  N   UNL     1      -7.357  12.784  67.583  1.00  0.00    -0.130 N  
HETATM    8  C   UNL     1      -7.503  15.093  68.519  1.00  0.00    -0.121 C  
HETATM    9  C   UNL     1      -8.014  14.102  67.473  1.00  0.00    -0.188 C  
HETATM   10  C   UNL     1      -5.985  15.213  68.486  1.00  0.00    -0.097 C  
HETATM   11  C   UNL     1      -5.344  13.836  68.612  1.00  0.00    -0.087 C  
HETATM   12  C   UNL     1      -5.885  12.867  67.561  1.00  0.00    -0.114 C  
ENDBRANCH   5   7
ENDBRANCH   4   5
ENDBRANCH   3   4
ENDBRANCH   2   3
BRANCH   2  13
HETATM   13  N   UNL     1     -12.284  13.341  69.940  1.00  0.00    -0.282 N  
HETATM   14  C   UNL     1     -11.145  15.526  69.618  1.00  0.00    -0.280 C  
HETATM   15  C   UNL     1     -12.822  13.744  71.242  1.00  0.00    -0.357 C  
HETATM   16  C   UNL     1     -12.046  14.455  69.009  1.00  0.00    -0.263 C  
HETATM   17  C   UNL     1     -11.917  14.795  71.895  1.00  0.00    -0.391 C  
HETATM   18  C   UNL     1     -11.684  15.988  70.970  1.00  0.00    -0.458 C  
ENDBRANCH   2  13
TORSDOF 5
ENDMDL
MODEL      185
REMARK 921   NORMALIZED FREE ENERGY PREDICTED BY IDOCK:   -3.25 KCAL/MOL
REMARK 922        TOTAL FREE ENERGY PREDICTED BY IDOCK:   -4.70 KCAL/MOL
REMARK 923 INTER-LIGAND FREE ENERGY PREDICTED BY IDOCK:   -4.44 KCAL/MOL
REMARK 924 INTRA-LIGAND FREE ENERGY PREDICTED BY IDOCK:   -0.26 KCAL/MOL
REMARK 927      BINDING AFFINITY PREDICTED BY RF-SCORE:    0.00 PKD
ROOT
HETATM    1  S   UNL     1     -11.382  13.729  66.401  1.00  0.00    -0.328 S  
HETATM    2  C   UNL     1      -9.890  14.047  67.117  1.00  0.00    -0.240 C  
ENDROOT
BRANCH   2   3
HETATM    3  S   UNL     1      -8.750  12.734  67.496  1.00  0.00    -0.197 SA 
BRANCH   3   4
HETATM    4  S   UNL     1     -10.011  11.311  68.331  1.00  0.00    -0.202 SA 
BRANCH   4   5
HETATM    5  C   UNL     1      -8.916   9.977  68.761  1.00  0.00    -0.145 C  
HETATM    6  S   UNL     1      -7.425  10.364  69.457  1.00  0.00    -0.149 S  
BRANCH   5   7
HETATM    7  N   UNL     1      -9.424   8.665  68.610  1.00  0.00    -0.142 N  
HETATM    8  C   UNL     1     -10.945   6.951  69.597  1.00  0.00    -0.298 C  
HETATM    9  C   UNL     1      -9.684   7.796  69.775  1.00  0.00    -0.176 C  
HETATM   10  C   UNL     1     -10.913   6.159  68.297  1.00  0.00    -0.397 C  
HETATM   11  C   UNL     1     -10.654   7.090  67.119  1.00  0.00    -0.412 C  
HETATM   12  C   UNL     1      -9.394   7.929  67.333  1.00  0.00    -0.141 C  
ENDBRANCH   5   7
ENDBRANCH   4   5
ENDBRANCH   3   4
ENDBRANCH   2   3
BRANCH   2  13
HETATM   13  N   UNL     1      -9.448  15.328  67.463  1.00  0.00    -0.201 N  
HETATM   14  C   UNL     1     -10.322  17.538  66.736  1.00  0.00    -0.314 C  
HETATM   15  C   UNL     1      -8.055  15.753  67.289  1.00  0.00    -0.188 C  
HETATM   16  C   UNL     1     -10.382  16.421  67.774  1.00  0.00    -0.287 C  
HETATM   17  C   UNL     1      -7.958  16.852  66.225  1.00  0.00    -0.350 C  
HETATM   18  C   UNL     1      -8.887  18.024  66.541  1.00  0.00    -0.276 C  
ENDBRANCH   2  13
TORSDOF 5
ENDMDL
MODEL      186
REMARK 921   NORMALIZED FREE ENERGY PREDICTED BY IDOCK:   -3.25 KCAL/MOL
REMARK 922        TOTAL FREE ENERGY PREDICTED BY IDOCK:   -4.70 KCAL/MOL
REMARK 923 INTER-LIGAND FREE ENERGY PREDICTED BY IDOCK:   -4.19 KCAL/MOL
REMARK 924 INTRA-LIGAND FREE ENERGY PREDICTED BY IDOCK:   -0.50 KCAL/MOL
REMARK 927      BINDING AFFINITY PREDICTED BY RF-SCORE:    0.00 PKD
ROOT
HETATM    1  S   UNL     1      -7.004   9.406  67.216  1.00  0.00    -0.086 S  
HETATM    2  C   UNL     1      -8.614   9.628  66.774  1.00  0.00    -0.134 C  
ENDROOT
BRANCH   2   3
HETATM    3  S   UNL     1      -9.838   8.373  67.083  1.00  0.00    -0.241 SA 
BRANCH   3   4
HETATM    4  S   UNL     1      -8.663   6.798  67.754  1.00  0.00    -0.119 SA 
BRANCH   4   5
HETATM    5  C   UNL     1      -9.659   6.035  69.015  1.00  0.00    -0.131 C  
HETATM    6  S   UNL     1      -9.848   4.356  68.971  1.00  0.00    -0.040 S  
BRANCH   5   7
HETATM    7  N   UNL     1     -10.124   6.877  70.052  1.00  0.00    -0.180 N  
HETATM    8  C   UNL     1      -9.800   9.081  71.176  1.00  0.00    -0.371 C  
HETATM    9  C   UNL     1      -9.200   7.715  70.841  1.00  0.00    -0.149 C  
HETATM   10  C   UNL     1     -11.159   8.948  71.850  1.00  0.00    -0.442 C  
HETATM   11  C   UNL     1     -12.086   8.087  71.002  1.00  0.00    -0.232 C  
HETATM   12  C   UNL     1     -11.453   6.734  70.675  1.00  0.00    -0.351 C  
ENDBRANCH   5   7
ENDBRANCH   4   5
ENDBRANCH   3   4
ENDBRANCH   2   3
BRANCH   2  13
HETATM   13  N   UNL     1      -9.099  10.779  66.144  1.00  0.00    -0.169 N  
HETATM   14  C   UNL     1     -11.293  11.912  66.422  1.00  0.00    -0.400 C  
HETATM   15  C   UNL     1      -9.143  10.918  64.685  1.00  0.00    -0.170 C  
HETATM   16  C   UNL     1      -9.839  11.818  66.876  1.00  0.00    -0.203 C  
HETATM   17  C   UNL     1     -10.594  10.980  64.195  1.00  0.00    -0.412 C  
HETATM   18  C   UNL     1     -11.382  12.079  64.907  1.00  0.00    -0.366 C  
ENDBRANCH   2  13
TORSDOF 5
ENDMDL
MODEL      187
REMARK 921   NORMALIZED FREE ENERGY PREDICTED BY IDOCK:   -3.25 KCAL/MOL
REMARK 922        TOTAL FREE ENERGY PREDICTED BY IDOCK:   -4.69 KCAL/MOL
REMARK 923 INTER-LIGAND FREE ENERGY PREDICTED BY IDOCK:   -4.30 KCAL/MOL
REMARK 924 INTRA-LIGAND FREE ENERGY PREDICTED BY IDOCK:   -0.39 KCAL/MOL
REMARK 927      BINDING AFFINITY PREDICTED BY RF-SCORE:    0.00 PKD
ROOT
HETATM    1  S   UNL     1      -9.112   9.457  65.658  1.00  0.00    -0.223 S  
HETATM    2  C   UNL     1      -9.917   9.672  67.122  1.00  0.00    -0.194 C  
ENDROOT
BRANCH   2   3
HETATM    3  S   UNL     1     -11.152  10.938  67.319  1.00  0.00    -0.226 SA 
BRANCH   3   4
HETATM    4  S   UNL     1     -10.094  12.401  68.344  1.00  0.00    -0.192 SA 
BRANCH   4   5
HETATM    5  C   UNL     1      -9.020  13.092  67.105  1.00  0.00    -0.228 C  
HETATM    6  S   UNL     1      -7.462  12.453  66.956  1.00  0.00     0.041 S  
BRANCH   5   7
HETATM    7  N   UNL     1      -9.590  14.050  66.233  1.00  0.00    -0.284 N  
HETATM    8  C   UNL     1     -11.525  14.531  64.732  1.00  0.00    -0.408 C  
HETATM    9  C   UNL     1     -10.306  13.650  65.005  1.00  0.00    -0.374 C  
HETATM   10  C   UNL     1     -11.160  16.009  64.719  1.00  0.00    -0.378 C  
HETATM   11  C   UNL     1     -10.434  16.385  66.005  1.00  0.00    -0.333 C  
HETATM   12  C   UNL     1      -9.228  15.479  66.255  1.00  0.00    -0.329 C  
ENDBRANCH   5   7
ENDBRANCH   4   5
ENDBRANCH   3   4
ENDBRANCH   2   3
BRANCH   2  13
HETATM   13  N   UNL     1      -9.682   8.898  68.264  1.00  0.00    -0.154 N  
HETATM   14  C   UNL     1     -11.032   8.720  70.343  1.00  0.00    -0.262 C  
HETATM   15  C   UNL     1      -8.424   8.964  69.013  1.00  0.00    -0.133 C  
HETATM   16  C   UNL     1     -10.759   8.165  68.947  1.00  0.00    -0.064 C  
HETATM   17  C   UNL     1      -8.660   9.551  70.409  1.00  0.00    -0.246 C  
HETATM   18  C   UNL     1      -9.746   8.786  71.164  1.00  0.00    -0.315 C  
ENDBRANCH   2  13
TORSDOF 5
ENDMDL
MODEL      188
REMARK 921   NORMALIZED FREE ENERGY PREDICTED BY IDOCK:   -3.25 KCAL/MOL
REMARK 922        TOTAL FREE ENERGY PREDICTED BY IDOCK:   -4.69 KCAL/MOL
REMARK 923 INTER-LIGAND FREE ENERGY PREDICTED BY IDOCK:   -4.30 KCAL/MOL
REMARK 924 INTRA-LIGAND FREE ENERGY PREDICTED BY IDOCK:   -0.39 KCAL/MOL
REMARK 927      BINDING AFFINITY PREDICTED BY RF-SCORE:    0.00 PKD
ROOT
HETATM    1  S   UNL     1      -6.509   6.494  73.417  1.00  0.00    -0.065 S  
HETATM    2  C   UNL     1      -8.176   6.469  73.660  1.00  0.00    -0.114 C  
ENDROOT
BRANCH   2   3
HETATM    3  S   UNL     1      -9.158   7.941  73.468  1.00  0.00    -0.265 SA 
BRANCH   3   4
HETATM    4  S   UNL     1      -8.649   8.538  71.546  1.00  0.00    -0.194 SA 
BRANCH   4   5
HETATM    5  C   UNL     1     -10.101   8.165  70.589  1.00  0.00    -0.194 C  
HETATM    6  S   UNL     1     -10.124   6.722  69.708  1.00  0.00    -0.187 S  
BRANCH   5   7
HETATM    7  N   UNL     1     -11.200   9.045  70.733  1.00  0.00    -0.263 N  
HETATM    8  C   UNL     1     -12.913   9.908  72.329  1.00  0.00    -0.387 C  
HETATM    9  C   UNL     1     -12.364   8.698  71.573  1.00  0.00    -0.324 C  
HETATM   10  C   UNL     1     -13.217  11.068  71.390  1.00  0.00    -0.326 C  
HETATM   11  C   UNL     1     -11.991  11.402  70.550  1.00  0.00    -0.451 C  
HETATM   12  C   UNL     1     -11.460  10.170  69.817  1.00  0.00    -0.228 C  
ENDBRANCH   5   7
ENDBRANCH   4   5
ENDBRANCH   3   4
ENDBRANCH   2   3
BRANCH   2  13
HETATM   13  N   UNL     1      -8.895   5.326  74.024  1.00  0.00    -0.117 N  
HETATM   14  C   UNL     1      -9.399   3.297  72.681  1.00  0.00    -0.147 C  
HETATM   15  C   UNL     1     -10.261   5.391  74.553  1.00  0.00    -0.269 C  
HETATM   16  C   UNL     1      -8.446   3.972  73.663  1.00  0.00    -0.092 C  
HETATM   17  C   UNL     1     -11.248   4.750  73.570  1.00  0.00    -0.392 C  
HETATM   18  C   UNL     1     -10.833   3.325  73.205  1.00  0.00    -0.283 C  
ENDBRANCH   2  13
TORSDOF 5
ENDMDL
MODEL      189
REMARK 921   NORMALIZED FREE ENERGY PREDICTED BY IDOCK:   -3.25 KCAL/MOL
REMARK 922        TOTAL FREE ENERGY PREDICTED BY IDOCK:   -4.69 KCAL/MOL
REMARK 923 INTER-LIGAND FREE ENERGY PREDICTED BY IDOCK:   -4.26 KCAL/MOL
REMARK 924 INTRA-LIGAND FREE ENERGY PREDICTED BY IDOCK:   -0.43 KCAL/MOL
REMARK 927      BINDING AFFINITY PREDICTED BY RF-SCORE:    0.00 PKD
ROOT
HETATM    1  S   UNL     1      -7.048   7.540  69.448  1.00  0.00    -0.075 S  
HETATM    2  C   UNL     1      -8.152   7.597  68.177  1.00  0.00    -0.124 C  
ENDROOT
BRANCH   2   3
HETATM    3  S   UNL     1      -9.170   9.031  67.903  1.00  0.00    -0.141 SA 
BRANCH   3   4
HETATM    4  S   UNL     1      -9.284   9.836  69.813  1.00  0.00    -0.226 SA 
BRANCH   4   5
HETATM    5  C   UNL     1     -11.008  10.235  70.001  1.00  0.00    -0.311 C  
HETATM    6  S   UNL     1     -11.604  11.591  69.188  1.00  0.00    -0.346 S  
BRANCH   5   7
HETATM    7  N   UNL     1     -11.798   9.308  70.721  1.00  0.00    -0.270 N  
HETATM    8  C   UNL     1     -14.094   8.832  71.576  1.00  0.00    -0.383 C  
HETATM    9  C   UNL     1     -12.873   9.751  71.631  1.00  0.00    -0.421 C  
HETATM   10  C   UNL     1     -13.714   7.377  71.814  1.00  0.00    -0.417 C  
HETATM   11  C   UNL     1     -12.611   6.955  70.851  1.00  0.00    -0.257 C  
HETATM   12  C   UNL     1     -11.411   7.900  70.922  1.00  0.00    -0.281 C  
ENDBRANCH   5   7
ENDBRANCH   4   5
ENDBRANCH   3   4
ENDBRANCH   2   3
BRANCH   2  13
HETATM   13  N   UNL     1      -8.352   6.552  67.269  1.00  0.00    -0.113 N  
HETATM   14  C   UNL     1     -10.460   5.383  66.663  1.00  0.00    -0.356 C  
HETATM   15  C   UNL     1      -7.603   5.294  67.340  1.00  0.00    -0.088 C  
HETATM   16  C   UNL     1      -9.499   6.526  66.347  1.00  0.00    -0.126 C  
HETATM   17  C   UNL     1      -8.538   4.131  67.691  1.00  0.00    -0.108 C  
HETATM   18  C   UNL     1      -9.720   4.049  66.726  1.00  0.00    -0.216 C  
ENDBRANCH   2  13
TORSDOF 5
ENDMDL
MODEL      190
REMARK 921   NORMALIZED FREE ENERGY PREDICTED BY IDOCK:   -3.25 KCAL/MOL
REMARK 922        TOTAL FREE ENERGY PREDICTED BY IDOCK:   -4.69 KCAL/MOL
REMARK 923 INTER-LIGAND FREE ENERGY PREDICTED BY IDOCK:   -3.99 KCAL/MOL
REMARK 924 INTRA-LIGAND FREE ENERGY PREDICTED BY IDOCK:   -0.71 KCAL/MOL
REMARK 927      BINDING AFFINITY PREDICTED BY RF-SCORE:    0.00 PKD
ROOT
HETATM    1  S   UNL     1      -6.597   7.022  68.260  1.00  0.00    -0.061 S  
HETATM    2  C   UNL     1      -8.053   6.732  69.057  1.00  0.00    -0.117 C  
ENDROOT
BRANCH   2   3
HETATM    3  S   UNL     1      -8.391   7.452  70.650  1.00  0.00    -0.129 SA 
BRANCH   3   4
HETATM    4  S   UNL     1      -8.244   9.481  70.233  1.00  0.00    -0.185 SA 
BRANCH   4   5
HETATM    5  C   UNL     1      -9.898   9.936  69.760  1.00  0.00    -0.236 C  
HETATM    6  S   UNL     1     -11.129   9.765  70.905  1.00  0.00    -0.361 S  
BRANCH   5   7
HETATM    7  N   UNL     1     -10.051  10.537  68.488  1.00  0.00    -0.166 N  
HETATM    8  C   UNL     1     -10.228  10.088  66.039  1.00  0.00    -0.277 C  
HETATM    9  C   UNL     1      -9.359  10.010  67.294  1.00  0.00    -0.148 C  
HETATM   10  C   UNL     1     -10.759  11.497  65.810  1.00  0.00    -0.325 C  
HETATM   11  C   UNL     1     -11.474  12.002  67.058  1.00  0.00    -0.402 C  
HETATM   12  C   UNL     1     -10.583  11.898  68.296  1.00  0.00    -0.213 C  
ENDBRANCH   5   7
ENDBRANCH   4   5
ENDBRANCH   3   4
ENDBRANCH   2   3
BRANCH   2  13
HETATM   13  N   UNL     1      -9.075   5.925  68.548  1.00  0.00    -0.112 N  
HETATM   14  C   UNL     1      -9.196   4.739  66.367  1.00  0.00    -0.135 C  
HETATM   15  C   UNL     1     -10.463   6.385  68.444  1.00  0.00    -0.222 C  
HETATM   16  C   UNL     1      -8.797   4.666  67.839  1.00  0.00    -0.106 C  
HETATM   17  C   UNL     1     -10.882   6.502  66.974  1.00  0.00    -0.465 C  
HETATM   18  C   UNL     1     -10.645   5.195  66.217  1.00  0.00    -0.325 C  
ENDBRANCH   2  13
TORSDOF 5
ENDMDL
MODEL      191
REMARK 921   NORMALIZED FREE ENERGY PREDICTED BY IDOCK:   -3.24 KCAL/MOL
REMARK 922        TOTAL FREE ENERGY PREDICTED BY IDOCK:   -4.68 KCAL/MOL
REMARK 923 INTER-LIGAND FREE ENERGY PREDICTED BY IDOCK:   -4.41 KCAL/MOL
REMARK 924 INTRA-LIGAND FREE ENERGY PREDICTED BY IDOCK:   -0.27 KCAL/MOL
REMARK 927      BINDING AFFINITY PREDICTED BY RF-SCORE:    0.00 PKD
ROOT
HETATM    1  S   UNL     1      -6.767   9.266  67.048  1.00  0.00    -0.076 S  
HETATM    2  C   UNL     1      -8.414   9.613  66.973  1.00  0.00    -0.124 C  
ENDROOT
BRANCH   2   3
HETATM    3  S   UNL     1      -9.034  10.919  65.935  1.00  0.00    -0.195 SA 
BRANCH   3   4
HETATM    4  S   UNL     1      -8.849  12.569  67.182  1.00  0.00    -0.207 SA 
BRANCH   4   5
HETATM    5  C   UNL     1     -10.129  13.670  66.618  1.00  0.00    -0.277 C  
HETATM    6  S   UNL     1     -11.416  13.012  65.742  1.00  0.00    -0.349 S  
BRANCH   5   7
HETATM    7  N   UNL     1     -10.048  15.013  67.056  1.00  0.00    -0.241 N  
HETATM    8  C   UNL     1     -10.128  17.396  66.318  1.00  0.00    -0.328 C  
HETATM    9  C   UNL     1      -9.397  16.056  66.238  1.00  0.00    -0.322 C  
HETATM   10  C   UNL     1     -10.321  17.846  67.761  1.00  0.00    -0.393 C  
HETATM   11  C   UNL     1     -11.004  16.750  68.569  1.00  0.00    -0.312 C  
HETATM   12  C   UNL     1     -10.256  15.421  68.457  1.00  0.00    -0.219 C  
ENDBRANCH   5   7
ENDBRANCH   4   5
ENDBRANCH   3   4
ENDBRANCH   2   3
BRANCH   2  13
HETATM   13  N   UNL     1      -9.391   8.926  67.701  1.00  0.00    -0.136 N  
HETATM   14  C   UNL     1      -9.173   6.842  69.038  1.00  0.00    -0.137 C  
HETATM   15  C   UNL     1     -10.652   8.482  67.100  1.00  0.00    -0.243 C  
HETATM   16  C   UNL     1      -9.123   8.367  69.035  1.00  0.00    -0.147 C  
HETATM   17  C   UNL     1     -10.717   6.950  67.056  1.00  0.00    -0.432 C  
HETATM   18  C   UNL     1     -10.484   6.339  68.437  1.00  0.00    -0.273 C  
ENDBRANCH   2  13
TORSDOF 5
ENDMDL
MODEL      192
REMARK 921   NORMALIZED FREE ENERGY PREDICTED BY IDOCK:   -3.22 KCAL/MOL
REMARK 922        TOTAL FREE ENERGY PREDICTED BY IDOCK:   -4.65 KCAL/MOL
REMARK 923 INTER-LIGAND FREE ENERGY PREDICTED BY IDOCK:   -4.12 KCAL/MOL
REMARK 924 INTRA-LIGAND FREE ENERGY PREDICTED BY IDOCK:   -0.53 KCAL/MOL
REMARK 927      BINDING AFFINITY PREDICTED BY RF-SCORE:    0.00 PKD
ROOT
HETATM    1  S   UNL     1     -10.082   9.390  70.810  1.00  0.00    -0.289 S  
HETATM    2  C   UNL     1      -9.754  10.458  69.549  1.00  0.00    -0.170 C  
ENDROOT
BRANCH   2   3
HETATM    3  S   UNL     1      -8.189  10.433  68.702  1.00  0.00    -0.129 SA 
BRANCH   3   4
HETATM    4  S   UNL     1      -8.480   8.906  67.326  1.00  0.00    -0.114 SA 
BRANCH   4   5
HETATM    5  C   UNL     1      -7.846   9.580  65.806  1.00  0.00    -0.104 C  
HETATM    6  S   UNL     1      -6.182   9.479  65.525  1.00  0.00    -0.069 S  
BRANCH   5   7
HETATM    7  N   UNL     1      -8.801  10.043  64.870  1.00  0.00    -0.176 N  
HETATM    8  C   UNL     1     -10.798  11.507  64.563  1.00  0.00    -0.390 C  
HETATM    9  C   UNL     1     -10.208  10.276  65.251  1.00  0.00    -0.238 C  
HETATM   10  C   UNL     1     -10.623  11.446  63.052  1.00  0.00    -0.164 C  
HETATM   11  C   UNL     1      -9.159  11.216  62.699  1.00  0.00    -0.366 C  
HETATM   12  C   UNL     1      -8.596   9.985  63.411  1.00  0.00    -0.204 C  
ENDBRANCH   5   7
ENDBRANCH   4   5
ENDBRANCH   3   4
ENDBRANCH   2   3
BRANCH   2  13
HETATM   13  N   UNL     1     -10.658  11.421  69.087  1.00  0.00    -0.194 N  
HETATM   14  C   UNL     1     -10.328  13.867  68.794  1.00  0.00    -0.210 C  
HETATM   15  C   UNL     1     -11.982  11.608  69.686  1.00  0.00    -0.324 C  
HETATM   16  C   UNL     1     -10.257  12.484  68.152  1.00  0.00    -0.231 C  
HETATM   17  C   UNL     1     -12.073  12.978  70.370  1.00  0.00    -0.391 C  
HETATM   18  C   UNL     1     -11.703  14.110  69.413  1.00  0.00    -0.361 C  
ENDBRANCH   2  13
TORSDOF 5
ENDMDL
MODEL      193
REMARK 921   NORMALIZED FREE ENERGY PREDICTED BY IDOCK:   -3.21 KCAL/MOL
REMARK 922        TOTAL FREE ENERGY PREDICTED BY IDOCK:   -4.64 KCAL/MOL
REMARK 923 INTER-LIGAND FREE ENERGY PREDICTED BY IDOCK:   -4.30 KCAL/MOL
REMARK 924 INTRA-LIGAND FREE ENERGY PREDICTED BY IDOCK:   -0.34 KCAL/MOL
REMARK 927      BINDING AFFINITY PREDICTED BY RF-SCORE:    0.00 PKD
ROOT
HETATM    1  S   UNL     1     -10.352   9.016  67.736  1.00  0.00    -0.246 S  
HETATM    2  C   UNL     1      -8.939   9.263  68.620  1.00  0.00    -0.132 C  
ENDROOT
BRANCH   2   3
HETATM    3  S   UNL     1      -8.049  10.802  68.525  1.00  0.00    -0.141 SA 
BRANCH   3   4
HETATM    4  S   UNL     1      -8.260  11.286  66.517  1.00  0.00    -0.146 SA 
BRANCH   4   5
HETATM    5  C   UNL     1      -9.252  12.763  66.540  1.00  0.00    -0.189 C  
HETATM    6  S   UNL     1      -9.027  13.852  67.813  1.00  0.00    -0.200 S  
BRANCH   5   7
HETATM    7  N   UNL     1     -10.079  12.990  65.414  1.00  0.00    -0.279 N  
HETATM    8  C   UNL     1     -11.715  11.937  63.852  1.00  0.00    -0.509 C  
HETATM    9  C   UNL     1     -10.280  11.955  64.381  1.00  0.00    -0.297 C  
HETATM   10  C   UNL     1     -12.153  13.313  63.368  1.00  0.00    -0.508 C  
HETATM   11  C   UNL     1     -11.940  14.350  64.464  1.00  0.00    -0.487 C  
HETATM   12  C   UNL     1     -10.500  14.334  64.979  1.00  0.00    -0.435 C  
ENDBRANCH   5   7
ENDBRANCH   4   5
ENDBRANCH   3   4
ENDBRANCH   2   3
BRANCH   2  13
HETATM   13  N   UNL     1      -8.371   8.307  69.467  1.00  0.00    -0.119 N  
HETATM   14  C   UNL     1      -9.467   6.885  71.185  1.00  0.00    -0.166 C  
HETATM   15  C   UNL     1      -7.241   8.611  70.351  1.00  0.00    -0.045 C  
HETATM   16  C   UNL     1      -9.019   7.013  69.732  1.00  0.00    -0.141 C  
HETATM   17  C   UNL     1      -7.671   8.524  71.821  1.00  0.00    -0.154 C  
HETATM   18  C   UNL     1      -8.312   7.174  72.140  1.00  0.00    -0.109 C  
ENDBRANCH   2  13
TORSDOF 5
ENDMDL
MODEL      194
REMARK 921   NORMALIZED FREE ENERGY PREDICTED BY IDOCK:   -3.20 KCAL/MOL
REMARK 922        TOTAL FREE ENERGY PREDICTED BY IDOCK:   -4.63 KCAL/MOL
REMARK 923 INTER-LIGAND FREE ENERGY PREDICTED BY IDOCK:   -4.14 KCAL/MOL
REMARK 924 INTRA-LIGAND FREE ENERGY PREDICTED BY IDOCK:   -0.49 KCAL/MOL
REMARK 927      BINDING AFFINITY PREDICTED BY RF-SCORE:    0.00 PKD
ROOT
HETATM    1  S   UNL     1      -7.486   8.521  69.338  1.00  0.00    -0.090 S  
HETATM    2  C   UNL     1      -9.165   8.490  69.475  1.00  0.00    -0.150 C  
ENDROOT
BRANCH   2   3
HETATM    3  S   UNL     1     -10.207   9.142  68.188  1.00  0.00    -0.216 SA 
BRANCH   3   4
HETATM    4  S   UNL     1     -10.386  11.130  68.760  1.00  0.00    -0.205 SA 
BRANCH   4   5
HETATM    5  C   UNL     1      -9.179  11.969  67.757  1.00  0.00    -0.190 C  
HETATM    6  S   UNL     1      -8.494  11.123  66.463  1.00  0.00    -0.166 S  
BRANCH   5   7
HETATM    7  N   UNL     1      -8.966  13.340  68.033  1.00  0.00    -0.185 N  
HETATM    8  C   UNL     1      -9.786  15.296  69.348  1.00  0.00    -0.248 C  
HETATM    9  C   UNL     1     -10.093  14.267  68.260  1.00  0.00    -0.238 C  
HETATM   10  C   UNL     1      -8.487  16.040  69.069  1.00  0.00    -0.244 C  
HETATM   11  C   UNL     1      -7.348  15.052  68.851  1.00  0.00    -0.139 C  
HETATM   12  C   UNL     1      -7.691  14.030  67.767  1.00  0.00    -0.172 C  
ENDBRANCH   5   7
ENDBRANCH   4   5
ENDBRANCH   3   4
ENDBRANCH   2   3
BRANCH   2  13
HETATM   13  N   UNL     1      -9.849   7.970  70.578  1.00  0.00    -0.182 N  
HETATM   14  C   UNL     1     -11.943   6.632  70.636  1.00  0.00    -0.404 C  
HETATM   15  C   UNL     1     -10.279   8.806  71.703  1.00  0.00    -0.324 C  
HETATM   16  C   UNL     1     -10.418   6.613  70.577  1.00  0.00    -0.203 C  
HETATM   17  C   UNL     1     -11.809   8.873  71.768  1.00  0.00    -0.429 C  
HETATM   18  C   UNL     1     -12.432   7.478  71.810  1.00  0.00    -0.360 C  
ENDBRANCH   2  13
TORSDOF 5
ENDMDL
MODEL      195
REMARK 921   NORMALIZED FREE ENERGY PREDICTED BY IDOCK:   -3.20 KCAL/MOL
REMARK 922        TOTAL FREE ENERGY PREDICTED BY IDOCK:   -4.63 KCAL/MOL
REMARK 923 INTER-LIGAND FREE ENERGY PREDICTED BY IDOCK:   -3.81 KCAL/MOL
REMARK 924 INTRA-LIGAND FREE ENERGY PREDICTED BY IDOCK:   -0.81 KCAL/MOL
REMARK 927      BINDING AFFINITY PREDICTED BY RF-SCORE:    0.00 PKD
ROOT
HETATM    1  S   UNL     1      -7.919   7.032  72.449  1.00  0.00    -0.094 S  
HETATM    2  C   UNL     1      -7.682   6.710  70.812  1.00  0.00    -0.097 C  
ENDROOT
BRANCH   2   3
HETATM    3  S   UNL     1      -8.175   5.156  70.098  1.00  0.00    -0.087 SA 
BRANCH   3   4
HETATM    4  S   UNL     1     -10.205   5.119  70.532  1.00  0.00    -0.244 SA 
BRANCH   4   5
HETATM    5  C   UNL     1     -10.852   6.519  69.643  1.00  0.00    -0.304 C  
HETATM    6  S   UNL     1     -10.906   6.434  67.956  1.00  0.00    -0.316 S  
BRANCH   5   7
HETATM    7  N   UNL     1     -11.402   7.565  70.421  1.00  0.00    -0.263 N  
HETATM    8  C   UNL     1     -11.882  10.013  70.480  1.00  0.00    -0.387 C  
HETATM    9  C   UNL     1     -10.815   8.920  70.421  1.00  0.00    -0.236 C  
HETATM   10  C   UNL     1     -12.834   9.808  71.651  1.00  0.00    -0.519 C  
HETATM   11  C   UNL     1     -13.426   8.405  71.610  1.00  0.00    -0.363 C  
HETATM   12  C   UNL     1     -12.335   7.336  71.539  1.00  0.00    -0.362 C  
ENDBRANCH   5   7
ENDBRANCH   4   5
ENDBRANCH   3   4
ENDBRANCH   2   3
BRANCH   2  13
HETATM   13  N   UNL     1      -7.093   7.609  69.917  1.00  0.00    -0.062 N  
HETATM   14  C   UNL     1      -7.177  10.093  69.907  1.00  0.00    -0.155 C  
HETATM   15  C   UNL     1      -7.312   7.534  68.469  1.00  0.00    -0.099 C  
HETATM   16  C   UNL     1      -6.432   8.843  70.369  1.00  0.00    -0.043 C  
HETATM   17  C   UNL     1      -8.090   8.762  67.980  1.00  0.00    -0.107 C  
HETATM   18  C   UNL     1      -7.407  10.063  68.397  1.00  0.00    -0.077 C  
ENDBRANCH   2  13
TORSDOF 5
ENDMDL
MODEL      196
REMARK 921   NORMALIZED FREE ENERGY PREDICTED BY IDOCK:   -3.19 KCAL/MOL
REMARK 922        TOTAL FREE ENERGY PREDICTED BY IDOCK:   -4.62 KCAL/MOL
REMARK 923 INTER-LIGAND FREE ENERGY PREDICTED BY IDOCK:   -4.47 KCAL/MOL
REMARK 924 INTRA-LIGAND FREE ENERGY PREDICTED BY IDOCK:   -0.14 KCAL/MOL
REMARK 927      BINDING AFFINITY PREDICTED BY RF-SCORE:    0.00 PKD
ROOT
HETATM    1  S   UNL     1     -11.179  15.630  71.092  1.00  0.00    -0.309 S  
HETATM    2  C   UNL     1     -11.126  14.984  69.537  1.00  0.00    -0.277 C  
ENDROOT
BRANCH   2   3
HETATM    3  S   UNL     1     -10.356  15.868  68.197  1.00  0.00    -0.263 SA 
BRANCH   3   4
HETATM    4  S   UNL     1      -8.439  15.072  68.216  1.00  0.00    -0.154 SA 
BRANCH   4   5
HETATM    5  C   UNL     1      -7.398  16.486  68.506  1.00  0.00    -0.186 C  
HETATM    6  S   UNL     1      -6.156  16.339  69.643  1.00  0.00    -0.194 S  
BRANCH   5   7
HETATM    7  N   UNL     1      -7.600  17.606  67.666  1.00  0.00    -0.201 N  
HETATM    8  C   UNL     1      -7.580  20.100  67.569  1.00  0.00    -0.333 C  
HETATM    9  C   UNL     1      -8.221  18.848  68.168  1.00  0.00    -0.311 C  
HETATM   10  C   UNL     1      -7.565  20.050  66.047  1.00  0.00    -0.326 C  
HETATM   11  C   UNL     1      -6.908  18.761  65.568  1.00  0.00    -0.251 C  
HETATM   12  C   UNL     1      -7.563  17.530  66.194  1.00  0.00    -0.285 C  
ENDBRANCH   5   7
ENDBRANCH   4   5
ENDBRANCH   3   4
ENDBRANCH   2   3
BRANCH   2  13
HETATM   13  N   UNL     1     -11.668  13.743  69.188  1.00  0.00    -0.310 N  
HETATM   14  C   UNL     1     -12.291  11.836  70.655  1.00  0.00    -0.421 C  
HETATM   15  C   UNL     1     -11.039  12.859  68.202  1.00  0.00    -0.253 C  
HETATM   16  C   UNL     1     -12.750  13.116  69.964  1.00  0.00     0.204 C  
HETATM   17  C   UNL     1     -10.535  11.576  68.875  1.00  0.00    -0.212 C  
HETATM   18  C   UNL     1     -11.647  10.877  69.656  1.00  0.00    -0.394 C  
ENDBRANCH   2  13
TORSDOF 5
ENDMDL
MODEL      197
REMARK 921   NORMALIZED FREE ENERGY PREDICTED BY IDOCK:   -3.18 KCAL/MOL
REMARK 922        TOTAL FREE ENERGY PREDICTED BY IDOCK:   -4.61 KCAL/MOL
REMARK 923 INTER-LIGAND FREE ENERGY PREDICTED BY IDOCK:   -4.53 KCAL/MOL
REMARK 924 INTRA-LIGAND FREE ENERGY PREDICTED BY IDOCK:   -0.08 KCAL/MOL
REMARK 927      BINDING AFFINITY PREDICTED BY RF-SCORE:    0.00 PKD
ROOT
HETATM    1  S   UNL     1      -6.323  12.244  68.668  1.00  0.00    -0.078 S  
HETATM    2  C   UNL     1      -7.858  11.568  68.515  1.00  0.00    -0.140 C  
ENDROOT
BRANCH   2   3
HETATM    3  S   UNL     1      -9.237  12.534  67.934  1.00  0.00    -0.206 SA 
BRANCH   3   4
HETATM    4  S   UNL     1      -8.624  14.462  68.399  1.00  0.00    -0.177 SA 
BRANCH   4   5
HETATM    5  C   UNL     1      -9.217  15.435  67.033  1.00  0.00    -0.225 C  
HETATM    6  S   UNL     1      -8.177  16.588  66.366  1.00  0.00    -0.330 S  
BRANCH   5   7
HETATM    7  N   UNL     1     -10.485  15.086  66.508  1.00  0.00    -0.278 N  
HETATM    8  C   UNL     1     -11.685  14.261  64.482  1.00  0.00    -0.431 C  
HETATM    9  C   UNL     1     -10.850  15.378  65.108  1.00  0.00    -0.431 C  
HETATM   10  C   UNL     1     -12.907  13.931  65.329  1.00  0.00    -0.437 C  
HETATM   11  C   UNL     1     -12.490  13.626  66.762  1.00  0.00    -0.241 C  
HETATM   12  C   UNL     1     -11.646  14.756  67.354  1.00  0.00    -0.360 C  
ENDBRANCH   5   7
ENDBRANCH   4   5
ENDBRANCH   3   4
ENDBRANCH   2   3
BRANCH   2  13
HETATM   13  N   UNL     1      -8.161  10.239  68.825  1.00  0.00    -0.111 N  
HETATM   14  C   UNL     1     -10.212   8.935  68.304  1.00  0.00    -0.239 C  
HETATM   15  C   UNL     1      -8.104   9.718  70.195  1.00  0.00    -0.182 C  
HETATM   16  C   UNL     1      -8.809   9.338  67.859  1.00  0.00    -0.124 C  
HETATM   17  C   UNL     1      -9.507   9.337  70.683  1.00  0.00    -0.333 C  
HETATM   18  C   UNL     1     -10.192   8.367  69.722  1.00  0.00    -0.207 C  
ENDBRANCH   2  13
TORSDOF 5
ENDMDL
MODEL      198
REMARK 921   NORMALIZED FREE ENERGY PREDICTED BY IDOCK:   -3.18 KCAL/MOL
REMARK 922        TOTAL FREE ENERGY PREDICTED BY IDOCK:   -4.61 KCAL/MOL
REMARK 923 INTER-LIGAND FREE ENERGY PREDICTED BY IDOCK:   -4.31 KCAL/MOL
REMARK 924 INTRA-LIGAND FREE ENERGY PREDICTED BY IDOCK:   -0.30 KCAL/MOL
REMARK 927      BINDING AFFINITY PREDICTED BY RF-SCORE:    0.00 PKD
ROOT
HETATM    1  S   UNL     1     -11.814  11.352  69.194  1.00  0.00    -0.343 S  
HETATM    2  C   UNL     1     -10.391  11.611  68.330  1.00  0.00    -0.200 C  
ENDROOT
BRANCH   2   3
HETATM    3  S   UNL     1      -9.238  10.288  68.034  1.00  0.00    -0.136 SA 
BRANCH   3   4
HETATM    4  S   UNL     1     -10.480   8.813  67.265  1.00  0.00    -0.244 SA 
BRANCH   4   5
HETATM    5  C   UNL     1      -9.550   7.314  67.497  1.00  0.00    -0.141 C  
HETATM    6  S   UNL     1      -8.249   7.016  66.460  1.00  0.00    -0.118 S  
BRANCH   5   7
HETATM    7  N   UNL     1      -9.884   6.528  68.626  1.00  0.00    -0.137 N  
HETATM    8  C   UNL     1      -9.036   5.625  70.792  1.00  0.00    -0.164 C  
HETATM    9  C   UNL     1      -8.895   5.640  69.270  1.00  0.00    -0.111 C  
HETATM   10  C   UNL     1     -10.459   5.295  71.222  1.00  0.00    -0.274 C  
HETATM   11  C   UNL     1     -11.447   6.237  70.546  1.00  0.00    -0.407 C  
HETATM   12  C   UNL     1     -11.272   6.239  69.027  1.00  0.00    -0.343 C  
ENDBRANCH   5   7
ENDBRANCH   4   5
ENDBRANCH   3   4
ENDBRANCH   2   3
BRANCH   2  13
HETATM   13  N   UNL     1     -10.015  12.849  67.799  1.00  0.00    -0.224 N  
HETATM   14  C   UNL     1     -11.280  14.988  67.758  1.00  0.00    -0.327 C  
HETATM   15  C   UNL     1      -9.579  13.009  66.408  1.00  0.00    -0.257 C  
HETATM   16  C   UNL     1     -10.275  14.114  68.503  1.00  0.00    -0.247 C  
HETATM   17  C   UNL     1     -10.589  13.854  65.623  1.00  0.00    -0.306 C  
HETATM   18  C   UNL     1     -10.851  15.195  66.307  1.00  0.00    -0.333 C  
ENDBRANCH   2  13
TORSDOF 5
ENDMDL
MODEL      199
REMARK 921   NORMALIZED FREE ENERGY PREDICTED BY IDOCK:   -3.18 KCAL/MOL
REMARK 922        TOTAL FREE ENERGY PREDICTED BY IDOCK:   -4.61 KCAL/MOL
REMARK 923 INTER-LIGAND FREE ENERGY PREDICTED BY IDOCK:   -4.21 KCAL/MOL
REMARK 924 INTRA-LIGAND FREE ENERGY PREDICTED BY IDOCK:   -0.39 KCAL/MOL
REMARK 927      BINDING AFFINITY PREDICTED BY RF-SCORE:    0.00 PKD
ROOT
HETATM    1  S   UNL     1     -12.334  13.771  66.816  1.00  0.00    -0.222 S  
HETATM    2  C   UNL     1     -10.938  13.923  67.748  1.00  0.00    -0.256 C  
ENDROOT
BRANCH   2   3
HETATM    3  S   UNL     1      -9.322  13.833  67.008  1.00  0.00    -0.255 SA 
BRANCH   3   4
HETATM    4  S   UNL     1      -9.437  12.043  65.964  1.00  0.00    -0.184 SA 
BRANCH   4   5
HETATM    5  C   UNL     1      -8.870  10.832  67.138  1.00  0.00    -0.134 C  
HETATM    6  S   UNL     1      -8.039  11.378  68.505  1.00  0.00    -0.143 S  
BRANCH   5   7
HETATM    7  N   UNL     1      -9.269   9.493  66.913  1.00  0.00    -0.140 N  
HETATM    8  C   UNL     1      -8.450   7.158  66.589  1.00  0.00    -0.121 C  
HETATM    9  C   UNL     1      -8.486   8.588  66.048  1.00  0.00    -0.140 C  
HETATM   10  C   UNL     1      -9.851   6.621  66.852  1.00  0.00    -0.222 C  
HETATM   11  C   UNL     1     -10.622   7.576  67.754  1.00  0.00    -0.274 C  
HETATM   12  C   UNL     1     -10.629   8.997  67.191  1.00  0.00    -0.220 C  
ENDBRANCH   5   7
ENDBRANCH   4   5
ENDBRANCH   3   4
ENDBRANCH   2   3
BRANCH   2  13
HETATM   13  N   UNL     1     -10.941  14.122  69.132  1.00  0.00    -0.257 N  
HETATM   14  C   UNL     1     -12.871  14.435  70.667  1.00  0.00    -0.390 C  
HETATM   15  C   UNL     1     -10.177  15.195  69.775  1.00  0.00    -0.185 C  
HETATM   16  C   UNL     1     -11.905  13.448  70.016  1.00  0.00    -0.294 C  
HETATM   17  C   UNL     1     -11.123  16.223  70.408  1.00  0.00    -0.322 C  
HETATM   18  C   UNL     1     -12.112  15.560  71.366  1.00  0.00    -0.453 C  
ENDBRANCH   2  13
TORSDOF 5
ENDMDL
MODEL      200
REMARK 921   NORMALIZED FREE ENERGY PREDICTED BY IDOCK:   -3.18 KCAL/MOL
REMARK 922        TOTAL FREE ENERGY PREDICTED BY IDOCK:   -4.60 KCAL/MOL
REMARK 923 INTER-LIGAND FREE ENERGY PREDICTED BY IDOCK:   -4.30 KCAL/MOL
REMARK 924 INTRA-LIGAND FREE ENERGY PREDICTED BY IDOCK:   -0.31 KCAL/MOL
REMARK 927      BINDING AFFINITY PREDICTED BY RF-SCORE:    0.00 PKD
ROOT
HETATM    1  S   UNL     1     -12.350  10.054  71.236  1.00  0.00    -0.430 S  
HETATM    2  C   UNL     1     -11.255   8.794  71.008  1.00  0.00    -0.273 C  
ENDROOT
BRANCH   2   3
HETATM    3  S   UNL     1      -9.908   8.941  69.854  1.00  0.00    -0.190 SA 
BRANCH   3   4
HETATM    4  S   UNL     1     -10.825   9.903  68.258  1.00  0.00    -0.201 SA 
BRANCH   4   5
HETATM    5  C   UNL     1     -10.159   9.079  66.829  1.00  0.00    -0.274 C  
HETATM    6  S   UNL     1      -9.836  10.008  65.454  1.00  0.00    -0.299 S  
BRANCH   5   7
HETATM    7  N   UNL     1      -9.820   7.714  66.983  1.00  0.00    -0.194 N  
HETATM    8  C   UNL     1      -8.045   6.137  67.752  1.00  0.00    -0.113 C  
HETATM    9  C   UNL     1      -8.445   7.227  66.757  1.00  0.00    -0.121 C  
HETATM   10  C   UNL     1      -9.053   4.996  67.771  1.00  0.00    -0.123 C  
HETATM   11  C   UNL     1     -10.457   5.536  68.018  1.00  0.00    -0.240 C  
HETATM   12  C   UNL     1     -10.821   6.632  67.015  1.00  0.00    -0.397 C  
ENDBRANCH   5   7
ENDBRANCH   4   5
ENDBRANCH   3   4
ENDBRANCH   2   3
BRANCH   2  13
HETATM   13  N   UNL     1     -11.320   7.571  71.684  1.00  0.00    -0.247 N  
HETATM   14  C   UNL     1     -10.070   6.825  73.698  1.00  0.00    -0.324 C  
HETATM   15  C   UNL     1     -11.117   6.286  71.007  1.00  0.00    -0.298 C  
HETATM   16  C   UNL     1     -11.331   7.489  73.152  1.00  0.00    -0.182 C  
HETATM   17  C   UNL     1      -9.836   5.611  71.509  1.00  0.00    -0.213 C  
HETATM   18  C   UNL     1      -9.834   5.472  73.031  1.00  0.00    -0.179 C  
ENDBRANCH   2  13
TORSDOF 5
ENDMDL
MODEL      201
REMARK 921   NORMALIZED FREE ENERGY PREDICTED BY IDOCK:   -3.18 KCAL/MOL
REMARK 922        TOTAL FREE ENERGY PREDICTED BY IDOCK:   -4.60 KCAL/MOL
REMARK 923 INTER-LIGAND FREE ENERGY PREDICTED BY IDOCK:   -4.14 KCAL/MOL
REMARK 924 INTRA-LIGAND FREE ENERGY PREDICTED BY IDOCK:   -0.46 KCAL/MOL
REMARK 927      BINDING AFFINITY PREDICTED BY RF-SCORE:    0.00 PKD
ROOT
HETATM    1  S   UNL     1      -7.506   8.325  65.006  1.00  0.00    -0.095 S  
HETATM    2  C   UNL     1      -8.488   8.793  66.293  1.00  0.00    -0.124 C  
ENDROOT
BRANCH   2   3
HETATM    3  S   UNL     1     -10.091   9.514  66.015  1.00  0.00    -0.172 SA 
BRANCH   3   4
HETATM    4  S   UNL     1      -9.709  10.788  64.421  1.00  0.00    -0.328 SA 
BRANCH   4   5
HETATM    5  C   UNL     1     -10.820  12.150  64.692  1.00  0.00    -0.306 C  
HETATM    6  S   UNL     1     -12.103  12.358  63.612  1.00  0.00    -0.582 S  
BRANCH   5   7
HETATM    7  N   UNL     1     -10.630  12.898  65.879  1.00  0.00    -0.266 N  
HETATM    8  C   UNL     1     -11.794  14.014  67.783  1.00  0.00    -0.419 C  
HETATM    9  C   UNL     1     -11.560  13.974  66.272  1.00  0.00    -0.369 C  
HETATM   10  C   UNL     1     -10.482  14.089  68.553  1.00  0.00    -0.251 C  
HETATM   11  C   UNL     1      -9.555  12.958  68.127  1.00  0.00    -0.223 C  
HETATM   12  C   UNL     1      -9.352  12.938  66.612  1.00  0.00    -0.240 C  
ENDBRANCH   5   7
ENDBRANCH   4   5
ENDBRANCH   3   4
ENDBRANCH   2   3
BRANCH   2  13
HETATM   13  N   UNL     1      -8.128   8.661  67.638  1.00  0.00    -0.106 N  
HETATM   14  C   UNL     1      -9.040   9.838  69.628  1.00  0.00    -0.235 C  
HETATM   15  C   UNL     1      -6.746   8.818  68.102  1.00  0.00    -0.065 C  
HETATM   16  C   UNL     1      -9.129   8.618  68.715  1.00  0.00    -0.142 C  
HETATM   17  C   UNL     1      -6.617  10.058  68.995  1.00  0.00    -0.052 C  
HETATM   18  C   UNL     1      -7.617  10.025  70.150  1.00  0.00    -0.168 C  
ENDBRANCH   2  13
TORSDOF 5
ENDMDL
MODEL      202
REMARK 921   NORMALIZED FREE ENERGY PREDICTED BY IDOCK:   -3.18 KCAL/MOL
REMARK 922        TOTAL FREE ENERGY PREDICTED BY IDOCK:   -4.60 KCAL/MOL
REMARK 923 INTER-LIGAND FREE ENERGY PREDICTED BY IDOCK:   -4.22 KCAL/MOL
REMARK 924 INTRA-LIGAND FREE ENERGY PREDICTED BY IDOCK:   -0.38 KCAL/MOL
REMARK 927      BINDING AFFINITY PREDICTED BY RF-SCORE:    0.00 PKD
ROOT
HETATM    1  S   UNL     1     -10.396   8.106  67.781  1.00  0.00    -0.222 S  
HETATM    2  C   UNL     1      -8.946   7.608  67.083  1.00  0.00    -0.126 C  
ENDROOT
BRANCH   2   3
HETATM    3  S   UNL     1      -7.741   8.789  66.516  1.00  0.00    -0.100 SA 
BRANCH   3   4
HETATM    4  S   UNL     1      -8.766   9.725  64.972  1.00  0.00    -0.190 SA 
BRANCH   4   5
HETATM    5  C   UNL     1      -9.115  11.346  65.618  1.00  0.00    -0.161 C  
HETATM    6  S   UNL     1      -8.183  11.904  66.913  1.00  0.00    -0.127 S  
BRANCH   5   7
HETATM    7  N   UNL     1     -10.071  12.117  64.915  1.00  0.00    -0.267 N  
HETATM    8  C   UNL     1     -12.003  12.010  63.339  1.00  0.00    -0.571 C  
HETATM    9  C   UNL     1     -10.511  11.751  63.554  1.00  0.00    -0.449 C  
HETATM   10  C   UNL     1     -12.381  13.442  63.690  1.00  0.00    -0.422 C  
HETATM   11  C   UNL     1     -11.920  13.779  65.103  1.00  0.00    -0.393 C  
HETATM   12  C   UNL     1     -10.429  13.497  65.289  1.00  0.00    -0.336 C  
ENDBRANCH   5   7
ENDBRANCH   4   5
ENDBRANCH   3   4
ENDBRANCH   2   3
BRANCH   2  13
HETATM   13  N   UNL     1      -8.589   6.268  66.896  1.00  0.00    -0.112 N  
HETATM   14  C   UNL     1      -9.458   4.631  65.241  1.00  0.00    -0.165 C  
HETATM   15  C   UNL     1      -8.629   5.284  67.982  1.00  0.00    -0.103 C  
HETATM   16  C   UNL     1      -8.403   5.688  65.557  1.00  0.00    -0.139 C  
HETATM   17  C   UNL     1      -9.705   4.227  67.709  1.00  0.00    -0.179 C  
HETATM   18  C   UNL     1      -9.516   3.573  66.341  1.00  0.00    -0.164 C  
ENDBRANCH   2  13
TORSDOF 5
ENDMDL
MODEL      203
REMARK 921   NORMALIZED FREE ENERGY PREDICTED BY IDOCK:   -3.17 KCAL/MOL
REMARK 922        TOTAL FREE ENERGY PREDICTED BY IDOCK:   -4.59 KCAL/MOL
REMARK 923 INTER-LIGAND FREE ENERGY PREDICTED BY IDOCK:   -3.85 KCAL/MOL
REMARK 924 INTRA-LIGAND FREE ENERGY PREDICTED BY IDOCK:   -0.74 KCAL/MOL
REMARK 927      BINDING AFFINITY PREDICTED BY RF-SCORE:    0.00 PKD
ROOT
HETATM    1  S   UNL     1     -11.280  10.637  68.324  1.00  0.00    -0.290 S  
HETATM    2  C   UNL     1      -9.794   9.848  68.409  1.00  0.00    -0.151 C  
ENDROOT
BRANCH   2   3
HETATM    3  S   UNL     1      -8.922   9.690  69.953  1.00  0.00    -0.228 SA 
BRANCH   3   4
HETATM    4  S   UNL     1     -10.479   9.347  71.282  1.00  0.00    -0.258 SA 
BRANCH   4   5
HETATM    5  C   UNL     1     -10.402   7.594  71.580  1.00  0.00    -0.196 C  
HETATM    6  S   UNL     1     -10.577   7.049  73.170  1.00  0.00    -0.346 S  
BRANCH   5   7
HETATM    7  N   UNL     1     -10.327   6.760  70.439  1.00  0.00    -0.195 N  
HETATM    8  C   UNL     1     -11.202   6.395  68.131  1.00  0.00    -0.270 C  
HETATM    9  C   UNL     1     -11.520   6.454  69.625  1.00  0.00    -0.378 C  
HETATM   10  C   UNL     1     -10.055   5.436  67.838  1.00  0.00    -0.215 C  
HETATM   11  C   UNL     1      -8.841   5.790  68.688  1.00  0.00    -0.110 C  
HETATM   12  C   UNL     1      -9.195   5.853  70.174  1.00  0.00    -0.153 C  
ENDBRANCH   5   7
ENDBRANCH   4   5
ENDBRANCH   3   4
ENDBRANCH   2   3
BRANCH   2  13
HETATM   13  N   UNL     1      -9.148   9.277  67.308  1.00  0.00    -0.126 N  
HETATM   14  C   UNL     1      -7.188  10.117  66.032  1.00  0.00    -0.118 C  
HETATM   15  C   UNL     1      -9.863   8.904  66.083  1.00  0.00    -0.256 C  
HETATM   16  C   UNL     1      -7.683   9.252  67.188  1.00  0.00    -0.095 C  
HETATM   17  C   UNL     1      -9.412   9.782  64.910  1.00  0.00    -0.331 C  
HETATM   18  C   UNL     1      -7.895   9.745  64.731  1.00  0.00    -0.134 C  
ENDBRANCH   2  13
TORSDOF 5
ENDMDL
MODEL      204
REMARK 921   NORMALIZED FREE ENERGY PREDICTED BY IDOCK:   -3.15 KCAL/MOL
REMARK 922        TOTAL FREE ENERGY PREDICTED BY IDOCK:   -4.57 KCAL/MOL
REMARK 923 INTER-LIGAND FREE ENERGY PREDICTED BY IDOCK:   -4.21 KCAL/MOL
REMARK 924 INTRA-LIGAND FREE ENERGY PREDICTED BY IDOCK:   -0.36 KCAL/MOL
REMARK 927      BINDING AFFINITY PREDICTED BY RF-SCORE:    0.00 PKD
ROOT
HETATM    1  S   UNL     1      -8.146  11.431  68.772  1.00  0.00    -0.069 S  
HETATM    2  C   UNL     1      -9.526  12.025  68.010  1.00  0.00    -0.199 C  
ENDROOT
BRANCH   2   3
HETATM    3  S   UNL     1     -11.022  11.065  67.933  1.00  0.00    -0.287 SA 
BRANCH   3   4
HETATM    4  S   UNL     1     -10.826   9.847  69.604  1.00  0.00    -0.266 SA 
BRANCH   4   5
HETATM    5  C   UNL     1     -10.517   8.235  68.918  1.00  0.00    -0.191 C  
HETATM    6  S   UNL     1     -10.418   8.092  67.236  1.00  0.00    -0.280 S  
BRANCH   5   7
HETATM    7  N   UNL     1     -10.245   7.195  69.838  1.00  0.00    -0.202 N  
HETATM    8  C   UNL     1      -9.999   4.725  70.095  1.00  0.00    -0.321 C  
HETATM    9  C   UNL     1     -10.930   5.890  69.755  1.00  0.00    -0.382 C  
HETATM   10  C   UNL     1      -9.319   4.923  71.443  1.00  0.00    -0.199 C  
HETATM   11  C   UNL     1      -8.615   6.274  71.485  1.00  0.00    -0.131 C  
HETATM   12  C   UNL     1      -9.569   7.415  71.129  1.00  0.00    -0.159 C  
ENDBRANCH   5   7
ENDBRANCH   4   5
ENDBRANCH   3   4
ENDBRANCH   2   3
BRANCH   2  13
HETATM   13  N   UNL     1      -9.599  13.278  67.393  1.00  0.00    -0.217 N  
HETATM   14  C   UNL     1      -9.225  15.531  68.373  1.00  0.00    -0.191 C  
HETATM   15  C   UNL     1     -10.787  13.726  66.661  1.00  0.00    -0.288 C  
HETATM   16  C   UNL     1      -8.609  14.336  67.651  1.00  0.00    -0.183 C  
HETATM   17  C   UNL     1     -11.449  14.907  67.382  1.00  0.00    -0.354 C  
HETATM   18  C   UNL     1     -10.456  16.042  67.628  1.00  0.00    -0.292 C  
ENDBRANCH   2  13
TORSDOF 5
ENDMDL
MODEL      205
REMARK 921   NORMALIZED FREE ENERGY PREDICTED BY IDOCK:   -3.15 KCAL/MOL
REMARK 922        TOTAL FREE ENERGY PREDICTED BY IDOCK:   -4.57 KCAL/MOL
REMARK 923 INTER-LIGAND FREE ENERGY PREDICTED BY IDOCK:   -4.27 KCAL/MOL
REMARK 924 INTRA-LIGAND FREE ENERGY PREDICTED BY IDOCK:   -0.30 KCAL/MOL
REMARK 927      BINDING AFFINITY PREDICTED BY RF-SCORE:    0.00 PKD
ROOT
HETATM    1  S   UNL     1     -11.629  14.601  64.813  1.00  0.00    -0.416 S  
HETATM    2  C   UNL     1     -10.611  15.168  66.029  1.00  0.00    -0.322 C  
ENDROOT
BRANCH   2   3
HETATM    3  S   UNL     1      -9.183  14.238  66.545  1.00  0.00    -0.191 SA 
BRANCH   3   4
HETATM    4  S   UNL     1     -10.031  12.410  67.043  1.00  0.00    -0.215 SA 
BRANCH   4   5
HETATM    5  C   UNL     1      -8.691  11.515  67.799  1.00  0.00    -0.142 C  
HETATM    6  S   UNL     1      -7.187  12.279  67.908  1.00  0.00    -0.120 S  
BRANCH   5   7
HETATM    7  N   UNL     1      -9.010  10.265  68.379  1.00  0.00    -0.129 N  
HETATM    8  C   UNL     1      -9.809   9.135  70.456  1.00  0.00    -0.285 C  
HETATM    9  C   UNL     1      -8.712   9.969  69.795  1.00  0.00    -0.179 C  
HETATM   10  C   UNL     1     -10.107   7.869  69.664  1.00  0.00    -0.197 C  
HETATM   11  C   UNL     1     -10.420   8.215  68.213  1.00  0.00    -0.210 C  
HETATM   12  C   UNL     1      -9.310   9.059  67.586  1.00  0.00    -0.136 C  
ENDBRANCH   5   7
ENDBRANCH   4   5
ENDBRANCH   3   4
ENDBRANCH   2   3
BRANCH   2  13
HETATM   13  N   UNL     1     -10.805  16.374  66.710  1.00  0.00    -0.175 N  
HETATM   14  C   UNL     1      -9.337  18.378  66.799  1.00  0.00    -0.296 C  
HETATM   15  C   UNL     1     -11.072  16.430  68.151  1.00  0.00    -0.320 C  
HETATM   16  C   UNL     1     -10.497  17.676  66.098  1.00  0.00    -0.295 C  
HETATM   17  C   UNL     1      -9.906  17.099  68.888  1.00  0.00    -0.273 C  
HETATM   18  C   UNL     1      -9.587  18.474  68.303  1.00  0.00    -0.370 C  
ENDBRANCH   2  13
TORSDOF 5
ENDMDL
MODEL      206
REMARK 921   NORMALIZED FREE ENERGY PREDICTED BY IDOCK:   -3.15 KCAL/MOL
REMARK 922        TOTAL FREE ENERGY PREDICTED BY IDOCK:   -4.57 KCAL/MOL
REMARK 923 INTER-LIGAND FREE ENERGY PREDICTED BY IDOCK:   -4.11 KCAL/MOL
REMARK 924 INTRA-LIGAND FREE ENERGY PREDICTED BY IDOCK:   -0.46 KCAL/MOL
REMARK 927      BINDING AFFINITY PREDICTED BY RF-SCORE:    0.00 PKD
ROOT
HETATM    1  S   UNL     1     -11.774  12.097  63.922  1.00  0.00    -0.487 S  
HETATM    2  C   UNL     1     -10.934  12.869  65.162  1.00  0.00    -0.289 C  
ENDROOT
BRANCH   2   3
HETATM    3  S   UNL     1      -9.559  12.082  65.974  1.00  0.00    -0.215 SA 
BRANCH   3   4
HETATM    4  S   UNL     1     -10.519  10.652  67.134  1.00  0.00    -0.259 SA 
BRANCH   4   5
HETATM    5  C   UNL     1      -9.242  10.067  68.226  1.00  0.00    -0.129 C  
HETATM    6  S   UNL     1      -9.688   9.047  69.498  1.00  0.00    -0.176 S  
BRANCH   5   7
HETATM    7  N   UNL     1      -7.910  10.394  67.877  1.00  0.00    -0.100 N  
HETATM    8  C   UNL     1      -6.191  10.249  66.074  1.00  0.00    -0.097 C  
HETATM    9  C   UNL     1      -7.081   9.488  67.057  1.00  0.00    -0.086 C  
HETATM   10  C   UNL     1      -5.350  11.305  66.778  1.00  0.00    -0.107 C  
HETATM   11  C   UNL     1      -6.240  12.225  67.605  1.00  0.00    -0.120 C  
HETATM   12  C   UNL     1      -7.125  11.433  68.568  1.00  0.00    -0.085 C  
ENDBRANCH   5   7
ENDBRANCH   4   5
ENDBRANCH   3   4
ENDBRANCH   2   3
BRANCH   2  13
HETATM   13  N   UNL     1     -11.245  14.147  65.639  1.00  0.00    -0.303 N  
HETATM   14  C   UNL     1      -9.733  15.879  66.583  1.00  0.00    -0.270 C  
HETATM   15  C   UNL     1     -12.255  14.376  66.676  1.00  0.00    -0.311 C  
HETATM   16  C   UNL     1     -10.410  15.319  65.334  1.00  0.00    -0.393 C  
HETATM   17  C   UNL     1     -11.599  14.905  67.957  1.00  0.00    -0.363 C  
HETATM   18  C   UNL     1     -10.756  16.150  67.683  1.00  0.00    -0.318 C  
ENDBRANCH   2  13
TORSDOF 5
ENDMDL
MODEL      207
REMARK 921   NORMALIZED FREE ENERGY PREDICTED BY IDOCK:   -3.14 KCAL/MOL
REMARK 922        TOTAL FREE ENERGY PREDICTED BY IDOCK:   -4.56 KCAL/MOL
REMARK 923 INTER-LIGAND FREE ENERGY PREDICTED BY IDOCK:   -4.00 KCAL/MOL
REMARK 924 INTRA-LIGAND FREE ENERGY PREDICTED BY IDOCK:   -0.55 KCAL/MOL
REMARK 927      BINDING AFFINITY PREDICTED BY RF-SCORE:    0.00 PKD
ROOT
HETATM    1  S   UNL     1      -6.716  11.816  69.634  1.00  0.00     0.035 S  
HETATM    2  C   UNL     1      -7.850  11.583  68.411  1.00  0.00    -0.136 C  
ENDROOT
BRANCH   2   3
HETATM    3  S   UNL     1      -8.671  12.962  67.640  1.00  0.00    -0.198 SA 
BRANCH   3   4
HETATM    4  S   UNL     1     -10.554  12.869  68.509  1.00  0.00    -0.239 SA 
BRANCH   4   5
HETATM    5  C   UNL     1     -10.895  14.557  68.960  1.00  0.00    -0.254 C  
HETATM    6  S   UNL     1     -11.768  14.840  70.379  1.00  0.00    -0.306 S  
BRANCH   5   7
HETATM    7  N   UNL     1     -10.295  15.560  68.163  1.00  0.00    -0.234 N  
HETATM    8  C   UNL     1      -8.252  16.961  67.861  1.00  0.00    -0.198 C  
HETATM    9  C   UNL     1      -9.443  16.611  68.753  1.00  0.00    -0.258 C  
HETATM   10  C   UNL     1      -8.694  17.318  66.448  1.00  0.00    -0.285 C  
HETATM   11  C   UNL     1      -9.561  16.206  65.869  1.00  0.00    -0.359 C  
HETATM   12  C   UNL     1     -10.734  15.872  66.791  1.00  0.00    -0.281 C  
ENDBRANCH   5   7
ENDBRANCH   4   5
ENDBRANCH   3   4
ENDBRANCH   2   3
BRANCH   2  13
HETATM   13  N   UNL     1      -8.227  10.328  67.923  1.00  0.00    -0.109 N  
HETATM   14  C   UNL     1      -9.844   9.766  66.121  1.00  0.00    -0.329 C  
HETATM   15  C   UNL     1      -8.738   9.266  68.796  1.00  0.00    -0.132 C  
HETATM   16  C   UNL     1      -8.392  10.064  66.485  1.00  0.00    -0.126 C  
HETATM   17  C   UNL     1     -10.208   8.969  68.477  1.00  0.00    -0.224 C  
HETATM   18  C   UNL     1     -10.407   8.649  66.996  1.00  0.00    -0.368 C  
ENDBRANCH   2  13
TORSDOF 5
ENDMDL
MODEL      208
REMARK 921   NORMALIZED FREE ENERGY PREDICTED BY IDOCK:   -3.13 KCAL/MOL
REMARK 922        TOTAL FREE ENERGY PREDICTED BY IDOCK:   -4.54 KCAL/MOL
REMARK 923 INTER-LIGAND FREE ENERGY PREDICTED BY IDOCK:   -3.90 KCAL/MOL
REMARK 924 INTRA-LIGAND FREE ENERGY PREDICTED BY IDOCK:   -0.64 KCAL/MOL
REMARK 927      BINDING AFFINITY PREDICTED BY RF-SCORE:    0.00 PKD
ROOT
HETATM    1  S   UNL     1     -10.284   9.040  70.805  1.00  0.00    -0.267 S  
HETATM    2  C   UNL     1      -9.884  10.043  69.512  1.00  0.00    -0.229 C  
ENDROOT
BRANCH   2   3
HETATM    3  S   UNL     1      -8.196  10.515  69.199  1.00  0.00    -0.134 SA 
BRANCH   3   4
HETATM    4  S   UNL     1      -7.293   8.669  68.898  1.00  0.00    -0.083 SA 
BRANCH   4   5
HETATM    5  C   UNL     1      -7.738   8.249  67.227  1.00  0.00    -0.101 C  
HETATM    6  S   UNL     1      -7.120   9.202  65.976  1.00  0.00    -0.091 S  
BRANCH   5   7
HETATM    7  N   UNL     1      -8.481   7.058  67.048  1.00  0.00    -0.120 N  
HETATM    8  C   UNL     1     -10.737   6.018  67.288  1.00  0.00    -0.400 C  
HETATM    9  C   UNL     1      -9.542   6.659  67.994  1.00  0.00    -0.123 C  
HETATM   10  C   UNL     1     -10.308   4.860  66.396  1.00  0.00    -0.328 C  
HETATM   11  C   UNL     1      -9.222   5.313  65.428  1.00  0.00    -0.091 C  
HETATM   12  C   UNL     1      -8.048   5.960  66.165  1.00  0.00    -0.109 C  
ENDBRANCH   5   7
ENDBRANCH   4   5
ENDBRANCH   3   4
ENDBRANCH   2   3
BRANCH   2  13
HETATM   13  N   UNL     1     -10.818  10.570  68.614  1.00  0.00    -0.220 N  
HETATM   14  C   UNL     1     -10.441  11.596  66.382  1.00  0.00    -0.283 C  
HETATM   15  C   UNL     1     -11.778  11.610  68.998  1.00  0.00    -0.324 C  
HETATM   16  C   UNL     1     -10.738  10.321  67.166  1.00  0.00    -0.241 C  
HETATM   17  C   UNL     1     -11.482  12.916  68.251  1.00  0.00    -0.348 C  
HETATM   18  C   UNL     1     -11.434  12.700  66.739  1.00  0.00    -0.410 C  
ENDBRANCH   2  13
TORSDOF 5
ENDMDL
MODEL      209
REMARK 921   NORMALIZED FREE ENERGY PREDICTED BY IDOCK:   -3.13 KCAL/MOL
REMARK 922        TOTAL FREE ENERGY PREDICTED BY IDOCK:   -4.54 KCAL/MOL
REMARK 923 INTER-LIGAND FREE ENERGY PREDICTED BY IDOCK:   -3.85 KCAL/MOL
REMARK 924 INTRA-LIGAND FREE ENERGY PREDICTED BY IDOCK:   -0.69 KCAL/MOL
REMARK 927      BINDING AFFINITY PREDICTED BY RF-SCORE:    0.00 PKD
ROOT
HETATM    1  S   UNL     1      -6.315   7.987  67.860  1.00  0.00    -0.053 S  
HETATM    2  C   UNL     1      -7.209   6.874  68.756  1.00  0.00    -0.091 C  
ENDROOT
BRANCH   2   3
HETATM    3  S   UNL     1      -6.864   6.589  70.479  1.00  0.00    -0.064 SA 
BRANCH   3   4
HETATM    4  S   UNL     1      -7.138   8.484  71.282  1.00  0.00    -0.085 SA 
BRANCH   4   5
HETATM    5  C   UNL     1      -8.487   8.269  72.422  1.00  0.00    -0.190 C  
HETATM    6  S   UNL     1      -8.119   8.034  74.054  1.00  0.00    -0.260 S  
BRANCH   5   7
HETATM    7  N   UNL     1      -9.792   8.440  71.901  1.00  0.00    -0.230 N  
HETATM    8  C   UNL     1     -12.224   8.341  72.448  1.00  0.00    -0.412 C  
HETATM    9  C   UNL     1     -10.911   7.571  72.316  1.00  0.00    -0.258 C  
HETATM   10  C   UNL     1     -12.551   9.117  71.179  1.00  0.00    -0.293 C  
HETATM   11  C   UNL     1     -11.378  10.009  70.788  1.00  0.00    -0.439 C  
HETATM   12  C   UNL     1     -10.079   9.210  70.677  1.00  0.00    -0.247 C  
ENDBRANCH   5   7
ENDBRANCH   4   5
ENDBRANCH   3   4
ENDBRANCH   2   3
BRANCH   2  13
HETATM   13  N   UNL     1      -8.255   6.109  68.231  1.00  0.00    -0.114 N  
HETATM   14  C   UNL     1      -9.635   6.521  66.206  1.00  0.00    -0.096 C  
HETATM   15  C   UNL     1      -9.426   5.727  69.027  1.00  0.00    -0.124 C  
HETATM   16  C   UNL     1      -8.391   5.856  66.789  1.00  0.00    -0.109 C  
HETATM   17  C   UNL     1     -10.689   6.409  68.485  1.00  0.00    -0.347 C  
HETATM   18  C   UNL     1     -10.883   6.131  66.995  1.00  0.00    -0.435 C  
ENDBRANCH   2  13
TORSDOF 5
ENDMDL
MODEL      210
REMARK 921   NORMALIZED FREE ENERGY PREDICTED BY IDOCK:   -3.12 KCAL/MOL
REMARK 922        TOTAL FREE ENERGY PREDICTED BY IDOCK:   -4.53 KCAL/MOL
REMARK 923 INTER-LIGAND FREE ENERGY PREDICTED BY IDOCK:   -4.21 KCAL/MOL
REMARK 924 INTRA-LIGAND FREE ENERGY PREDICTED BY IDOCK:   -0.32 KCAL/MOL
REMARK 927      BINDING AFFINITY PREDICTED BY RF-SCORE:    0.00 PKD
ROOT
HETATM    1  S   UNL     1     -10.232  10.972  65.382  1.00  0.00    -0.276 S  
HETATM    2  C   UNL     1      -8.958   9.877  65.243  1.00  0.00    -0.191 C  
ENDROOT
BRANCH   2   3
HETATM    3  S   UNL     1      -8.583   8.730  66.551  1.00  0.00    -0.122 SA 
BRANCH   3   4
HETATM    4  S   UNL     1     -10.471   8.334  67.318  1.00  0.00    -0.269 SA 
BRANCH   4   5
HETATM    5  C   UNL     1     -10.191   8.168  69.067  1.00  0.00    -0.220 C  
HETATM    6  S   UNL     1      -9.029   7.055  69.584  1.00  0.00    -0.140 S  
BRANCH   5   7
HETATM    7  N   UNL     1     -10.873   9.080  69.908  1.00  0.00    -0.228 N  
HETATM    8  C   UNL     1     -12.140  11.228  69.967  1.00  0.00    -0.425 C  
HETATM    9  C   UNL     1     -10.806  10.538  69.684  1.00  0.00    -0.274 C  
HETATM   10  C   UNL     1     -12.664  10.892  71.357  1.00  0.00    -0.539 C  
HETATM   11  C   UNL     1     -12.728   9.381  71.545  1.00  0.00    -0.444 C  
HETATM   12  C   UNL     1     -11.383   8.720  71.243  1.00  0.00    -0.291 C  
ENDBRANCH   5   7
ENDBRANCH   4   5
ENDBRANCH   3   4
ENDBRANCH   2   3
BRANCH   2  13
HETATM   13  N   UNL     1      -8.120   9.791  64.127  1.00  0.00    -0.143 N  
HETATM   14  C   UNL     1      -7.917   7.962  62.457  1.00  0.00    -0.149 C  
HETATM   15  C   UNL     1      -6.666   9.951  64.221  1.00  0.00    -0.126 C  
HETATM   16  C   UNL     1      -8.593   9.278  62.832  1.00  0.00    -0.219 C  
HETATM   17  C   UNL     1      -5.959   8.633  63.883  1.00  0.00    -0.071 C  
HETATM   18  C   UNL     1      -6.397   8.093  62.522  1.00  0.00    -0.087 C  
ENDBRANCH   2  13
TORSDOF 5
ENDMDL
MODEL      211
REMARK 921   NORMALIZED FREE ENERGY PREDICTED BY IDOCK:   -3.12 KCAL/MOL
REMARK 922        TOTAL FREE ENERGY PREDICTED BY IDOCK:   -4.53 KCAL/MOL
REMARK 923 INTER-LIGAND FREE ENERGY PREDICTED BY IDOCK:   -4.17 KCAL/MOL
REMARK 924 INTRA-LIGAND FREE ENERGY PREDICTED BY IDOCK:   -0.36 KCAL/MOL
REMARK 927      BINDING AFFINITY PREDICTED BY RF-SCORE:    0.00 PKD
ROOT
HETATM    1  S   UNL     1      -9.831   5.758  66.665  1.00  0.00    -0.172 S  
HETATM    2  C   UNL     1      -8.572   6.864  66.838  1.00  0.00    -0.116 C  
ENDROOT
BRANCH   2   3
HETATM    3  S   UNL     1      -8.262   7.672  68.393  1.00  0.00    -0.125 SA 
BRANCH   3   4
HETATM    4  S   UNL     1     -10.162   8.326  68.913  1.00  0.00    -0.210 SA 
BRANCH   4   5
HETATM    5  C   UNL     1     -10.560   7.364  70.356  1.00  0.00    -0.228 C  
HETATM    6  S   UNL     1      -9.514   6.109  70.789  1.00  0.00    -0.169 S  
BRANCH   5   7
HETATM    7  N   UNL     1     -11.666   7.800  71.124  1.00  0.00    -0.282 N  
HETATM    8  C   UNL     1     -13.094   9.767  71.691  1.00  0.00    -0.516 C  
HETATM    9  C   UNL     1     -11.699   9.142  71.739  1.00  0.00    -0.386 C  
HETATM   10  C   UNL     1     -14.145   8.842  72.291  1.00  0.00    -0.512 C  
HETATM   11  C   UNL     1     -14.086   7.473  71.625  1.00  0.00    -0.562 C  
HETATM   12  C   UNL     1     -12.677   6.882  71.679  1.00  0.00    -0.352 C  
ENDBRANCH   5   7
ENDBRANCH   4   5
ENDBRANCH   3   4
ENDBRANCH   2   3
BRANCH   2  13
HETATM   13  N   UNL     1      -7.702   7.226  65.804  1.00  0.00    -0.094 N  
HETATM   14  C   UNL     1      -8.183   8.501  63.725  1.00  0.00    -0.126 C  
HETATM   15  C   UNL     1      -6.882   6.245  65.086  1.00  0.00    -0.047 C  
HETATM   16  C   UNL     1      -7.737   8.560  65.184  1.00  0.00    -0.102 C  
HETATM   17  C   UNL     1      -7.331   6.138  63.624  1.00  0.00    -0.067 C  
HETATM   18  C   UNL     1      -7.338   7.503  62.936  1.00  0.00    -0.099 C  
ENDBRANCH   2  13
TORSDOF 5
ENDMDL
MODEL      212
REMARK 921   NORMALIZED FREE ENERGY PREDICTED BY IDOCK:   -3.12 KCAL/MOL
REMARK 922        TOTAL FREE ENERGY PREDICTED BY IDOCK:   -4.52 KCAL/MOL
REMARK 923 INTER-LIGAND FREE ENERGY PREDICTED BY IDOCK:   -4.06 KCAL/MOL
REMARK 924 INTRA-LIGAND FREE ENERGY PREDICTED BY IDOCK:   -0.46 KCAL/MOL
REMARK 927      BINDING AFFINITY PREDICTED BY RF-SCORE:    0.00 PKD
ROOT
HETATM    1  S   UNL     1     -12.132   7.067  70.969  1.00  0.00    -0.355 S  
HETATM    2  C   UNL     1     -11.060   8.225  70.379  1.00  0.00    -0.235 C  
ENDROOT
BRANCH   2   3
HETATM    3  S   UNL     1     -11.102   9.904  70.968  1.00  0.00    -0.268 SA 
BRANCH   3   4
HETATM    4  S   UNL     1     -12.530  10.751  69.720  1.00  0.00    -0.029 SA 
BRANCH   4   5
HETATM    5  C   UNL     1     -11.907  12.390  69.417  1.00  0.00    -0.304 C  
HETATM    6  S   UNL     1     -12.056  13.537  70.649  1.00  0.00    -0.244 S  
BRANCH   5   7
HETATM    7  N   UNL     1     -11.208  12.589  68.203  1.00  0.00    -0.247 N  
HETATM    8  C   UNL     1     -11.444  12.714  65.722  1.00  0.00    -0.399 C  
HETATM    9  C   UNL     1     -11.562  11.848  66.976  1.00  0.00    -0.291 C  
HETATM   10  C   UNL     1     -10.072  13.365  65.615  1.00  0.00    -0.285 C  
HETATM   11  C   UNL     1      -9.748  14.128  66.893  1.00  0.00    -0.272 C  
HETATM   12  C   UNL     1      -9.886  13.237  68.129  1.00  0.00    -0.231 C  
ENDBRANCH   5   7
ENDBRANCH   4   5
ENDBRANCH   3   4
ENDBRANCH   2   3
BRANCH   2  13
HETATM   13  N   UNL     1     -10.087   7.966  69.408  1.00  0.00    -0.191 N  
HETATM   14  C   UNL     1      -7.789   8.891  69.207  1.00  0.00    -0.096 C  
HETATM   15  C   UNL     1     -10.344   8.128  67.974  1.00  0.00    -0.211 C  
HETATM   16  C   UNL     1      -8.671   7.771  69.754  1.00  0.00    -0.139 C  
HETATM   17  C   UNL     1      -9.497   9.272  67.403  1.00  0.00    -0.165 C  
HETATM   18  C   UNL     1      -8.013   9.078  67.708  1.00  0.00    -0.101 C  
ENDBRANCH   2  13
TORSDOF 5
ENDMDL
MODEL      213
REMARK 921   NORMALIZED FREE ENERGY PREDICTED BY IDOCK:   -3.09 KCAL/MOL
REMARK 922        TOTAL FREE ENERGY PREDICTED BY IDOCK:   -4.48 KCAL/MOL
REMARK 923 INTER-LIGAND FREE ENERGY PREDICTED BY IDOCK:   -3.90 KCAL/MOL
REMARK 924 INTRA-LIGAND FREE ENERGY PREDICTED BY IDOCK:   -0.58 KCAL/MOL
REMARK 927      BINDING AFFINITY PREDICTED BY RF-SCORE:    0.00 PKD
ROOT
HETATM    1  S   UNL     1      -6.679   7.370  68.991  1.00  0.00    -0.054 S  
HETATM    2  C   UNL     1      -8.146   8.129  68.657  1.00  0.00    -0.124 C  
ENDROOT
BRANCH   2   3
HETATM    3  S   UNL     1      -8.678   9.554  69.581  1.00  0.00    -0.199 SA 
BRANCH   3   4
HETATM    4  S   UNL     1      -7.562  11.067  68.700  1.00  0.00    -0.132 SA 
BRANCH   4   5
HETATM    5  C   UNL     1      -8.095  11.051  67.002  1.00  0.00    -0.136 C  
HETATM    6  S   UNL     1      -7.027  10.449  65.839  1.00  0.00    -0.133 S  
BRANCH   5   7
HETATM    7  N   UNL     1      -9.437  11.427  66.755  1.00  0.00    -0.179 N  
HETATM    8  C   UNL     1     -11.159  13.187  67.159  1.00  0.00    -0.305 C  
HETATM    9  C   UNL     1     -10.245  12.127  67.773  1.00  0.00    -0.201 C  
HETATM   10  C   UNL     1     -12.026  12.607  66.049  1.00  0.00    -0.478 C  
HETATM   11  C   UNL     1     -11.157  11.903  65.014  1.00  0.00    -0.360 C  
HETATM   12  C   UNL     1     -10.246  10.859  65.661  1.00  0.00    -0.263 C  
ENDBRANCH   5   7
ENDBRANCH   4   5
ENDBRANCH   3   4
ENDBRANCH   2   3
BRANCH   2  13
HETATM   13  N   UNL     1      -9.033   7.709  67.661  1.00  0.00    -0.127 N  
HETATM   14  C   UNL     1     -11.058   6.283  67.865  1.00  0.00    -0.360 C  
HETATM   15  C   UNL     1      -8.586   7.008  66.453  1.00  0.00    -0.135 C  
HETATM   16  C   UNL     1     -10.490   7.699  67.865  1.00  0.00    -0.207 C  
HETATM   17  C   UNL     1      -9.112   5.568  66.443  1.00  0.00    -0.145 C  
HETATM   18  C   UNL     1     -10.631   5.523  66.611  1.00  0.00    -0.365 C  
ENDBRANCH   2  13
TORSDOF 5
ENDMDL
MODEL      214
REMARK 921   NORMALIZED FREE ENERGY PREDICTED BY IDOCK:   -3.08 KCAL/MOL
REMARK 922        TOTAL FREE ENERGY PREDICTED BY IDOCK:   -4.47 KCAL/MOL
REMARK 923 INTER-LIGAND FREE ENERGY PREDICTED BY IDOCK:   -4.16 KCAL/MOL
REMARK 924 INTRA-LIGAND FREE ENERGY PREDICTED BY IDOCK:   -0.31 KCAL/MOL
REMARK 927      BINDING AFFINITY PREDICTED BY RF-SCORE:    0.00 PKD
ROOT
HETATM    1  S   UNL     1      -7.698   7.312  67.853  1.00  0.00    -0.114 S  
HETATM    2  C   UNL     1      -8.873   6.578  68.811  1.00  0.00    -0.125 C  
ENDROOT
BRANCH   2   3
HETATM    3  S   UNL     1      -9.393   7.304  70.351  1.00  0.00    -0.157 SA 
BRANCH   3   4
HETATM    4  S   UNL     1      -9.115   9.327  69.976  1.00  0.00    -0.228 SA 
BRANCH   4   5
HETATM    5  C   UNL     1     -10.761   9.999  70.048  1.00  0.00    -0.299 C  
HETATM    6  S   UNL     1     -11.722   9.610  71.383  1.00  0.00    -0.407 S  
BRANCH   5   7
HETATM    7  N   UNL     1     -11.113  10.926  69.038  1.00  0.00    -0.225 N  
HETATM    8  C   UNL     1     -11.622  13.325  68.574  1.00  0.00    -0.368 C  
HETATM    9  C   UNL     1     -12.036  12.047  69.305  1.00  0.00    -0.270 C  
HETATM   10  C   UNL     1     -11.439  13.085  67.081  1.00  0.00    -0.379 C  
HETATM   11  C   UNL     1     -10.473  11.930  66.847  1.00  0.00    -0.253 C  
HETATM   12  C   UNL     1     -10.908  10.672  67.601  1.00  0.00    -0.292 C  
ENDBRANCH   5   7
ENDBRANCH   4   5
ENDBRANCH   3   4
ENDBRANCH   2   3
BRANCH   2  13
HETATM   13  N   UNL     1      -9.509   5.376  68.484  1.00  0.00    -0.118 N  
HETATM   14  C   UNL     1      -9.120   3.097  69.398  1.00  0.00    -0.198 C  
HETATM   15  C   UNL     1      -9.587   4.877  67.108  1.00  0.00    -0.159 C  
HETATM   16  C   UNL     1      -9.910   4.399  69.509  1.00  0.00    -0.188 C  
HETATM   17  C   UNL     1      -8.773   3.586  66.957  1.00  0.00    -0.128 C  
HETATM   18  C   UNL     1      -9.194   2.533  67.981  1.00  0.00    -0.254 C  
ENDBRANCH   2  13
TORSDOF 5
ENDMDL
MODEL      215
REMARK 921   NORMALIZED FREE ENERGY PREDICTED BY IDOCK:   -3.05 KCAL/MOL
REMARK 922        TOTAL FREE ENERGY PREDICTED BY IDOCK:   -4.44 KCAL/MOL
REMARK 923 INTER-LIGAND FREE ENERGY PREDICTED BY IDOCK:   -4.08 KCAL/MOL
REMARK 924 INTRA-LIGAND FREE ENERGY PREDICTED BY IDOCK:   -0.36 KCAL/MOL
REMARK 927      BINDING AFFINITY PREDICTED BY RF-SCORE:    0.00 PKD
ROOT
HETATM    1  S   UNL     1      -7.736  11.520  67.200  1.00  0.00    -0.166 S  
HETATM    2  C   UNL     1      -8.061  10.492  68.494  1.00  0.00    -0.121 C  
ENDROOT
BRANCH   2   3
HETATM    3  S   UNL     1      -9.663  10.466  69.271  1.00  0.00    -0.192 SA 
BRANCH   3   4
HETATM    4  S   UNL     1     -10.926  10.373  67.626  1.00  0.00    -0.285 SA 
BRANCH   4   5
HETATM    5  C   UNL     1     -11.526  12.040  67.460  1.00  0.00    -0.333 C  
HETATM    6  S   UNL     1     -11.870  12.905  68.870  1.00  0.00    -0.280 S  
BRANCH   5   7
HETATM    7  N   UNL     1     -11.553  12.577  66.151  1.00  0.00    -0.375 N  
HETATM    8  C   UNL     1     -12.231  12.139  63.790  1.00  0.00    -0.630 C  
HETATM    9  C   UNL     1     -11.338  11.729  64.962  1.00  0.00    -0.225 C  
HETATM   10  C   UNL     1     -12.087  13.619  63.464  1.00  0.00    -0.341 C  
HETATM   11  C   UNL     1     -12.325  14.461  64.711  1.00  0.00    -0.427 C  
HETATM   12  C   UNL     1     -11.427  14.018  65.867  1.00  0.00    -0.330 C  
ENDBRANCH   5   7
ENDBRANCH   4   5
ENDBRANCH   3   4
ENDBRANCH   2   3
BRANCH   2  13
HETATM   13  N   UNL     1      -7.126   9.609  69.045  1.00  0.00    -0.065 N  
HETATM   14  C   UNL     1      -7.363   8.094  71.001  1.00  0.00    -0.058 C  
HETATM   15  C   UNL     1      -5.789  10.040  69.463  1.00  0.00    -0.037 C  
HETATM   16  C   UNL     1      -7.495   8.256  69.489  1.00  0.00    -0.086 C  
HETATM   17  C   UNL     1      -5.638   9.922  70.984  1.00  0.00    -0.081 C  
HETATM   18  C   UNL     1      -5.974   8.515  71.475  1.00  0.00    -0.045 C  
ENDBRANCH   2  13
TORSDOF 5
ENDMDL
MODEL      216
REMARK 921   NORMALIZED FREE ENERGY PREDICTED BY IDOCK:   -3.04 KCAL/MOL
REMARK 922        TOTAL FREE ENERGY PREDICTED BY IDOCK:   -4.43 KCAL/MOL
REMARK 923 INTER-LIGAND FREE ENERGY PREDICTED BY IDOCK:   -3.76 KCAL/MOL
REMARK 924 INTRA-LIGAND FREE ENERGY PREDICTED BY IDOCK:   -0.67 KCAL/MOL
REMARK 927      BINDING AFFINITY PREDICTED BY RF-SCORE:    0.00 PKD
ROOT
HETATM    1  S   UNL     1     -10.131  18.080  68.560  1.00  0.00    -0.392 S  
HETATM    2  C   UNL     1     -10.058  16.417  68.301  1.00  0.00    -0.248 C  
ENDROOT
BRANCH   2   3
HETATM    3  S   UNL     1      -9.038  15.370  69.317  1.00  0.00    -0.252 SA 
BRANCH   3   4
HETATM    4  S   UNL     1      -7.436  14.989  68.052  1.00  0.00    -0.137 SA 
BRANCH   4   5
HETATM    5  C   UNL     1      -6.678  13.541  68.756  1.00  0.00    -0.105 C  
HETATM    6  S   UNL     1      -6.150  13.619  70.359  1.00  0.00    -0.057 S  
BRANCH   5   7
HETATM    7  N   UNL     1      -6.684  12.371  67.959  1.00  0.00    -0.072 N  
HETATM    8  C   UNL     1      -8.087  10.928  66.485  1.00  0.00    -0.154 C  
HETATM    9  C   UNL     1      -7.866  11.489  67.889  1.00  0.00    -0.123 C  
HETATM   10  C   UNL     1      -6.837  10.242  65.950  1.00  0.00    -0.125 C  
HETATM   11  C   UNL     1      -5.643  11.185  66.029  1.00  0.00    -0.116 C  
HETATM   12  C   UNL     1      -5.457  11.739  67.442  1.00  0.00    -0.094 C  
ENDBRANCH   5   7
ENDBRANCH   4   5
ENDBRANCH   3   4
ENDBRANCH   2   3
BRANCH   2  13
HETATM   13  N   UNL     1     -10.767  15.750  67.297  1.00  0.00    -0.315 N  
HETATM   14  C   UNL     1     -10.871  13.317  66.802  1.00  0.00    -0.289 C  
HETATM   15  C   UNL     1     -10.634  16.096  65.878  1.00  0.00    -0.312 C  
HETATM   16  C   UNL     1     -11.489  14.494  67.551  1.00  0.00    -0.356 C  
HETATM   17  C   UNL     1      -9.982  14.944  65.104  1.00  0.00    -0.277 C  
HETATM   18  C   UNL     1     -10.734  13.630  65.313  1.00  0.00    -0.340 C  
ENDBRANCH   2  13
TORSDOF 5
ENDMDL
MODEL      217
REMARK 921   NORMALIZED FREE ENERGY PREDICTED BY IDOCK:   -3.04 KCAL/MOL
REMARK 922        TOTAL FREE ENERGY PREDICTED BY IDOCK:   -4.43 KCAL/MOL
REMARK 923 INTER-LIGAND FREE ENERGY PREDICTED BY IDOCK:   -4.05 KCAL/MOL
REMARK 924 INTRA-LIGAND FREE ENERGY PREDICTED BY IDOCK:   -0.38 KCAL/MOL
REMARK 927      BINDING AFFINITY PREDICTED BY RF-SCORE:    0.00 PKD
ROOT
HETATM    1  S   UNL     1     -11.947  10.767  70.779  1.00  0.00    -0.355 S  
HETATM    2  C   UNL     1     -11.778  12.066  69.719  1.00  0.00    -0.319 C  
ENDROOT
BRANCH   2   3
HETATM    3  S   UNL     1     -11.001  11.864  68.131  1.00  0.00    -0.246 SA 
BRANCH   3   4
HETATM    4  S   UNL     1     -10.339   9.899  68.234  1.00  0.00    -0.213 SA 
BRANCH   4   5
HETATM    5  C   UNL     1      -8.931   9.870  67.147  1.00  0.00    -0.138 C  
HETATM    6  S   UNL     1      -9.211   9.761  65.484  1.00  0.00    -0.235 S  
BRANCH   5   7
HETATM    7  N   UNL     1      -7.664  10.072  67.745  1.00  0.00    -0.090 N  
HETATM    8  C   UNL     1      -6.425  11.354  69.490  1.00  0.00    -0.122 C  
HETATM    9  C   UNL     1      -7.221  11.409  68.187  1.00  0.00    -0.082 C  
HETATM   10  C   UNL     1      -5.262  10.374  69.399  1.00  0.00    -0.038 C  
HETATM   11  C   UNL     1      -5.760   9.006  68.951  1.00  0.00    -0.040 C  
HETATM   12  C   UNL     1      -6.562   9.097  67.652  1.00  0.00    -0.064 C  
ENDBRANCH   5   7
ENDBRANCH   4   5
ENDBRANCH   3   4
ENDBRANCH   2   3
BRANCH   2  13
HETATM   13  N   UNL     1     -12.219  13.363  69.998  1.00  0.00    -0.321 N  
HETATM   14  C   UNL     1     -11.012  15.520  69.731  1.00  0.00    -0.299 C  
HETATM   15  C   UNL     1     -12.747  13.751  71.310  1.00  0.00    -0.371 C  
HETATM   16  C   UNL     1     -11.946  14.493  69.096  1.00  0.00    -0.309 C  
HETATM   17  C   UNL     1     -11.810  14.757  71.989  1.00  0.00    -0.327 C  
HETATM   18  C   UNL     1     -11.539  15.965  71.094  1.00  0.00    -0.481 C  
ENDBRANCH   2  13
TORSDOF 5
ENDMDL
MODEL      218
REMARK 921   NORMALIZED FREE ENERGY PREDICTED BY IDOCK:   -3.03 KCAL/MOL
REMARK 922        TOTAL FREE ENERGY PREDICTED BY IDOCK:   -4.41 KCAL/MOL
REMARK 923 INTER-LIGAND FREE ENERGY PREDICTED BY IDOCK:   -4.14 KCAL/MOL
REMARK 924 INTRA-LIGAND FREE ENERGY PREDICTED BY IDOCK:   -0.28 KCAL/MOL
REMARK 927      BINDING AFFINITY PREDICTED BY RF-SCORE:    0.00 PKD
ROOT
HETATM    1  S   UNL     1     -11.865  13.444  65.680  1.00  0.00    -0.394 S  
HETATM    2  C   UNL     1     -11.228  12.720  67.061  1.00  0.00    -0.292 C  
ENDROOT
BRANCH   2   3
HETATM    3  S   UNL     1     -10.573  13.699  68.396  1.00  0.00    -0.254 SA 
BRANCH   3   4
HETATM    4  S   UNL     1     -10.374  15.559  67.495  1.00  0.00    -0.276 SA 
BRANCH   4   5
HETATM    5  C   UNL     1      -8.768  16.114  68.024  1.00  0.00    -0.176 C  
HETATM    6  S   UNL     1      -8.091  15.399  69.397  1.00  0.00    -0.219 S  
BRANCH   5   7
HETATM    7  N   UNL     1      -8.105  17.034  67.177  1.00  0.00    -0.183 N  
HETATM    8  C   UNL     1      -8.102  19.384  66.339  1.00  0.00    -0.329 C  
HETATM    9  C   UNL     1      -8.847  18.051  66.406  1.00  0.00    -0.231 C  
HETATM   10  C   UNL     1      -6.680  19.209  65.823  1.00  0.00    -0.295 C  
HETATM   11  C   UNL     1      -5.944  18.160  66.648  1.00  0.00    -0.191 C  
HETATM   12  C   UNL     1      -6.721  16.844  66.706  1.00  0.00    -0.227 C  
ENDBRANCH   5   7
ENDBRANCH   4   5
ENDBRANCH   3   4
ENDBRANCH   2   3
BRANCH   2  13
HETATM   13  N   UNL     1     -11.162  11.337  67.259  1.00  0.00    -0.305 N  
HETATM   14  C   UNL     1      -9.804  10.050  68.895  1.00  0.00    -0.187 C  
HETATM   15  C   UNL     1     -10.853  10.401  66.173  1.00  0.00     0.081 C  
HETATM   16  C   UNL     1     -11.134  10.740  68.603  1.00  0.00    -0.259 C  
HETATM   17  C   UNL     1      -9.503   9.718  66.421  1.00  0.00    -0.237 C  
HETATM   18  C   UNL     1      -9.456   9.050  67.795  1.00  0.00    -0.162 C  
ENDBRANCH   2  13
TORSDOF 5
ENDMDL
MODEL      219
REMARK 921   NORMALIZED FREE ENERGY PREDICTED BY IDOCK:   -3.03 KCAL/MOL
REMARK 922        TOTAL FREE ENERGY PREDICTED BY IDOCK:   -4.41 KCAL/MOL
REMARK 923 INTER-LIGAND FREE ENERGY PREDICTED BY IDOCK:   -4.04 KCAL/MOL
REMARK 924 INTRA-LIGAND FREE ENERGY PREDICTED BY IDOCK:   -0.37 KCAL/MOL
REMARK 927      BINDING AFFINITY PREDICTED BY RF-SCORE:    0.00 PKD
ROOT
HETATM    1  S   UNL     1     -12.035  11.990  69.390  1.00  0.00    -0.236 S  
HETATM    2  C   UNL     1     -10.565  11.231  69.071  1.00  0.00    -0.208 C  
ENDROOT
BRANCH   2   3
HETATM    3  S   UNL     1      -9.292  12.046  68.132  1.00  0.00    -0.200 SA 
BRANCH   3   4
HETATM    4  S   UNL     1     -10.361  13.566  67.206  1.00  0.00    -0.242 SA 
BRANCH   4   5
HETATM    5  C   UNL     1      -9.892  15.025  68.111  1.00  0.00    -0.216 C  
HETATM    6  S   UNL     1     -10.901  15.543  69.364  1.00  0.00    -0.286 S  
BRANCH   5   7
HETATM    7  N   UNL     1      -8.628  15.583  67.803  1.00  0.00    -0.150 N  
HETATM    8  C   UNL     1      -7.449  17.300  66.428  1.00  0.00    -0.336 C  
HETATM    9  C   UNL     1      -8.290  16.023  66.435  1.00  0.00    -0.309 C  
HETATM   10  C   UNL     1      -6.210  17.162  67.302  1.00  0.00    -0.191 C  
HETATM   11  C   UNL     1      -6.600  16.717  68.706  1.00  0.00    -0.180 C  
HETATM   12  C   UNL     1      -7.449  15.446  68.677  1.00  0.00    -0.130 C  
ENDBRANCH   5   7
ENDBRANCH   4   5
ENDBRANCH   3   4
ENDBRANCH   2   3
BRANCH   2  13
HETATM   13  N   UNL     1     -10.243   9.940  69.502  1.00  0.00    -0.209 N  
HETATM   14  C   UNL     1     -10.134   9.042  71.817  1.00  0.00    -0.373 C  
HETATM   15  C   UNL     1      -8.996   9.271  69.118  1.00  0.00    -0.144 C  
HETATM   16  C   UNL     1     -10.991   9.265  70.574  1.00  0.00    -0.265 C  
HETATM   17  C   UNL     1      -8.098   9.066  70.344  1.00  0.00    -0.152 C  
HETATM   18  C   UNL     1      -8.832   8.327  71.462  1.00  0.00    -0.216 C  
ENDBRANCH   2  13
TORSDOF 5
ENDMDL
MODEL      220
REMARK 921   NORMALIZED FREE ENERGY PREDICTED BY IDOCK:   -3.03 KCAL/MOL
REMARK 922        TOTAL FREE ENERGY PREDICTED BY IDOCK:   -4.41 KCAL/MOL
REMARK 923 INTER-LIGAND FREE ENERGY PREDICTED BY IDOCK:   -4.09 KCAL/MOL
REMARK 924 INTRA-LIGAND FREE ENERGY PREDICTED BY IDOCK:   -0.32 KCAL/MOL
REMARK 927      BINDING AFFINITY PREDICTED BY RF-SCORE:    0.00 PKD
ROOT
HETATM    1  S   UNL     1      -9.430  10.920  63.059  1.00  0.00    -0.374 S  
HETATM    2  C   UNL     1     -10.040  11.296  64.584  1.00  0.00    -0.290 C  
ENDROOT
BRANCH   2   3
HETATM    3  S   UNL     1      -9.109  10.946  66.061  1.00  0.00    -0.196 SA 
BRANCH   3   4
HETATM    4  S   UNL     1      -9.667   8.985  66.454  1.00  0.00    -0.285 SA 
BRANCH   4   5
HETATM    5  C   UNL     1      -8.809   8.597  67.963  1.00  0.00    -0.141 C  
HETATM    6  S   UNL     1      -9.371   9.288  69.399  1.00  0.00    -0.171 S  
BRANCH   5   7
HETATM    7  N   UNL     1      -7.784   7.625  67.878  1.00  0.00    -0.113 N  
HETATM    8  C   UNL     1      -6.960   5.651  66.592  1.00  0.00    -0.064 C  
HETATM    9  C   UNL     1      -8.067   6.235  67.470  1.00  0.00    -0.113 C  
HETATM   10  C   UNL     1      -5.593   5.780  67.252  1.00  0.00    -0.012 C  
HETATM   11  C   UNL     1      -5.333   7.228  67.648  1.00  0.00    -0.021 C  
HETATM   12  C   UNL     1      -6.463   7.785  68.514  1.00  0.00    -0.052 C  
ENDBRANCH   5   7
ENDBRANCH   4   5
ENDBRANCH   3   4
ENDBRANCH   2   3
BRANCH   2  13
HETATM   13  N   UNL     1     -11.287  11.889  64.802  1.00  0.00    -0.307 N  
HETATM   14  C   UNL     1     -12.145  14.077  63.992  1.00  0.00    -0.413 C  
HETATM   15  C   UNL     1     -11.833  12.103  66.146  1.00  0.00    -0.254 C  
HETATM   16  C   UNL     1     -12.023  12.579  63.730  1.00  0.00    -0.517 C  
HETATM   17  C   UNL     1     -11.935  13.602  66.452  1.00  0.00    -0.466 C  
HETATM   18  C   UNL     1     -12.730  14.342  65.378  1.00  0.00    -0.297 C  
ENDBRANCH   2  13
TORSDOF 5
ENDMDL
MODEL      221
REMARK 921   NORMALIZED FREE ENERGY PREDICTED BY IDOCK:   -3.02 KCAL/MOL
REMARK 922        TOTAL FREE ENERGY PREDICTED BY IDOCK:   -4.40 KCAL/MOL
REMARK 923 INTER-LIGAND FREE ENERGY PREDICTED BY IDOCK:   -3.99 KCAL/MOL
REMARK 924 INTRA-LIGAND FREE ENERGY PREDICTED BY IDOCK:   -0.41 KCAL/MOL
REMARK 927      BINDING AFFINITY PREDICTED BY RF-SCORE:    0.00 PKD
ROOT
HETATM    1  S   UNL     1     -12.371  10.126  71.205  1.00  0.00    -0.419 S  
HETATM    2  C   UNL     1     -11.319   9.113  70.364  1.00  0.00    -0.224 C  
ENDROOT
BRANCH   2   3
HETATM    3  S   UNL     1     -10.023   9.776  69.339  1.00  0.00    -0.219 SA 
BRANCH   3   4
HETATM    4  S   UNL     1     -11.110  10.636  67.793  1.00  0.00    -0.306 SA 
BRANCH   4   5
HETATM    5  C   UNL     1     -10.039  10.471  66.382  1.00  0.00    -0.228 C  
HETATM    6  S   UNL     1     -10.491  11.241  64.946  1.00  0.00    -0.310 S  
BRANCH   5   7
HETATM    7  N   UNL     1      -8.807   9.809  66.594  1.00  0.00    -0.137 N  
HETATM    8  C   UNL     1      -6.576   9.977  67.699  1.00  0.00    -0.067 C  
HETATM    9  C   UNL     1      -7.530  10.548  66.650  1.00  0.00    -0.120 C  
HETATM   10  C   UNL     1      -6.357   8.483  67.506  1.00  0.00    -0.057 C  
HETATM   11  C   UNL     1      -7.694   7.754  67.463  1.00  0.00    -0.117 C  
HETATM   12  C   UNL     1      -8.629   8.356  66.414  1.00  0.00    -0.127 C  
ENDBRANCH   5   7
ENDBRANCH   4   5
ENDBRANCH   3   4
ENDBRANCH   2   3
BRANCH   2  13
HETATM   13  N   UNL     1     -11.382   7.716  70.402  1.00  0.00    -0.255 N  
HETATM   14  C   UNL     1     -11.315   6.197  72.367  1.00  0.00    -0.340 C  
HETATM   15  C   UNL     1     -10.466   6.866  69.635  1.00  0.00    -0.218 C  
HETATM   16  C   UNL     1     -12.186   6.997  71.403  1.00  0.00    -0.366 C  
HETATM   17  C   UNL     1      -9.553   6.074  70.579  1.00  0.00    -0.198 C  
HETATM   18  C   UNL     1     -10.358   5.281  71.607  1.00  0.00    -0.281 C  
ENDBRANCH   2  13
TORSDOF 5
ENDMDL
MODEL      222
REMARK 921   NORMALIZED FREE ENERGY PREDICTED BY IDOCK:   -3.00 KCAL/MOL
REMARK 922        TOTAL FREE ENERGY PREDICTED BY IDOCK:   -4.38 KCAL/MOL
REMARK 923 INTER-LIGAND FREE ENERGY PREDICTED BY IDOCK:   -4.28 KCAL/MOL
REMARK 924 INTRA-LIGAND FREE ENERGY PREDICTED BY IDOCK:   -0.09 KCAL/MOL
REMARK 927      BINDING AFFINITY PREDICTED BY RF-SCORE:    0.00 PKD
ROOT
HETATM    1  S   UNL     1      -9.343  14.560  66.159  1.00  0.00    -0.144 S  
HETATM    2  C   UNL     1      -9.779  13.007  66.644  1.00  0.00    -0.256 C  
ENDROOT
BRANCH   2   3
HETATM    3  S   UNL     1      -9.172  12.312  68.166  1.00  0.00    -0.191 SA 
BRANCH   3   4
HETATM    4  S   UNL     1      -8.079  10.686  67.478  1.00  0.00    -0.111 SA 
BRANCH   4   5
HETATM    5  C   UNL     1      -9.046   9.282  67.986  1.00  0.00    -0.127 C  
HETATM    6  S   UNL     1     -10.268   8.742  66.951  1.00  0.00    -0.278 S  
BRANCH   5   7
HETATM    7  N   UNL     1      -8.638   8.626  69.172  1.00  0.00    -0.128 N  
HETATM    8  C   UNL     1      -8.911   8.562  71.651  1.00  0.00    -0.285 C  
HETATM    9  C   UNL     1      -8.445   9.363  70.436  1.00  0.00    -0.214 C  
HETATM   10  C   UNL     1      -8.267   7.182  71.696  1.00  0.00    -0.103 C  
HETATM   11  C   UNL     1      -8.497   6.450  70.380  1.00  0.00    -0.131 C  
HETATM   12  C   UNL     1      -8.032   7.282  69.185  1.00  0.00    -0.119 C  
ENDBRANCH   5   7
ENDBRANCH   4   5
ENDBRANCH   3   4
ENDBRANCH   2   3
BRANCH   2  13
HETATM   13  N   UNL     1     -10.623  12.168  65.909  1.00  0.00    -0.250 N  
HETATM   14  C   UNL     1     -10.731  11.815  63.452  1.00  0.00    -0.468 C  
HETATM   15  C   UNL     1     -12.083  12.221  66.028  1.00  0.00    -0.152 C  
HETATM   16  C   UNL     1     -10.133  11.361  64.781  1.00  0.00    -0.277 C  
HETATM   17  C   UNL     1     -12.711  12.708  64.717  1.00  0.00    -0.460 C  
HETATM   18  C   UNL     1     -12.255  11.864  63.527  1.00  0.00    -0.591 C  
ENDBRANCH   2  13
TORSDOF 5
ENDMDL
MODEL      223
REMARK 921   NORMALIZED FREE ENERGY PREDICTED BY IDOCK:   -3.00 KCAL/MOL
REMARK 922        TOTAL FREE ENERGY PREDICTED BY IDOCK:   -4.37 KCAL/MOL
REMARK 923 INTER-LIGAND FREE ENERGY PREDICTED BY IDOCK:   -4.03 KCAL/MOL
REMARK 924 INTRA-LIGAND FREE ENERGY PREDICTED BY IDOCK:   -0.35 KCAL/MOL
REMARK 927      BINDING AFFINITY PREDICTED BY RF-SCORE:    0.00 PKD
ROOT
HETATM    1  S   UNL     1     -10.309  13.468  65.629  1.00  0.00    -0.301 S  
HETATM    2  C   UNL     1     -10.392  12.477  66.989  1.00  0.00    -0.224 C  
ENDROOT
BRANCH   2   3
HETATM    3  S   UNL     1      -9.069  11.359  67.398  1.00  0.00    -0.163 SA 
BRANCH   3   4
HETATM    4  S   UNL     1      -9.483   9.747  66.157  1.00  0.00    -0.224 SA 
BRANCH   4   5
HETATM    5  C   UNL     1      -9.136   8.330  67.175  1.00  0.00    -0.139 C  
HETATM    6  S   UNL     1      -9.306   8.492  68.849  1.00  0.00    -0.146 S  
BRANCH   5   7
HETATM    7  N   UNL     1      -8.862   7.116  66.501  1.00  0.00    -0.136 N  
HETATM    8  C   UNL     1      -9.779   4.871  65.911  1.00  0.00    -0.197 C  
HETATM    9  C   UNL     1      -9.331   5.817  67.025  1.00  0.00    -0.119 C  
HETATM   10  C   UNL     1      -8.699   4.697  64.852  1.00  0.00    -0.145 C  
HETATM   11  C   UNL     1      -8.250   6.056  64.329  1.00  0.00    -0.069 C  
HETATM   12  C   UNL     1      -7.820   6.982  65.468  1.00  0.00    -0.115 C  
ENDBRANCH   5   7
ENDBRANCH   4   5
ENDBRANCH   3   4
ENDBRANCH   2   3
BRANCH   2  13
HETATM   13  N   UNL     1     -11.476  12.453  67.873  1.00  0.00    -0.305 N  
HETATM   14  C   UNL     1     -11.886  13.848  69.888  1.00  0.00    -0.394 C  
HETATM   15  C   UNL     1     -11.908  11.230  68.556  1.00  0.00    -0.285 C  
HETATM   16  C   UNL     1     -12.094  13.686  68.385  1.00  0.00    -0.277 C  
HETATM   17  C   UNL     1     -11.678  11.350  70.067  1.00  0.00    -0.416 C  
HETATM   18  C   UNL     1     -12.344  12.600  70.640  1.00  0.00    -0.375 C  
ENDBRANCH   2  13
TORSDOF 5
ENDMDL
MODEL      224
REMARK 921   NORMALIZED FREE ENERGY PREDICTED BY IDOCK:   -2.99 KCAL/MOL
REMARK 922        TOTAL FREE ENERGY PREDICTED BY IDOCK:   -4.36 KCAL/MOL
REMARK 923 INTER-LIGAND FREE ENERGY PREDICTED BY IDOCK:   -3.79 KCAL/MOL
REMARK 924 INTRA-LIGAND FREE ENERGY PREDICTED BY IDOCK:   -0.57 KCAL/MOL
REMARK 927      BINDING AFFINITY PREDICTED BY RF-SCORE:    0.00 PKD
ROOT
HETATM    1  S   UNL     1      -6.512   6.487  73.394  1.00  0.00    -0.065 S  
HETATM    2  C   UNL     1      -8.174   6.451  73.666  1.00  0.00    -0.112 C  
ENDROOT
BRANCH   2   3
HETATM    3  S   UNL     1      -9.160   7.928  73.545  1.00  0.00    -0.265 SA 
BRANCH   3   4
HETATM    4  S   UNL     1      -8.691   8.591  71.634  1.00  0.00    -0.210 SA 
BRANCH   4   5
HETATM    5  C   UNL     1     -10.227   8.444  70.748  1.00  0.00    -0.194 C  
HETATM    6  S   UNL     1     -11.363   9.683  70.915  1.00  0.00    -0.389 S  
BRANCH   5   7
HETATM    7  N   UNL     1     -10.341   7.353  69.854  1.00  0.00    -0.212 N  
HETATM    8  C   UNL     1      -9.436   6.342  67.760  1.00  0.00    -0.118 C  
HETATM    9  C   UNL     1     -10.165   7.524  68.398  1.00  0.00    -0.185 C  
HETATM   10  C   UNL     1     -10.109   5.018  68.097  1.00  0.00    -0.167 C  
HETATM   11  C   UNL     1     -10.263   4.873  69.606  1.00  0.00    -0.265 C  
HETATM   12  C   UNL     1     -10.984   6.076  70.214  1.00  0.00    -0.342 C  
ENDBRANCH   5   7
ENDBRANCH   4   5
ENDBRANCH   3   4
ENDBRANCH   2   3
BRANCH   2  13
HETATM   13  N   UNL     1      -8.885   5.295  74.003  1.00  0.00    -0.117 N  
HETATM   14  C   UNL     1      -9.345   3.280  72.622  1.00  0.00    -0.147 C  
HETATM   15  C   UNL     1     -10.261   5.338  74.509  1.00  0.00    -0.272 C  
HETATM   16  C   UNL     1      -8.416   3.952  73.630  1.00  0.00    -0.091 C  
HETATM   17  C   UNL     1     -11.224   4.700  73.501  1.00  0.00    -0.400 C  
HETATM   18  C   UNL     1     -10.788   3.285  73.123  1.00  0.00    -0.241 C  
ENDBRANCH   2  13
TORSDOF 5
ENDMDL
MODEL      225
REMARK 921   NORMALIZED FREE ENERGY PREDICTED BY IDOCK:   -2.99 KCAL/MOL
REMARK 922        TOTAL FREE ENERGY PREDICTED BY IDOCK:   -4.36 KCAL/MOL
REMARK 923 INTER-LIGAND FREE ENERGY PREDICTED BY IDOCK:   -3.60 KCAL/MOL
REMARK 924 INTRA-LIGAND FREE ENERGY PREDICTED BY IDOCK:   -0.75 KCAL/MOL
REMARK 927      BINDING AFFINITY PREDICTED BY RF-SCORE:    0.00 PKD
ROOT
HETATM    1  S   UNL     1     -10.545   7.190  68.319  1.00  0.00    -0.161 S  
HETATM    2  C   UNL     1     -10.498   8.739  68.980  1.00  0.00    -0.203 C  
ENDROOT
BRANCH   2   3
HETATM    3  S   UNL     1      -9.868  10.120  68.049  1.00  0.00    -0.151 SA 
BRANCH   3   4
HETATM    4  S   UNL     1      -8.068  10.491  69.015  1.00  0.00    -0.148 SA 
BRANCH   4   5
HETATM    5  C   UNL     1      -7.207   8.937  68.915  1.00  0.00    -0.074 C  
HETATM    6  S   UNL     1      -6.321   8.608  67.514  1.00  0.00    -0.057 S  
BRANCH   5   7
HETATM    7  N   UNL     1      -7.217   8.130  70.076  1.00  0.00    -0.056 N  
HETATM    8  C   UNL     1      -7.727   8.094  72.519  1.00  0.00    -0.169 C  
HETATM    9  C   UNL     1      -6.862   8.676  71.401  1.00  0.00    -0.082 C  
HETATM   10  C   UNL     1      -7.708   6.571  72.511  1.00  0.00    -0.099 C  
HETATM   11  C   UNL     1      -8.089   6.046  71.132  1.00  0.00    -0.121 C  
HETATM   12  C   UNL     1      -7.214   6.656  70.037  1.00  0.00    -0.080 C  
ENDBRANCH   5   7
ENDBRANCH   4   5
ENDBRANCH   3   4
ENDBRANCH   2   3
BRANCH   2  13
HETATM   13  N   UNL     1     -10.933   9.050  70.272  1.00  0.00    -0.241 N  
HETATM   14  C   UNL     1     -12.569   7.849  71.707  1.00  0.00    -0.353 C  
HETATM   15  C   UNL     1     -11.497  10.359  70.619  1.00  0.00    -0.349 C  
HETATM   16  C   UNL     1     -11.105   8.020  71.308  1.00  0.00    -0.247 C  
HETATM   17  C   UNL     1     -12.979  10.223  70.991  1.00  0.00    -0.488 C  
HETATM   18  C   UNL     1     -13.188   9.190  72.096  1.00  0.00    -0.524 C  
ENDBRANCH   2  13
TORSDOF 5
ENDMDL
MODEL      226
REMARK 921   NORMALIZED FREE ENERGY PREDICTED BY IDOCK:   -2.98 KCAL/MOL
REMARK 922        TOTAL FREE ENERGY PREDICTED BY IDOCK:   -4.35 KCAL/MOL
REMARK 923 INTER-LIGAND FREE ENERGY PREDICTED BY IDOCK:   -4.09 KCAL/MOL
REMARK 924 INTRA-LIGAND FREE ENERGY PREDICTED BY IDOCK:   -0.26 KCAL/MOL
REMARK 927      BINDING AFFINITY PREDICTED BY RF-SCORE:    0.00 PKD
ROOT
HETATM    1  S   UNL     1     -10.626   5.968  66.967  1.00  0.00    -0.340 S  
HETATM    2  C   UNL     1     -10.161   7.538  67.361  1.00  0.00    -0.249 C  
ENDROOT
BRANCH   2   3
HETATM    3  S   UNL     1     -10.293   8.148  69.028  1.00  0.00    -0.203 SA 
BRANCH   3   4
HETATM    4  S   UNL     1     -11.190   6.544  69.992  1.00  0.00    -0.415 SA 
BRANCH   4   5
HETATM    5  C   UNL     1     -11.428   7.130  71.655  1.00  0.00    -0.266 C  
HETATM    6  S   UNL     1     -12.466   8.442  71.895  1.00  0.00    -0.367 S  
BRANCH   5   7
HETATM    7  N   UNL     1     -10.828   6.371  72.688  1.00  0.00    -0.230 N  
HETATM    8  C   UNL     1      -9.699   4.212  73.226  1.00  0.00    -0.151 C  
HETATM    9  C   UNL     1     -10.979   4.904  72.758  1.00  0.00    -0.225 C  
HETATM   10  C   UNL     1      -9.194   4.792  74.540  1.00  0.00    -0.118 C  
HETATM   11  C   UNL     1      -9.041   6.304  74.425  1.00  0.00    -0.168 C  
HETATM   12  C   UNL     1     -10.333   6.964  73.944  1.00  0.00    -0.365 C  
ENDBRANCH   5   7
ENDBRANCH   4   5
ENDBRANCH   3   4
ENDBRANCH   2   3
BRANCH   2  13
HETATM   13  N   UNL     1      -9.656   8.458  66.436  1.00  0.00    -0.231 N  
HETATM   14  C   UNL     1      -7.320   9.248  66.127  1.00  0.00    -0.095 C  
HETATM   15  C   UNL     1     -10.198   9.813  66.298  1.00  0.00    -0.212 C  
HETATM   16  C   UNL     1      -8.388   8.235  65.724  1.00  0.00    -0.137 C  
HETATM   17  C   UNL     1      -9.158  10.854  66.730  1.00  0.00    -0.164 C  
HETATM   18  C   UNL     1      -7.840  10.677  65.978  1.00  0.00    -0.156 C  
ENDBRANCH   2  13
TORSDOF 5
ENDMDL
MODEL      227
REMARK 921   NORMALIZED FREE ENERGY PREDICTED BY IDOCK:   -2.95 KCAL/MOL
REMARK 922        TOTAL FREE ENERGY PREDICTED BY IDOCK:   -4.31 KCAL/MOL
REMARK 923 INTER-LIGAND FREE ENERGY PREDICTED BY IDOCK:   -3.77 KCAL/MOL
REMARK 924 INTRA-LIGAND FREE ENERGY PREDICTED BY IDOCK:   -0.54 KCAL/MOL
REMARK 927      BINDING AFFINITY PREDICTED BY RF-SCORE:    0.00 PKD
ROOT
HETATM    1  S   UNL     1      -7.634  12.832  67.492  1.00  0.00    -0.159 S  
HETATM    2  C   UNL     1      -8.618  11.554  67.005  1.00  0.00    -0.161 C  
ENDROOT
BRANCH   2   3
HETATM    3  S   UNL     1      -9.769  11.738  65.660  1.00  0.00    -0.220 SA 
BRANCH   3   4
HETATM    4  S   UNL     1      -9.811  13.800  65.421  1.00  0.00    -0.068 SA 
BRANCH   4   5
HETATM    5  C   UNL     1     -11.378  14.274  66.116  1.00  0.00    -0.342 C  
HETATM    6  S   UNL     1     -12.775  13.956  65.220  1.00  0.00    -0.376 S  
BRANCH   5   7
HETATM    7  N   UNL     1     -11.360  14.772  67.441  1.00  0.00    -0.340 N  
HETATM    8  C   UNL     1     -10.684  14.269  69.790  1.00  0.00     0.035 C  
HETATM    9  C   UNL     1     -11.570  13.887  68.604  1.00  0.00    -0.328 C  
HETATM   10  C   UNL     1     -10.843  15.737  70.160  1.00  0.00    -0.360 C  
HETATM   11  C   UNL     1     -10.609  16.618  68.939  1.00  0.00    -0.337 C  
HETATM   12  C   UNL     1     -11.500  16.203  67.768  1.00  0.00    -0.033 C  
ENDBRANCH   5   7
ENDBRANCH   4   5
ENDBRANCH   3   4
ENDBRANCH   2   3
BRANCH   2  13
HETATM   13  N   UNL     1      -8.612  10.291  67.605  1.00  0.00    -0.118 N  
HETATM   14  C   UNL     1     -10.510   8.741  68.018  1.00  0.00    -0.260 C  
HETATM   15  C   UNL     1      -8.050  10.056  68.939  1.00  0.00    -0.111 C  
HETATM   16  C   UNL     1      -9.393   9.166  67.068  1.00  0.00    -0.148 C  
HETATM   17  C   UNL     1      -9.156   9.661  69.925  1.00  0.00    -0.250 C  
HETATM   18  C   UNL     1      -9.962   8.467  69.416  1.00  0.00    -0.191 C  
ENDBRANCH   2  13
TORSDOF 5
ENDMDL
MODEL      228
REMARK 921   NORMALIZED FREE ENERGY PREDICTED BY IDOCK:   -2.94 KCAL/MOL
REMARK 922        TOTAL FREE ENERGY PREDICTED BY IDOCK:   -4.30 KCAL/MOL
REMARK 923 INTER-LIGAND FREE ENERGY PREDICTED BY IDOCK:   -4.03 KCAL/MOL
REMARK 924 INTRA-LIGAND FREE ENERGY PREDICTED BY IDOCK:   -0.27 KCAL/MOL
REMARK 927      BINDING AFFINITY PREDICTED BY RF-SCORE:    0.00 PKD
ROOT
HETATM    1  S   UNL     1      -9.096   9.828  66.830  1.00  0.00    -0.144 S  
HETATM    2  C   UNL     1     -10.285  10.642  67.703  1.00  0.00    -0.194 C  
ENDROOT
BRANCH   2   3
HETATM    3  S   UNL     1     -10.596  10.263  69.414  1.00  0.00    -0.253 SA 
BRANCH   3   4
HETATM    4  S   UNL     1     -10.863   8.205  69.346  1.00  0.00    -0.008 SA 
BRANCH   4   5
HETATM    5  C   UNL     1     -11.154   7.761  71.044  1.00  0.00    -0.257 C  
HETATM    6  S   UNL     1     -11.785   8.940  72.078  1.00  0.00    -0.347 S  
BRANCH   5   7
HETATM    7  N   UNL     1     -10.957   6.403  71.388  1.00  0.00    -0.256 N  
HETATM    8  C   UNL     1      -9.590   4.368  70.918  1.00  0.00    -0.255 C  
HETATM    9  C   UNL     1     -10.585   5.395  70.375  1.00  0.00    -0.252 C  
HETATM   10  C   UNL     1     -10.094   3.722  72.202  1.00  0.00    -0.220 C  
HETATM   11  C   UNL     1     -10.458   4.792  73.224  1.00  0.00    -0.258 C  
HETATM   12  C   UNL     1     -11.443   5.808  72.646  1.00  0.00    -0.287 C  
ENDBRANCH   5   7
ENDBRANCH   4   5
ENDBRANCH   3   4
ENDBRANCH   2   3
BRANCH   2  13
HETATM   13  N   UNL     1     -11.099  11.645  67.165  1.00  0.00    -0.282 N  
HETATM   14  C   UNL     1     -10.455  13.869  66.261  1.00  0.00    -0.287 C  
HETATM   15  C   UNL     1     -12.243  12.204  67.892  1.00  0.00     0.320 C  
HETATM   16  C   UNL     1     -10.720  12.397  65.959  1.00  0.00    -0.261 C  
HETATM   17  C   UNL     1     -11.991  13.675  68.242  1.00  0.00    -0.385 C  
HETATM   18  C   UNL     1     -11.635  14.494  67.002  1.00  0.00    -0.402 C  
ENDBRANCH   2  13
TORSDOF 5
ENDMDL
MODEL      229
REMARK 921   NORMALIZED FREE ENERGY PREDICTED BY IDOCK:   -2.94 KCAL/MOL
REMARK 922        TOTAL FREE ENERGY PREDICTED BY IDOCK:   -4.29 KCAL/MOL
REMARK 923 INTER-LIGAND FREE ENERGY PREDICTED BY IDOCK:   -3.99 KCAL/MOL
REMARK 924 INTRA-LIGAND FREE ENERGY PREDICTED BY IDOCK:   -0.30 KCAL/MOL
REMARK 927      BINDING AFFINITY PREDICTED BY RF-SCORE:    0.00 PKD
ROOT
HETATM    1  S   UNL     1     -10.028  10.350  65.850  1.00  0.00    -0.260 S  
HETATM    2  C   UNL     1      -9.025   9.031  65.550  1.00  0.00    -0.204 C  
ENDROOT
BRANCH   2   3
HETATM    3  S   UNL     1      -8.722   7.800  66.800  1.00  0.00    -0.142 SA 
BRANCH   3   4
HETATM    4  S   UNL     1     -10.654   7.237  67.311  1.00  0.00    -0.327 SA 
BRANCH   4   5
HETATM    5  C   UNL     1     -10.447   6.364  68.847  1.00  0.00    -0.223 C  
HETATM    6  S   UNL     1      -9.623   4.888  68.819  1.00  0.00    -0.166 S  
BRANCH   5   7
HETATM    7  N   UNL     1     -10.876   7.031  70.019  1.00  0.00    -0.251 N  
HETATM    8  C   UNL     1     -11.125   6.828  72.494  1.00  0.00    -0.299 C  
HETATM    9  C   UNL     1     -11.546   6.308  71.119  1.00  0.00    -0.275 C  
HETATM   10  C   UNL     1     -11.315   8.335  72.608  1.00  0.00    -0.421 C  
HETATM   11  C   UNL     1     -10.602   9.045  71.463  1.00  0.00    -0.415 C  
HETATM   12  C   UNL     1     -11.035   8.494  70.104  1.00  0.00    -0.216 C  
ENDBRANCH   5   7
ENDBRANCH   4   5
ENDBRANCH   3   4
ENDBRANCH   2   3
BRANCH   2  13
HETATM   13  N   UNL     1      -8.369   8.809  64.335  1.00  0.00    -0.168 N  
HETATM   14  C   UNL     1      -5.975   9.150  63.761  1.00  0.00    -0.083 C  
HETATM   15  C   UNL     1      -8.820   9.410  63.076  1.00  0.00    -0.195 C  
HETATM   16  C   UNL     1      -7.040   8.181  64.267  1.00  0.00    -0.078 C  
HETATM   17  C   UNL     1      -7.784  10.416  62.560  1.00  0.00    -0.167 C  
HETATM   18  C   UNL     1      -6.399   9.784  62.438  1.00  0.00    -0.102 C  
ENDBRANCH   2  13
TORSDOF 5
ENDMDL
MODEL      230
REMARK 921   NORMALIZED FREE ENERGY PREDICTED BY IDOCK:   -2.94 KCAL/MOL
REMARK 922        TOTAL FREE ENERGY PREDICTED BY IDOCK:   -4.29 KCAL/MOL
REMARK 923 INTER-LIGAND FREE ENERGY PREDICTED BY IDOCK:   -3.77 KCAL/MOL
REMARK 924 INTRA-LIGAND FREE ENERGY PREDICTED BY IDOCK:   -0.52 KCAL/MOL
REMARK 927      BINDING AFFINITY PREDICTED BY RF-SCORE:    0.00 PKD
ROOT
HETATM    1  S   UNL     1      -7.867   6.473  67.759  1.00  0.00    -0.112 S  
HETATM    2  C   UNL     1      -9.450   5.948  67.519  1.00  0.00    -0.110 C  
ENDROOT
BRANCH   2   3
HETATM    3  S   UNL     1     -10.838   6.962  67.983  1.00  0.00    -0.171 SA 
BRANCH   3   4
HETATM    4  S   UNL     1     -11.040   6.501  69.997  1.00  0.00    -0.395 SA 
BRANCH   4   5
HETATM    5  C   UNL     1     -11.399   8.070  70.755  1.00  0.00    -0.272 C  
HETATM    6  S   UNL     1     -12.286   8.074  72.194  1.00  0.00    -0.296 S  
BRANCH   5   7
HETATM    7  N   UNL     1     -10.801   9.210  70.168  1.00  0.00    -0.234 N  
HETATM    8  C   UNL     1      -8.729  10.087  69.087  1.00  0.00    -0.168 C  
HETATM    9  C   UNL     1      -9.369   9.516  70.353  1.00  0.00    -0.257 C  
HETATM   10  C   UNL     1      -9.501  11.289  68.561  1.00  0.00    -0.191 C  
HETATM   11  C   UNL     1     -10.970  10.932  68.372  1.00  0.00    -0.288 C  
HETATM   12  C   UNL     1     -11.576  10.354  69.651  1.00  0.00    -0.239 C  
ENDBRANCH   5   7
ENDBRANCH   4   5
ENDBRANCH   3   4
ENDBRANCH   2   3
BRANCH   2  13
HETATM   13  N   UNL     1      -9.787   4.712  66.958  1.00  0.00    -0.198 N  
HETATM   14  C   UNL     1      -8.356   2.711  66.601  1.00  0.00    -0.090 C  
HETATM   15  C   UNL     1     -10.396   4.590  65.630  1.00  0.00    -0.247 C  
HETATM   16  C   UNL     1      -9.321   3.440  67.533  1.00  0.00    -0.204 C  
HETATM   17  C   UNL     1      -9.434   3.892  64.661  1.00  0.00    -0.167 C  
HETATM   18  C   UNL     1      -8.963   2.545  65.210  1.00  0.00    -0.134 C  
ENDBRANCH   2  13
TORSDOF 5
ENDMDL
MODEL      231
REMARK 921   NORMALIZED FREE ENERGY PREDICTED BY IDOCK:   -2.92 KCAL/MOL
REMARK 922        TOTAL FREE ENERGY PREDICTED BY IDOCK:   -4.27 KCAL/MOL
REMARK 923 INTER-LIGAND FREE ENERGY PREDICTED BY IDOCK:   -3.96 KCAL/MOL
REMARK 924 INTRA-LIGAND FREE ENERGY PREDICTED BY IDOCK:   -0.30 KCAL/MOL
REMARK 927      BINDING AFFINITY PREDICTED BY RF-SCORE:    0.00 PKD
ROOT
HETATM    1  S   UNL     1     -12.025  13.709  66.513  1.00  0.00    -0.427 S  
HETATM    2  C   UNL     1     -10.467  13.467  67.107  1.00  0.00    -0.256 C  
ENDROOT
BRANCH   2   3
HETATM    3  S   UNL     1      -9.744  11.842  67.162  1.00  0.00    -0.184 SA 
BRANCH   3   4
HETATM    4  S   UNL     1     -10.484  11.114  68.961  1.00  0.00    -0.181 SA 
BRANCH   4   5
HETATM    5  C   UNL     1     -10.785   9.392  68.628  1.00  0.00    -0.160 C  
HETATM    6  S   UNL     1     -10.764   8.878  67.018  1.00  0.00     0.020 S  
BRANCH   5   7
HETATM    7  N   UNL     1     -10.895   8.538  69.751  1.00  0.00    -0.211 N  
HETATM    8  C   UNL     1     -10.540   8.371  72.215  1.00  0.00    -0.412 C  
HETATM    9  C   UNL     1      -9.899   8.562  70.841  1.00  0.00    -0.189 C  
HETATM   10  C   UNL     1     -11.404   7.118  72.264  1.00  0.00    -0.303 C  
HETATM   11  C   UNL     1     -12.424   7.135  71.132  1.00  0.00    -0.400 C  
HETATM   12  C   UNL     1     -11.752   7.339  69.774  1.00  0.00     0.176 C  
ENDBRANCH   5   7
ENDBRANCH   4   5
ENDBRANCH   3   4
ENDBRANCH   2   3
BRANCH   2  13
HETATM   13  N   UNL     1      -9.648  14.492  67.591  1.00  0.00    -0.211 N  
HETATM   14  C   UNL     1      -8.605  16.381  66.358  1.00  0.00    -0.358 C  
HETATM   15  C   UNL     1      -8.420  14.227  68.347  1.00  0.00    -0.166 C  
HETATM   16  C   UNL     1      -9.807  15.890  67.160  1.00  0.00    -0.231 C  
HETATM   17  C   UNL     1      -7.191  14.678  67.549  1.00  0.00    -0.216 C  
HETATM   18  C   UNL     1      -7.305  16.141  67.121  1.00  0.00    -0.250 C  
ENDBRANCH   2  13
TORSDOF 5
ENDMDL
MODEL      232
REMARK 921   NORMALIZED FREE ENERGY PREDICTED BY IDOCK:   -2.92 KCAL/MOL
REMARK 922        TOTAL FREE ENERGY PREDICTED BY IDOCK:   -4.26 KCAL/MOL
REMARK 923 INTER-LIGAND FREE ENERGY PREDICTED BY IDOCK:   -3.47 KCAL/MOL
REMARK 924 INTRA-LIGAND FREE ENERGY PREDICTED BY IDOCK:   -0.79 KCAL/MOL
REMARK 927      BINDING AFFINITY PREDICTED BY RF-SCORE:    0.00 PKD
ROOT
HETATM    1  S   UNL     1      -9.900   5.597  66.944  1.00  0.00    -0.177 S  
HETATM    2  C   UNL     1      -9.486   6.615  68.220  1.00  0.00    -0.123 C  
ENDROOT
BRANCH   2   3
HETATM    3  S   UNL     1      -9.596   6.067  69.910  1.00  0.00    -0.161 SA 
BRANCH   3   4
HETATM    4  S   UNL     1     -11.559   6.552  70.382  1.00  0.00    -0.362 SA 
BRANCH   4   5
HETATM    5  C   UNL     1     -11.396   7.733  71.704  1.00  0.00    -0.253 C  
HETATM    6  S   UNL     1     -12.528   8.985  71.796  1.00  0.00    -0.396 S  
BRANCH   5   7
HETATM    7  N   UNL     1     -10.398   7.468  72.672  1.00  0.00    -0.235 N  
HETATM    8  C   UNL     1      -9.315   5.679  74.033  1.00  0.00    -0.135 C  
HETATM    9  C   UNL     1     -10.596   6.457  73.730  1.00  0.00    -0.253 C  
HETATM   10  C   UNL     1      -8.153   6.610  74.349  1.00  0.00    -0.136 C  
HETATM   11  C   UNL     1      -7.974   7.630  73.232  1.00  0.00    -0.156 C  
HETATM   12  C   UNL     1      -9.274   8.382  72.945  1.00  0.00    -0.218 C  
ENDBRANCH   5   7
ENDBRANCH   4   5
ENDBRANCH   3   4
ENDBRANCH   2   3
BRANCH   2  13
HETATM   13  N   UNL     1      -9.042   7.932  68.057  1.00  0.00    -0.133 N  
HETATM   14  C   UNL     1      -7.333   9.182  69.357  1.00  0.00    -0.076 C  
HETATM   15  C   UNL     1      -9.959   9.075  68.045  1.00  0.00    -0.176 C  
HETATM   16  C   UNL     1      -7.620   8.294  68.150  1.00  0.00    -0.098 C  
HETATM   17  C   UNL     1      -9.719   9.969  69.268  1.00  0.00    -0.227 C  
HETATM   18  C   UNL     1      -8.256  10.399  69.371  1.00  0.00    -0.158 C  
ENDBRANCH   2  13
TORSDOF 5
ENDMDL
MODEL      233
REMARK 921   NORMALIZED FREE ENERGY PREDICTED BY IDOCK:   -2.91 KCAL/MOL
REMARK 922        TOTAL FREE ENERGY PREDICTED BY IDOCK:   -4.25 KCAL/MOL
REMARK 923 INTER-LIGAND FREE ENERGY PREDICTED BY IDOCK:   -3.88 KCAL/MOL
REMARK 924 INTRA-LIGAND FREE ENERGY PREDICTED BY IDOCK:   -0.37 KCAL/MOL
REMARK 927      BINDING AFFINITY PREDICTED BY RF-SCORE:    0.00 PKD
ROOT
HETATM    1  S   UNL     1      -6.795   6.569  68.362  1.00  0.00    -0.073 S  
HETATM    2  C   UNL     1      -8.290   6.966  67.695  1.00  0.00    -0.123 C  
ENDROOT
BRANCH   2   3
HETATM    3  S   UNL     1      -9.515   7.850  68.637  1.00  0.00    -0.150 SA 
BRANCH   3   4
HETATM    4  S   UNL     1      -8.871   7.514  70.582  1.00  0.00    -0.146 SA 
BRANCH   4   5
HETATM    5  C   UNL     1     -10.216   6.616  71.323  1.00  0.00    -0.200 C  
HETATM    6  S   UNL     1      -9.966   4.992  71.721  1.00  0.00    -0.197 S  
BRANCH   5   7
HETATM    7  N   UNL     1     -11.373   7.362  71.651  1.00  0.00    -0.251 N  
HETATM    8  C   UNL     1     -12.437   9.616  71.525  1.00  0.00    -0.476 C  
HETATM    9  C   UNL     1     -11.288   8.773  72.079  1.00  0.00    -0.371 C  
HETATM   10  C   UNL     1     -13.793   9.005  71.855  1.00  0.00    -0.477 C  
HETATM   11  C   UNL     1     -13.845   7.555  71.391  1.00  0.00    -0.439 C  
HETATM   12  C   UNL     1     -12.677   6.743  71.951  1.00  0.00    -0.255 C  
ENDBRANCH   5   7
ENDBRANCH   4   5
ENDBRANCH   3   4
ENDBRANCH   2   3
BRANCH   2  13
HETATM   13  N   UNL     1      -8.676   6.639  66.391  1.00  0.00    -0.136 N  
HETATM   14  C   UNL     1      -8.478   4.469  65.196  1.00  0.00    -0.126 C  
HETATM   15  C   UNL     1      -8.216   7.395  65.222  1.00  0.00    -0.127 C  
HETATM   16  C   UNL     1      -9.347   5.370  66.069  1.00  0.00    -0.156 C  
HETATM   17  C   UNL     1      -7.310   6.525  64.342  1.00  0.00    -0.079 C  
HETATM   18  C   UNL     1      -7.995   5.215  63.954  1.00  0.00    -0.102 C  
ENDBRANCH   2  13
TORSDOF 5
ENDMDL
MODEL      234
REMARK 921   NORMALIZED FREE ENERGY PREDICTED BY IDOCK:   -2.89 KCAL/MOL
REMARK 922        TOTAL FREE ENERGY PREDICTED BY IDOCK:   -4.24 KCAL/MOL
REMARK 923 INTER-LIGAND FREE ENERGY PREDICTED BY IDOCK:   -3.80 KCAL/MOL
REMARK 924 INTRA-LIGAND FREE ENERGY PREDICTED BY IDOCK:   -0.44 KCAL/MOL
REMARK 927      BINDING AFFINITY PREDICTED BY RF-SCORE:    0.00 PKD
ROOT
HETATM    1  S   UNL     1      -8.178   7.253  66.093  1.00  0.00    -0.138 S  
HETATM    2  C   UNL     1      -9.592   7.678  66.904  1.00  0.00    -0.193 C  
ENDROOT
BRANCH   2   3
HETATM    3  S   UNL     1     -10.900   6.497  67.156  1.00  0.00    -0.405 SA 
BRANCH   3   4
HETATM    4  S   UNL     1     -11.115   6.544  69.221  1.00  0.00    -0.323 SA 
BRANCH   4   5
HETATM    5  C   UNL     1     -10.220   5.108  69.772  1.00  0.00    -0.287 C  
HETATM    6  S   UNL     1      -9.319   4.246  68.630  1.00  0.00    -0.159 S  
BRANCH   5   7
HETATM    7  N   UNL     1     -10.217   4.857  71.164  1.00  0.00    -0.210 N  
HETATM    8  C   UNL     1     -11.092   5.636  73.368  1.00  0.00    -0.238 C  
HETATM    9  C   UNL     1     -10.227   5.958  72.149  1.00  0.00    -0.195 C  
HETATM   10  C   UNL     1     -10.695   4.311  74.005  1.00  0.00    -0.320 C  
HETATM   11  C   UNL     1     -10.707   3.200  72.962  1.00  0.00    -0.219 C  
HETATM   12  C   UNL     1      -9.844   3.558  71.751  1.00  0.00    -0.160 C  
ENDBRANCH   5   7
ENDBRANCH   4   5
ENDBRANCH   3   4
ENDBRANCH   2   3
BRANCH   2  13
HETATM   13  N   UNL     1      -9.843   8.952  67.422  1.00  0.00    -0.179 N  
HETATM   14  C   UNL     1     -10.293  11.076  66.211  1.00  0.00    -0.304 C  
HETATM   15  C   UNL     1      -8.934   9.611  68.365  1.00  0.00    -0.123 C  
HETATM   16  C   UNL     1     -10.884   9.831  66.867  1.00  0.00    -0.050 C  
HETATM   17  C   UNL     1      -8.296  10.848  67.721  1.00  0.00    -0.117 C  
HETATM   18  C   UNL     1      -9.354  11.803  67.170  1.00  0.00    -0.178 C  
ENDBRANCH   2  13
TORSDOF 5
ENDMDL
MODEL      235
REMARK 921   NORMALIZED FREE ENERGY PREDICTED BY IDOCK:   -2.89 KCAL/MOL
REMARK 922        TOTAL FREE ENERGY PREDICTED BY IDOCK:   -4.23 KCAL/MOL
REMARK 923 INTER-LIGAND FREE ENERGY PREDICTED BY IDOCK:   -3.63 KCAL/MOL
REMARK 924 INTRA-LIGAND FREE ENERGY PREDICTED BY IDOCK:   -0.60 KCAL/MOL
REMARK 927      BINDING AFFINITY PREDICTED BY RF-SCORE:    0.00 PKD
ROOT
HETATM    1  S   UNL     1     -10.997  10.637  69.625  1.00  0.00    -0.280 S  
HETATM    2  C   UNL     1     -10.416   9.204  70.293  1.00  0.00    -0.218 C  
ENDROOT
BRANCH   2   3
HETATM    3  S   UNL     1      -9.097   8.294  69.518  1.00  0.00    -0.154 SA 
BRANCH   3   4
HETATM    4  S   UNL     1     -10.151   6.905  68.391  1.00  0.00    -0.176 SA 
BRANCH   4   5
HETATM    5  C   UNL     1      -9.258   6.844  66.853  1.00  0.00    -0.145 C  
HETATM    6  S   UNL     1      -9.152   5.359  66.053  1.00  0.00    -0.155 S  
BRANCH   5   7
HETATM    7  N   UNL     1      -8.803   8.080  66.334  1.00  0.00    -0.148 N  
HETATM    8  C   UNL     1      -9.281  10.526  66.205  1.00  0.00    -0.192 C  
HETATM    9  C   UNL     1      -9.745   9.112  65.856  1.00  0.00    -0.266 C  
HETATM   10  C   UNL     1      -7.860  10.787  65.721  1.00  0.00    -0.106 C  
HETATM   11  C   UNL     1      -6.918   9.709  66.243  1.00  0.00    -0.092 C  
HETATM   12  C   UNL     1      -7.417   8.308  65.888  1.00  0.00    -0.081 C  
ENDBRANCH   5   7
ENDBRANCH   4   5
ENDBRANCH   3   4
ENDBRANCH   2   3
BRANCH   2  13
HETATM   13  N   UNL     1     -10.912   8.633  71.469  1.00  0.00    -0.267 N  
HETATM   14  C   UNL     1     -10.059   6.677  72.743  1.00  0.00    -0.195 C  
HETATM   15  C   UNL     1     -12.304   8.192  71.603  1.00  0.00    -0.314 C  
HETATM   16  C   UNL     1     -10.027   8.191  72.558  1.00  0.00    -0.302 C  
HETATM   17  C   UNL     1     -12.371   6.667  71.756  1.00  0.00    -0.385 C  
HETATM   18  C   UNL     1     -11.494   6.178  72.908  1.00  0.00    -0.148 C  
ENDBRANCH   2  13
TORSDOF 5
ENDMDL
MODEL      236
REMARK 921   NORMALIZED FREE ENERGY PREDICTED BY IDOCK:   -2.89 KCAL/MOL
REMARK 922        TOTAL FREE ENERGY PREDICTED BY IDOCK:   -4.23 KCAL/MOL
REMARK 923 INTER-LIGAND FREE ENERGY PREDICTED BY IDOCK:   -3.80 KCAL/MOL
REMARK 924 INTRA-LIGAND FREE ENERGY PREDICTED BY IDOCK:   -0.42 KCAL/MOL
REMARK 927      BINDING AFFINITY PREDICTED BY RF-SCORE:    0.00 PKD
ROOT
HETATM    1  S   UNL     1     -12.138  11.046  69.982  1.00  0.00    -0.375 S  
HETATM    2  C   UNL     1     -10.829  11.653  69.112  1.00  0.00    -0.184 C  
ENDROOT
BRANCH   2   3
HETATM    3  S   UNL     1      -9.366  10.674  68.844  1.00  0.00    -0.173 SA 
BRANCH   3   4
HETATM    4  S   UNL     1     -10.042   9.277  67.465  1.00  0.00    -0.235 SA 
BRANCH   4   5
HETATM    5  C   UNL     1      -8.649   8.191  67.248  1.00  0.00    -0.124 C  
HETATM    6  S   UNL     1      -8.481   6.891  68.316  1.00  0.00    -0.125 S  
BRANCH   5   7
HETATM    7  N   UNL     1      -7.842   8.414  66.108  1.00  0.00    -0.099 N  
HETATM    8  C   UNL     1      -7.796   8.370  63.613  1.00  0.00    -0.152 C  
HETATM    9  C   UNL     1      -7.952   7.566  64.904  1.00  0.00    -0.132 C  
HETATM   10  C   UNL     1      -6.513   9.191  63.613  1.00  0.00    -0.090 C  
HETATM   11  C   UNL     1      -6.441  10.059  64.863  1.00  0.00    -0.125 C  
HETATM   12  C   UNL     1      -6.612   9.227  66.135  1.00  0.00    -0.070 C  
ENDBRANCH   5   7
ENDBRANCH   4   5
ENDBRANCH   3   4
ENDBRANCH   2   3
BRANCH   2  13
HETATM   13  N   UNL     1     -10.790  12.934  68.553  1.00  0.00    -0.250 N  
HETATM   14  C   UNL     1     -12.105  13.859  66.658  1.00  0.00    -0.485 C  
HETATM   15  C   UNL     1      -9.547  13.543  68.067  1.00  0.00    -0.221 C  
HETATM   16  C   UNL     1     -12.012  13.657  68.168  1.00  0.00    -0.355 C  
HETATM   17  C   UNL     1      -9.598  13.726  66.546  1.00  0.00    -0.295 C  
HETATM   18  C   UNL     1     -10.836  14.511  66.115  1.00  0.00    -0.317 C  
ENDBRANCH   2  13
TORSDOF 5
ENDMDL
MODEL      237
REMARK 921   NORMALIZED FREE ENERGY PREDICTED BY IDOCK:   -2.88 KCAL/MOL
REMARK 922        TOTAL FREE ENERGY PREDICTED BY IDOCK:   -4.22 KCAL/MOL
REMARK 923 INTER-LIGAND FREE ENERGY PREDICTED BY IDOCK:   -3.83 KCAL/MOL
REMARK 924 INTRA-LIGAND FREE ENERGY PREDICTED BY IDOCK:   -0.39 KCAL/MOL
REMARK 927      BINDING AFFINITY PREDICTED BY RF-SCORE:    0.00 PKD
ROOT
HETATM    1  S   UNL     1      -9.498   6.867  69.788  1.00  0.00    -0.143 S  
HETATM    2  C   UNL     1      -9.362   7.031  68.117  1.00  0.00    -0.125 C  
ENDROOT
BRANCH   2   3
HETATM    3  S   UNL     1     -10.464   8.088  67.202  1.00  0.00    -0.307 SA 
BRANCH   3   4
HETATM    4  S   UNL     1      -9.567   9.944  67.447  1.00  0.00    -0.159 SA 
BRANCH   4   5
HETATM    5  C   UNL     1      -9.644  10.668  65.824  1.00  0.00    -0.210 C  
HETATM    6  S   UNL     1      -8.968   9.807  64.536  1.00  0.00    -0.246 S  
BRANCH   5   7
HETATM    7  N   UNL     1     -10.386  11.866  65.698  1.00  0.00    -0.238 N  
HETATM    8  C   UNL     1     -12.640  12.814  65.199  1.00  0.00    -0.513 C  
HETATM    9  C   UNL     1     -11.444  12.018  64.679  1.00  0.00    -0.308 C  
HETATM   10  C   UNL     1     -12.214  14.157  65.777  1.00  0.00    -0.458 C  
HETATM   11  C   UNL     1     -11.132  13.958  66.831  1.00  0.00    -0.309 C  
HETATM   12  C   UNL     1      -9.956  13.149  66.283  1.00  0.00    -0.285 C  
ENDBRANCH   5   7
ENDBRANCH   4   5
ENDBRANCH   3   4
ENDBRANCH   2   3
BRANCH   2  13
HETATM   13  N   UNL     1      -8.406   6.367  67.342  1.00  0.00    -0.113 N  
HETATM   14  C   UNL     1      -6.371   7.278  66.243  1.00  0.00    -0.041 C  
HETATM   15  C   UNL     1      -8.763   5.573  66.162  1.00  0.00    -0.133 C  
HETATM   16  C   UNL     1      -6.965   6.625  67.488  1.00  0.00    -0.082 C  
HETATM   17  C   UNL     1      -8.209   6.224  64.889  1.00  0.00    -0.119 C  
HETATM   18  C   UNL     1      -6.704   6.468  64.992  1.00  0.00    -0.042 C  
ENDBRANCH   2  13
TORSDOF 5
ENDMDL
MODEL      238
REMARK 921   NORMALIZED FREE ENERGY PREDICTED BY IDOCK:   -2.88 KCAL/MOL
REMARK 922        TOTAL FREE ENERGY PREDICTED BY IDOCK:   -4.21 KCAL/MOL
REMARK 923 INTER-LIGAND FREE ENERGY PREDICTED BY IDOCK:   -3.53 KCAL/MOL
REMARK 924 INTRA-LIGAND FREE ENERGY PREDICTED BY IDOCK:   -0.68 KCAL/MOL
REMARK 927      BINDING AFFINITY PREDICTED BY RF-SCORE:    0.00 PKD
ROOT
HETATM    1  S   UNL     1      -6.373   8.799  71.356  1.00  0.00    -0.073 S  
HETATM    2  C   UNL     1      -6.981   8.269  69.877  1.00  0.00    -0.044 C  
ENDROOT
BRANCH   2   3
HETATM    3  S   UNL     1      -6.742   6.592  69.330  1.00  0.00    -0.054 SA 
BRANCH   3   4
HETATM    4  S   UNL     1      -7.435   5.514  70.964  1.00  0.00    -0.091 SA 
BRANCH   4   5
HETATM    5  C   UNL     1      -9.165   5.286  70.616  1.00  0.00    -0.148 C  
HETATM    6  S   UNL     1      -9.640   3.861  69.841  1.00  0.00    -0.172 S  
BRANCH   5   7
HETATM    7  N   UNL     1     -10.050   6.262  71.132  1.00  0.00    -0.182 N  
HETATM    8  C   UNL     1     -12.451   6.899  71.376  1.00  0.00    -0.413 C  
HETATM    9  C   UNL     1     -11.287   6.640  70.419  1.00  0.00    -0.365 C  
HETATM   10  C   UNL     1     -12.082   7.917  72.447  1.00  0.00    -0.336 C  
HETATM   11  C   UNL     1     -10.809   7.488  73.166  1.00  0.00    -0.448 C  
HETATM   12  C   UNL     1      -9.669   7.225  72.181  1.00  0.00    -0.152 C  
ENDBRANCH   5   7
ENDBRANCH   4   5
ENDBRANCH   3   4
ENDBRANCH   2   3
BRANCH   2  13
HETATM   13  N   UNL     1      -7.695   9.081  68.990  1.00  0.00    -0.088 N  
HETATM   14  C   UNL     1      -9.871  10.233  69.325  1.00  0.00    -0.244 C  
HETATM   15  C   UNL     1      -8.067   8.637  67.643  1.00  0.00    -0.107 C  
HETATM   16  C   UNL     1      -8.351  10.324  69.424  1.00  0.00    -0.161 C  
HETATM   17  C   UNL     1      -9.590   8.502  67.524  1.00  0.00    -0.194 C  
HETATM   18  C   UNL     1     -10.301   9.793  67.928  1.00  0.00    -0.258 C  
ENDBRANCH   2  13
TORSDOF 5
ENDMDL
MODEL      239
REMARK 921   NORMALIZED FREE ENERGY PREDICTED BY IDOCK:   -2.87 KCAL/MOL
REMARK 922        TOTAL FREE ENERGY PREDICTED BY IDOCK:   -4.20 KCAL/MOL
REMARK 923 INTER-LIGAND FREE ENERGY PREDICTED BY IDOCK:   -3.77 KCAL/MOL
REMARK 924 INTRA-LIGAND FREE ENERGY PREDICTED BY IDOCK:   -0.43 KCAL/MOL
REMARK 927      BINDING AFFINITY PREDICTED BY RF-SCORE:    0.00 PKD
ROOT
HETATM    1  S   UNL     1     -10.294  10.946  64.760  1.00  0.00    -0.300 S  
HETATM    2  C   UNL     1     -10.923  11.671  66.145  1.00  0.00    -0.288 C  
ENDROOT
BRANCH   2   3
HETATM    3  S   UNL     1     -11.488  10.693  67.521  1.00  0.00     0.209 SA 
BRANCH   3   4
HETATM    4  S   UNL     1      -9.744  10.478  68.627  1.00  0.00    -0.181 SA 
BRANCH   4   5
HETATM    5  C   UNL     1      -9.025   8.979  67.993  1.00  0.00    -0.132 C  
HETATM    6  S   UNL     1      -7.542   9.086  67.189  1.00  0.00    -0.091 S  
BRANCH   5   7
HETATM    7  N   UNL     1      -9.685   7.770  68.321  1.00  0.00    -0.155 N  
HETATM    8  C   UNL     1      -9.697   5.302  67.956  1.00  0.00    -0.179 C  
HETATM    9  C   UNL     1      -9.853   6.688  67.331  1.00  0.00    -0.131 C  
HETATM   10  C   UNL     1     -10.617   5.120  69.157  1.00  0.00    -0.069 C  
HETATM   11  C   UNL     1     -10.406   6.248  70.159  1.00  0.00    -0.259 C  
HETATM   12  C   UNL     1     -10.557   7.619  69.500  1.00  0.00    -0.227 C  
ENDBRANCH   5   7
ENDBRANCH   4   5
ENDBRANCH   3   4
ENDBRANCH   2   3
BRANCH   2  13
HETATM   13  N   UNL     1     -11.049  13.053  66.314  1.00  0.00    -0.284 N  
HETATM   14  C   UNL     1     -12.085  14.730  64.799  1.00  0.00    -0.387 C  
HETATM   15  C   UNL     1      -9.899  13.921  66.589  1.00  0.00    -0.284 C  
HETATM   16  C   UNL     1     -12.286  13.773  65.971  1.00  0.00    -0.457 C  
HETATM   17  C   UNL     1      -9.651  14.871  65.411  1.00  0.00    -0.085 C  
HETATM   18  C   UNL     1     -10.906  15.666  65.056  1.00  0.00    -0.468 C  
ENDBRANCH   2  13
TORSDOF 5
ENDMDL
MODEL      240
REMARK 921   NORMALIZED FREE ENERGY PREDICTED BY IDOCK:   -2.87 KCAL/MOL
REMARK 922        TOTAL FREE ENERGY PREDICTED BY IDOCK:   -4.20 KCAL/MOL
REMARK 923 INTER-LIGAND FREE ENERGY PREDICTED BY IDOCK:   -3.69 KCAL/MOL
REMARK 924 INTRA-LIGAND FREE ENERGY PREDICTED BY IDOCK:   -0.51 KCAL/MOL
REMARK 927      BINDING AFFINITY PREDICTED BY RF-SCORE:    0.00 PKD
ROOT
HETATM    1  S   UNL     1     -10.462   6.946  66.929  1.00  0.00    -0.262 S  
HETATM    2  C   UNL     1      -9.481   7.865  67.944  1.00  0.00    -0.145 C  
ENDROOT
BRANCH   2   3
HETATM    3  S   UNL     1      -9.912   9.538  68.375  1.00  0.00    -0.170 SA 
BRANCH   3   4
HETATM    4  S   UNL     1      -8.632  10.628  67.157  1.00  0.00    -0.128 SA 
BRANCH   4   5
HETATM    5  C   UNL     1      -9.619  10.986  65.721  1.00  0.00    -0.222 C  
HETATM    6  S   UNL     1      -9.627   9.860  64.460  1.00  0.00    -0.126 S  
BRANCH   5   7
HETATM    7  N   UNL     1     -10.439  12.138  65.785  1.00  0.00    -0.245 N  
HETATM    8  C   UNL     1     -12.355  13.327  64.716  1.00  0.00    -0.454 C  
HETATM    9  C   UNL     1     -10.924  12.811  64.564  1.00  0.00    -0.341 C  
HETATM   10  C   UNL     1     -12.507  14.209  65.948  1.00  0.00    -0.479 C  
HETATM   11  C   UNL     1     -12.006  13.476  67.187  1.00  0.00    -0.426 C  
HETATM   12  C   UNL     1     -10.578  12.964  66.998  1.00  0.00    -0.252 C  
ENDBRANCH   5   7
ENDBRANCH   4   5
ENDBRANCH   3   4
ENDBRANCH   2   3
BRANCH   2  13
HETATM   13  N   UNL     1      -8.287   7.402  68.506  1.00  0.00    -0.125 N  
HETATM   14  C   UNL     1      -6.819   8.494  70.188  1.00  0.00    -0.039 C  
HETATM   15  C   UNL     1      -7.144   6.983  67.689  1.00  0.00    -0.085 C  
HETATM   16  C   UNL     1      -7.989   7.547  69.939  1.00  0.00    -0.123 C  
HETATM   17  C   UNL     1      -5.961   7.938  67.891  1.00  0.00    -0.042 C  
HETATM   18  C   UNL     1      -5.598   8.079  69.369  1.00  0.00    -0.027 C  
ENDBRANCH   2  13
TORSDOF 5
ENDMDL
MODEL      241
REMARK 921   NORMALIZED FREE ENERGY PREDICTED BY IDOCK:   -2.86 KCAL/MOL
REMARK 922        TOTAL FREE ENERGY PREDICTED BY IDOCK:   -4.19 KCAL/MOL
REMARK 923 INTER-LIGAND FREE ENERGY PREDICTED BY IDOCK:   -3.89 KCAL/MOL
REMARK 924 INTRA-LIGAND FREE ENERGY PREDICTED BY IDOCK:   -0.30 KCAL/MOL
REMARK 927      BINDING AFFINITY PREDICTED BY RF-SCORE:    0.00 PKD
ROOT
HETATM    1  S   UNL     1     -10.030  12.905  66.440  1.00  0.00    -0.271 S  
HETATM    2  C   UNL     1     -10.293  12.281  67.983  1.00  0.00    -0.214 C  
ENDROOT
BRANCH   2   3
HETATM    3  S   UNL     1      -9.049  11.314  68.811  1.00  0.00    -0.060 SA 
BRANCH   3   4
HETATM    4  S   UNL     1      -9.398   9.423  68.029  1.00  0.00    -0.129 SA 
BRANCH   4   5
HETATM    5  C   UNL     1      -9.100   8.335  69.405  1.00  0.00    -0.154 C  
HETATM    6  S   UNL     1      -9.282   8.958  70.966  1.00  0.00    -0.261 S  
BRANCH   5   7
HETATM    7  N   UNL     1      -8.853   6.976  69.098  1.00  0.00    -0.135 N  
HETATM    8  C   UNL     1      -7.330   5.045  69.517  1.00  0.00    -0.057 C  
HETATM    9  C   UNL     1      -7.481   6.454  68.945  1.00  0.00    -0.088 C  
HETATM   10  C   UNL     1      -8.367   4.089  68.942  1.00  0.00    -0.090 C  
HETATM   11  C   UNL     1      -9.768   4.657  69.129  1.00  0.00    -0.255 C  
HETATM   12  C   UNL     1      -9.883   6.070  68.557  1.00  0.00    -0.130 C  
ENDBRANCH   5   7
ENDBRANCH   4   5
ENDBRANCH   3   4
ENDBRANCH   2   3
BRANCH   2  13
HETATM   13  N   UNL     1     -11.474  12.466  68.708  1.00  0.00    -0.279 N  
HETATM   14  C   UNL     1     -11.949  14.065  70.551  1.00  0.00    -0.390 C  
HETATM   15  C   UNL     1     -12.149  11.366  69.406  1.00  0.00    -0.291 C  
HETATM   16  C   UNL     1     -11.983  13.804  69.047  1.00  0.00    -0.360 C  
HETATM   17  C   UNL     1     -12.100  11.583  70.923  1.00  0.00    -0.352 C  
HETATM   18  C   UNL     1     -12.661  12.950  71.314  1.00  0.00    -0.371 C  
ENDBRANCH   2  13
TORSDOF 5
ENDMDL
MODEL      242
REMARK 921   NORMALIZED FREE ENERGY PREDICTED BY IDOCK:   -2.86 KCAL/MOL
REMARK 922        TOTAL FREE ENERGY PREDICTED BY IDOCK:   -4.19 KCAL/MOL
REMARK 923 INTER-LIGAND FREE ENERGY PREDICTED BY IDOCK:   -3.96 KCAL/MOL
REMARK 924 INTRA-LIGAND FREE ENERGY PREDICTED BY IDOCK:   -0.23 KCAL/MOL
REMARK 927      BINDING AFFINITY PREDICTED BY RF-SCORE:    0.00 PKD
ROOT
HETATM    1  S   UNL     1     -11.845  14.249  67.395  1.00  0.00    -0.397 S  
HETATM    2  C   UNL     1     -11.802  14.790  68.990  1.00  0.00    -0.302 C  
ENDROOT
BRANCH   2   3
HETATM    3  S   UNL     1     -10.516  15.882  69.558  1.00  0.00    -0.304 SA 
BRANCH   3   4
HETATM    4  S   UNL     1     -10.206  17.072  67.885  1.00  0.00    -0.332 SA 
BRANCH   4   5
HETATM    5  C   UNL     1      -8.449  17.353  67.887  1.00  0.00    -0.228 C  
HETATM    6  S   UNL     1      -7.894  18.919  67.577  1.00  0.00    -0.238 S  
BRANCH   5   7
HETATM    7  N   UNL     1      -7.633  16.266  68.278  1.00  0.00    -0.148 N  
HETATM    8  C   UNL     1      -6.391  14.262  67.459  1.00  0.00    -0.028 C  
HETATM    9  C   UNL     1      -7.750  14.941  67.637  1.00  0.00    -0.179 C  
HETATM   10  C   UNL     1      -5.622  14.190  68.771  1.00  0.00    -0.082 C  
HETATM   11  C   UNL     1      -5.514  15.576  69.396  1.00  0.00    -0.107 C  
HETATM   12  C   UNL     1      -6.886  16.231  69.549  1.00  0.00    -0.188 C  
ENDBRANCH   5   7
ENDBRANCH   4   5
ENDBRANCH   3   4
ENDBRANCH   2   3
BRANCH   2  13
HETATM   13  N   UNL     1     -12.741  14.431  69.962  1.00  0.00    -0.235 N  
HETATM   14  C   UNL     1     -12.955  15.230  72.306  1.00  0.00    -0.459 C  
HETATM   15  C   UNL     1     -12.976  13.037  70.351  1.00  0.00     0.305 C  
HETATM   16  C   UNL     1     -13.367  15.423  70.849  1.00  0.00    -0.418 C  
HETATM   17  C   UNL     1     -12.538  12.803  71.802  1.00  0.00    -0.128 C  
HETATM   18  C   UNL     1     -13.205  13.792  72.756  1.00  0.00    -0.492 C  
ENDBRANCH   2  13
TORSDOF 5
ENDMDL
MODEL      243
REMARK 921   NORMALIZED FREE ENERGY PREDICTED BY IDOCK:   -2.86 KCAL/MOL
REMARK 922        TOTAL FREE ENERGY PREDICTED BY IDOCK:   -4.19 KCAL/MOL
REMARK 923 INTER-LIGAND FREE ENERGY PREDICTED BY IDOCK:   -3.83 KCAL/MOL
REMARK 924 INTRA-LIGAND FREE ENERGY PREDICTED BY IDOCK:   -0.36 KCAL/MOL
REMARK 927      BINDING AFFINITY PREDICTED BY RF-SCORE:    0.00 PKD
ROOT
HETATM    1  S   UNL     1      -6.739   6.500  73.296  1.00  0.00    -0.073 S  
HETATM    2  C   UNL     1      -8.393   6.440  73.610  1.00  0.00    -0.119 C  
ENDROOT
BRANCH   2   3
HETATM    3  S   UNL     1      -9.411   7.894  73.472  1.00  0.00    -0.209 SA 
BRANCH   3   4
HETATM    4  S   UNL     1      -8.993   8.517  71.536  1.00  0.00    -0.233 SA 
BRANCH   4   5
HETATM    5  C   UNL     1     -10.589   8.551  70.750  1.00  0.00    -0.206 C  
HETATM    6  S   UNL     1     -11.855   7.702  71.482  1.00  0.00    -0.307 S  
BRANCH   5   7
HETATM    7  N   UNL     1     -10.725   9.400  69.626  1.00  0.00    -0.230 N  
HETATM    8  C   UNL     1     -10.787  11.779  68.876  1.00  0.00    -0.265 C  
HETATM    9  C   UNL     1     -11.452  10.683  69.709  1.00  0.00    -0.302 C  
HETATM   10  C   UNL     1     -10.577  11.339  67.433  1.00  0.00    -0.262 C  
HETATM   11  C   UNL     1      -9.817  10.020  67.389  1.00  0.00    -0.226 C  
HETATM   12  C   UNL     1     -10.499   8.949  68.241  1.00  0.00    -0.195 C  
ENDBRANCH   5   7
ENDBRANCH   4   5
ENDBRANCH   3   4
ENDBRANCH   2   3
BRANCH   2  13
HETATM   13  N   UNL     1      -9.073   5.281  73.996  1.00  0.00    -0.119 N  
HETATM   14  C   UNL     1      -9.380   3.154  72.746  1.00  0.00    -0.135 C  
HETATM   15  C   UNL     1     -10.473   5.298  74.432  1.00  0.00    -0.242 C  
HETATM   16  C   UNL     1      -8.531   3.936  73.745  1.00  0.00    -0.091 C  
HETATM   17  C   UNL     1     -11.357   4.549  73.428  1.00  0.00    -0.376 C  
HETATM   18  C   UNL     1     -10.845   3.131  73.177  1.00  0.00    -0.242 C  
ENDBRANCH   2  13
TORSDOF 5
ENDMDL
MODEL      244
REMARK 921   NORMALIZED FREE ENERGY PREDICTED BY IDOCK:   -2.84 KCAL/MOL
REMARK 922        TOTAL FREE ENERGY PREDICTED BY IDOCK:   -4.17 KCAL/MOL
REMARK 923 INTER-LIGAND FREE ENERGY PREDICTED BY IDOCK:   -3.69 KCAL/MOL
REMARK 924 INTRA-LIGAND FREE ENERGY PREDICTED BY IDOCK:   -0.48 KCAL/MOL
REMARK 927      BINDING AFFINITY PREDICTED BY RF-SCORE:    0.00 PKD
ROOT
HETATM    1  S   UNL     1      -9.243   9.585  65.888  1.00  0.00    -0.225 S  
HETATM    2  C   UNL     1      -9.016  11.050  66.690  1.00  0.00    -0.168 C  
ENDROOT
BRANCH   2   3
HETATM    3  S   UNL     1     -10.142  12.409  66.463  1.00  0.00    -0.236 SA 
BRANCH   3   4
HETATM    4  S   UNL     1     -11.226  12.357  68.233  1.00  0.00    -0.288 SA 
BRANCH   4   5
HETATM    5  C   UNL     1     -11.225  14.051  68.778  1.00  0.00    -0.271 C  
HETATM    6  S   UNL     1     -12.216  14.468  70.083  1.00  0.00    -0.351 S  
BRANCH   5   7
HETATM    7  N   UNL     1     -10.290  14.916  68.161  1.00  0.00    -0.234 N  
HETATM    8  C   UNL     1      -7.885  15.211  67.565  1.00  0.00    -0.203 C  
HETATM    9  C   UNL     1      -8.917  15.070  68.683  1.00  0.00    -0.186 C  
HETATM   10  C   UNL     1      -8.252  16.328  66.597  1.00  0.00    -0.316 C  
HETATM   11  C   UNL     1      -9.669  16.129  66.073  1.00  0.00    -0.376 C  
HETATM   12  C   UNL     1     -10.674  15.979  67.216  1.00  0.00    -0.295 C  
ENDBRANCH   5   7
ENDBRANCH   4   5
ENDBRANCH   3   4
ENDBRANCH   2   3
BRANCH   2  13
HETATM   13  N   UNL     1      -7.956  11.304  67.566  1.00  0.00    -0.120 N  
HETATM   14  C   UNL     1      -5.527  10.888  67.250  1.00  0.00    -0.044 C  
HETATM   15  C   UNL     1      -7.929  10.790  68.939  1.00  0.00    -0.143 C  
HETATM   16  C   UNL     1      -6.681  11.875  67.105  1.00  0.00    -0.142 C  
HETATM   17  C   UNL     1      -6.799   9.766  69.106  1.00  0.00    -0.054 C  
HETATM   18  C   UNL     1      -5.451  10.343  68.675  1.00  0.00    -0.037 C  
ENDBRANCH   2  13
TORSDOF 5
ENDMDL
MODEL      245
REMARK 921   NORMALIZED FREE ENERGY PREDICTED BY IDOCK:   -2.83 KCAL/MOL
REMARK 922        TOTAL FREE ENERGY PREDICTED BY IDOCK:   -4.16 KCAL/MOL
REMARK 923 INTER-LIGAND FREE ENERGY PREDICTED BY IDOCK:   -3.78 KCAL/MOL
REMARK 924 INTRA-LIGAND FREE ENERGY PREDICTED BY IDOCK:   -0.38 KCAL/MOL
REMARK 927      BINDING AFFINITY PREDICTED BY RF-SCORE:    0.00 PKD
ROOT
HETATM    1  S   UNL     1      -8.712  10.988  65.216  1.00  0.00    -0.026 S  
HETATM    2  C   UNL     1      -9.241   9.871  66.359  1.00  0.00    -0.158 C  
ENDROOT
BRANCH   2   3
HETATM    3  S   UNL     1     -10.733  10.142  67.291  1.00  0.00    -0.224 SA 
BRANCH   3   4
HETATM    4  S   UNL     1     -10.155  11.668  68.575  1.00  0.00    -0.192 SA 
BRANCH   4   5
HETATM    5  C   UNL     1     -11.128  13.059  68.042  1.00  0.00    -0.260 C  
HETATM    6  S   UNL     1     -11.669  13.085  66.441  1.00  0.00    -0.407 S  
BRANCH   5   7
HETATM    7  N   UNL     1     -11.495  13.995  69.038  1.00  0.00    -0.275 N  
HETATM    8  C   UNL     1     -12.177  14.258  71.424  1.00  0.00    -0.408 C  
HETATM    9  C   UNL     1     -12.524  13.685  70.050  1.00  0.00    -0.204 C  
HETATM   10  C   UNL     1     -11.884  15.750  71.354  1.00  0.00    -0.503 C  
HETATM   11  C   UNL     1     -10.811  16.029  70.308  1.00  0.00    -0.327 C  
HETATM   12  C   UNL     1     -11.183  15.433  68.950  1.00  0.00    -0.292 C  
ENDBRANCH   5   7
ENDBRANCH   4   5
ENDBRANCH   3   4
ENDBRANCH   2   3
BRANCH   2  13
HETATM   13  N   UNL     1      -8.569   8.682  66.659  1.00  0.00    -0.115 N  
HETATM   14  C   UNL     1      -7.254   8.092  68.684  1.00  0.00    -0.084 C  
HETATM   15  C   UNL     1      -7.566   8.097  65.763  1.00  0.00    -0.082 C  
HETATM   16  C   UNL     1      -8.617   8.072  67.997  1.00  0.00    -0.129 C  
HETATM   17  C   UNL     1      -6.178   8.136  66.413  1.00  0.00    -0.046 C  
HETATM   18  C   UNL     1      -6.183   7.472  67.789  1.00  0.00    -0.048 C  
ENDBRANCH   2  13
TORSDOF 5
ENDMDL
MODEL      246
REMARK 921   NORMALIZED FREE ENERGY PREDICTED BY IDOCK:   -2.82 KCAL/MOL
REMARK 922        TOTAL FREE ENERGY PREDICTED BY IDOCK:   -4.15 KCAL/MOL
REMARK 923 INTER-LIGAND FREE ENERGY PREDICTED BY IDOCK:   -3.66 KCAL/MOL
REMARK 924 INTRA-LIGAND FREE ENERGY PREDICTED BY IDOCK:   -0.49 KCAL/MOL
REMARK 927      BINDING AFFINITY PREDICTED BY RF-SCORE:    0.00 PKD
ROOT
HETATM    1  S   UNL     1      -7.637  14.969  68.899  1.00  0.00    -0.156 S  
HETATM    2  C   UNL     1      -8.199  13.922  67.705  1.00  0.00    -0.177 C  
ENDROOT
BRANCH   2   3
HETATM    3  S   UNL     1      -7.309  12.438  67.286  1.00  0.00    -0.092 SA 
BRANCH   3   4
HETATM    4  S   UNL     1      -7.063  11.557  69.150  1.00  0.00    -0.076 SA 
BRANCH   4   5
HETATM    5  C   UNL     1      -7.109   9.813  68.802  1.00  0.00    -0.067 C  
HETATM    6  S   UNL     1      -5.895   8.838  69.459  1.00  0.00    -0.033 S  
BRANCH   5   7
HETATM    7  N   UNL     1      -8.241   9.336  68.099  1.00  0.00    -0.118 N  
HETATM    8  C   UNL     1      -9.033   7.665  66.423  1.00  0.00    -0.198 C  
HETATM    9  C   UNL     1      -8.145   8.879  66.698  1.00  0.00    -0.107 C  
HETATM   10  C   UNL     1     -10.476   7.917  66.839  1.00  0.00    -0.388 C  
HETATM   11  C   UNL     1     -10.534   8.376  68.291  1.00  0.00    -0.214 C  
HETATM   12  C   UNL     1      -9.627   9.582  68.535  1.00  0.00    -0.142 C  
ENDBRANCH   5   7
ENDBRANCH   4   5
ENDBRANCH   3   4
ENDBRANCH   2   3
BRANCH   2  13
HETATM   13  N   UNL     1      -9.369  14.134  66.968  1.00  0.00    -0.236 N  
HETATM   14  C   UNL     1     -11.558  15.032  67.727  1.00  0.00    -0.336 C  
HETATM   15  C   UNL     1     -10.007  13.073  66.183  1.00  0.00    -0.278 C  
HETATM   16  C   UNL     1     -10.188  15.345  67.132  1.00  0.00    -0.251 C  
HETATM   17  C   UNL     1     -11.373  12.711  66.778  1.00  0.00    -0.373 C  
HETATM   18  C   UNL     1     -12.266  13.943  66.924  1.00  0.00    -0.415 C  
ENDBRANCH   2  13
TORSDOF 5
ENDMDL
MODEL      247
REMARK 921   NORMALIZED FREE ENERGY PREDICTED BY IDOCK:   -2.80 KCAL/MOL
REMARK 922        TOTAL FREE ENERGY PREDICTED BY IDOCK:   -4.11 KCAL/MOL
REMARK 923 INTER-LIGAND FREE ENERGY PREDICTED BY IDOCK:   -3.71 KCAL/MOL
REMARK 924 INTRA-LIGAND FREE ENERGY PREDICTED BY IDOCK:   -0.41 KCAL/MOL
REMARK 927      BINDING AFFINITY PREDICTED BY RF-SCORE:    0.00 PKD
ROOT
HETATM    1  S   UNL     1      -8.133   8.264  71.097  1.00  0.00    -0.123 S  
HETATM    2  C   UNL     1      -8.938   8.016  69.638  1.00  0.00    -0.145 C  
ENDROOT
BRANCH   2   3
HETATM    3  S   UNL     1      -8.856   6.450  68.795  1.00  0.00    -0.123 SA 
BRANCH   3   4
HETATM    4  S   UNL     1     -10.784   5.729  69.061  1.00  0.00    -0.252 SA 
BRANCH   4   5
HETATM    5  C   UNL     1     -11.173   6.171  70.740  1.00  0.00    -0.306 C  
HETATM    6  S   UNL     1     -12.358   7.348  70.999  1.00  0.00    -0.223 S  
BRANCH   5   7
HETATM    7  N   UNL     1     -10.551   5.408  71.757  1.00  0.00    -0.229 N  
HETATM    8  C   UNL     1     -10.620   4.817  74.180  1.00  0.00    -0.351 C  
HETATM    9  C   UNL     1     -10.423   5.917  73.137  1.00  0.00    -0.228 C  
HETATM   10  C   UNL     1      -9.700   3.630  73.927  1.00  0.00    -0.143 C  
HETATM   11  C   UNL     1      -9.868   3.128  72.499  1.00  0.00    -0.218 C  
HETATM   12  C   UNL     1      -9.677   4.253  71.481  1.00  0.00    -0.174 C  
ENDBRANCH   5   7
ENDBRANCH   4   5
ENDBRANCH   3   4
ENDBRANCH   2   3
BRANCH   2  13
HETATM   13  N   UNL     1      -9.705   8.991  68.994  1.00  0.00    -0.164 N  
HETATM   14  C   UNL     1      -9.527   9.840  66.665  1.00  0.00    -0.220 C  
HETATM   15  C   UNL     1      -9.879  10.342  69.538  1.00  0.00    -0.220 C  
HETATM   16  C   UNL     1     -10.173   8.829  67.609  1.00  0.00    -0.239 C  
HETATM   17  C   UNL     1      -9.209  11.378  68.628  1.00  0.00    -0.149 C  
HETATM   18  C   UNL     1      -9.705  11.264  67.187  1.00  0.00    -0.201 C  
ENDBRANCH   2  13
TORSDOF 5
ENDMDL
MODEL      248
REMARK 921   NORMALIZED FREE ENERGY PREDICTED BY IDOCK:   -2.79 KCAL/MOL
REMARK 922        TOTAL FREE ENERGY PREDICTED BY IDOCK:   -4.10 KCAL/MOL
REMARK 923 INTER-LIGAND FREE ENERGY PREDICTED BY IDOCK:   -3.66 KCAL/MOL
REMARK 924 INTRA-LIGAND FREE ENERGY PREDICTED BY IDOCK:   -0.45 KCAL/MOL
REMARK 927      BINDING AFFINITY PREDICTED BY RF-SCORE:    0.00 PKD
ROOT
HETATM    1  S   UNL     1      -9.158  11.067  66.198  1.00  0.00    -0.198 S  
HETATM    2  C   UNL     1      -8.897  12.571  66.910  1.00  0.00    -0.203 C  
ENDROOT
BRANCH   2   3
HETATM    3  S   UNL     1      -9.924  13.970  66.513  1.00  0.00    -0.292 SA 
BRANCH   3   4
HETATM    4  S   UNL     1     -11.779  13.336  67.196  1.00  0.00    -0.381 SA 
BRANCH   4   5
HETATM    5  C   UNL     1     -11.715  13.651  68.946  1.00  0.00    -0.338 C  
HETATM    6  S   UNL     1     -11.705  15.259  69.465  1.00  0.00    -0.360 S  
BRANCH   5   7
HETATM    7  N   UNL     1     -11.807  12.524  69.797  1.00  0.00    -0.328 N  
HETATM    8  C   UNL     1     -13.177  11.427  71.571  1.00  0.00    -0.333 C  
HETATM    9  C   UNL     1     -12.329  12.635  71.174  1.00  0.00    -0.145 C  
HETATM   10  C   UNL     1     -12.430  10.118  71.352  1.00  0.00    -0.524 C  
HETATM   11  C   UNL     1     -11.916  10.036  69.920  1.00  0.00    -0.084 C  
HETATM   12  C   UNL     1     -11.083  11.264  69.551  1.00  0.00    -0.238 C  
ENDBRANCH   5   7
ENDBRANCH   4   5
ENDBRANCH   3   4
ENDBRANCH   2   3
BRANCH   2  13
HETATM   13  N   UNL     1      -7.882  12.831  67.836  1.00  0.00    -0.141 N  
HETATM   14  C   UNL     1      -5.419  12.652  67.554  1.00  0.00    -0.110 C  
HETATM   15  C   UNL     1      -7.839  12.194  69.156  1.00  0.00     0.288 C  
HETATM   16  C   UNL     1      -6.652  13.548  67.467  1.00  0.00    -0.117 C  
HETATM   17  C   UNL     1      -6.629  11.259  69.262  1.00  0.00    -0.100 C  
HETATM   18  C   UNL     1      -5.327  11.984  68.925  1.00  0.00    -0.050 C  
ENDBRANCH   2  13
TORSDOF 5
ENDMDL
MODEL      249
REMARK 921   NORMALIZED FREE ENERGY PREDICTED BY IDOCK:   -2.78 KCAL/MOL
REMARK 922        TOTAL FREE ENERGY PREDICTED BY IDOCK:   -4.09 KCAL/MOL
REMARK 923 INTER-LIGAND FREE ENERGY PREDICTED BY IDOCK:   -3.76 KCAL/MOL
REMARK 924 INTRA-LIGAND FREE ENERGY PREDICTED BY IDOCK:   -0.33 KCAL/MOL
REMARK 927      BINDING AFFINITY PREDICTED BY RF-SCORE:    0.00 PKD
ROOT
HETATM    1  S   UNL     1      -7.635   7.646  69.526  1.00  0.00    -0.099 S  
HETATM    2  C   UNL     1      -9.157   7.103  69.050  1.00  0.00    -0.132 C  
ENDROOT
BRANCH   2   3
HETATM    3  S   UNL     1     -10.595   8.141  69.201  1.00  0.00    -0.114 SA 
BRANCH   3   4
HETATM    4  S   UNL     1      -9.771  10.034  68.979  1.00  0.00    -0.211 SA 
BRANCH   4   5
HETATM    5  C   UNL     1     -11.138  11.027  68.420  1.00  0.00    -0.251 C  
HETATM    6  S   UNL     1     -12.372  11.374  69.522  1.00  0.00    -0.048 S  
BRANCH   5   7
HETATM    7  N   UNL     1     -11.036  11.570  67.118  1.00  0.00    -0.282 N  
HETATM    8  C   UNL     1     -10.247  11.132  64.791  1.00  0.00    -0.365 C  
HETATM    9  C   UNL     1      -9.863  11.311  66.260  1.00  0.00    -0.214 C  
HETATM   10  C   UNL     1     -11.074  12.304  64.280  1.00  0.00    -0.401 C  
HETATM   11  C   UNL     1     -12.279  12.533  65.183  1.00  0.00    -0.509 C  
HETATM   12  C   UNL     1     -11.863  12.696  66.645  1.00  0.00    -0.380 C  
ENDBRANCH   5   7
ENDBRANCH   4   5
ENDBRANCH   3   4
ENDBRANCH   2   3
BRANCH   2  13
HETATM   13  N   UNL     1      -9.403   5.832  68.519  1.00  0.00    -0.120 N  
HETATM   14  C   UNL     1      -8.676   3.612  69.368  1.00  0.00    -0.131 C  
HETATM   15  C   UNL     1      -9.072   5.480  67.135  1.00  0.00    -0.111 C  
HETATM   16  C   UNL     1      -9.760   4.686  69.369  1.00  0.00    -0.202 C  
HETATM   17  C   UNL     1      -7.958   4.427  67.101  1.00  0.00    -0.101 C  
HETATM   18  C   UNL     1      -8.316   3.202  67.942  1.00  0.00    -0.093 C  
ENDBRANCH   2  13
TORSDOF 5
ENDMDL
MODEL      250
REMARK 921   NORMALIZED FREE ENERGY PREDICTED BY IDOCK:   -2.77 KCAL/MOL
REMARK 922        TOTAL FREE ENERGY PREDICTED BY IDOCK:   -4.08 KCAL/MOL
REMARK 923 INTER-LIGAND FREE ENERGY PREDICTED BY IDOCK:   -3.74 KCAL/MOL
REMARK 924 INTRA-LIGAND FREE ENERGY PREDICTED BY IDOCK:   -0.33 KCAL/MOL
REMARK 927      BINDING AFFINITY PREDICTED BY RF-SCORE:    0.00 PKD
ROOT
HETATM    1  S   UNL     1      -9.398   7.487  72.649  1.00  0.00    -0.174 S  
HETATM    2  C   UNL     1      -9.915   8.374  71.313  1.00  0.00    -0.204 C  
ENDROOT
BRANCH   2   3
HETATM    3  S   UNL     1      -8.774   9.351  70.358  1.00  0.00    -0.232 SA 
BRANCH   3   4
HETATM    4  S   UNL     1      -7.761   7.888  69.290  1.00  0.00    -0.101 SA 
BRANCH   4   5
HETATM    5  C   UNL     1      -7.339   8.696  67.762  1.00  0.00    -0.092 C  
HETATM    6  S   UNL     1      -6.751  10.279  67.836  1.00  0.00    -0.067 S  
BRANCH   5   7
HETATM    7  N   UNL     1      -7.402   7.908  66.589  1.00  0.00    -0.087 N  
HETATM    8  C   UNL     1      -8.393   5.856  65.573  1.00  0.00    -0.145 C  
HETATM    9  C   UNL     1      -7.474   6.435  66.649  1.00  0.00    -0.083 C  
HETATM   10  C   UNL     1      -8.011   6.347  64.183  1.00  0.00    -0.096 C  
HETATM   11  C   UNL     1      -7.957   7.870  64.158  1.00  0.00    -0.125 C  
HETATM   12  C   UNL     1      -7.040   8.417  65.253  1.00  0.00    -0.075 C  
ENDBRANCH   5   7
ENDBRANCH   4   5
ENDBRANCH   3   4
ENDBRANCH   2   3
BRANCH   2  13
HETATM   13  N   UNL     1     -11.240   8.414  70.868  1.00  0.00    -0.258 N  
HETATM   14  C   UNL     1     -13.183   9.628  71.833  1.00  0.00    -0.538 C  
HETATM   15  C   UNL     1     -12.032   7.201  70.643  1.00  0.00    -0.269 C  
HETATM   16  C   UNL     1     -12.020   9.662  70.845  1.00  0.00    -0.309 C  
HETATM   17  C   UNL     1     -13.189   7.121  71.646  1.00  0.00    -0.403 C  
HETATM   18  C   UNL     1     -14.045   8.386  71.618  1.00  0.00    -0.487 C  
ENDBRANCH   2  13
TORSDOF 5
ENDMDL
MODEL      251
REMARK 921   NORMALIZED FREE ENERGY PREDICTED BY IDOCK:   -2.77 KCAL/MOL
REMARK 922        TOTAL FREE ENERGY PREDICTED BY IDOCK:   -4.07 KCAL/MOL
REMARK 923 INTER-LIGAND FREE ENERGY PREDICTED BY IDOCK:   -4.18 KCAL/MOL
REMARK 924 INTRA-LIGAND FREE ENERGY PREDICTED BY IDOCK:    0.11 KCAL/MOL
REMARK 927      BINDING AFFINITY PREDICTED BY RF-SCORE:    0.00 PKD
ROOT
HETATM    1  S   UNL     1     -11.076   6.184  69.257  1.00  0.00    -0.350 S  
HETATM    2  C   UNL     1      -9.402   6.358  69.189  1.00  0.00    -0.132 C  
ENDROOT
BRANCH   2   3
HETATM    3  S   UNL     1      -8.505   7.165  70.497  1.00  0.00    -0.140 SA 
BRANCH   3   4
HETATM    4  S   UNL     1      -8.399   9.115  69.793  1.00  0.00    -0.150 SA 
BRANCH   4   5
HETATM    5  C   UNL     1     -10.090   9.520  69.415  1.00  0.00    -0.198 C  
HETATM    6  S   UNL     1     -10.529   9.661  67.788  1.00  0.00    -0.268 S  
BRANCH   5   7
HETATM    7  N   UNL     1     -10.990   9.569  70.505  1.00  0.00    -0.264 N  
HETATM    8  C   UNL     1     -13.371   9.938  71.157  1.00  0.00    -0.371 C  
HETATM    9  C   UNL     1     -12.105  10.537  70.545  1.00  0.00    -0.345 C  
HETATM   10  C   UNL     1     -13.100   9.329  72.526  1.00  0.00    -0.416 C  
HETATM   11  C   UNL     1     -11.953   8.329  72.442  1.00  0.00    -0.447 C  
HETATM   12  C   UNL     1     -10.707   8.956  71.815  1.00  0.00    -0.362 C  
ENDBRANCH   5   7
ENDBRANCH   4   5
ENDBRANCH   3   4
ENDBRANCH   2   3
BRANCH   2  13
HETATM   13  N   UNL     1      -8.612   5.900  68.129  1.00  0.00    -0.113 N  
HETATM   14  C   UNL     1      -8.674   6.551  65.732  1.00  0.00    -0.129 C  
HETATM   15  C   UNL     1      -8.482   4.476  67.803  1.00  0.00    -0.102 C  
HETATM   16  C   UNL     1      -8.069   6.810  67.109  1.00  0.00    -0.117 C  
HETATM   17  C   UNL     1      -9.113   4.179  66.437  1.00  0.00    -0.136 C  
HETATM   18  C   UNL     1      -8.540   5.080  65.345  1.00  0.00    -0.143 C  
ENDBRANCH   2  13
TORSDOF 5
ENDMDL
MODEL      252
REMARK 921   NORMALIZED FREE ENERGY PREDICTED BY IDOCK:   -2.76 KCAL/MOL
REMARK 922        TOTAL FREE ENERGY PREDICTED BY IDOCK:   -4.07 KCAL/MOL
REMARK 923 INTER-LIGAND FREE ENERGY PREDICTED BY IDOCK:   -3.70 KCAL/MOL
REMARK 924 INTRA-LIGAND FREE ENERGY PREDICTED BY IDOCK:   -0.37 KCAL/MOL
REMARK 927      BINDING AFFINITY PREDICTED BY RF-SCORE:    0.00 PKD
ROOT
HETATM    1  S   UNL     1     -10.189   5.168  69.935  1.00  0.00    -0.272 S  
HETATM    2  C   UNL     1      -9.278   6.174  68.937  1.00  0.00    -0.125 C  
ENDROOT
BRANCH   2   3
HETATM    3  S   UNL     1      -8.245   7.455  69.615  1.00  0.00    -0.131 SA 
BRANCH   3   4
HETATM    4  S   UNL     1      -9.623   8.970  69.954  1.00  0.00    -0.194 SA 
BRANCH   4   5
HETATM    5  C   UNL     1      -8.858  10.406  69.234  1.00  0.00    -0.154 C  
HETATM    6  S   UNL     1      -7.216  10.668  69.537  1.00  0.00    -0.132 S  
BRANCH   5   7
HETATM    7  N   UNL     1      -9.651  11.169  68.344  1.00  0.00    -0.185 N  
HETATM    8  C   UNL     1     -10.660  11.222  66.062  1.00  0.00    -0.314 C  
HETATM    9  C   UNL     1      -9.377  11.196  66.893  1.00  0.00    -0.175 C  
HETATM   10  C   UNL     1     -11.581  12.358  66.486  1.00  0.00    -0.447 C  
HETATM   11  C   UNL     1     -11.848  12.290  67.985  1.00  0.00    -0.368 C  
HETATM   12  C   UNL     1     -10.547  12.253  68.786  1.00  0.00    -0.194 C  
ENDBRANCH   5   7
ENDBRANCH   4   5
ENDBRANCH   3   4
ENDBRANCH   2   3
BRANCH   2  13
HETATM   13  N   UNL     1      -9.266   6.085  67.541  1.00  0.00    -0.112 N  
HETATM   14  C   UNL     1     -10.595   4.605  66.053  1.00  0.00    -0.244 C  
HETATM   15  C   UNL     1      -8.036   5.851  66.778  1.00  0.00    -0.102 C  
HETATM   16  C   UNL     1     -10.503   5.956  66.755  1.00  0.00    -0.281 C  
HETATM   17  C   UNL     1      -8.085   4.482  66.088  1.00  0.00    -0.103 C  
HETATM   18  C   UNL     1      -9.339   4.331  65.229  1.00  0.00    -0.165 C  
ENDBRANCH   2  13
TORSDOF 5
ENDMDL
MODEL      253
REMARK 921   NORMALIZED FREE ENERGY PREDICTED BY IDOCK:   -2.76 KCAL/MOL
REMARK 922        TOTAL FREE ENERGY PREDICTED BY IDOCK:   -4.06 KCAL/MOL
REMARK 923 INTER-LIGAND FREE ENERGY PREDICTED BY IDOCK:   -3.34 KCAL/MOL
REMARK 924 INTRA-LIGAND FREE ENERGY PREDICTED BY IDOCK:   -0.72 KCAL/MOL
REMARK 927      BINDING AFFINITY PREDICTED BY RF-SCORE:    0.00 PKD
ROOT
HETATM    1  S   UNL     1     -10.587   8.921  67.493  1.00  0.00    -0.172 S  
HETATM    2  C   UNL     1      -9.915   9.303  68.990  1.00  0.00    -0.182 C  
ENDROOT
BRANCH   2   3
HETATM    3  S   UNL     1     -10.928   9.887  70.332  1.00  0.00    -0.337 SA 
BRANCH   3   4
HETATM    4  S   UNL     1     -11.839   8.133  70.966  1.00  0.00    -0.218 SA 
BRANCH   4   5
HETATM    5  C   UNL     1     -10.521   7.233  71.753  1.00  0.00    -0.197 C  
HETATM    6  S   UNL     1      -9.721   7.965  73.049  1.00  0.00    -0.283 S  
BRANCH   5   7
HETATM    7  N   UNL     1     -10.315   5.902  71.320  1.00  0.00    -0.213 N  
HETATM    8  C   UNL     1      -9.525   4.483  69.426  1.00  0.00    -0.244 C  
HETATM    9  C   UNL     1     -10.556   5.496  69.921  1.00  0.00    -0.317 C  
HETATM   10  C   UNL     1      -9.427   3.280  70.355  1.00  0.00    -0.235 C  
HETATM   11  C   UNL     1      -9.167   3.737  71.785  1.00  0.00    -0.179 C  
HETATM   12  C   UNL     1     -10.208   4.759  72.245  1.00  0.00    -0.191 C  
ENDBRANCH   5   7
ENDBRANCH   4   5
ENDBRANCH   3   4
ENDBRANCH   2   3
BRANCH   2  13
HETATM   13  N   UNL     1      -8.552   9.197  69.285  1.00  0.00    -0.133 N  
HETATM   14  C   UNL     1      -6.634  10.427  68.292  1.00  0.00    -0.060 C  
HETATM   15  C   UNL     1      -7.835   7.919  69.242  1.00  0.00    -0.115 C  
HETATM   16  C   UNL     1      -7.683  10.379  69.399  1.00  0.00    -0.158 C  
HETATM   17  C   UNL     1      -6.796   7.924  68.114  1.00  0.00    -0.068 C  
HETATM   18  C   UNL     1      -5.849   9.118  68.227  1.00  0.00    -0.038 C  
ENDBRANCH   2  13
TORSDOF 5
ENDMDL
MODEL      254
REMARK 921   NORMALIZED FREE ENERGY PREDICTED BY IDOCK:   -2.75 KCAL/MOL
REMARK 922        TOTAL FREE ENERGY PREDICTED BY IDOCK:   -4.05 KCAL/MOL
REMARK 923 INTER-LIGAND FREE ENERGY PREDICTED BY IDOCK:   -3.53 KCAL/MOL
REMARK 924 INTRA-LIGAND FREE ENERGY PREDICTED BY IDOCK:   -0.53 KCAL/MOL
REMARK 927      BINDING AFFINITY PREDICTED BY RF-SCORE:    0.00 PKD
ROOT
HETATM    1  S   UNL     1      -7.961   7.994  63.986  1.00  0.00    -0.104 S  
HETATM    2  C   UNL     1      -8.093   7.226  65.480  1.00  0.00    -0.132 C  
ENDROOT
BRANCH   2   3
HETATM    3  S   UNL     1      -8.285   8.160  66.983  1.00  0.00    -0.116 SA 
BRANCH   3   4
HETATM    4  S   UNL     1     -10.273   7.789  67.456  1.00  0.00    -0.259 SA 
BRANCH   4   5
HETATM    5  C   UNL     1     -10.403   8.292  69.158  1.00  0.00    -0.217 C  
HETATM    6  S   UNL     1     -10.510   9.945  69.493  1.00  0.00    -0.259 S  
BRANCH   5   7
HETATM    7  N   UNL     1     -10.538   7.259  70.116  1.00  0.00    -0.226 N  
HETATM    8  C   UNL     1      -9.441   6.130  72.052  1.00  0.00    -0.161 C  
HETATM    9  C   UNL     1      -9.380   6.459  70.560  1.00  0.00    -0.162 C  
HETATM   10  C   UNL     1     -10.762   5.472  72.429  1.00  0.00    -0.286 C  
HETATM   11  C   UNL     1     -11.931   6.332  71.964  1.00  0.00    -0.353 C  
HETATM   12  C   UNL     1     -11.834   6.652  70.472  1.00  0.00    -0.370 C  
ENDBRANCH   5   7
ENDBRANCH   4   5
ENDBRANCH   3   4
ENDBRANCH   2   3
BRANCH   2  13
HETATM   13  N   UNL     1      -8.058   5.838  65.650  1.00  0.00    -0.113 N  
HETATM   14  C   UNL     1      -9.947   4.241  65.892  1.00  0.00    -0.232 C  
HETATM   15  C   UNL     1      -7.297   5.197  66.726  1.00  0.00    -0.086 C  
HETATM   16  C   UNL     1      -8.981   4.940  64.939  1.00  0.00    -0.138 C  
HETATM   17  C   UNL     1      -8.244   4.514  67.721  1.00  0.00    -0.099 C  
HETATM   18  C   UNL     1      -9.191   3.541  67.018  1.00  0.00    -0.213 C  
ENDBRANCH   2  13
TORSDOF 5
ENDMDL
MODEL      255
REMARK 921   NORMALIZED FREE ENERGY PREDICTED BY IDOCK:   -2.75 KCAL/MOL
REMARK 922        TOTAL FREE ENERGY PREDICTED BY IDOCK:   -4.05 KCAL/MOL
REMARK 923 INTER-LIGAND FREE ENERGY PREDICTED BY IDOCK:   -3.58 KCAL/MOL
REMARK 924 INTRA-LIGAND FREE ENERGY PREDICTED BY IDOCK:   -0.47 KCAL/MOL
REMARK 927      BINDING AFFINITY PREDICTED BY RF-SCORE:    0.00 PKD
ROOT
HETATM    1  S   UNL     1     -10.409   7.743  67.114  1.00  0.00    -0.340 S  
HETATM    2  C   UNL     1      -8.984   8.635  67.220  1.00  0.00    -0.133 C  
ENDROOT
BRANCH   2   3
HETATM    3  S   UNL     1      -8.809   9.958  68.398  1.00  0.00    -0.122 SA 
BRANCH   3   4
HETATM    4  S   UNL     1      -8.702  11.616  67.153  1.00  0.00    -0.170 SA 
BRANCH   4   5
HETATM    5  C   UNL     1     -10.219  12.487  67.479  1.00  0.00    -0.217 C  
HETATM    6  S   UNL     1     -11.492  11.630  68.185  1.00  0.00    -0.321 S  
BRANCH   5   7
HETATM    7  N   UNL     1     -10.213  13.882  67.241  1.00  0.00    -0.248 N  
HETATM    8  C   UNL     1     -10.323  16.126  68.327  1.00  0.00    -0.266 C  
HETATM    9  C   UNL     1     -11.041  14.807  68.041  1.00  0.00    -0.286 C  
HETATM   10  C   UNL     1      -9.820  16.781  67.047  1.00  0.00    -0.262 C  
HETATM   11  C   UNL     1      -8.963  15.801  66.255  1.00  0.00    -0.381 C  
HETATM   12  C   UNL     1      -9.704  14.488  65.997  1.00  0.00    -0.303 C  
ENDBRANCH   5   7
ENDBRANCH   4   5
ENDBRANCH   3   4
ENDBRANCH   2   3
BRANCH   2  13
HETATM   13  N   UNL     1      -7.863   8.415  66.412  1.00  0.00    -0.097 N  
HETATM   14  C   UNL     1      -5.681   9.603  66.402  1.00  0.00    -0.053 C  
HETATM   15  C   UNL     1      -7.938   8.410  64.948  1.00  0.00    -0.136 C  
HETATM   16  C   UNL     1      -6.495   8.435  66.951  1.00  0.00    -0.057 C  
HETATM   17  C   UNL     1      -7.157   9.595  64.367  1.00  0.00    -0.118 C  
HETATM   18  C   UNL     1      -5.716   9.622  64.875  1.00  0.00    -0.069 C  
ENDBRANCH   2  13
TORSDOF 5
ENDMDL
MODEL      256
REMARK 921   NORMALIZED FREE ENERGY PREDICTED BY IDOCK:   -2.74 KCAL/MOL
REMARK 922        TOTAL FREE ENERGY PREDICTED BY IDOCK:   -4.04 KCAL/MOL
REMARK 923 INTER-LIGAND FREE ENERGY PREDICTED BY IDOCK:   -3.55 KCAL/MOL
REMARK 924 INTRA-LIGAND FREE ENERGY PREDICTED BY IDOCK:   -0.49 KCAL/MOL
REMARK 927      BINDING AFFINITY PREDICTED BY RF-SCORE:    0.00 PKD
ROOT
HETATM    1  S   UNL     1      -7.761   9.524  70.354  1.00  0.00    -0.156 S  
HETATM    2  C   UNL     1      -8.841   8.730  69.335  1.00  0.00    -0.143 C  
ENDROOT
BRANCH   2   3
HETATM    3  S   UNL     1      -8.319   7.357  68.328  1.00  0.00    -0.125 SA 
BRANCH   3   4
HETATM    4  S   UNL     1      -7.076   6.327  69.634  1.00  0.00    -0.075 SA 
BRANCH   4   5
HETATM    5  C   UNL     1      -8.096   4.993  70.223  1.00  0.00    -0.085 C  
HETATM    6  S   UNL     1      -8.063   3.532  69.373  1.00  0.00    -0.052 S  
BRANCH   5   7
HETATM    7  N   UNL     1      -8.772   5.204  71.448  1.00  0.00    -0.127 N  
HETATM    8  C   UNL     1     -11.018   5.362  72.525  1.00  0.00    -0.312 C  
HETATM    9  C   UNL     1     -10.041   5.957  71.511  1.00  0.00    -0.192 C  
HETATM   10  C   UNL     1     -10.379   5.211  73.899  1.00  0.00    -0.289 C  
HETATM   11  C   UNL     1      -9.081   4.421  73.794  1.00  0.00    -0.104 C  
HETATM   12  C   UNL     1      -8.132   5.035  72.764  1.00  0.00    -0.105 C  
ENDBRANCH   5   7
ENDBRANCH   4   5
ENDBRANCH   3   4
ENDBRANCH   2   3
BRANCH   2  13
HETATM   13  N   UNL     1     -10.189   9.078  69.201  1.00  0.00    -0.200 N  
HETATM   14  C   UNL     1     -11.210  10.908  67.866  1.00  0.00    -0.387 C  
HETATM   15  C   UNL     1     -11.047   9.358  70.356  1.00  0.00    -0.261 C  
HETATM   16  C   UNL     1     -10.777   9.445  67.904  1.00  0.00    -0.210 C  
HETATM   17  C   UNL     1     -11.471  10.832  70.365  1.00  0.00    -0.397 C  
HETATM   18  C   UNL     1     -12.125  11.237  69.044  1.00  0.00    -0.325 C  
ENDBRANCH   2  13
TORSDOF 5
ENDMDL
MODEL      257
REMARK 921   NORMALIZED FREE ENERGY PREDICTED BY IDOCK:   -2.69 KCAL/MOL
REMARK 922        TOTAL FREE ENERGY PREDICTED BY IDOCK:   -3.97 KCAL/MOL
REMARK 923 INTER-LIGAND FREE ENERGY PREDICTED BY IDOCK:   -3.36 KCAL/MOL
REMARK 924 INTRA-LIGAND FREE ENERGY PREDICTED BY IDOCK:   -0.61 KCAL/MOL
REMARK 927      BINDING AFFINITY PREDICTED BY RF-SCORE:    0.00 PKD
ROOT
HETATM    1  S   UNL     1      -8.363   7.735  65.841  1.00  0.00    -0.139 S  
HETATM    2  C   UNL     1      -9.661   7.944  66.894  1.00  0.00    -0.203 C  
ENDROOT
BRANCH   2   3
HETATM    3  S   UNL     1     -10.881   6.668  67.119  1.00  0.00    -0.398 SA 
BRANCH   3   4
HETATM    4  S   UNL     1     -11.216   6.764  69.166  1.00  0.00    -0.125 SA 
BRANCH   4   5
HETATM    5  C   UNL     1      -9.698   6.159  69.871  1.00  0.00    -0.163 C  
HETATM    6  S   UNL     1      -8.858   4.953  69.036  1.00  0.00    -0.095 S  
BRANCH   5   7
HETATM    7  N   UNL     1      -9.226   6.825  71.027  1.00  0.00    -0.156 N  
HETATM    8  C   UNL     1      -9.901   7.827  73.210  1.00  0.00    -0.362 C  
HETATM    9  C   UNL     1     -10.015   7.884  71.687  1.00  0.00    -0.181 C  
HETATM   10  C   UNL     1      -8.448   7.836  73.666  1.00  0.00    -0.275 C  
HETATM   11  C   UNL     1      -7.670   6.725  72.972  1.00  0.00    -0.093 C  
HETATM   12  C   UNL     1      -7.814   6.802  71.452  1.00  0.00    -0.098 C  
ENDBRANCH   5   7
ENDBRANCH   4   5
ENDBRANCH   3   4
ENDBRANCH   2   3
BRANCH   2  13
HETATM   13  N   UNL     1      -9.876   9.103  67.648  1.00  0.00    -0.163 N  
HETATM   14  C   UNL     1     -10.435  11.397  66.870  1.00  0.00    -0.278 C  
HETATM   15  C   UNL     1      -8.897   9.604  68.618  1.00  0.00    -0.128 C  
HETATM   16  C   UNL     1     -10.964  10.044  67.340  1.00  0.00    -0.191 C  
HETATM   17  C   UNL     1      -8.321  10.947  68.154  1.00  0.00    -0.123 C  
HETATM   18  C   UNL     1      -9.425  11.963  67.866  1.00  0.00    -0.194 C  
ENDBRANCH   2  13
TORSDOF 5
ENDMDL
MODEL      258
REMARK 921   NORMALIZED FREE ENERGY PREDICTED BY IDOCK:   -2.68 KCAL/MOL
REMARK 922        TOTAL FREE ENERGY PREDICTED BY IDOCK:   -3.96 KCAL/MOL
REMARK 923 INTER-LIGAND FREE ENERGY PREDICTED BY IDOCK:   -3.68 KCAL/MOL
REMARK 924 INTRA-LIGAND FREE ENERGY PREDICTED BY IDOCK:   -0.28 KCAL/MOL
REMARK 927      BINDING AFFINITY PREDICTED BY RF-SCORE:    0.00 PKD
ROOT
HETATM    1  S   UNL     1     -11.342   6.226  69.849  1.00  0.00    -0.374 S  
HETATM    2  C   UNL     1      -9.670   6.204  69.647  1.00  0.00    -0.152 C  
ENDROOT
BRANCH   2   3
HETATM    3  S   UNL     1      -8.632   7.428  70.418  1.00  0.00    -0.145 SA 
BRANCH   3   4
HETATM    4  S   UNL     1      -8.182   8.667  68.814  1.00  0.00    -0.122 SA 
BRANCH   4   5
HETATM    5  C   UNL     1      -9.775   9.219  68.247  1.00  0.00    -0.150 C  
HETATM    6  S   UNL     1     -10.438   8.469  66.885  1.00  0.00    -0.211 S  
BRANCH   5   7
HETATM    7  N   UNL     1     -10.444  10.167  69.057  1.00  0.00    -0.206 N  
HETATM    8  C   UNL     1     -11.902  12.192  69.028  1.00  0.00    -0.361 C  
HETATM    9  C   UNL     1     -10.547  11.586  68.662  1.00  0.00    -0.208 C  
HETATM   10  C   UNL     1     -12.229  11.989  70.501  1.00  0.00    -0.414 C  
HETATM   11  C   UNL     1     -12.122  10.514  70.867  1.00  0.00    -0.487 C  
HETATM   12  C   UNL     1     -10.762   9.936  70.478  1.00  0.00    -0.317 C  
ENDBRANCH   5   7
ENDBRANCH   4   5
ENDBRANCH   3   4
ENDBRANCH   2   3
BRANCH   2  13
HETATM   13  N   UNL     1      -8.988   5.255  68.879  1.00  0.00    -0.102 N  
HETATM   14  C   UNL     1      -6.609   5.236  68.160  1.00  0.00    -0.049 C  
HETATM   15  C   UNL     1      -9.455   4.831  67.555  1.00  0.00    -0.146 C  
HETATM   16  C   UNL     1      -7.627   4.809  69.214  1.00  0.00    -0.056 C  
HETATM   17  C   UNL     1      -8.469   5.278  66.469  1.00  0.00    -0.112 C  
HETATM   18  C   UNL     1      -7.050   4.794  66.766  1.00  0.00    -0.072 C  
ENDBRANCH   2  13
TORSDOF 5
ENDMDL
MODEL      259
REMARK 921   NORMALIZED FREE ENERGY PREDICTED BY IDOCK:   -2.68 KCAL/MOL
REMARK 922        TOTAL FREE ENERGY PREDICTED BY IDOCK:   -3.96 KCAL/MOL
REMARK 923 INTER-LIGAND FREE ENERGY PREDICTED BY IDOCK:   -3.45 KCAL/MOL
REMARK 924 INTRA-LIGAND FREE ENERGY PREDICTED BY IDOCK:   -0.51 KCAL/MOL
REMARK 927      BINDING AFFINITY PREDICTED BY RF-SCORE:    0.00 PKD
ROOT
HETATM    1  S   UNL     1     -11.071   6.589  69.366  1.00  0.00    -0.344 S  
HETATM    2  C   UNL     1     -10.190   7.931  69.876  1.00  0.00    -0.210 C  
ENDROOT
BRANCH   2   3
HETATM    3  S   UNL     1      -8.424   8.009  69.666  1.00  0.00    -0.132 SA 
BRANCH   3   4
HETATM    4  S   UNL     1      -7.850   6.093  70.221  1.00  0.00    -0.104 SA 
BRANCH   4   5
HETATM    5  C   UNL     1      -7.957   6.118  71.997  1.00  0.00    -0.106 C  
HETATM    6  S   UNL     1      -7.681   7.585  72.790  1.00  0.00    -0.098 S  
BRANCH   5   7
HETATM    7  N   UNL     1      -8.396   4.927  72.624  1.00  0.00    -0.115 N  
HETATM    8  C   UNL     1      -9.533   2.738  72.250  1.00  0.00    -0.177 C  
HETATM    9  C   UNL     1      -9.653   4.261  72.225  1.00  0.00    -0.141 C  
HETATM   10  C   UNL     1      -9.027   2.234  73.595  1.00  0.00    -0.072 C  
HETATM   11  C   UNL     1      -7.726   2.935  73.966  1.00  0.00    -0.060 C  
HETATM   12  C   UNL     1      -7.876   4.456  73.920  1.00  0.00    -0.089 C  
ENDBRANCH   5   7
ENDBRANCH   4   5
ENDBRANCH   3   4
ENDBRANCH   2   3
BRANCH   2  13
HETATM   13  N   UNL     1     -10.760   9.052  70.489  1.00  0.00    -0.226 N  
HETATM   14  C   UNL     1     -12.915   9.245  71.711  1.00  0.00    -0.471 C  
HETATM   15  C   UNL     1     -10.982  10.312  69.774  1.00  0.00    -0.289 C  
HETATM   16  C   UNL     1     -11.416   8.975  71.804  1.00  0.00    -0.372 C  
HETATM   17  C   UNL     1     -12.483  10.593  69.634  1.00  0.00    -0.121 C  
HETATM   18  C   UNL     1     -13.189  10.562  70.989  1.00  0.00    -0.324 C  
ENDBRANCH   2  13
TORSDOF 5
ENDMDL
MODEL      260
REMARK 921   NORMALIZED FREE ENERGY PREDICTED BY IDOCK:   -2.68 KCAL/MOL
REMARK 922        TOTAL FREE ENERGY PREDICTED BY IDOCK:   -3.95 KCAL/MOL
REMARK 923 INTER-LIGAND FREE ENERGY PREDICTED BY IDOCK:   -3.57 KCAL/MOL
REMARK 924 INTRA-LIGAND FREE ENERGY PREDICTED BY IDOCK:   -0.39 KCAL/MOL
REMARK 927      BINDING AFFINITY PREDICTED BY RF-SCORE:    0.00 PKD
ROOT
HETATM    1  S   UNL     1     -11.756  13.161  65.442  1.00  0.00    -0.372 S  
HETATM    2  C   UNL     1     -10.624  12.694  66.600  1.00  0.00    -0.248 C  
ENDROOT
BRANCH   2   3
HETATM    3  S   UNL     1     -10.399  13.629  68.098  1.00  0.00    -0.251 SA 
BRANCH   3   4
HETATM    4  S   UNL     1     -10.957  15.535  67.492  1.00  0.00    -0.298 SA 
BRANCH   4   5
HETATM    5  C   UNL     1      -9.804  16.599  68.330  1.00  0.00    -0.252 C  
HETATM    6  S   UNL     1     -10.358  17.484  69.659  1.00  0.00     0.429 S  
BRANCH   5   7
HETATM    7  N   UNL     1      -8.456  16.534  67.904  1.00  0.00    -0.179 N  
HETATM    8  C   UNL     1      -6.813  17.391  66.232  1.00  0.00    -0.307 C  
HETATM    9  C   UNL     1      -8.093  16.592  66.474  1.00  0.00    -0.306 C  
HETATM   10  C   UNL     1      -5.661  16.881  67.089  1.00  0.00    -0.198 C  
HETATM   11  C   UNL     1      -6.070  16.847  68.556  1.00  0.00    -0.144 C  
HETATM   12  C   UNL     1      -7.359  16.051  68.762  1.00  0.00    -0.165 C  
ENDBRANCH   5   7
ENDBRANCH   4   5
ENDBRANCH   3   4
ENDBRANCH   2   3
BRANCH   2  13
HETATM   13  N   UNL     1      -9.797  11.574  66.476  1.00  0.00    -0.198 N  
HETATM   14  C   UNL     1      -9.785   9.821  64.715  1.00  0.00    -0.213 C  
HETATM   15  C   UNL     1      -9.646  10.585  67.548  1.00  0.00    -0.160 C  
HETATM   16  C   UNL     1      -9.227  11.162  65.184  1.00  0.00    -0.189 C  
HETATM   17  C   UNL     1     -10.230   9.234  67.118  1.00  0.00    -0.324 C  
HETATM   18  C   UNL     1      -9.628   8.756  65.798  1.00  0.00    -0.190 C  
ENDBRANCH   2  13
TORSDOF 5
ENDMDL
MODEL      261
REMARK 921   NORMALIZED FREE ENERGY PREDICTED BY IDOCK:   -2.66 KCAL/MOL
REMARK 922        TOTAL FREE ENERGY PREDICTED BY IDOCK:   -3.93 KCAL/MOL
REMARK 923 INTER-LIGAND FREE ENERGY PREDICTED BY IDOCK:   -3.28 KCAL/MOL
REMARK 924 INTRA-LIGAND FREE ENERGY PREDICTED BY IDOCK:   -0.65 KCAL/MOL
REMARK 927      BINDING AFFINITY PREDICTED BY RF-SCORE:    0.00 PKD
ROOT
HETATM    1  S   UNL     1     -10.960   6.498  67.722  1.00  0.00    -0.281 S  
HETATM    2  C   UNL     1     -10.363   6.133  69.254  1.00  0.00    -0.221 C  
ENDROOT
BRANCH   2   3
HETATM    3  S   UNL     1      -8.877   5.175  69.461  1.00  0.00    -0.100 SA 
BRANCH   3   4
HETATM    4  S   UNL     1      -7.489   6.647  69.927  1.00  0.00    -0.097 SA 
BRANCH   4   5
HETATM    5  C   UNL     1      -7.290   7.538  68.400  1.00  0.00    -0.099 C  
HETATM    6  S   UNL     1      -7.175   6.647  66.968  1.00  0.00    -0.083 S  
BRANCH   5   7
HETATM    7  N   UNL     1      -7.372   8.948  68.473  1.00  0.00    -0.080 N  
HETATM    8  C   UNL     1      -6.547  11.083  67.478  1.00  0.00    -0.068 C  
HETATM    9  C   UNL     1      -6.192   9.805  68.238  1.00  0.00    -0.051 C  
HETATM   10  C   UNL     1      -7.675  11.847  68.159  1.00  0.00    -0.126 C  
HETATM   11  C   UNL     1      -8.876  10.934  68.375  1.00  0.00    -0.147 C  
HETATM   12  C   UNL     1      -8.485   9.661  69.125  1.00  0.00    -0.143 C  
ENDBRANCH   5   7
ENDBRANCH   4   5
ENDBRANCH   3   4
ENDBRANCH   2   3
BRANCH   2  13
HETATM   13  N   UNL     1     -10.971   6.540  70.446  1.00  0.00    -0.273 N  
HETATM   14  C   UNL     1     -10.578   8.596  71.785  1.00  0.00    -0.395 C  
HETATM   15  C   UNL     1     -11.002   5.692  71.642  1.00  0.00    -0.211 C  
HETATM   16  C   UNL     1     -11.389   7.931  70.676  1.00  0.00    -0.259 C  
HETATM   17  C   UNL     1     -10.166   6.318  72.765  1.00  0.00    -0.202 C  
HETATM   18  C   UNL     1     -10.602   7.753  73.058  1.00  0.00    -0.441 C  
ENDBRANCH   2  13
TORSDOF 5
ENDMDL
MODEL      262
REMARK 921   NORMALIZED FREE ENERGY PREDICTED BY IDOCK:   -2.64 KCAL/MOL
REMARK 922        TOTAL FREE ENERGY PREDICTED BY IDOCK:   -3.90 KCAL/MOL
REMARK 923 INTER-LIGAND FREE ENERGY PREDICTED BY IDOCK:   -3.54 KCAL/MOL
REMARK 924 INTRA-LIGAND FREE ENERGY PREDICTED BY IDOCK:   -0.36 KCAL/MOL
REMARK 927      BINDING AFFINITY PREDICTED BY RF-SCORE:    0.00 PKD
ROOT
HETATM    1  S   UNL     1      -6.440   6.836  69.178  1.00  0.00    -0.037 S  
HETATM    2  C   UNL     1      -7.569   6.932  67.931  1.00  0.00    -0.107 C  
ENDROOT
BRANCH   2   3
HETATM    3  S   UNL     1      -8.244   8.496  67.416  1.00  0.00    -0.109 SA 
BRANCH   3   4
HETATM    4  S   UNL     1      -8.079   9.618  69.156  1.00  0.00    -0.113 SA 
BRANCH   4   5
HETATM    5  C   UNL     1      -9.498  10.689  69.104  1.00  0.00    -0.170 C  
HETATM    6  S   UNL     1      -9.456  12.016  68.057  1.00  0.00    -0.204 S  
BRANCH   5   7
HETATM    7  N   UNL     1     -10.628  10.283  69.853  1.00  0.00    -0.273 N  
HETATM    8  C   UNL     1     -11.374   9.083  71.910  1.00  0.00    -0.438 C  
HETATM    9  C   UNL     1     -10.662   8.988  70.560  1.00  0.00    -0.239 C  
HETATM   10  C   UNL     1     -12.764   9.689  71.770  1.00  0.00    -0.510 C  
HETATM   11  C   UNL     1     -12.687  11.027  71.046  1.00  0.00    -0.485 C  
HETATM   12  C   UNL     1     -11.959  10.900  69.707  1.00  0.00    -0.351 C  
ENDBRANCH   5   7
ENDBRANCH   4   5
ENDBRANCH   3   4
ENDBRANCH   2   3
BRANCH   2  13
HETATM   13  N   UNL     1      -8.052   5.823  67.229  1.00  0.00    -0.102 N  
HETATM   14  C   UNL     1      -8.085   3.432  67.905  1.00  0.00    -0.082 C  
HETATM   15  C   UNL     1      -7.606   5.497  65.871  1.00  0.00    -0.083 C  
HETATM   16  C   UNL     1      -8.833   4.762  67.883  1.00  0.00    -0.105 C  
HETATM   17  C   UNL     1      -6.820   4.180  65.866  1.00  0.00    -0.057 C  
HETATM   18  C   UNL     1      -7.620   3.045  66.502  1.00  0.00    -0.076 C  
ENDBRANCH   2  13
TORSDOF 5
ENDMDL
MODEL      263
REMARK 921   NORMALIZED FREE ENERGY PREDICTED BY IDOCK:   -2.63 KCAL/MOL
REMARK 922        TOTAL FREE ENERGY PREDICTED BY IDOCK:   -3.90 KCAL/MOL
REMARK 923 INTER-LIGAND FREE ENERGY PREDICTED BY IDOCK:   -3.52 KCAL/MOL
REMARK 924 INTRA-LIGAND FREE ENERGY PREDICTED BY IDOCK:   -0.38 KCAL/MOL
REMARK 927      BINDING AFFINITY PREDICTED BY RF-SCORE:    0.00 PKD
ROOT
HETATM    1  S   UNL     1      -9.515  11.238  65.080  1.00  0.00    -0.190 S  
HETATM    2  C   UNL     1      -9.472  10.816  66.711  1.00  0.00    -0.173 C  
ENDROOT
BRANCH   2   3
HETATM    3  S   UNL     1     -10.858  11.133  67.781  1.00  0.00    -0.260 SA 
BRANCH   3   4
HETATM    4  S   UNL     1     -10.430  13.045  68.469  1.00  0.00    -0.226 SA 
BRANCH   4   5
HETATM    5  C   UNL     1     -10.939  14.099  67.129  1.00  0.00    -0.299 C  
HETATM    6  S   UNL     1     -12.365  13.711  66.309  1.00  0.00    -0.374 S  
BRANCH   5   7
HETATM    7  N   UNL     1     -10.178  15.274  66.921  1.00  0.00    -0.263 N  
HETATM    8  C   UNL     1      -9.360  17.377  67.988  1.00  0.00    -0.276 C  
HETATM    9  C   UNL     1     -10.569  16.565  67.522  1.00  0.00    -0.313 C  
HETATM   10  C   UNL     1      -8.341  17.557  66.871  1.00  0.00    -0.255 C  
HETATM   11  C   UNL     1      -7.955  16.205  66.285  1.00  0.00    -0.138 C  
HETATM   12  C   UNL     1      -9.186  15.414  65.841  1.00  0.00    -0.239 C  
ENDBRANCH   5   7
ENDBRANCH   4   5
ENDBRANCH   3   4
ENDBRANCH   2   3
BRANCH   2  13
HETATM   13  N   UNL     1      -8.377  10.207  67.331  1.00  0.00    -0.118 N  
HETATM   14  C   UNL     1      -6.541  11.248  68.644  1.00  0.00    -0.064 C  
HETATM   15  C   UNL     1      -7.448   9.334  66.607  1.00  0.00    -0.093 C  
HETATM   16  C   UNL     1      -7.922  10.599  68.674  1.00  0.00    -0.128 C  
HETATM   17  C   UNL     1      -6.057   9.977  66.530  1.00  0.00    -0.065 C  
HETATM   18  C   UNL     1      -5.536  10.358  67.915  1.00  0.00    -0.040 C  
ENDBRANCH   2  13
TORSDOF 5
ENDMDL
MODEL      264
REMARK 921   NORMALIZED FREE ENERGY PREDICTED BY IDOCK:   -2.63 KCAL/MOL
REMARK 922        TOTAL FREE ENERGY PREDICTED BY IDOCK:   -3.90 KCAL/MOL
REMARK 923 INTER-LIGAND FREE ENERGY PREDICTED BY IDOCK:   -3.46 KCAL/MOL
REMARK 924 INTRA-LIGAND FREE ENERGY PREDICTED BY IDOCK:   -0.44 KCAL/MOL
REMARK 927      BINDING AFFINITY PREDICTED BY RF-SCORE:    0.00 PKD
ROOT
HETATM    1  S   UNL     1      -8.743   9.408  69.869  1.00  0.00    -0.216 S  
HETATM    2  C   UNL     1      -9.987   8.456  69.250  1.00  0.00    -0.195 C  
ENDROOT
BRANCH   2   3
HETATM    3  S   UNL     1     -10.083   8.079  67.513  1.00  0.00    -0.241 SA 
BRANCH   3   4
HETATM    4  S   UNL     1      -8.090   7.730  67.049  1.00  0.00    -0.118 SA 
BRANCH   4   5
HETATM    5  C   UNL     1      -7.858   6.011  67.444  1.00  0.00    -0.102 C  
HETATM    6  S   UNL     1      -7.823   5.567  69.075  1.00  0.00    -0.092 S  
BRANCH   5   7
HETATM    7  N   UNL     1      -7.849   5.106  66.357  1.00  0.00    -0.102 N  
HETATM    8  C   UNL     1      -7.097   2.849  65.601  1.00  0.00    -0.061 C  
HETATM    9  C   UNL     1      -6.684   4.241  66.080  1.00  0.00    -0.049 C  
HETATM   10  C   UNL     1      -8.044   2.922  64.411  1.00  0.00    -0.082 C  
HETATM   11  C   UNL     1      -9.236   3.812  64.738  1.00  0.00    -0.146 C  
HETATM   12  C   UNL     1      -8.789   5.191  65.225  1.00  0.00    -0.152 C  
ENDBRANCH   5   7
ENDBRANCH   4   5
ENDBRANCH   3   4
ENDBRANCH   2   3
BRANCH   2  13
HETATM   13  N   UNL     1     -11.013   7.909  70.028  1.00  0.00    -0.238 N  
HETATM   14  C   UNL     1     -11.369   8.060  72.483  1.00  0.00    -0.469 C  
HETATM   15  C   UNL     1     -11.341   6.480  70.006  1.00  0.00    -0.410 C  
HETATM   16  C   UNL     1     -11.660   8.664  71.112  1.00  0.00    -0.281 C  
HETATM   17  C   UNL     1     -11.025   5.836  71.361  1.00  0.00    -0.304 C  
HETATM   18  C   UNL     1     -11.717   6.573  72.508  1.00  0.00    -0.203 C  
ENDBRANCH   2  13
TORSDOF 5
ENDMDL
MODEL      265
REMARK 921   NORMALIZED FREE ENERGY PREDICTED BY IDOCK:   -2.63 KCAL/MOL
REMARK 922        TOTAL FREE ENERGY PREDICTED BY IDOCK:   -3.90 KCAL/MOL
REMARK 923 INTER-LIGAND FREE ENERGY PREDICTED BY IDOCK:   -3.29 KCAL/MOL
REMARK 924 INTRA-LIGAND FREE ENERGY PREDICTED BY IDOCK:   -0.61 KCAL/MOL
REMARK 927      BINDING AFFINITY PREDICTED BY RF-SCORE:    0.00 PKD
ROOT
HETATM    1  S   UNL     1     -11.432   6.384  69.909  1.00  0.00    -0.329 S  
HETATM    2  C   UNL     1     -10.384   7.491  70.626  1.00  0.00    -0.208 C  
ENDROOT
BRANCH   2   3
HETATM    3  S   UNL     1      -8.862   6.962  71.382  1.00  0.00    -0.133 SA 
BRANCH   3   4
HETATM    4  S   UNL     1      -7.511   7.213  69.825  1.00  0.00    -0.099 SA 
BRANCH   4   5
HETATM    5  C   UNL     1      -7.870   5.854  68.733  1.00  0.00    -0.095 C  
HETATM    6  S   UNL     1      -8.096   4.324  69.414  1.00  0.00    -0.059 S  
BRANCH   5   7
HETATM    7  N   UNL     1      -8.071   6.173  67.369  1.00  0.00    -0.109 N  
HETATM    8  C   UNL     1      -8.775   7.969  65.786  1.00  0.00    -0.175 C  
HETATM    9  C   UNL     1      -9.181   7.043  66.933  1.00  0.00    -0.150 C  
HETATM   10  C   UNL     1      -8.173   7.193  64.622  1.00  0.00    -0.027 C  
HETATM   11  C   UNL     1      -7.026   6.316  65.109  1.00  0.00    -0.056 C  
HETATM   12  C   UNL     1      -7.462   5.412  66.263  1.00  0.00    -0.087 C  
ENDBRANCH   5   7
ENDBRANCH   4   5
ENDBRANCH   3   4
ENDBRANCH   2   3
BRANCH   2  13
HETATM   13  N   UNL     1     -10.624   8.868  70.687  1.00  0.00    -0.216 N  
HETATM   14  C   UNL     1     -12.736  10.070  71.206  1.00  0.00    -0.500 C  
HETATM   15  C   UNL     1     -10.312   9.770  69.574  1.00  0.00    -0.230 C  
HETATM   16  C   UNL     1     -11.440   9.473  71.750  1.00  0.00    -0.279 C  
HETATM   17  C   UNL     1     -11.598  10.359  68.983  1.00  0.00    -0.220 C  
HETATM   18  C   UNL     1     -12.452  11.034  70.056  1.00  0.00    -0.319 C  
ENDBRANCH   2  13
TORSDOF 5
ENDMDL
MODEL      266
REMARK 921   NORMALIZED FREE ENERGY PREDICTED BY IDOCK:   -2.63 KCAL/MOL
REMARK 922        TOTAL FREE ENERGY PREDICTED BY IDOCK:   -3.90 KCAL/MOL
REMARK 923 INTER-LIGAND FREE ENERGY PREDICTED BY IDOCK:   -3.57 KCAL/MOL
REMARK 924 INTRA-LIGAND FREE ENERGY PREDICTED BY IDOCK:   -0.33 KCAL/MOL
REMARK 927      BINDING AFFINITY PREDICTED BY RF-SCORE:    0.00 PKD
ROOT
HETATM    1  S   UNL     1     -10.294   5.535  66.944  1.00  0.00    -0.286 S  
HETATM    2  C   UNL     1      -8.803   6.174  67.398  1.00  0.00    -0.106 C  
ENDROOT
BRANCH   2   3
HETATM    3  S   UNL     1      -8.695   7.588  68.474  1.00  0.00    -0.127 SA 
BRANCH   3   4
HETATM    4  S   UNL     1     -10.531   8.502  68.152  1.00  0.00    -0.140 SA 
BRANCH   4   5
HETATM    5  C   UNL     1     -11.013   9.063  69.771  1.00  0.00    -0.166 C  
HETATM    6  S   UNL     1     -11.363  10.704  69.972  1.00  0.00    -0.334 S  
BRANCH   5   7
HETATM    7  N   UNL     1     -11.197   8.067  70.759  1.00  0.00    -0.264 N  
HETATM    8  C   UNL     1     -10.805   5.667  71.319  1.00  0.00    -0.289 C  
HETATM    9  C   UNL     1     -11.504   6.668  70.399  1.00  0.00    -0.386 C  
HETATM   10  C   UNL     1     -11.097   5.952  72.786  1.00  0.00    -0.321 C  
HETATM   11  C   UNL     1     -10.759   7.399  73.120  1.00  0.00    -0.436 C  
HETATM   12  C   UNL     1     -11.463   8.373  72.176  1.00  0.00    -0.372 C  
ENDBRANCH   5   7
ENDBRANCH   4   5
ENDBRANCH   3   4
ENDBRANCH   2   3
BRANCH   2  13
HETATM   13  N   UNL     1      -7.572   5.663  66.974  1.00  0.00    -0.095 N  
HETATM   14  C   UNL     1      -6.592   5.626  64.690  1.00  0.00    -0.045 C  
HETATM   15  C   UNL     1      -7.162   4.280  67.239  1.00  0.00    -0.068 C  
HETATM   16  C   UNL     1      -6.717   6.377  66.013  1.00  0.00    -0.049 C  
HETATM   17  C   UNL     1      -7.061   3.489  65.929  1.00  0.00    -0.063 C  
HETATM   18  C   UNL     1      -6.146   4.184  64.922  1.00  0.00    -0.023 C  
ENDBRANCH   2  13
TORSDOF 5
ENDMDL
MODEL      267
REMARK 921   NORMALIZED FREE ENERGY PREDICTED BY IDOCK:   -2.63 KCAL/MOL
REMARK 922        TOTAL FREE ENERGY PREDICTED BY IDOCK:   -3.89 KCAL/MOL
REMARK 923 INTER-LIGAND FREE ENERGY PREDICTED BY IDOCK:   -3.49 KCAL/MOL
REMARK 924 INTRA-LIGAND FREE ENERGY PREDICTED BY IDOCK:   -0.40 KCAL/MOL
REMARK 927      BINDING AFFINITY PREDICTED BY RF-SCORE:    0.00 PKD
ROOT
HETATM    1  S   UNL     1     -10.976  13.000  65.820  1.00  0.00    -0.281 S  
HETATM    2  C   UNL     1     -10.680  12.789  67.465  1.00  0.00    -0.229 C  
ENDROOT
BRANCH   2   3
HETATM    3  S   UNL     1     -10.800  11.184  68.226  1.00  0.00    -0.234 SA 
BRANCH   3   4
HETATM    4  S   UNL     1      -8.881  10.444  67.948  1.00  0.00    -0.126 SA 
BRANCH   4   5
HETATM    5  C   UNL     1      -9.104   9.119  66.781  1.00  0.00    -0.144 C  
HETATM    6  S   UNL     1     -10.402   8.062  67.016  1.00  0.00    -0.340 S  
BRANCH   5   7
HETATM    7  N   UNL     1      -8.250   9.117  65.653  1.00  0.00    -0.116 N  
HETATM    8  C   UNL     1      -6.293  10.239  64.586  1.00  0.00    -0.108 C  
HETATM    9  C   UNL     1      -7.738  10.372  65.067  1.00  0.00    -0.095 C  
HETATM   10  C   UNL     1      -6.121   9.060  63.638  1.00  0.00    -0.087 C  
HETATM   11  C   UNL     1      -6.649   7.784  64.282  1.00  0.00    -0.056 C  
HETATM   12  C   UNL     1      -8.091   7.953  64.762  1.00  0.00    -0.141 C  
ENDBRANCH   5   7
ENDBRANCH   4   5
ENDBRANCH   3   4
ENDBRANCH   2   3
BRANCH   2  13
HETATM   13  N   UNL     1     -10.333  13.828  68.335  1.00  0.00    -0.243 N  
HETATM   14  C   UNL     1     -11.399  16.054  68.623  1.00  0.00    -0.383 C  
HETATM   15  C   UNL     1      -8.984  14.400  68.379  1.00  0.00    -0.188 C  
HETATM   16  C   UNL     1     -11.344  14.598  69.076  1.00  0.00    -0.277 C  
HETATM   17  C   UNL     1      -9.002  15.855  67.894  1.00  0.00    -0.181 C  
HETATM   18  C   UNL     1     -10.013  16.694  68.674  1.00  0.00    -0.261 C  
ENDBRANCH   2  13
TORSDOF 5
ENDMDL
MODEL      268
REMARK 921   NORMALIZED FREE ENERGY PREDICTED BY IDOCK:   -2.63 KCAL/MOL
REMARK 922        TOTAL FREE ENERGY PREDICTED BY IDOCK:   -3.89 KCAL/MOL
REMARK 923 INTER-LIGAND FREE ENERGY PREDICTED BY IDOCK:   -3.34 KCAL/MOL
REMARK 924 INTRA-LIGAND FREE ENERGY PREDICTED BY IDOCK:   -0.55 KCAL/MOL
REMARK 927      BINDING AFFINITY PREDICTED BY RF-SCORE:    0.00 PKD
ROOT
HETATM    1  S   UNL     1      -9.689   9.713  69.690  1.00  0.00    -0.227 S  
HETATM    2  C   UNL     1      -8.047   9.628  70.057  1.00  0.00    -0.178 C  
ENDROOT
BRANCH   2   3
HETATM    3  S   UNL     1      -7.472   8.804  71.526  1.00  0.00    -0.049 SA 
BRANCH   3   4
HETATM    4  S   UNL     1      -7.390   6.828  70.894  1.00  0.00    -0.083 SA 
BRANCH   4   5
HETATM    5  C   UNL     1      -8.481   5.980  72.016  1.00  0.00    -0.121 C  
HETATM    6  S   UNL     1      -7.790   5.002  73.208  1.00  0.00    -0.097 S  
BRANCH   5   7
HETATM    7  N   UNL     1      -9.858   6.286  71.915  1.00  0.00    -0.156 N  
HETATM    8  C   UNL     1     -11.611   7.968  72.487  1.00  0.00    -0.464 C  
HETATM    9  C   UNL     1     -10.583   6.964  73.008  1.00  0.00    -0.278 C  
HETATM   10  C   UNL     1     -12.565   7.328  71.488  1.00  0.00    -0.415 C  
HETATM   11  C   UNL     1     -11.782   6.649  70.371  1.00  0.00    -0.446 C  
HETATM   12  C   UNL     1     -10.755   5.662  70.925  1.00  0.00    -0.243 C  
ENDBRANCH   5   7
ENDBRANCH   4   5
ENDBRANCH   3   4
ENDBRANCH   2   3
BRANCH   2  13
HETATM   13  N   UNL     1      -7.040  10.186  69.263  1.00  0.00    -0.067 N  
HETATM   14  C   UNL     1      -6.868  12.484  68.334  1.00  0.00    -0.085 C  
HETATM   15  C   UNL     1      -6.605   9.577  68.002  1.00  0.00    -0.062 C  
HETATM   16  C   UNL     1      -6.529  11.547  69.489  1.00  0.00    -0.124 C  
HETATM   17  C   UNL     1      -6.964  10.482  66.817  1.00  0.00    -0.104 C  
HETATM   18  C   UNL     1      -6.411  11.895  67.001  1.00  0.00    -0.136 C  
ENDBRANCH   2  13
TORSDOF 5
ENDMDL
MODEL      269
REMARK 921   NORMALIZED FREE ENERGY PREDICTED BY IDOCK:   -2.61 KCAL/MOL
REMARK 922        TOTAL FREE ENERGY PREDICTED BY IDOCK:   -3.87 KCAL/MOL
REMARK 923 INTER-LIGAND FREE ENERGY PREDICTED BY IDOCK:   -3.48 KCAL/MOL
REMARK 924 INTRA-LIGAND FREE ENERGY PREDICTED BY IDOCK:   -0.38 KCAL/MOL
REMARK 927      BINDING AFFINITY PREDICTED BY RF-SCORE:    0.00 PKD
ROOT
HETATM    1  S   UNL     1      -9.661   4.270  67.019  1.00  0.00    -0.202 S  
HETATM    2  C   UNL     1      -9.552   5.557  68.101  1.00  0.00    -0.119 C  
ENDROOT
BRANCH   2   3
HETATM    3  S   UNL     1     -11.002   6.451  68.618  1.00  0.00    -0.314 SA 
BRANCH   3   4
HETATM    4  S   UNL     1     -10.787   6.441  70.683  1.00  0.00    -0.297 SA 
BRANCH   4   5
HETATM    5  C   UNL     1     -10.176   8.071  71.052  1.00  0.00    -0.190 C  
HETATM    6  S   UNL     1      -8.621   8.210  71.699  1.00  0.00    -0.155 S  
BRANCH   5   7
HETATM    7  N   UNL     1     -10.989   9.159  70.655  1.00  0.00    -0.246 N  
HETATM    8  C   UNL     1     -12.504  10.965  71.473  1.00  0.00    -0.419 C  
HETATM    9  C   UNL     1     -12.264   9.461  71.337  1.00  0.00    -0.356 C  
HETATM   10  C   UNL     1     -12.398  11.676  70.130  1.00  0.00    -0.297 C  
HETATM   11  C   UNL     1     -11.068  11.348  69.464  1.00  0.00    -0.274 C  
HETATM   12  C   UNL     1     -10.852   9.838  69.354  1.00  0.00    -0.232 C  
ENDBRANCH   5   7
ENDBRANCH   4   5
ENDBRANCH   3   4
ENDBRANCH   2   3
BRANCH   2  13
HETATM   13  N   UNL     1      -8.352   6.011  68.656  1.00  0.00    -0.113 N  
HETATM   14  C   UNL     1      -6.436   7.136  67.542  1.00  0.00    -0.054 C  
HETATM   15  C   UNL     1      -7.467   5.141  69.437  1.00  0.00    -0.058 C  
HETATM   16  C   UNL     1      -7.759   7.305  68.284  1.00  0.00    -0.120 C  
HETATM   17  C   UNL     1      -6.141   4.924  68.699  1.00  0.00    -0.030 C  
HETATM   18  C   UNL     1      -5.476   6.250  68.334  1.00  0.00    -0.008 C  
ENDBRANCH   2  13
TORSDOF 5
ENDMDL
MODEL      270
REMARK 921   NORMALIZED FREE ENERGY PREDICTED BY IDOCK:   -2.60 KCAL/MOL
REMARK 922        TOTAL FREE ENERGY PREDICTED BY IDOCK:   -3.86 KCAL/MOL
REMARK 923 INTER-LIGAND FREE ENERGY PREDICTED BY IDOCK:   -3.24 KCAL/MOL
REMARK 924 INTRA-LIGAND FREE ENERGY PREDICTED BY IDOCK:   -0.62 KCAL/MOL
REMARK 927      BINDING AFFINITY PREDICTED BY RF-SCORE:    0.00 PKD
ROOT
HETATM    1  S   UNL     1      -9.814  10.140  65.316  1.00  0.00    -0.313 S  
HETATM    2  C   UNL     1      -8.897  10.916  66.497  1.00  0.00    -0.163 C  
ENDROOT
BRANCH   2   3
HETATM    3  S   UNL     1      -9.659  11.981  67.703  1.00  0.00    -0.193 SA 
BRANCH   3   4
HETATM    4  S   UNL     1     -11.452  10.997  68.059  1.00  0.00    -0.252 SA 
BRANCH   4   5
HETATM    5  C   UNL     1     -11.245  10.318  69.690  1.00  0.00    -0.269 C  
HETATM    6  S   UNL     1     -12.347  10.774  70.888  1.00  0.00    -0.419 S  
BRANCH   5   7
HETATM    7  N   UNL     1     -10.240   9.334  69.845  1.00  0.00    -0.201 N  
HETATM    8  C   UNL     1      -8.209   8.694  71.146  1.00  0.00    -0.187 C  
HETATM    9  C   UNL     1      -8.849   9.695  70.184  1.00  0.00    -0.231 C  
HETATM   10  C   UNL     1      -8.312   7.267  70.624  1.00  0.00    -0.128 C  
HETATM   11  C   UNL     1      -9.761   6.929  70.295  1.00  0.00    -0.176 C  
HETATM   12  C   UNL     1     -10.375   7.955  69.342  1.00  0.00    -0.220 C  
ENDBRANCH   5   7
ENDBRANCH   4   5
ENDBRANCH   3   4
ENDBRANCH   2   3
BRANCH   2  13
HETATM   13  N   UNL     1      -7.509  10.792  66.616  1.00  0.00    -0.128 N  
HETATM   14  C   UNL     1      -6.186   9.028  67.761  1.00  0.00    -0.051 C  
HETATM   15  C   UNL     1      -6.667  11.863  67.158  1.00  0.00    -0.142 C  
HETATM   16  C   UNL     1      -6.824   9.500  66.458  1.00  0.00    -0.083 C  
HETATM   17  C   UNL     1      -6.039  11.430  68.489  1.00  0.00    -0.045 C  
HETATM   18  C   UNL     1      -5.282  10.110  68.349  1.00  0.00    -0.035 C  
ENDBRANCH   2  13
TORSDOF 5
ENDMDL
MODEL      271
REMARK 921   NORMALIZED FREE ENERGY PREDICTED BY IDOCK:   -2.60 KCAL/MOL
REMARK 922        TOTAL FREE ENERGY PREDICTED BY IDOCK:   -3.86 KCAL/MOL
REMARK 923 INTER-LIGAND FREE ENERGY PREDICTED BY IDOCK:   -3.50 KCAL/MOL
REMARK 924 INTRA-LIGAND FREE ENERGY PREDICTED BY IDOCK:   -0.36 KCAL/MOL
REMARK 927      BINDING AFFINITY PREDICTED BY RF-SCORE:    0.00 PKD
ROOT
HETATM    1  S   UNL     1      -6.860   8.452  68.051  1.00  0.00    -0.071 S  
HETATM    2  C   UNL     1      -8.105   7.319  67.983  1.00  0.00    -0.120 C  
ENDROOT
BRANCH   2   3
HETATM    3  S   UNL     1      -9.595   7.529  68.935  1.00  0.00    -0.150 SA 
BRANCH   3   4
HETATM    4  S   UNL     1      -9.240   9.346  69.875  1.00  0.00    -0.224 SA 
BRANCH   4   5
HETATM    5  C   UNL     1     -10.437   9.381  71.191  1.00  0.00    -0.322 C  
HETATM    6  S   UNL     1     -11.809  10.348  70.993  1.00  0.00    -0.339 S  
BRANCH   5   7
HETATM    7  N   UNL     1     -10.221   8.490  72.269  1.00  0.00    -0.325 N  
HETATM    8  C   UNL     1     -10.977   6.359  73.324  1.00  0.00    -0.218 C  
HETATM    9  C   UNL     1     -11.340   7.792  72.932  1.00  0.00    -0.349 C  
HETATM   10  C   UNL     1      -9.704   6.309  74.159  1.00  0.00    -0.244 C  
HETATM   11  C   UNL     1      -8.572   7.030  73.438  1.00  0.00    -0.154 C  
HETATM   12  C   UNL     1      -8.970   8.454  73.049  1.00  0.00    -0.172 C  
ENDBRANCH   5   7
ENDBRANCH   4   5
ENDBRANCH   3   4
ENDBRANCH   2   3
BRANCH   2  13
HETATM   13  N   UNL     1      -8.065   6.160  67.201  1.00  0.00    -0.106 N  
HETATM   14  C   UNL     1      -8.349   5.916  64.745  1.00  0.00    -0.103 C  
HETATM   15  C   UNL     1      -8.912   4.996  67.477  1.00  0.00    -0.110 C  
HETATM   16  C   UNL     1      -7.376   6.116  65.903  1.00  0.00    -0.080 C  
HETATM   17  C   UNL     1      -9.926   4.789  66.346  1.00  0.00    -0.264 C  
HETATM   18  C   UNL     1      -9.238   4.697  64.984  1.00  0.00    -0.152 C  
ENDBRANCH   2  13
TORSDOF 5
ENDMDL
MODEL      272
REMARK 921   NORMALIZED FREE ENERGY PREDICTED BY IDOCK:   -2.60 KCAL/MOL
REMARK 922        TOTAL FREE ENERGY PREDICTED BY IDOCK:   -3.86 KCAL/MOL
REMARK 923 INTER-LIGAND FREE ENERGY PREDICTED BY IDOCK:   -3.51 KCAL/MOL
REMARK 924 INTRA-LIGAND FREE ENERGY PREDICTED BY IDOCK:   -0.34 KCAL/MOL
REMARK 927      BINDING AFFINITY PREDICTED BY RF-SCORE:    0.00 PKD
ROOT
HETATM    1  S   UNL     1     -10.510   7.874  67.136  1.00  0.00    -0.321 S  
HETATM    2  C   UNL     1      -9.135   8.753  67.551  1.00  0.00    -0.133 C  
ENDROOT
BRANCH   2   3
HETATM    3  S   UNL     1      -9.220  10.110  68.700  1.00  0.00    -0.165 SA 
BRANCH   3   4
HETATM    4  S   UNL     1      -8.903  11.739  67.452  1.00  0.00    -0.170 SA 
BRANCH   4   5
HETATM    5  C   UNL     1     -10.370  12.723  67.662  1.00  0.00    -0.221 C  
HETATM    6  S   UNL     1     -11.731  11.988  68.344  1.00  0.00    -0.312 S  
BRANCH   5   7
HETATM    7  N   UNL     1     -10.258  14.101  67.362  1.00  0.00    -0.243 N  
HETATM    8  C   UNL     1     -10.539  15.818  65.573  1.00  0.00    -0.424 C  
HETATM    9  C   UNL     1      -9.791  14.570  66.042  1.00  0.00    -0.318 C  
HETATM   10  C   UNL     1     -10.493  16.927  66.616  1.00  0.00    -0.257 C  
HETATM   11  C   UNL     1     -10.992  16.408  67.959  1.00  0.00    -0.327 C  
HETATM   12  C   UNL     1     -10.233  15.154  68.394  1.00  0.00    -0.221 C  
ENDBRANCH   5   7
ENDBRANCH   4   5
ENDBRANCH   3   4
ENDBRANCH   2   3
BRANCH   2  13
HETATM   13  N   UNL     1      -7.859   8.497  67.037  1.00  0.00    -0.096 N  
HETATM   14  C   UNL     1      -7.221   7.380  64.911  1.00  0.00    -0.067 C  
HETATM   15  C   UNL     1      -6.836   7.773  67.797  1.00  0.00    -0.069 C  
HETATM   16  C   UNL     1      -7.534   8.697  65.616  1.00  0.00    -0.085 C  
HETATM   17  C   UNL     1      -6.525   6.427  67.130  1.00  0.00    -0.046 C  
HETATM   18  C   UNL     1      -6.142   6.602  65.661  1.00  0.00    -0.038 C  
ENDBRANCH   2  13
TORSDOF 5
ENDMDL
MODEL      273
REMARK 921   NORMALIZED FREE ENERGY PREDICTED BY IDOCK:   -2.60 KCAL/MOL
REMARK 922        TOTAL FREE ENERGY PREDICTED BY IDOCK:   -3.85 KCAL/MOL
REMARK 923 INTER-LIGAND FREE ENERGY PREDICTED BY IDOCK:   -3.51 KCAL/MOL
REMARK 924 INTRA-LIGAND FREE ENERGY PREDICTED BY IDOCK:   -0.35 KCAL/MOL
REMARK 927      BINDING AFFINITY PREDICTED BY RF-SCORE:    0.00 PKD
ROOT
HETATM    1  S   UNL     1      -9.655   9.682  65.922  1.00  0.00    -0.274 S  
HETATM    2  C   UNL     1      -9.913  11.066  64.997  1.00  0.00    -0.285 C  
ENDROOT
BRANCH   2   3
HETATM    3  S   UNL     1      -9.340  11.170  63.314  1.00  0.00    -0.293 SA 
BRANCH   3   4
HETATM    4  S   UNL     1      -8.977   9.175  62.870  1.00  0.00     0.141 SA 
BRANCH   4   5
HETATM    5  C   UNL     1      -7.276   8.941  63.337  1.00  0.00    -0.093 C  
HETATM    6  S   UNL     1      -6.104   9.889  62.573  1.00  0.00    -0.114 S  
BRANCH   5   7
HETATM    7  N   UNL     1      -7.030   8.061  64.418  1.00  0.00    -0.070 N  
HETATM    8  C   UNL     1      -6.359   7.933  66.818  1.00  0.00    -0.054 C  
HETATM    9  C   UNL     1      -5.953   8.318  65.395  1.00  0.00    -0.045 C  
HETATM   10  C   UNL     1      -6.859   6.496  66.891  1.00  0.00    -0.066 C  
HETATM   11  C   UNL     1      -7.974   6.273  65.877  1.00  0.00    -0.116 C  
HETATM   12  C   UNL     1      -7.542   6.679  64.468  1.00  0.00    -0.103 C  
ENDBRANCH   5   7
ENDBRANCH   4   5
ENDBRANCH   3   4
ENDBRANCH   2   3
BRANCH   2  13
HETATM   13  N   UNL     1     -10.573  12.206  65.465  1.00  0.00    -0.268 N  
HETATM   14  C   UNL     1     -12.132  13.721  64.260  1.00  0.00    -0.481 C  
HETATM   15  C   UNL     1      -9.861  13.330  66.082  1.00  0.00    -0.280 C  
HETATM   16  C   UNL     1     -11.981  12.484  65.140  1.00  0.00    -0.434 C  
HETATM   17  C   UNL     1      -9.965  14.580  65.202  1.00  0.00    -0.268 C  
HETATM   18  C   UNL     1     -11.420  14.921  64.880  1.00  0.00    -0.407 C  
ENDBRANCH   2  13
TORSDOF 5
ENDMDL
MODEL      274
REMARK 921   NORMALIZED FREE ENERGY PREDICTED BY IDOCK:   -2.60 KCAL/MOL
REMARK 922        TOTAL FREE ENERGY PREDICTED BY IDOCK:   -3.85 KCAL/MOL
REMARK 923 INTER-LIGAND FREE ENERGY PREDICTED BY IDOCK:   -3.52 KCAL/MOL
REMARK 924 INTRA-LIGAND FREE ENERGY PREDICTED BY IDOCK:   -0.34 KCAL/MOL
REMARK 927      BINDING AFFINITY PREDICTED BY RF-SCORE:    0.00 PKD
ROOT
HETATM    1  S   UNL     1     -11.618  11.745  64.806  1.00  0.00    -0.106 S  
HETATM    2  C   UNL     1     -10.395  12.352  65.793  1.00  0.00    -0.263 C  
ENDROOT
BRANCH   2   3
HETATM    3  S   UNL     1      -8.983  11.359  66.227  1.00  0.00    -0.195 SA 
BRANCH   3   4
HETATM    4  S   UNL     1      -9.835   9.474  66.407  1.00  0.00    -0.267 SA 
BRANCH   4   5
HETATM    5  C   UNL     1      -8.470   8.437  66.881  1.00  0.00    -0.117 C  
HETATM    6  S   UNL     1      -7.070   8.483  65.936  1.00  0.00    -0.076 S  
BRANCH   5   7
HETATM    7  N   UNL     1      -8.601   7.733  68.102  1.00  0.00    -0.124 N  
HETATM    8  C   UNL     1      -7.438   7.109  70.220  1.00  0.00    -0.085 C  
HETATM    9  C   UNL     1      -7.468   6.995  68.696  1.00  0.00    -0.102 C  
HETATM   10  C   UNL     1      -8.768   6.702  70.841  1.00  0.00    -0.138 C  
HETATM   11  C   UNL     1      -9.908   7.491  70.212  1.00  0.00    -0.183 C  
HETATM   12  C   UNL     1      -9.903   7.366  68.688  1.00  0.00    -0.163 C  
ENDBRANCH   5   7
ENDBRANCH   4   5
ENDBRANCH   3   4
ENDBRANCH   2   3
BRANCH   2  13
HETATM   13  N   UNL     1     -10.396  13.641  66.334  1.00  0.00    -0.281 N  
HETATM   14  C   UNL     1      -9.446  14.437  68.489  1.00  0.00    -0.212 C  
HETATM   15  C   UNL     1     -11.627  14.415  66.521  1.00  0.00    -0.378 C  
HETATM   16  C   UNL     1      -9.213  14.212  66.997  1.00  0.00    -0.239 C  
HETATM   17  C   UNL     1     -11.907  14.628  68.013  1.00  0.00    -0.343 C  
HETATM   18  C   UNL     1     -10.711  15.259  68.725  1.00  0.00    -0.241 C  
ENDBRANCH   2  13
TORSDOF 5
ENDMDL
MODEL      275
REMARK 921   NORMALIZED FREE ENERGY PREDICTED BY IDOCK:   -2.60 KCAL/MOL
REMARK 922        TOTAL FREE ENERGY PREDICTED BY IDOCK:   -3.85 KCAL/MOL
REMARK 923 INTER-LIGAND FREE ENERGY PREDICTED BY IDOCK:   -3.46 KCAL/MOL
REMARK 924 INTRA-LIGAND FREE ENERGY PREDICTED BY IDOCK:   -0.39 KCAL/MOL
REMARK 927      BINDING AFFINITY PREDICTED BY RF-SCORE:    0.00 PKD
ROOT
HETATM    1  S   UNL     1      -6.930   7.078  72.138  1.00  0.00    -0.065 S  
HETATM    2  C   UNL     1      -8.536   7.383  72.543  1.00  0.00    -0.113 C  
ENDROOT
BRANCH   2   3
HETATM    3  S   UNL     1      -9.448   8.702  71.768  1.00  0.00    -0.296 SA 
BRANCH   3   4
HETATM    4  S   UNL     1      -8.395   8.955  69.996  1.00  0.00    -0.146 SA 
BRANCH   4   5
HETATM    5  C   UNL     1      -9.375   8.081  68.795  1.00  0.00    -0.147 C  
HETATM    6  S   UNL     1     -10.550   7.006  69.358  1.00  0.00    -0.236 S  
BRANCH   5   7
HETATM    7  N   UNL     1      -9.190   8.445  67.440  1.00  0.00    -0.139 N  
HETATM    8  C   UNL     1      -9.962   9.976  65.626  1.00  0.00    -0.355 C  
HETATM    9  C   UNL     1     -10.326   8.841  66.583  1.00  0.00    -0.228 C  
HETATM   10  C   UNL     1      -8.722   9.645  64.806  1.00  0.00    -0.219 C  
HETATM   11  C   UNL     1      -7.571   9.253  65.724  1.00  0.00    -0.098 C  
HETATM   12  C   UNL     1      -7.971   8.124  66.676  1.00  0.00    -0.102 C  
ENDBRANCH   5   7
ENDBRANCH   4   5
ENDBRANCH   3   4
ENDBRANCH   2   3
BRANCH   2  13
HETATM   13  N   UNL     1      -9.255   6.651  73.493  1.00  0.00    -0.133 N  
HETATM   14  C   UNL     1      -9.087   4.238  74.067  1.00  0.00    -0.098 C  
HETATM   15  C   UNL     1     -10.721   6.618  73.517  1.00  0.00    -0.276 C  
HETATM   16  C   UNL     1      -8.610   5.657  74.365  1.00  0.00    -0.114 C  
HETATM   17  C   UNL     1     -11.231   5.210  73.185  1.00  0.00    -0.398 C  
HETATM   18  C   UNL     1     -10.612   4.157  74.103  1.00  0.00    -0.302 C  
ENDBRANCH   2  13
TORSDOF 5
ENDMDL
MODEL      276
REMARK 921   NORMALIZED FREE ENERGY PREDICTED BY IDOCK:   -2.59 KCAL/MOL
REMARK 922        TOTAL FREE ENERGY PREDICTED BY IDOCK:   -3.85 KCAL/MOL
REMARK 923 INTER-LIGAND FREE ENERGY PREDICTED BY IDOCK:   -3.54 KCAL/MOL
REMARK 924 INTRA-LIGAND FREE ENERGY PREDICTED BY IDOCK:   -0.31 KCAL/MOL
REMARK 927      BINDING AFFINITY PREDICTED BY RF-SCORE:    0.00 PKD
ROOT
HETATM    1  S   UNL     1      -8.521   8.079  67.240  1.00  0.00    -0.126 S  
HETATM    2  C   UNL     1      -9.755   8.938  68.001  1.00  0.00    -0.156 C  
ENDROOT
BRANCH   2   3
HETATM    3  S   UNL     1     -10.284   8.525  69.649  1.00  0.00    -0.212 SA 
BRANCH   3   4
HETATM    4  S   UNL     1     -10.871   6.547  69.419  1.00  0.00    -0.339 SA 
BRANCH   4   5
HETATM    5  C   UNL     1     -10.544   5.821  71.010  1.00  0.00    -0.253 C  
HETATM    6  S   UNL     1     -11.535   6.265  72.305  1.00  0.00    -0.304 S  
BRANCH   5   7
HETATM    7  N   UNL     1      -9.550   4.815  71.057  1.00  0.00    -0.164 N  
HETATM    8  C   UNL     1      -7.122   4.377  71.429  1.00  0.00    -0.043 C  
HETATM    9  C   UNL     1      -8.181   5.057  70.560  1.00  0.00    -0.100 C  
HETATM   10  C   UNL     1      -7.406   2.892  71.604  1.00  0.00    -0.040 C  
HETATM   11  C   UNL     1      -8.822   2.684  72.127  1.00  0.00    -0.108 C  
HETATM   12  C   UNL     1      -9.855   3.385  71.245  1.00  0.00    -0.124 C  
ENDBRANCH   5   7
ENDBRANCH   4   5
ENDBRANCH   3   4
ENDBRANCH   2   3
BRANCH   2  13
HETATM   13  N   UNL     1     -10.440  10.006  67.413  1.00  0.00    -0.242 N  
HETATM   14  C   UNL     1      -9.546  11.886  66.055  1.00  0.00    -0.251 C  
HETATM   15  C   UNL     1     -11.316  10.896  68.181  1.00  0.00    -0.315 C  
HETATM   16  C   UNL     1     -10.135  10.478  66.053  1.00  0.00    -0.256 C  
HETATM   17  C   UNL     1     -10.731  12.313  68.230  1.00  0.00    -0.244 C  
HETATM   18  C   UNL     1     -10.441  12.850  66.829  1.00  0.00    -0.262 C  
ENDBRANCH   2  13
TORSDOF 5
ENDMDL
MODEL      277
REMARK 921   NORMALIZED FREE ENERGY PREDICTED BY IDOCK:   -2.59 KCAL/MOL
REMARK 922        TOTAL FREE ENERGY PREDICTED BY IDOCK:   -3.84 KCAL/MOL
REMARK 923 INTER-LIGAND FREE ENERGY PREDICTED BY IDOCK:   -3.28 KCAL/MOL
REMARK 924 INTRA-LIGAND FREE ENERGY PREDICTED BY IDOCK:   -0.56 KCAL/MOL
REMARK 927      BINDING AFFINITY PREDICTED BY RF-SCORE:    0.00 PKD
ROOT
HETATM    1  S   UNL     1      -9.787   4.451  65.786  1.00  0.00    -0.238 S  
HETATM    2  C   UNL     1      -8.569   5.141  66.723  1.00  0.00    -0.109 C  
ENDROOT
BRANCH   2   3
HETATM    3  S   UNL     1      -7.711   4.194  67.963  1.00  0.00    -0.071 SA 
BRANCH   3   4
HETATM    4  S   UNL     1      -9.285   3.251  68.934  1.00  0.00    -0.168 SA 
BRANCH   4   5
HETATM    5  C   UNL     1      -9.150   3.826  70.613  1.00  0.00    -0.111 C  
HETATM    6  S   UNL     1      -7.940   3.160  71.587  1.00  0.00    -0.058 S  
BRANCH   5   7
HETATM    7  N   UNL     1      -9.990   4.903  70.984  1.00  0.00    -0.201 N  
HETATM    8  C   UNL     1     -11.755   6.472  70.177  1.00  0.00    -0.419 C  
HETATM    9  C   UNL     1     -10.308   5.995  70.043  1.00  0.00    -0.229 C  
HETATM   10  C   UNL     1     -12.092   6.846  71.614  1.00  0.00    -0.394 C  
HETATM   11  C   UNL     1     -11.760   5.692  72.552  1.00  0.00    -0.255 C  
HETATM   12  C   UNL     1     -10.312   5.231  72.384  1.00  0.00    -0.209 C  
ENDBRANCH   5   7
ENDBRANCH   4   5
ENDBRANCH   3   4
ENDBRANCH   2   3
BRANCH   2  13
HETATM   13  N   UNL     1      -8.153   6.472  66.607  1.00  0.00    -0.108 N  
HETATM   14  C   UNL     1      -7.968   8.215  68.369  1.00  0.00    -0.123 C  
HETATM   15  C   UNL     1      -8.766   7.407  65.659  1.00  0.00    -0.075 C  
HETATM   16  C   UNL     1      -7.265   7.102  67.596  1.00  0.00    -0.091 C  
HETATM   17  C   UNL     1      -9.510   8.519  66.407  1.00  0.00    -0.297 C  
HETATM   18  C   UNL     1      -8.603   9.224  67.415  1.00  0.00    -0.122 C  
ENDBRANCH   2  13
TORSDOF 5
ENDMDL
MODEL      278
REMARK 921   NORMALIZED FREE ENERGY PREDICTED BY IDOCK:   -2.55 KCAL/MOL
REMARK 922        TOTAL FREE ENERGY PREDICTED BY IDOCK:   -3.79 KCAL/MOL
REMARK 923 INTER-LIGAND FREE ENERGY PREDICTED BY IDOCK:   -3.69 KCAL/MOL
REMARK 924 INTRA-LIGAND FREE ENERGY PREDICTED BY IDOCK:   -0.10 KCAL/MOL
REMARK 927      BINDING AFFINITY PREDICTED BY RF-SCORE:    0.00 PKD
ROOT
HETATM    1  S   UNL     1     -11.921  12.731  66.161  1.00  0.00    -0.367 S  
HETATM    2  C   UNL     1     -10.612  12.573  67.209  1.00  0.00    -0.227 C  
ENDROOT
BRANCH   2   3
HETATM    3  S   UNL     1      -8.987  12.177  66.602  1.00  0.00    -0.172 SA 
BRANCH   3   4
HETATM    4  S   UNL     1      -8.701  10.272  67.376  1.00  0.00    -0.128 SA 
BRANCH   4   5
HETATM    5  C   UNL     1      -8.754   9.221  65.942  1.00  0.00    -0.154 C  
HETATM    6  S   UNL     1      -8.822   9.954  64.420  1.00  0.00    -0.235 S  
BRANCH   5   7
HETATM    7  N   UNL     1      -8.604   7.832  66.167  1.00  0.00    -0.144 N  
HETATM    8  C   UNL     1      -9.265   5.932  67.643  1.00  0.00    -0.104 C  
HETATM    9  C   UNL     1      -8.538   7.272  67.531  1.00  0.00    -0.122 C  
HETATM   10  C   UNL     1      -8.776   4.937  66.598  1.00  0.00    -0.108 C  
HETATM   11  C   UNL     1      -8.869   5.547  65.205  1.00  0.00    -0.084 C  
HETATM   12  C   UNL     1      -8.143   6.890  65.130  1.00  0.00    -0.132 C  
ENDBRANCH   5   7
ENDBRANCH   4   5
ENDBRANCH   3   4
ENDBRANCH   2   3
BRANCH   2  13
HETATM   13  N   UNL     1     -10.699  12.731  68.596  1.00  0.00    -0.250 N  
HETATM   14  C   UNL     1     -12.272  11.667  70.200  1.00  0.00    -0.367 C  
HETATM   15  C   UNL     1     -10.845  14.045  69.231  1.00  0.00    -0.160 C  
HETATM   16  C   UNL     1     -10.917  11.592  69.501  1.00  0.00    -0.125 C  
HETATM   17  C   UNL     1     -12.213  14.163  69.912  1.00  0.00    -0.416 C  
HETATM   18  C   UNL     1     -12.454  13.016  70.892  1.00  0.00    -0.396 C  
ENDBRANCH   2  13
TORSDOF 5
ENDMDL
MODEL      279
REMARK 921   NORMALIZED FREE ENERGY PREDICTED BY IDOCK:   -2.53 KCAL/MOL
REMARK 922        TOTAL FREE ENERGY PREDICTED BY IDOCK:   -3.76 KCAL/MOL
REMARK 923 INTER-LIGAND FREE ENERGY PREDICTED BY IDOCK:   -3.13 KCAL/MOL
REMARK 924 INTRA-LIGAND FREE ENERGY PREDICTED BY IDOCK:   -0.64 KCAL/MOL
REMARK 927      BINDING AFFINITY PREDICTED BY RF-SCORE:    0.00 PKD
ROOT
HETATM    1  S   UNL     1      -6.825   7.354  69.306  1.00  0.00    -0.054 S  
HETATM    2  C   UNL     1      -7.955   7.704  68.106  1.00  0.00    -0.123 C  
ENDROOT
BRANCH   2   3
HETATM    3  S   UNL     1      -9.521   8.452  68.504  1.00  0.00    -0.147 SA 
BRANCH   3   4
HETATM    4  S   UNL     1      -8.923  10.186  69.476  1.00  0.00    -0.157 SA 
BRANCH   4   5
HETATM    5  C   UNL     1      -8.484  11.285  68.147  1.00  0.00    -0.145 C  
HETATM    6  S   UNL     1      -6.925  11.171  67.504  1.00  0.00    -0.094 S  
BRANCH   5   7
HETATM    7  N   UNL     1      -9.518  12.099  67.628  1.00  0.00    -0.182 N  
HETATM    8  C   UNL     1     -11.499  12.140  66.110  1.00  0.00    -0.429 C  
HETATM    9  C   UNL     1      -9.986  11.960  66.234  1.00  0.00    -0.220 C  
HETATM   10  C   UNL     1     -11.962  13.450  66.735  1.00  0.00    -0.447 C  
HETATM   11  C   UNL     1     -11.470  13.551  68.174  1.00  0.00    -0.338 C  
HETATM   12  C   UNL     1      -9.956  13.354  68.265  1.00  0.00    -0.240 C  
ENDBRANCH   5   7
ENDBRANCH   4   5
ENDBRANCH   3   4
ENDBRANCH   2   3
BRANCH   2  13
HETATM   13  N   UNL     1      -7.758   7.439  66.747  1.00  0.00    -0.107 N  
HETATM   14  C   UNL     1      -5.836   8.047  65.293  1.00  0.00    -0.041 C  
HETATM   15  C   UNL     1      -8.734   7.821  65.722  1.00  0.00    -0.133 C  
HETATM   16  C   UNL     1      -6.458   7.002  66.216  1.00  0.00    -0.051 C  
HETATM   17  C   UNL     1      -8.150   8.898  64.799  1.00  0.00    -0.144 C  
HETATM   18  C   UNL     1      -6.816   8.458  64.196  1.00  0.00    -0.074 C  
ENDBRANCH   2  13
TORSDOF 5
ENDMDL
MODEL      280
REMARK 921   NORMALIZED FREE ENERGY PREDICTED BY IDOCK:   -2.52 KCAL/MOL
REMARK 922        TOTAL FREE ENERGY PREDICTED BY IDOCK:   -3.76 KCAL/MOL
REMARK 923 INTER-LIGAND FREE ENERGY PREDICTED BY IDOCK:   -3.24 KCAL/MOL
REMARK 924 INTRA-LIGAND FREE ENERGY PREDICTED BY IDOCK:   -0.52 KCAL/MOL
REMARK 927      BINDING AFFINITY PREDICTED BY RF-SCORE:    0.00 PKD
ROOT
HETATM    1  S   UNL     1      -8.367   9.496  69.973  1.00  0.00    -0.193 S  
HETATM    2  C   UNL     1      -9.778   8.985  69.209  1.00  0.00    -0.168 C  
ENDROOT
BRANCH   2   3
HETATM    3  S   UNL     1      -9.797   8.595  67.472  1.00  0.00    -0.196 SA 
BRANCH   3   4
HETATM    4  S   UNL     1      -7.916   7.757  67.209  1.00  0.00    -0.119 SA 
BRANCH   4   5
HETATM    5  C   UNL     1      -8.250   6.020  67.020  1.00  0.00    -0.105 C  
HETATM    6  S   UNL     1      -8.587   5.439  65.468  1.00  0.00    -0.150 S  
BRANCH   5   7
HETATM    7  N   UNL     1      -8.084   5.212  68.170  1.00  0.00    -0.094 N  
HETATM    8  C   UNL     1      -8.875   4.816  70.503  1.00  0.00    -0.142 C  
HETATM    9  C   UNL     1      -8.186   5.774  69.531  1.00  0.00    -0.108 C  
HETATM   10  C   UNL     1      -8.213   3.445  70.505  1.00  0.00    -0.072 C  
HETATM   11  C   UNL     1      -8.136   2.894  69.086  1.00  0.00    -0.069 C  
HETATM   12  C   UNL     1      -7.454   3.880  68.138  1.00  0.00    -0.062 C  
ENDBRANCH   5   7
ENDBRANCH   4   5
ENDBRANCH   3   4
ENDBRANCH   2   3
BRANCH   2  13
HETATM   13  N   UNL     1     -11.008   8.835  69.858  1.00  0.00    -0.218 N  
HETATM   14  C   UNL     1     -12.220  10.448  71.309  1.00  0.00    -0.491 C  
HETATM   15  C   UNL     1     -11.289   7.716  70.762  1.00  0.00    -0.281 C  
HETATM   16  C   UNL     1     -12.008   9.913  69.895  1.00  0.00     0.058 C  
HETATM   17  C   UNL     1     -11.473   8.219  72.199  1.00  0.00    -0.427 C  
HETATM   18  C   UNL     1     -12.537   9.313  72.280  1.00  0.00    -0.402 C  
ENDBRANCH   2  13
TORSDOF 5
ENDMDL
MODEL      281
REMARK 921   NORMALIZED FREE ENERGY PREDICTED BY IDOCK:   -2.52 KCAL/MOL
REMARK 922        TOTAL FREE ENERGY PREDICTED BY IDOCK:   -3.76 KCAL/MOL
REMARK 923 INTER-LIGAND FREE ENERGY PREDICTED BY IDOCK:   -3.34 KCAL/MOL
REMARK 924 INTRA-LIGAND FREE ENERGY PREDICTED BY IDOCK:   -0.42 KCAL/MOL
REMARK 927      BINDING AFFINITY PREDICTED BY RF-SCORE:    0.00 PKD
ROOT
HETATM    1  S   UNL     1     -10.778   8.362  70.845  1.00  0.00    -0.230 S  
HETATM    2  C   UNL     1     -10.418   6.759  71.215  1.00  0.00    -0.213 C  
ENDROOT
BRANCH   2   3
HETATM    3  S   UNL     1     -10.167   5.551  69.931  1.00  0.00    -0.292 SA 
BRANCH   3   4
HETATM    4  S   UNL     1      -8.456   6.275  69.003  1.00  0.00    -0.120 SA 
BRANCH   4   5
HETATM    5  C   UNL     1      -9.039   6.824  67.414  1.00  0.00    -0.117 C  
HETATM    6  S   UNL     1      -9.831   5.704  66.427  1.00  0.00    -0.134 S  
BRANCH   5   7
HETATM    7  N   UNL     1      -8.913   8.205  67.134  1.00  0.00    -0.136 N  
HETATM    8  C   UNL     1      -9.567  10.024  65.555  1.00  0.00    -0.328 C  
HETATM    9  C   UNL     1      -8.813   8.708  65.749  1.00  0.00    -0.193 C  
HETATM   10  C   UNL     1      -9.137  11.074  66.572  1.00  0.00    -0.186 C  
HETATM   11  C   UNL     1      -9.264  10.522  67.986  1.00  0.00    -0.143 C  
HETATM   12  C   UNL     1      -8.510   9.201  68.144  1.00  0.00    -0.125 C  
ENDBRANCH   5   7
ENDBRANCH   4   5
ENDBRANCH   3   4
ENDBRANCH   2   3
BRANCH   2  13
HETATM   13  N   UNL     1     -10.297   6.266  72.518  1.00  0.00    -0.188 N  
HETATM   14  C   UNL     1      -8.536   4.801  73.482  1.00  0.00    -0.105 C  
HETATM   15  C   UNL     1     -11.370   5.515  73.178  1.00  0.00    -0.225 C  
HETATM   16  C   UNL     1      -9.007   6.229  73.223  1.00  0.00    -0.128 C  
HETATM   17  C   UNL     1     -10.939   4.063  73.420  1.00  0.00    -0.342 C  
HETATM   18  C   UNL     1      -9.620   3.989  74.189  1.00  0.00    -0.132 C  
ENDBRANCH   2  13
TORSDOF 5
ENDMDL
MODEL      282
REMARK 921   NORMALIZED FREE ENERGY PREDICTED BY IDOCK:   -2.50 KCAL/MOL
REMARK 922        TOTAL FREE ENERGY PREDICTED BY IDOCK:   -3.73 KCAL/MOL
REMARK 923 INTER-LIGAND FREE ENERGY PREDICTED BY IDOCK:   -3.09 KCAL/MOL
REMARK 924 INTRA-LIGAND FREE ENERGY PREDICTED BY IDOCK:   -0.63 KCAL/MOL
REMARK 927      BINDING AFFINITY PREDICTED BY RF-SCORE:    0.00 PKD
ROOT
HETATM    1  S   UNL     1      -7.817   9.841  70.131  1.00  0.00    -0.170 S  
HETATM    2  C   UNL     1      -8.461   8.467  69.399  1.00  0.00    -0.127 C  
ENDROOT
BRANCH   2   3
HETATM    3  S   UNL     1      -7.407   7.208  68.712  1.00  0.00    -0.099 SA 
BRANCH   3   4
HETATM    4  S   UNL     1      -5.984   6.989  70.209  1.00  0.00    -0.024 SA 
BRANCH   4   5
HETATM    5  C   UNL     1      -6.715   5.802  71.315  1.00  0.00    -0.061 C  
HETATM    6  S   UNL     1      -6.100   4.228  71.311  1.00  0.00    -0.018 S  
BRANCH   5   7
HETATM    7  N   UNL     1      -7.683   6.292  72.223  1.00  0.00    -0.102 N  
HETATM    8  C   UNL     1      -9.695   5.685  73.568  1.00  0.00    -0.156 C  
HETATM    9  C   UNL     1      -9.088   5.842  72.174  1.00  0.00    -0.143 C  
HETATM   10  C   UNL     1      -9.535   6.952  74.397  1.00  0.00    -0.258 C  
HETATM   11  C   UNL     1      -8.073   7.378  74.433  1.00  0.00    -0.215 C  
HETATM   12  C   UNL     1      -7.493   7.514  73.025  1.00  0.00    -0.084 C  
ENDBRANCH   5   7
ENDBRANCH   4   5
ENDBRANCH   3   4
ENDBRANCH   2   3
BRANCH   2  13
HETATM   13  N   UNL     1      -9.832   8.219  69.274  1.00  0.00    -0.182 N  
HETATM   14  C   UNL     1     -11.576   8.128  71.043  1.00  0.00    -0.301 C  
HETATM   15  C   UNL     1     -10.357   7.024  68.608  1.00  0.00    -0.186 C  
HETATM   16  C   UNL     1     -10.837   8.990  70.022  1.00  0.00    -0.231 C  
HETATM   17  C   UNL     1     -11.076   6.119  69.617  1.00  0.00    -0.489 C  
HETATM   18  C   UNL     1     -12.157   6.880  70.383  1.00  0.00    -0.250 C  
ENDBRANCH   2  13
TORSDOF 5
ENDMDL
MODEL      283
REMARK 921   NORMALIZED FREE ENERGY PREDICTED BY IDOCK:   -2.50 KCAL/MOL
REMARK 922        TOTAL FREE ENERGY PREDICTED BY IDOCK:   -3.73 KCAL/MOL
REMARK 923 INTER-LIGAND FREE ENERGY PREDICTED BY IDOCK:   -3.39 KCAL/MOL
REMARK 924 INTRA-LIGAND FREE ENERGY PREDICTED BY IDOCK:   -0.34 KCAL/MOL
REMARK 927      BINDING AFFINITY PREDICTED BY RF-SCORE:    0.00 PKD
ROOT
HETATM    1  S   UNL     1     -10.149  10.697  65.670  1.00  0.00    -0.268 S  
HETATM    2  C   UNL     1      -8.867  10.448  66.734  1.00  0.00    -0.130 C  
ENDROOT
BRANCH   2   3
HETATM    3  S   UNL     1      -8.914  11.081  68.398  1.00  0.00    -0.162 SA 
BRANCH   3   4
HETATM    4  S   UNL     1     -10.845  10.587  68.980  1.00  0.00    -0.249 SA 
BRANCH   4   5
HETATM    5  C   UNL     1     -10.603   9.366  70.252  1.00  0.00    -0.250 C  
HETATM    6  S   UNL     1      -9.038   9.136  70.846  1.00  0.00    -0.232 S  
BRANCH   5   7
HETATM    7  N   UNL     1     -11.767   8.756  70.776  1.00  0.00    -0.258 N  
HETATM    8  C   UNL     1     -12.651   6.731  71.935  1.00  0.00    -0.328 C  
HETATM    9  C   UNL     1     -11.987   7.299  70.680  1.00  0.00    -0.220 C  
HETATM   10  C   UNL     1     -13.934   7.476  72.279  1.00  0.00    -0.044 C  
HETATM   11  C   UNL     1     -13.665   8.972  72.379  1.00  0.00    -0.539 C  
HETATM   12  C   UNL     1     -12.990   9.506  71.115  1.00  0.00    -0.274 C  
ENDBRANCH   5   7
ENDBRANCH   4   5
ENDBRANCH   3   4
ENDBRANCH   2   3
BRANCH   2  13
HETATM   13  N   UNL     1      -7.701   9.751  66.403  1.00  0.00    -0.101 N  
HETATM   14  C   UNL     1      -7.374   7.309  66.076  1.00  0.00    -0.075 C  
HETATM   15  C   UNL     1      -6.463   9.875  67.179  1.00  0.00    -0.069 C  
HETATM   16  C   UNL     1      -7.699   8.651  65.426  1.00  0.00    -0.094 C  
HETATM   17  C   UNL     1      -6.130   8.549  67.874  1.00  0.00    -0.048 C  
HETATM   18  C   UNL     1      -6.078   7.391  66.879  1.00  0.00    -0.046 C  
ENDBRANCH   2  13
TORSDOF 5
ENDMDL
MODEL      284
REMARK 921   NORMALIZED FREE ENERGY PREDICTED BY IDOCK:   -2.48 KCAL/MOL
REMARK 922        TOTAL FREE ENERGY PREDICTED BY IDOCK:   -3.70 KCAL/MOL
REMARK 923 INTER-LIGAND FREE ENERGY PREDICTED BY IDOCK:   -3.34 KCAL/MOL
REMARK 924 INTRA-LIGAND FREE ENERGY PREDICTED BY IDOCK:   -0.36 KCAL/MOL
REMARK 927      BINDING AFFINITY PREDICTED BY RF-SCORE:    0.00 PKD
ROOT
HETATM    1  S   UNL     1     -10.133  12.851  65.902  1.00  0.00    -0.283 S  
HETATM    2  C   UNL     1      -9.528  12.941  67.471  1.00  0.00    -0.198 C  
ENDROOT
BRANCH   2   3
HETATM    3  S   UNL     1      -9.597  11.541  68.568  1.00  0.00    -0.150 SA 
BRANCH   3   4
HETATM    4  S   UNL     1      -7.730  10.683  68.273  1.00  0.00    -0.111 SA 
BRANCH   4   5
HETATM    5  C   UNL     1      -7.868   9.911  66.676  1.00  0.00    -0.110 C  
HETATM    6  S   UNL     1      -6.951  10.544  65.405  1.00  0.00    -0.020 S  
BRANCH   5   7
HETATM    7  N   UNL     1      -8.643   8.730  66.607  1.00  0.00    -0.111 N  
HETATM    8  C   UNL     1      -8.629   6.266  67.003  1.00  0.00    -0.104 C  
HETATM    9  C   UNL     1      -8.051   7.437  66.208  1.00  0.00    -0.117 C  
HETATM   10  C   UNL     1     -10.150   6.236  66.936  1.00  0.00    -0.236 C  
HETATM   11  C   UNL     1     -10.723   7.582  67.364  1.00  0.00    -0.331 C  
HETATM   12  C   UNL     1     -10.117   8.732  66.559  1.00  0.00    -0.279 C  
ENDBRANCH   5   7
ENDBRANCH   4   5
ENDBRANCH   3   4
ENDBRANCH   2   3
BRANCH   2  13
HETATM   13  N   UNL     1      -8.945  14.089  68.019  1.00  0.00    -0.174 N  
HETATM   14  C   UNL     1      -9.836  16.407  68.113  1.00  0.00    -0.238 C  
HETATM   15  C   UNL     1      -7.608  14.552  67.634  1.00  0.00    -0.182 C  
HETATM   16  C   UNL     1      -9.719  15.056  68.813  1.00  0.00    -0.227 C  
HETATM   17  C   UNL     1      -7.697  15.893  66.896  1.00  0.00    -0.268 C  
HETATM   18  C   UNL     1      -8.460  16.935  67.714  1.00  0.00    -0.198 C  
ENDBRANCH   2  13
TORSDOF 5
ENDMDL
MODEL      285
REMARK 921   NORMALIZED FREE ENERGY PREDICTED BY IDOCK:   -2.47 KCAL/MOL
REMARK 922        TOTAL FREE ENERGY PREDICTED BY IDOCK:   -3.69 KCAL/MOL
REMARK 923 INTER-LIGAND FREE ENERGY PREDICTED BY IDOCK:   -3.31 KCAL/MOL
REMARK 924 INTRA-LIGAND FREE ENERGY PREDICTED BY IDOCK:   -0.38 KCAL/MOL
REMARK 927      BINDING AFFINITY PREDICTED BY RF-SCORE:    0.00 PKD
ROOT
HETATM    1  S   UNL     1      -9.732   4.511  70.307  1.00  0.00    -0.227 S  
HETATM    2  C   UNL     1      -8.846   5.331  69.131  1.00  0.00    -0.099 C  
ENDROOT
BRANCH   2   3
HETATM    3  S   UNL     1      -8.116   6.919  69.467  1.00  0.00    -0.132 SA 
BRANCH   3   4
HETATM    4  S   UNL     1      -9.766   8.174  69.343  1.00  0.00    -0.173 SA 
BRANCH   4   5
HETATM    5  C   UNL     1     -10.250   8.404  71.039  1.00  0.00    -0.199 C  
HETATM    6  S   UNL     1      -9.047   8.346  72.225  1.00  0.00    -0.248 S  
BRANCH   5   7
HETATM    7  N   UNL     1     -11.602   8.752  71.271  1.00  0.00    -0.277 N  
HETATM    8  C   UNL     1     -13.618   8.251  72.655  1.00  0.00     0.010 C  
HETATM    9  C   UNL     1     -12.613   7.735  71.624  1.00  0.00    -0.332 C  
HETATM   10  C   UNL     1     -14.260   9.557  72.209  1.00  0.00    -0.085 C  
HETATM   11  C   UNL     1     -13.187  10.583  71.864  1.00  0.00    -0.526 C  
HETATM   12  C   UNL     1     -12.193  10.033  70.842  1.00  0.00    -0.346 C  
ENDBRANCH   5   7
ENDBRANCH   4   5
ENDBRANCH   3   4
ENDBRANCH   2   3
BRANCH   2  13
HETATM   13  N   UNL     1      -8.626   4.844  67.839  1.00  0.00    -0.103 N  
HETATM   14  C   UNL     1      -7.470   5.936  65.929  1.00  0.00    -0.085 C  
HETATM   15  C   UNL     1      -9.714   4.361  66.984  1.00  0.00    -0.205 C  
HETATM   16  C   UNL     1      -7.341   5.023  67.145  1.00  0.00    -0.082 C  
HETATM   17  C   UNL     1      -9.892   5.280  65.769  1.00  0.00    -0.062 C  
HETATM   18  C   UNL     1      -8.583   5.454  65.000  1.00  0.00    -0.142 C  
ENDBRANCH   2  13
TORSDOF 5
ENDMDL
MODEL      286
REMARK 921   NORMALIZED FREE ENERGY PREDICTED BY IDOCK:   -2.47 KCAL/MOL
REMARK 922        TOTAL FREE ENERGY PREDICTED BY IDOCK:   -3.69 KCAL/MOL
REMARK 923 INTER-LIGAND FREE ENERGY PREDICTED BY IDOCK:   -3.41 KCAL/MOL
REMARK 924 INTRA-LIGAND FREE ENERGY PREDICTED BY IDOCK:   -0.28 KCAL/MOL
REMARK 927      BINDING AFFINITY PREDICTED BY RF-SCORE:    0.00 PKD
ROOT
HETATM    1  S   UNL     1      -9.921   8.662  67.903  1.00  0.00    -0.199 S  
HETATM    2  C   UNL     1      -9.745   7.735  69.299  1.00  0.00    -0.165 C  
ENDROOT
BRANCH   2   3
HETATM    3  S   UNL     1      -8.698   6.296  69.324  1.00  0.00    -0.123 SA 
BRANCH   3   4
HETATM    4  S   UNL     1      -8.306   6.026  67.303  1.00  0.00    -0.104 SA 
BRANCH   4   5
HETATM    5  C   UNL     1      -8.199   4.258  67.126  1.00  0.00    -0.100 C  
HETATM    6  S   UNL     1      -7.787   3.347  68.489  1.00  0.00    -0.058 S  
BRANCH   5   7
HETATM    7  N   UNL     1      -8.594   3.720  65.879  1.00  0.00    -0.110 N  
HETATM    8  C   UNL     1      -8.553   4.077  63.410  1.00  0.00    -0.100 C  
HETATM    9  C   UNL     1      -9.036   4.586  64.768  1.00  0.00    -0.152 C  
HETATM   10  C   UNL     1      -8.942   2.622  63.183  1.00  0.00    -0.088 C  
HETATM   11  C   UNL     1      -8.461   1.760  64.344  1.00  0.00    -0.080 C  
HETATM   12  C   UNL     1      -8.951   2.303  65.687  1.00  0.00    -0.118 C  
ENDBRANCH   5   7
ENDBRANCH   4   5
ENDBRANCH   3   4
ENDBRANCH   2   3
BRANCH   2  13
HETATM   13  N   UNL     1     -10.390   8.014  70.508  1.00  0.00    -0.200 N  
HETATM   14  C   UNL     1     -12.578   7.184  71.344  1.00  0.00    -0.432 C  
HETATM   15  C   UNL     1     -10.670   9.383  70.953  1.00  0.00    -0.323 C  
HETATM   16  C   UNL     1     -11.068   6.970  71.291  1.00  0.00    -0.252 C  
HETATM   17  C   UNL     1     -12.182   9.639  70.982  1.00  0.00    -0.409 C  
HETATM   18  C   UNL     1     -12.913   8.594  71.824  1.00  0.00    -0.394 C  
ENDBRANCH   2  13
TORSDOF 5
ENDMDL
MODEL      287
REMARK 921   NORMALIZED FREE ENERGY PREDICTED BY IDOCK:   -2.47 KCAL/MOL
REMARK 922        TOTAL FREE ENERGY PREDICTED BY IDOCK:   -3.68 KCAL/MOL
REMARK 923 INTER-LIGAND FREE ENERGY PREDICTED BY IDOCK:   -3.37 KCAL/MOL
REMARK 924 INTRA-LIGAND FREE ENERGY PREDICTED BY IDOCK:   -0.32 KCAL/MOL
REMARK 927      BINDING AFFINITY PREDICTED BY RF-SCORE:    0.00 PKD
ROOT
HETATM    1  S   UNL     1      -7.252  10.183  66.063  1.00  0.00    -0.125 S  
HETATM    2  C   UNL     1      -7.300  11.193  67.411  1.00  0.00    -0.108 C  
ENDROOT
BRANCH   2   3
HETATM    3  S   UNL     1      -7.922  10.614  68.975  1.00  0.00    -0.138 SA 
BRANCH   3   4
HETATM    4  S   UNL     1      -9.439   9.329  68.374  1.00  0.00    -0.139 SA 
BRANCH   4   5
HETATM    5  C   UNL     1     -10.697   9.552  69.613  1.00  0.00    -0.238 C  
HETATM    6  S   UNL     1     -11.704  10.904  69.489  1.00  0.00    -0.347 S  
BRANCH   5   7
HETATM    7  N   UNL     1     -10.854   8.507  70.553  1.00  0.00    -0.225 N  
HETATM    8  C   UNL     1     -11.963   7.848  72.689  1.00  0.00    -0.299 C  
HETATM    9  C   UNL     1     -10.964   8.777  72.001  1.00  0.00    -0.368 C  
HETATM   10  C   UNL     1     -11.654   6.383  72.409  1.00  0.00    -0.308 C  
HETATM   11  C   UNL     1     -11.559   6.141  70.908  1.00  0.00    -0.259 C  
HETATM   12  C   UNL     1     -10.562   7.094  70.248  1.00  0.00    -0.227 C  
ENDBRANCH   5   7
ENDBRANCH   4   5
ENDBRANCH   3   4
ENDBRANCH   2   3
BRANCH   2  13
HETATM   13  N   UNL     1      -6.874  12.525  67.404  1.00  0.00    -0.149 N  
HETATM   14  C   UNL     1      -5.615  13.776  69.144  1.00  0.00    -0.078 C  
HETATM   15  C   UNL     1      -7.793  13.644  67.177  1.00  0.00    -0.008 C  
HETATM   16  C   UNL     1      -5.540  12.921  67.882  1.00  0.00    -0.119 C  
HETATM   17  C   UNL     1      -7.916  14.503  68.441  1.00  0.00    -0.141 C  
HETATM   18  C   UNL     1      -6.549  14.967  68.941  1.00  0.00    -0.090 C  
ENDBRANCH   2  13
TORSDOF 5
ENDMDL
MODEL      288
REMARK 921   NORMALIZED FREE ENERGY PREDICTED BY IDOCK:   -2.47 KCAL/MOL
REMARK 922        TOTAL FREE ENERGY PREDICTED BY IDOCK:   -3.68 KCAL/MOL
REMARK 923 INTER-LIGAND FREE ENERGY PREDICTED BY IDOCK:   -3.30 KCAL/MOL
REMARK 924 INTRA-LIGAND FREE ENERGY PREDICTED BY IDOCK:   -0.39 KCAL/MOL
REMARK 927      BINDING AFFINITY PREDICTED BY RF-SCORE:    0.00 PKD
ROOT
HETATM    1  S   UNL     1      -9.486   6.626  68.968  1.00  0.00    -0.130 S  
HETATM    2  C   UNL     1      -8.917   7.426  67.599  1.00  0.00    -0.126 C  
ENDROOT
BRANCH   2   3
HETATM    3  S   UNL     1     -10.020   8.332  66.536  1.00  0.00    -0.206 SA 
BRANCH   3   4
HETATM    4  S   UNL     1     -10.571   9.918  67.757  1.00  0.00    -0.272 SA 
BRANCH   4   5
HETATM    5  C   UNL     1      -9.722  11.312  67.048  1.00  0.00    -0.186 C  
HETATM    6  S   UNL     1      -8.233  11.758  67.712  1.00  0.00    -0.154 S  
BRANCH   5   7
HETATM    7  N   UNL     1     -10.293  11.878  65.884  1.00  0.00    -0.234 N  
HETATM    8  C   UNL     1     -10.214  11.902  63.390  1.00  0.00    -0.478 C  
HETATM    9  C   UNL     1      -9.475  12.194  64.696  1.00  0.00     0.182 C  
HETATM   10  C   UNL     1     -11.570  12.592  63.343  1.00  0.00    -0.536 C  
HETATM   11  C   UNL     1     -12.387  12.234  64.578  1.00  0.00    -0.468 C  
HETATM   12  C   UNL     1     -11.617  12.527  65.866  1.00  0.00    -0.405 C  
ENDBRANCH   5   7
ENDBRANCH   4   5
ENDBRANCH   3   4
ENDBRANCH   2   3
BRANCH   2  13
HETATM   13  N   UNL     1      -7.576   7.437  67.202  1.00  0.00    -0.105 N  
HETATM   14  C   UNL     1      -6.298   5.711  65.951  1.00  0.00    -0.039 C  
HETATM   15  C   UNL     1      -6.477   7.653  68.148  1.00  0.00    -0.054 C  
HETATM   16  C   UNL     1      -7.151   6.974  65.872  1.00  0.00    -0.073 C  
HETATM   17  C   UNL     1      -5.621   6.387  68.275  1.00  0.00    -0.008 C  
HETATM   18  C   UNL     1      -5.127   5.903  66.913  1.00  0.00    -0.005 C  
ENDBRANCH   2  13
TORSDOF 5
ENDMDL
MODEL      289
REMARK 921   NORMALIZED FREE ENERGY PREDICTED BY IDOCK:   -2.46 KCAL/MOL
REMARK 922        TOTAL FREE ENERGY PREDICTED BY IDOCK:   -3.67 KCAL/MOL
REMARK 923 INTER-LIGAND FREE ENERGY PREDICTED BY IDOCK:   -3.39 KCAL/MOL
REMARK 924 INTRA-LIGAND FREE ENERGY PREDICTED BY IDOCK:   -0.28 KCAL/MOL
REMARK 927      BINDING AFFINITY PREDICTED BY RF-SCORE:    0.00 PKD
ROOT
HETATM    1  S   UNL     1     -11.952  12.786  66.641  1.00  0.00    -0.259 S  
HETATM    2  C   UNL     1     -10.324  12.906  67.054  1.00  0.00    -0.242 C  
ENDROOT
BRANCH   2   3
HETATM    3  S   UNL     1      -9.168  11.620  66.632  1.00  0.00    -0.195 SA 
BRANCH   3   4
HETATM    4  S   UNL     1      -9.829  10.053  67.824  1.00  0.00    -0.163 SA 
BRANCH   4   5
HETATM    5  C   UNL     1      -9.349   8.600  66.917  1.00  0.00    -0.170 C  
HETATM    6  S   UNL     1      -8.769   8.801  65.342  1.00  0.00    -0.168 S  
BRANCH   5   7
HETATM    7  N   UNL     1      -9.362   7.376  67.626  1.00  0.00    -0.132 N  
HETATM    8  C   UNL     1     -10.833   5.637  68.646  1.00  0.00    -0.190 C  
HETATM    9  C   UNL     1     -10.372   7.095  68.666  1.00  0.00    -0.187 C  
HETATM   10  C   UNL     1      -9.656   4.674  68.726  1.00  0.00    -0.229 C  
HETATM   11  C   UNL     1      -8.642   4.989  67.633  1.00  0.00    -0.104 C  
HETATM   12  C   UNL     1      -8.211   6.456  67.672  1.00  0.00    -0.118 C  
ENDBRANCH   5   7
ENDBRANCH   4   5
ENDBRANCH   3   4
ENDBRANCH   2   3
BRANCH   2  13
HETATM   13  N   UNL     1      -9.771  13.990  67.744  1.00  0.00    -0.223 N  
HETATM   14  C   UNL     1      -9.426  16.327  66.972  1.00  0.00    -0.237 C  
HETATM   15  C   UNL     1      -8.444  13.934  68.364  1.00  0.00    -0.159 C  
HETATM   16  C   UNL     1     -10.353  15.339  67.675  1.00  0.00    -0.250 C  
HETATM   17  C   UNL     1      -7.479  14.892  67.656  1.00  0.00    -0.205 C  
HETATM   18  C   UNL     1      -8.035  16.314  67.604  1.00  0.00    -0.160 C  
ENDBRANCH   2  13
TORSDOF 5
ENDMDL
MODEL      290
REMARK 921   NORMALIZED FREE ENERGY PREDICTED BY IDOCK:   -2.43 KCAL/MOL
REMARK 922        TOTAL FREE ENERGY PREDICTED BY IDOCK:   -3.63 KCAL/MOL
REMARK 923 INTER-LIGAND FREE ENERGY PREDICTED BY IDOCK:   -3.18 KCAL/MOL
REMARK 924 INTRA-LIGAND FREE ENERGY PREDICTED BY IDOCK:   -0.45 KCAL/MOL
REMARK 927      BINDING AFFINITY PREDICTED BY RF-SCORE:    0.00 PKD
ROOT
HETATM    1  S   UNL     1     -11.074  13.088  65.954  1.00  0.00    -0.285 S  
HETATM    2  C   UNL     1     -11.560  13.042  67.566  1.00  0.00    -0.356 C  
ENDROOT
BRANCH   2   3
HETATM    3  S   UNL     1     -11.790  11.494  68.416  1.00  0.00    -0.216 SA 
BRANCH   3   4
HETATM    4  S   UNL     1      -9.891  11.149  69.181  1.00  0.00     0.029 SA 
BRANCH   4   5
HETATM    5  C   UNL     1      -9.318   9.734  68.267  1.00  0.00    -0.129 C  
HETATM    6  S   UNL     1     -10.397   8.458  68.018  1.00  0.00    -0.194 S  
BRANCH   5   7
HETATM    7  N   UNL     1      -8.028   9.829  67.694  1.00  0.00    -0.105 N  
HETATM    8  C   UNL     1      -5.997  11.265  67.493  1.00  0.00    -0.055 C  
HETATM    9  C   UNL     1      -7.491  11.114  67.205  1.00  0.00    -0.121 C  
HETATM   10  C   UNL     1      -5.200  10.080  66.963  1.00  0.00    -0.041 C  
HETATM   11  C   UNL     1      -5.777   8.775  67.497  1.00  0.00    -0.039 C  
HETATM   12  C   UNL     1      -7.273   8.661  67.204  1.00  0.00    -0.076 C  
ENDBRANCH   5   7
ENDBRANCH   4   5
ENDBRANCH   3   4
ENDBRANCH   2   3
BRANCH   2  13
HETATM   13  N   UNL     1     -11.817  14.180  68.337  1.00  0.00    -0.348 N  
HETATM   14  C   UNL     1     -10.258  15.985  69.035  1.00  0.00    -0.236 C  
HETATM   15  C   UNL     1     -12.426  14.107  69.669  1.00  0.00    -0.161 C  
HETATM   16  C   UNL     1     -11.262  15.498  67.994  1.00  0.00    -0.332 C  
HETATM   17  C   UNL     1     -11.427  14.557  70.742  1.00  0.00    -0.188 C  
HETATM   18  C   UNL     1     -10.862  15.944  70.437  1.00  0.00    -0.325 C  
ENDBRANCH   2  13
TORSDOF 5
ENDMDL
MODEL      291
REMARK 921   NORMALIZED FREE ENERGY PREDICTED BY IDOCK:   -2.41 KCAL/MOL
REMARK 922        TOTAL FREE ENERGY PREDICTED BY IDOCK:   -3.61 KCAL/MOL
REMARK 923 INTER-LIGAND FREE ENERGY PREDICTED BY IDOCK:   -3.33 KCAL/MOL
REMARK 924 INTRA-LIGAND FREE ENERGY PREDICTED BY IDOCK:   -0.29 KCAL/MOL
REMARK 927      BINDING AFFINITY PREDICTED BY RF-SCORE:    0.00 PKD
ROOT
HETATM    1  S   UNL     1     -10.271   5.619  66.607  1.00  0.00    -0.236 S  
HETATM    2  C   UNL     1      -8.844   6.079  65.839  1.00  0.00    -0.149 C  
ENDROOT
BRANCH   2   3
HETATM    3  S   UNL     1      -8.407   7.795  65.658  1.00  0.00    -0.138 SA 
BRANCH   3   4
HETATM    4  S   UNL     1      -9.906   8.728  66.751  1.00  0.00    -0.271 SA 
BRANCH   4   5
HETATM    5  C   UNL     1      -9.329  10.403  66.915  1.00  0.00    -0.162 C  
HETATM    6  S   UNL     1      -7.961  10.683  67.867  1.00  0.00    -0.108 S  
BRANCH   5   7
HETATM    7  N   UNL     1      -9.983  11.380  66.128  1.00  0.00    -0.219 N  
HETATM    8  C   UNL     1     -10.206  13.829  65.704  1.00  0.00    -0.326 C  
HETATM    9  C   UNL     1     -10.397  12.679  66.693  1.00  0.00    -0.236 C  
HETATM   10  C   UNL     1     -10.891  13.546  64.374  1.00  0.00    -0.403 C  
HETATM   11  C   UNL     1     -10.432  12.204  63.818  1.00  0.00    -0.470 C  
HETATM   12  C   UNL     1     -10.625  11.079  64.835  1.00  0.00    -0.258 C  
ENDBRANCH   5   7
ENDBRANCH   4   5
ENDBRANCH   3   4
ENDBRANCH   2   3
BRANCH   2  13
HETATM   13  N   UNL     1      -7.922   5.178  65.297  1.00  0.00    -0.103 N  
HETATM   14  C   UNL     1      -5.810   5.641  64.072  1.00  0.00    -0.021 C  
HETATM   15  C   UNL     1      -8.312   4.128  64.351  1.00  0.00    -0.101 C  
HETATM   16  C   UNL     1      -6.470   5.374  65.422  1.00  0.00    -0.039 C  
HETATM   17  C   UNL     1      -7.692   4.389  62.973  1.00  0.00    -0.065 C  
HETATM   18  C   UNL     1      -6.176   4.556  63.062  1.00  0.00    -0.018 C  
ENDBRANCH   2  13
TORSDOF 5
ENDMDL
MODEL      292
REMARK 921   NORMALIZED FREE ENERGY PREDICTED BY IDOCK:   -2.41 KCAL/MOL
REMARK 922        TOTAL FREE ENERGY PREDICTED BY IDOCK:   -3.61 KCAL/MOL
REMARK 923 INTER-LIGAND FREE ENERGY PREDICTED BY IDOCK:   -3.10 KCAL/MOL
REMARK 924 INTRA-LIGAND FREE ENERGY PREDICTED BY IDOCK:   -0.51 KCAL/MOL
REMARK 927      BINDING AFFINITY PREDICTED BY RF-SCORE:    0.00 PKD
ROOT
HETATM    1  S   UNL     1     -11.234   6.350  70.031  1.00  0.00    -0.434 S  
HETATM    2  C   UNL     1      -9.938   7.330  70.475  1.00  0.00    -0.190 C  
ENDROOT
BRANCH   2   3
HETATM    3  S   UNL     1      -8.360   6.631  70.911  1.00  0.00    -0.126 SA 
BRANCH   3   4
HETATM    4  S   UNL     1      -7.606   6.104  69.050  1.00  0.00    -0.093 SA 
BRANCH   4   5
HETATM    5  C   UNL     1      -8.102   4.406  68.859  1.00  0.00    -0.072 C  
HETATM    6  S   UNL     1      -8.209   3.448  70.246  1.00  0.00    -0.048 S  
BRANCH   5   7
HETATM    7  N   UNL     1      -8.503   4.005  67.562  1.00  0.00    -0.098 N  
HETATM    8  C   UNL     1      -9.892   4.624  65.584  1.00  0.00    -0.217 C  
HETATM    9  C   UNL     1      -9.872   4.247  67.065  1.00  0.00    -0.179 C  
HETATM   10  C   UNL     1      -9.153   3.600  64.732  1.00  0.00    -0.134 C  
HETATM   11  C   UNL     1      -7.744   3.385  65.269  1.00  0.00    -0.081 C  
HETATM   12  C   UNL     1      -7.758   3.022  66.754  1.00  0.00    -0.076 C  
ENDBRANCH   5   7
ENDBRANCH   4   5
ENDBRANCH   3   4
ENDBRANCH   2   3
BRANCH   2  13
HETATM   13  N   UNL     1     -10.000   8.726  70.538  1.00  0.00    -0.181 N  
HETATM   14  C   UNL     1     -11.525  10.282  69.341  1.00  0.00    -0.248 C  
HETATM   15  C   UNL     1      -8.834   9.578  70.287  1.00  0.00    -0.243 C  
HETATM   16  C   UNL     1     -11.280   9.450  70.597  1.00  0.00    -0.284 C  
HETATM   17  C   UNL     1      -9.036  10.402  69.009  1.00  0.00    -0.184 C  
HETATM   18  C   UNL     1     -10.338  11.200  69.056  1.00  0.00    -0.214 C  
ENDBRANCH   2  13
TORSDOF 5
ENDMDL
MODEL      293
REMARK 921   NORMALIZED FREE ENERGY PREDICTED BY IDOCK:   -2.40 KCAL/MOL
REMARK 922        TOTAL FREE ENERGY PREDICTED BY IDOCK:   -3.60 KCAL/MOL
REMARK 923 INTER-LIGAND FREE ENERGY PREDICTED BY IDOCK:   -3.32 KCAL/MOL
REMARK 924 INTRA-LIGAND FREE ENERGY PREDICTED BY IDOCK:   -0.28 KCAL/MOL
REMARK 927      BINDING AFFINITY PREDICTED BY RF-SCORE:    0.00 PKD
ROOT
HETATM    1  S   UNL     1      -6.937   6.800  69.162  1.00  0.00    -0.081 S  
HETATM    2  C   UNL     1      -8.517   6.635  68.602  1.00  0.00    -0.122 C  
ENDROOT
BRANCH   2   3
HETATM    3  S   UNL     1      -9.450   8.046  68.046  1.00  0.00    -0.148 SA 
BRANCH   3   4
HETATM    4  S   UNL     1      -8.646   9.566  69.209  1.00  0.00    -0.160 SA 
BRANCH   4   5
HETATM    5  C   UNL     1      -8.289  10.853  68.034  1.00  0.00    -0.122 C  
HETATM    6  S   UNL     1      -6.767  10.858  67.298  1.00  0.00    -0.089 S  
BRANCH   5   7
HETATM    7  N   UNL     1      -9.356  11.718  67.696  1.00  0.00    -0.176 N  
HETATM    8  C   UNL     1     -11.452  12.780  68.537  1.00  0.00    -0.344 C  
HETATM    9  C   UNL     1     -10.729  11.480  68.185  1.00  0.00    -0.205 C  
HETATM   10  C   UNL     1     -11.427  13.769  67.380  1.00  0.00    -0.372 C  
HETATM   11  C   UNL     1      -9.995  13.997  66.911  1.00  0.00    -0.263 C  
HETATM   12  C   UNL     1      -9.297  12.678  66.579  1.00  0.00    -0.228 C  
ENDBRANCH   5   7
ENDBRANCH   4   5
ENDBRANCH   3   4
ENDBRANCH   2   3
BRANCH   2  13
HETATM   13  N   UNL     1      -9.199   5.416  68.536  1.00  0.00    -0.108 N  
HETATM   14  C   UNL     1      -9.476   3.678  70.290  1.00  0.00    -0.257 C  
HETATM   15  C   UNL     1      -8.922   4.415  67.501  1.00  0.00    -0.114 C  
HETATM   16  C   UNL     1     -10.047   4.934  69.637  1.00  0.00    -0.230 C  
HETATM   17  C   UNL     1      -8.314   3.153  68.124  1.00  0.00    -0.094 C  
HETATM   18  C   UNL     1      -9.193   2.601  69.246  1.00  0.00    -0.203 C  
ENDBRANCH   2  13
TORSDOF 5
ENDMDL
MODEL      294
REMARK 921   NORMALIZED FREE ENERGY PREDICTED BY IDOCK:   -2.32 KCAL/MOL
REMARK 922        TOTAL FREE ENERGY PREDICTED BY IDOCK:   -3.50 KCAL/MOL
REMARK 923 INTER-LIGAND FREE ENERGY PREDICTED BY IDOCK:   -3.08 KCAL/MOL
REMARK 924 INTRA-LIGAND FREE ENERGY PREDICTED BY IDOCK:   -0.42 KCAL/MOL
REMARK 927      BINDING AFFINITY PREDICTED BY RF-SCORE:    0.00 PKD
ROOT
HETATM    1  S   UNL     1      -6.515   6.319  69.190  1.00  0.00    -0.044 S  
HETATM    2  C   UNL     1      -7.978   6.754  68.476  1.00  0.00    -0.119 C  
ENDROOT
BRANCH   2   3
HETATM    3  S   UNL     1      -9.081   7.908  69.264  1.00  0.00    -0.148 SA 
BRANCH   3   4
HETATM    4  S   UNL     1      -8.443   7.818  71.237  1.00  0.00    -0.123 SA 
BRANCH   4   5
HETATM    5  C   UNL     1      -9.917   7.393  72.139  1.00  0.00    -0.170 C  
HETATM    6  S   UNL     1     -11.294   8.345  71.907  1.00  0.00    -0.341 S  
BRANCH   5   7
HETATM    7  N   UNL     1      -9.874   6.200  72.898  1.00  0.00    -0.166 N  
HETATM    8  C   UNL     1     -11.051   4.050  73.367  1.00  0.00    -0.341 C  
HETATM    9  C   UNL     1     -11.103   5.577  73.430  1.00  0.00    -0.228 C  
HETATM   10  C   UNL     1      -9.800   3.502  74.042  1.00  0.00    -0.158 C  
HETATM   11  C   UNL     1      -8.555   4.160  73.460  1.00  0.00    -0.092 C  
HETATM   12  C   UNL     1      -8.644   5.685  73.526  1.00  0.00    -0.114 C  
ENDBRANCH   5   7
ENDBRANCH   4   5
ENDBRANCH   3   4
ENDBRANCH   2   3
BRANCH   2  13
HETATM   13  N   UNL     1      -8.427   6.255  67.249  1.00  0.00    -0.109 N  
HETATM   14  C   UNL     1     -10.703   5.492  66.605  1.00  0.00    -0.332 C  
HETATM   15  C   UNL     1      -7.789   5.116  66.582  1.00  0.00    -0.100 C  
HETATM   16  C   UNL     1      -9.717   6.656  66.667  1.00  0.00    -0.159 C  
HETATM   17  C   UNL     1      -8.744   3.917  66.536  1.00  0.00    -0.115 C  
HETATM   18  C   UNL     1     -10.082   4.289  65.898  1.00  0.00    -0.223 C  
ENDBRANCH   2  13
TORSDOF 5
ENDMDL
MODEL      295
REMARK 921   NORMALIZED FREE ENERGY PREDICTED BY IDOCK:   -2.32 KCAL/MOL
REMARK 922        TOTAL FREE ENERGY PREDICTED BY IDOCK:   -3.50 KCAL/MOL
REMARK 923 INTER-LIGAND FREE ENERGY PREDICTED BY IDOCK:   -3.10 KCAL/MOL
REMARK 924 INTRA-LIGAND FREE ENERGY PREDICTED BY IDOCK:   -0.40 KCAL/MOL
REMARK 927      BINDING AFFINITY PREDICTED BY RF-SCORE:    0.00 PKD
ROOT
HETATM    1  S   UNL     1      -6.551   6.672  69.382  1.00  0.00    -0.050 S  
HETATM    2  C   UNL     1      -8.106   6.856  68.763  1.00  0.00    -0.121 C  
ENDROOT
BRANCH   2   3
HETATM    3  S   UNL     1      -8.708   8.447  68.240  1.00  0.00    -0.143 SA 
BRANCH   3   4
HETATM    4  S   UNL     1      -8.236   9.634  69.877  1.00  0.00    -0.187 SA 
BRANCH   4   5
HETATM    5  C   UNL     1      -9.388   9.107  71.126  1.00  0.00    -0.243 C  
HETATM    6  S   UNL     1     -11.003   9.581  70.969  1.00  0.00    -0.373 S  
BRANCH   5   7
HETATM    7  N   UNL     1      -8.897   8.213  72.106  1.00  0.00    -0.159 N  
HETATM    8  C   UNL     1      -7.179   7.899  73.889  1.00  0.00    -0.164 C  
HETATM    9  C   UNL     1      -7.454   8.102  72.399  1.00  0.00    -0.116 C  
HETATM   10  C   UNL     1      -7.963   6.720  74.450  1.00  0.00    -0.135 C  
HETATM   11  C   UNL     1      -9.446   6.875  74.138  1.00  0.00    -0.283 C  
HETATM   12  C   UNL     1      -9.686   7.089  72.643  1.00  0.00    -0.150 C  
ENDBRANCH   5   7
ENDBRANCH   4   5
ENDBRANCH   3   4
ENDBRANCH   2   3
BRANCH   2  13
HETATM   13  N   UNL     1      -9.019   5.806  68.620  1.00  0.00    -0.113 N  
HETATM   14  C   UNL     1      -9.350   3.809  70.062  1.00  0.00    -0.250 C  
HETATM   15  C   UNL     1      -9.119   5.012  67.391  1.00  0.00    -0.115 C  
HETATM   16  C   UNL     1      -9.757   5.250  69.765  1.00  0.00    -0.189 C  
HETATM   17  C   UNL     1      -8.682   3.565  67.651  1.00  0.00    -0.128 C  
HETATM   18  C   UNL     1      -9.460   2.942  68.809  1.00  0.00    -0.182 C  
ENDBRANCH   2  13
TORSDOF 5
ENDMDL
MODEL      296
REMARK 921   NORMALIZED FREE ENERGY PREDICTED BY IDOCK:   -2.29 KCAL/MOL
REMARK 922        TOTAL FREE ENERGY PREDICTED BY IDOCK:   -3.45 KCAL/MOL
REMARK 923 INTER-LIGAND FREE ENERGY PREDICTED BY IDOCK:   -2.83 KCAL/MOL
REMARK 924 INTRA-LIGAND FREE ENERGY PREDICTED BY IDOCK:   -0.63 KCAL/MOL
REMARK 927      BINDING AFFINITY PREDICTED BY RF-SCORE:    0.00 PKD
ROOT
HETATM    1  S   UNL     1      -9.715  10.106  66.237  1.00  0.00    -0.232 S  
HETATM    2  C   UNL     1      -9.478   8.494  66.667  1.00  0.00    -0.207 C  
ENDROOT
BRANCH   2   3
HETATM    3  S   UNL     1     -10.654   7.629  67.686  1.00  0.00    -0.193 SA 
BRANCH   3   4
HETATM    4  S   UNL     1     -10.682   8.813  69.391  1.00  0.00    -0.114 SA 
BRANCH   4   5
HETATM    5  C   UNL     1      -9.310   8.208  70.349  1.00  0.00    -0.158 C  
HETATM    6  S   UNL     1      -7.939   9.187  70.480  1.00  0.00    -0.168 S  
BRANCH   5   7
HETATM    7  N   UNL     1      -9.511   6.994  71.047  1.00  0.00    -0.160 N  
HETATM    8  C   UNL     1     -11.004   5.797  72.649  1.00  0.00    -0.311 C  
HETATM    9  C   UNL     1     -10.053   6.972  72.421  1.00  0.00    -0.174 C  
HETATM   10  C   UNL     1     -10.359   4.470  72.274  1.00  0.00    -0.243 C  
HETATM   11  C   UNL     1      -9.822   4.528  70.850  1.00  0.00    -0.269 C  
HETATM   12  C   UNL     1      -8.885   5.720  70.651  1.00  0.00    -0.140 C  
ENDBRANCH   5   7
ENDBRANCH   4   5
ENDBRANCH   3   4
ENDBRANCH   2   3
BRANCH   2  13
HETATM   13  N   UNL     1      -8.372   7.735  66.272  1.00  0.00    -0.124 N  
HETATM   14  C   UNL     1      -6.668   6.598  67.679  1.00  0.00    -0.070 C  
HETATM   15  C   UNL     1      -7.356   8.248  65.348  1.00  0.00    -0.083 C  
HETATM   16  C   UNL     1      -8.003   6.482  66.947  1.00  0.00    -0.112 C  
HETATM   17  C   UNL     1      -6.010   8.409  66.065  1.00  0.00    -0.044 C  
HETATM   18  C   UNL     1      -5.576   7.110  66.743  1.00  0.00    -0.023 C  
ENDBRANCH   2  13
TORSDOF 5
ENDMDL
MODEL      297
REMARK 921   NORMALIZED FREE ENERGY PREDICTED BY IDOCK:   -2.27 KCAL/MOL
REMARK 922        TOTAL FREE ENERGY PREDICTED BY IDOCK:   -3.43 KCAL/MOL
REMARK 923 INTER-LIGAND FREE ENERGY PREDICTED BY IDOCK:   -3.04 KCAL/MOL
REMARK 924 INTRA-LIGAND FREE ENERGY PREDICTED BY IDOCK:   -0.39 KCAL/MOL
REMARK 927      BINDING AFFINITY PREDICTED BY RF-SCORE:    0.00 PKD
ROOT
HETATM    1  S   UNL     1      -9.302  10.026  69.280  1.00  0.00    -0.224 S  
HETATM    2  C   UNL     1      -8.041   8.921  69.116  1.00  0.00    -0.117 C  
ENDROOT
BRANCH   2   3
HETATM    3  S   UNL     1      -7.123   8.354  70.532  1.00  0.00    -0.041 SA 
BRANCH   3   4
HETATM    4  S   UNL     1      -8.023   6.521  70.909  1.00  0.00    -0.112 SA 
BRANCH   4   5
HETATM    5  C   UNL     1      -9.201   6.885  72.192  1.00  0.00    -0.135 C  
HETATM    6  S   UNL     1      -8.677   6.812  73.797  1.00  0.00    -0.146 S  
BRANCH   5   7
HETATM    7  N   UNL     1     -10.474   7.340  71.773  1.00  0.00    -0.197 N  
HETATM    8  C   UNL     1     -12.742   6.618  71.023  1.00  0.00    -0.084 C  
HETATM    9  C   UNL     1     -11.242   6.637  70.727  1.00  0.00    -0.315 C  
HETATM   10  C   UNL     1     -13.282   8.019  71.276  1.00  0.00    -0.183 C  
HETATM   11  C   UNL     1     -12.472   8.708  72.368  1.00  0.00    -0.428 C  
HETATM   12  C   UNL     1     -10.977   8.698  72.048  1.00  0.00    -0.362 C  
ENDBRANCH   5   7
ENDBRANCH   4   5
ENDBRANCH   3   4
ENDBRANCH   2   3
BRANCH   2  13
HETATM   13  N   UNL     1      -7.628   8.382  67.894  1.00  0.00    -0.097 N  
HETATM   14  C   UNL     1      -7.427   9.494  65.680  1.00  0.00    -0.094 C  
HETATM   15  C   UNL     1      -8.251   7.191  67.308  1.00  0.00    -0.119 C  
HETATM   16  C   UNL     1      -6.731   9.109  66.983  1.00  0.00    -0.072 C  
HETATM   17  C   UNL     1      -8.989   7.553  66.013  1.00  0.00    -0.164 C  
HETATM   18  C   UNL     1      -8.072   8.274  65.026  1.00  0.00    -0.148 C  
ENDBRANCH   2  13
TORSDOF 5
ENDMDL
MODEL      298
REMARK 921   NORMALIZED FREE ENERGY PREDICTED BY IDOCK:   -2.24 KCAL/MOL
REMARK 922        TOTAL FREE ENERGY PREDICTED BY IDOCK:   -3.38 KCAL/MOL
REMARK 923 INTER-LIGAND FREE ENERGY PREDICTED BY IDOCK:   -3.20 KCAL/MOL
REMARK 924 INTRA-LIGAND FREE ENERGY PREDICTED BY IDOCK:   -0.18 KCAL/MOL
REMARK 927      BINDING AFFINITY PREDICTED BY RF-SCORE:    0.00 PKD
ROOT
HETATM    1  S   UNL     1     -10.006   8.642  67.841  1.00  0.00    -0.199 S  
HETATM    2  C   UNL     1      -9.887   7.705  69.236  1.00  0.00    -0.168 C  
ENDROOT
BRANCH   2   3
HETATM    3  S   UNL     1      -8.940   6.198  69.257  1.00  0.00    -0.123 SA 
BRANCH   3   4
HETATM    4  S   UNL     1      -8.453   5.981  67.251  1.00  0.00    -0.103 SA 
BRANCH   4   5
HETATM    5  C   UNL     1      -8.585   4.228  66.971  1.00  0.00    -0.104 C  
HETATM    6  S   UNL     1      -8.858   3.693  65.392  1.00  0.00    -0.129 S  
BRANCH   5   7
HETATM    7  N   UNL     1      -8.321   3.388  68.079  1.00  0.00    -0.082 N  
HETATM    8  C   UNL     1      -7.219   3.262  70.314  1.00  0.00    -0.041 C  
HETATM    9  C   UNL     1      -7.039   3.447  68.808  1.00  0.00    -0.049 C  
HETATM   10  C   UNL     1      -7.994   1.991  70.635  1.00  0.00    -0.049 C  
HETATM   11  C   UNL     1      -9.314   1.971  69.874  1.00  0.00    -0.164 C  
HETATM   12  C   UNL     1      -9.100   2.171  68.373  1.00  0.00    -0.164 C  
ENDBRANCH   5   7
ENDBRANCH   4   5
ENDBRANCH   3   4
ENDBRANCH   2   3
BRANCH   2  13
HETATM   13  N   UNL     1     -10.508   8.026  70.448  1.00  0.00    -0.214 N  
HETATM   14  C   UNL     1      -9.616   7.850  72.761  1.00  0.00    -0.311 C  
HETATM   15  C   UNL     1     -11.805   7.466  70.840  1.00  0.00    -0.290 C  
HETATM   16  C   UNL     1      -9.798   8.730  71.527  1.00  0.00    -0.301 C  
HETATM   17  C   UNL     1     -11.648   6.548  72.057  1.00  0.00    -0.354 C  
HETATM   18  C   UNL     1     -10.951   7.263  73.214  1.00  0.00    -0.355 C  
ENDBRANCH   2  13
TORSDOF 5
ENDMDL
MODEL      299
REMARK 921   NORMALIZED FREE ENERGY PREDICTED BY IDOCK:   -2.22 KCAL/MOL
REMARK 922        TOTAL FREE ENERGY PREDICTED BY IDOCK:   -3.36 KCAL/MOL
REMARK 923 INTER-LIGAND FREE ENERGY PREDICTED BY IDOCK:   -2.82 KCAL/MOL
REMARK 924 INTRA-LIGAND FREE ENERGY PREDICTED BY IDOCK:   -0.54 KCAL/MOL
REMARK 927      BINDING AFFINITY PREDICTED BY RF-SCORE:    0.00 PKD
ROOT
HETATM    1  S   UNL     1     -10.367   8.978  67.543  1.00  0.00    -0.273 S  
HETATM    2  C   UNL     1      -9.216   8.039  68.338  1.00  0.00    -0.135 C  
ENDROOT
BRANCH   2   3
HETATM    3  S   UNL     1      -7.618   7.732  67.616  1.00  0.00    -0.115 SA 
BRANCH   3   4
HETATM    4  S   UNL     1      -8.135   6.829  65.820  1.00  0.00    -0.128 SA 
BRANCH   4   5
HETATM    5  C   UNL     1      -8.739   5.229  66.310  1.00  0.00    -0.122 C  
HETATM    6  S   UNL     1     -10.394   4.922  66.157  1.00  0.00    -0.273 S  
BRANCH   5   7
HETATM    7  N   UNL     1      -7.767   4.269  66.678  1.00  0.00    -0.093 N  
HETATM    8  C   UNL     1      -5.326   3.747  66.672  1.00  0.00    -0.013 C  
HETATM    9  C   UNL     1      -6.580   4.008  65.838  1.00  0.00    -0.044 C  
HETATM   10  C   UNL     1      -5.551   2.640  67.694  1.00  0.00    -0.018 C  
HETATM   11  C   UNL     1      -6.775   2.949  68.547  1.00  0.00    -0.040 C  
HETATM   12  C   UNL     1      -8.008   3.218  67.683  1.00  0.00    -0.076 C  
ENDBRANCH   5   7
ENDBRANCH   4   5
ENDBRANCH   3   4
ENDBRANCH   2   3
BRANCH   2  13
HETATM   13  N   UNL     1      -9.422   7.442  69.586  1.00  0.00    -0.156 N  
HETATM   14  C   UNL     1     -11.534   7.185  70.871  1.00  0.00    -0.333 C  
HETATM   15  C   UNL     1      -8.671   7.839  70.781  1.00  0.00    -0.134 C  
HETATM   16  C   UNL     1     -10.575   6.570  69.854  1.00  0.00    -0.233 C  
HETATM   17  C   UNL     1      -9.602   8.493  71.808  1.00  0.00    -0.337 C  
HETATM   18  C   UNL     1     -10.792   7.594  72.142  1.00  0.00    -0.293 C  
ENDBRANCH   2  13
TORSDOF 5
ENDMDL
MODEL      300
REMARK 921   NORMALIZED FREE ENERGY PREDICTED BY IDOCK:   -2.15 KCAL/MOL
REMARK 922        TOTAL FREE ENERGY PREDICTED BY IDOCK:   -3.27 KCAL/MOL
REMARK 923 INTER-LIGAND FREE ENERGY PREDICTED BY IDOCK:   -2.90 KCAL/MOL
REMARK 924 INTRA-LIGAND FREE ENERGY PREDICTED BY IDOCK:   -0.37 KCAL/MOL
REMARK 927      BINDING AFFINITY PREDICTED BY RF-SCORE:    0.00 PKD
ROOT
HETATM    1  S   UNL     1      -6.792   6.756  69.220  1.00  0.00    -0.063 S  
HETATM    2  C   UNL     1      -7.304   7.963  68.163  1.00  0.00    -0.099 C  
ENDROOT
BRANCH   2   3
HETATM    3  S   UNL     1      -8.107   9.434  68.763  1.00  0.00    -0.105 SA 
BRANCH   3   4
HETATM    4  S   UNL     1      -8.192   9.063  70.804  1.00  0.00    -0.190 SA 
BRANCH   4   5
HETATM    5  C   UNL     1      -9.853   8.480  71.059  1.00  0.00    -0.195 C  
HETATM    6  S   UNL     1     -11.020   8.871  69.900  1.00  0.00    -0.129 S  
BRANCH   5   7
HETATM    7  N   UNL     1     -10.060   7.612  72.157  1.00  0.00    -0.188 N  
HETATM    8  C   UNL     1     -10.799   5.324  72.824  1.00  0.00    -0.313 C  
HETATM    9  C   UNL     1     -11.187   6.659  72.189  1.00  0.00    -0.264 C  
HETATM   10  C   UNL     1     -10.181   5.516  74.203  1.00  0.00    -0.282 C  
HETATM   11  C   UNL     1      -9.016   6.495  74.127  1.00  0.00    -0.176 C  
HETATM   12  C   UNL     1      -9.434   7.814  73.476  1.00  0.00    -0.284 C  
ENDBRANCH   5   7
ENDBRANCH   4   5
ENDBRANCH   3   4
ENDBRANCH   2   3
BRANCH   2  13
HETATM   13  N   UNL     1      -7.147   7.904  66.774  1.00  0.00    -0.076 N  
HETATM   14  C   UNL     1      -6.075   9.546  65.246  1.00  0.00    -0.067 C  
HETATM   15  C   UNL     1      -8.277   7.700  65.862  1.00  0.00    -0.133 C  
HETATM   16  C   UNL     1      -5.895   8.301  66.111  1.00  0.00    -0.040 C  
HETATM   17  C   UNL     1      -8.505   8.950  65.003  1.00  0.00    -0.194 C  
HETATM   18  C   UNL     1      -7.232   9.365  64.266  1.00  0.00    -0.105 C  
ENDBRANCH   2  13
TORSDOF 5
ENDMDL
MODEL      301
REMARK 921   NORMALIZED FREE ENERGY PREDICTED BY IDOCK:   -1.76 KCAL/MOL
REMARK 922        TOTAL FREE ENERGY PREDICTED BY IDOCK:   -2.77 KCAL/MOL
REMARK 923 INTER-LIGAND FREE ENERGY PREDICTED BY IDOCK:   -3.83 KCAL/MOL
REMARK 924 INTRA-LIGAND FREE ENERGY PREDICTED BY IDOCK:    1.06 KCAL/MOL
REMARK 927      BINDING AFFINITY PREDICTED BY RF-SCORE:    0.00 PKD
ROOT
HETATM    1  S   UNL     1      -9.301  15.692  69.679  1.00  0.00    -0.107 S  
HETATM    2  C   UNL     1     -10.627  14.675  69.895  1.00  0.00     0.016 C  
ENDROOT
BRANCH   2   3
HETATM    3  S   UNL     1     -10.694  13.072  69.125  1.00  0.00     0.068 SA 
BRANCH   3   4
HETATM    4  S   UNL     1     -12.410  13.233  67.967  1.00  0.00     0.358 SA 
BRANCH   4   5
HETATM    5  C   UNL     1     -11.821  13.908  66.430  1.00  0.00    -0.411 C  
HETATM    6  S   UNL     1     -12.489  13.318  64.994  1.00  0.00    -0.426 S  
BRANCH   5   7
HETATM    7  N   UNL     1     -10.918  14.994  66.519  1.00  0.00    -0.325 N  
HETATM    8  C   UNL     1      -8.791  15.943  65.623  1.00  0.00     0.304 C  
HETATM    9  C   UNL     1      -9.460  14.801  66.387  1.00  0.00    -0.301 C  
HETATM   10  C   UNL     1      -9.130  17.299  66.227  1.00  0.00    -0.245 C  
HETATM   11  C   UNL     1     -10.641  17.465  66.336  1.00  0.00    -0.192 C  
HETATM   12  C   UNL     1     -11.280  16.302  67.095  1.00  0.00     0.102 C  
ENDBRANCH   5   7
ENDBRANCH   4   5
ENDBRANCH   3   4
ENDBRANCH   2   3
BRANCH   2  13
HETATM   13  N   UNL     1     -11.746  15.004  70.667  1.00  0.00    -0.287 N  
HETATM   14  C   UNL     1     -11.874  15.538  73.091  1.00  0.00    -0.542 C  
HETATM   15  C   UNL     1     -12.937  14.153  70.728  1.00  0.00    -0.271 C  
HETATM   16  C   UNL     1     -11.713  16.078  71.672  1.00  0.00    -0.506 C  
HETATM   17  C   UNL     1     -13.106  13.566  72.135  1.00  0.00    -0.487 C  
HETATM   18  C   UNL     1     -13.119  14.660  73.202  1.00  0.00    -0.580 C  
ENDBRANCH   2  13
TORSDOF 5
ENDMDL
MODEL      302
REMARK 921   NORMALIZED FREE ENERGY PREDICTED BY IDOCK:   -0.94 KCAL/MOL
REMARK 922        TOTAL FREE ENERGY PREDICTED BY IDOCK:   -1.71 KCAL/MOL
REMARK 923 INTER-LIGAND FREE ENERGY PREDICTED BY IDOCK:   -1.74 KCAL/MOL
REMARK 924 INTRA-LIGAND FREE ENERGY PREDICTED BY IDOCK:    0.03 KCAL/MOL
REMARK 927      BINDING AFFINITY PREDICTED BY RF-SCORE:    0.00 PKD
ROOT
HETATM    1  S   UNL     1      -7.931  18.873  70.045  1.00  0.00     1.466 S  
HETATM    2  C   UNL     1      -7.632  17.559  69.035  1.00  0.00    -0.161 C  
ENDROOT
BRANCH   2   3
HETATM    3  S   UNL     1      -7.840  15.887  69.610  1.00  0.00     0.166 SA 
BRANCH   3   4
HETATM    4  S   UNL     1      -8.210  14.876  67.835  1.00  0.00    -0.155 SA 
BRANCH   4   5
HETATM    5  C   UNL     1      -8.176  13.162  68.310  1.00  0.00    -0.154 C  
HETATM    6  S   UNL     1      -6.691  12.490  68.760  1.00  0.00    -0.097 S  
BRANCH   5   7
HETATM    7  N   UNL     1      -9.425  12.504  68.405  1.00  0.00    -0.200 N  
HETATM    8  C   UNL     1     -10.733  10.805  69.681  1.00  0.00    -0.261 C  
HETATM    9  C   UNL     1      -9.524  11.082  68.787  1.00  0.00    -0.183 C  
HETATM   10  C   UNL     1     -12.024  11.314  69.056  1.00  0.00    -0.393 C  
HETATM   11  C   UNL     1     -11.887  12.786  68.686  1.00  0.00    -0.341 C  
HETATM   12  C   UNL     1     -10.663  13.031  67.802  1.00  0.00    -0.229 C  
ENDBRANCH   5   7
ENDBRANCH   4   5
ENDBRANCH   3   4
ENDBRANCH   2   3
BRANCH   2  13
HETATM   13  N   UNL     1      -7.205  17.675  67.708  1.00  0.00    -0.187 N  
HETATM   14  C   UNL     1      -5.582  19.276  66.718  1.00  0.00    -0.161 C  
HETATM   15  C   UNL     1      -8.141  17.840  66.592  1.00  0.00    -0.258 C  
HETATM   16  C   UNL     1      -5.795  17.907  67.358  1.00  0.00    -0.147 C  
HETATM   17  C   UNL     1      -7.975  19.223  65.950  1.00  0.00    -0.159 C  
HETATM   18  C   UNL     1      -6.527  19.479  65.536  1.00  0.00    -0.284 C  
ENDBRANCH   2  13
TORSDOF 5
ENDMDL
MODEL      303
REMARK 921   NORMALIZED FREE ENERGY PREDICTED BY IDOCK:   -0.52 KCAL/MOL
REMARK 922        TOTAL FREE ENERGY PREDICTED BY IDOCK:   -1.16 KCAL/MOL
REMARK 923 INTER-LIGAND FREE ENERGY PREDICTED BY IDOCK:   -1.29 KCAL/MOL
REMARK 924 INTRA-LIGAND FREE ENERGY PREDICTED BY IDOCK:    0.12 KCAL/MOL
REMARK 927      BINDING AFFINITY PREDICTED BY RF-SCORE:    0.00 PKD
ROOT
HETATM    1  S   UNL     1      -7.487  19.607  70.766  1.00  0.00     1.573 S  
HETATM    2  C   UNL     1      -7.145  18.496  69.547  1.00  0.00     0.040 C  
ENDROOT
BRANCH   2   3
HETATM    3  S   UNL     1      -7.318  16.746  69.820  1.00  0.00     0.708 SA 
BRANCH   3   4
HETATM    4  S   UNL     1      -8.369  16.159  68.129  1.00  0.00    -0.170 SA 
BRANCH   4   5
HETATM    5  C   UNL     1      -8.221  14.386  68.133  1.00  0.00    -0.149 C  
HETATM    6  S   UNL     1      -6.931  13.698  68.980  1.00  0.00    -0.068 S  
BRANCH   5   7
HETATM    7  N   UNL     1      -9.275  13.659  67.530  1.00  0.00    -0.208 N  
HETATM    8  C   UNL     1     -11.752  13.520  67.266  1.00  0.00    -0.423 C  
HETATM    9  C   UNL     1     -10.562  13.445  68.221  1.00  0.00    -0.254 C  
HETATM   10  C   UNL     1     -11.583  12.579  66.081  1.00  0.00    -0.448 C  
HETATM   11  C   UNL     1     -10.250  12.837  65.388  1.00  0.00    -0.299 C  
HETATM   12  C   UNL     1      -9.083  12.767  66.372  1.00  0.00    -0.089 C  
ENDBRANCH   5   7
ENDBRANCH   4   5
ENDBRANCH   3   4
ENDBRANCH   2   3
BRANCH   2  13
HETATM   13  N   UNL     1      -6.707  18.851  68.267  1.00  0.00    -0.233 N  
HETATM   14  C   UNL     1      -5.242  20.737  67.578  1.00  0.00    -0.241 C  
HETATM   15  C   UNL     1      -7.634  19.084  67.155  1.00  0.00    -0.229 C  
HETATM   16  C   UNL     1      -5.323  19.273  68.003  1.00  0.00    -0.175 C  
HETATM   17  C   UNL     1      -7.601  20.557  66.729  1.00  0.00    -0.290 C  
HETATM   18  C   UNL     1      -6.180  21.017  66.406  1.00  0.00    -0.330 C  
ENDBRANCH   2  13
TORSDOF 5
ENDMDL
MODEL      304
REMARK 921   NORMALIZED FREE ENERGY PREDICTED BY IDOCK:   -0.41 KCAL/MOL
REMARK 922        TOTAL FREE ENERGY PREDICTED BY IDOCK:   -1.03 KCAL/MOL
REMARK 923 INTER-LIGAND FREE ENERGY PREDICTED BY IDOCK:   -2.72 KCAL/MOL
REMARK 924 INTRA-LIGAND FREE ENERGY PREDICTED BY IDOCK:    1.69 KCAL/MOL
REMARK 927      BINDING AFFINITY PREDICTED BY RF-SCORE:    0.00 PKD
ROOT
HETATM    1  S   UNL     1      -9.802  16.363  65.923  1.00  0.00    -0.282 S  
HETATM    2  C   UNL     1      -9.214  14.819  66.253  1.00  0.00    -0.243 C  
ENDROOT
BRANCH   2   3
HETATM    3  S   UNL     1      -7.560  14.574  66.863  1.00  0.00     0.599 SA 
BRANCH   3   4
HETATM    4  S   UNL     1      -7.450  12.503  66.959  1.00  0.00     0.083 SA 
BRANCH   4   5
HETATM    5  C   UNL     1      -7.283  12.169  68.698  1.00  0.00    -0.109 C  
HETATM    6  S   UNL     1      -7.990  10.760  69.309  1.00  0.00    -0.057 S  
BRANCH   5   7
HETATM    7  N   UNL     1      -6.452  13.045  69.436  1.00  0.00    -0.110 N  
HETATM    8  C   UNL     1      -5.970  15.441  69.939  1.00  0.00    -0.146 C  
HETATM    9  C   UNL     1      -6.006  14.338  68.881  1.00  0.00    -0.086 C  
HETATM   10  C   UNL     1      -5.145  15.030  71.152  1.00  0.00    -0.144 C  
HETATM   11  C   UNL     1      -5.642  13.699  71.701  1.00  0.00    -0.165 C  
HETATM   12  C   UNL     1      -5.677  12.622  70.616  1.00  0.00    -0.151 C  
ENDBRANCH   5   7
ENDBRANCH   4   5
ENDBRANCH   3   4
ENDBRANCH   2   3
BRANCH   2  13
HETATM   13  N   UNL     1      -9.955  13.647  66.075  1.00  0.00    -0.303 N  
HETATM   14  C   UNL     1     -11.020  12.764  64.011  1.00  0.00    -0.454 C  
HETATM   15  C   UNL     1     -11.130  13.327  66.892  1.00  0.00    -0.289 C  
HETATM   16  C   UNL     1      -9.779  12.782  64.898  1.00  0.00     0.079 C  
HETATM   17  C   UNL     1     -12.400  13.336  66.033  1.00  0.00    -0.449 C  
HETATM   18  C   UNL     1     -12.266  12.414  64.822  1.00  0.00    -0.493 C  
ENDBRANCH   2  13
TORSDOF 5
ENDMDL
MODEL      305
REMARK 921   NORMALIZED FREE ENERGY PREDICTED BY IDOCK:    1.10 KCAL/MOL
REMARK 922        TOTAL FREE ENERGY PREDICTED BY IDOCK:    0.93 KCAL/MOL
REMARK 923 INTER-LIGAND FREE ENERGY PREDICTED BY IDOCK:    0.70 KCAL/MOL
REMARK 924 INTRA-LIGAND FREE ENERGY PREDICTED BY IDOCK:    0.23 KCAL/MOL
REMARK 927      BINDING AFFINITY PREDICTED BY RF-SCORE:    0.00 PKD
ROOT
HETATM    1  S   UNL     1      -6.739  20.764  71.139  1.00  0.00     1.812 S  
HETATM    2  C   UNL     1      -6.533  19.425  70.139  1.00  0.00    -0.095 C  
ENDROOT
BRANCH   2   3
HETATM    3  S   UNL     1      -6.497  17.774  70.803  1.00  0.00     1.862 SA 
BRANCH   3   4
HETATM    4  S   UNL     1      -7.035  16.643  69.147  1.00  0.00    -0.222 SA 
BRANCH   4   5
HETATM    5  C   UNL     1      -6.306  15.051  69.469  1.00  0.00    -0.131 C  
HETATM    6  S   UNL     1      -5.194  14.927  70.735  1.00  0.00    -0.136 S  
BRANCH   5   7
HETATM    7  N   UNL     1      -6.807  13.961  68.719  1.00  0.00    -0.099 N  
HETATM    8  C   UNL     1      -6.452  11.558  68.146  1.00  0.00    -0.053 C  
HETATM    9  C   UNL     1      -5.906  12.984  68.076  1.00  0.00    -0.112 C  
HETATM   10  C   UNL     1      -7.868  11.471  67.593  1.00  0.00    -0.125 C  
HETATM   11  C   UNL     1      -8.769  12.485  68.287  1.00  0.00    -0.171 C  
HETATM   12  C   UNL     1      -8.189  13.897  68.210  1.00  0.00    -0.158 C  
ENDBRANCH   5   7
ENDBRANCH   4   5
ENDBRANCH   3   4
ENDBRANCH   2   3
BRANCH   2  13
HETATM   13  N   UNL     1      -6.375  19.503  68.751  1.00  0.00    -0.246 N  
HETATM   14  C   UNL     1      -5.336  21.306  67.391  1.00  0.00    -0.357 C  
HETATM   15  C   UNL     1      -7.501  19.367  67.822  1.00  0.00    -0.261 C  
HETATM   16  C   UNL     1      -5.131  19.987  68.132  1.00  0.00    -0.184 C  
HETATM   17  C   UNL     1      -7.754  20.689  67.087  1.00  0.00    -0.348 C  
HETATM   18  C   UNL     1      -6.490  21.199  66.397  1.00  0.00    -0.280 C  
ENDBRANCH   2  13
TORSDOF 5
ENDMDL
MODEL      306
REMARK 921   NORMALIZED FREE ENERGY PREDICTED BY IDOCK:    4.92 KCAL/MOL
REMARK 922        TOTAL FREE ENERGY PREDICTED BY IDOCK:    5.86 KCAL/MOL
REMARK 923 INTER-LIGAND FREE ENERGY PREDICTED BY IDOCK:    5.21 KCAL/MOL
REMARK 924 INTRA-LIGAND FREE ENERGY PREDICTED BY IDOCK:    0.65 KCAL/MOL
REMARK 927      BINDING AFFINITY PREDICTED BY RF-SCORE:    0.00 PKD
ROOT
HETATM    1  S   UNL     1      -9.974  18.727  71.213  1.00  0.00     4.226 S  
HETATM    2  C   UNL     1     -10.384  17.564  70.065  1.00  0.00     0.660 C  
ENDROOT
BRANCH   2   3
HETATM    3  S   UNL     1     -10.000  15.845  70.317  1.00  0.00     0.465 SA 
BRANCH   3   4
HETATM    4  S   UNL     1      -8.933  15.396  68.593  1.00  0.00    -0.204 SA 
BRANCH   4   5
HETATM    5  C   UNL     1      -7.403  14.726  69.205  1.00  0.00    -0.168 C  
HETATM    6  S   UNL     1      -6.414  15.727  70.142  1.00  0.00     0.104 S  
BRANCH   5   7
HETATM    7  N   UNL     1      -7.175  13.349  68.973  1.00  0.00    -0.065 N  
HETATM    8  C   UNL     1      -7.536  11.475  67.365  1.00  0.00    -0.135 C  
HETATM    9  C   UNL     1      -8.179  12.502  68.298  1.00  0.00    -0.168 C  
HETATM   10  C   UNL     1      -6.484  10.642  68.086  1.00  0.00    -0.062 C  
HETATM   11  C   UNL     1      -5.463  11.550  68.760  1.00  0.00    -0.042 C  
HETATM   12  C   UNL     1      -6.138  12.572  69.675  1.00  0.00    -0.133 C  
ENDBRANCH   5   7
ENDBRANCH   4   5
ENDBRANCH   3   4
ENDBRANCH   2   3
BRANCH   2  13
HETATM   13  N   UNL     1     -11.034  17.851  68.861  1.00  0.00     0.389 N  
HETATM   14  C   UNL     1     -11.042  16.560  66.737  1.00  0.00     0.179 C  
HETATM   15  C   UNL     1     -10.860  19.126  68.157  1.00  0.00     0.018 C  
HETATM   16  C   UNL     1     -11.724  16.814  68.079  1.00  0.00     0.536 C  
HETATM   17  C   UNL     1     -10.144  18.907  66.819  1.00  0.00    -0.425 C  
HETATM   18  C   UNL     1     -10.860  17.864  65.962  1.00  0.00     0.037 C  
ENDBRANCH   2  13
TORSDOF 5
ENDMDL
MODEL      307
REMARK 921   NORMALIZED FREE ENERGY PREDICTED BY IDOCK:   15.44 KCAL/MOL
REMARK 922        TOTAL FREE ENERGY PREDICTED BY IDOCK:   19.45 KCAL/MOL
REMARK 923 INTER-LIGAND FREE ENERGY PREDICTED BY IDOCK:   19.31 KCAL/MOL
REMARK 924 INTRA-LIGAND FREE ENERGY PREDICTED BY IDOCK:    0.14 KCAL/MOL
REMARK 927      BINDING AFFINITY PREDICTED BY RF-SCORE:    0.00 PKD
ROOT
HETATM    1  S   UNL     1      -6.823  20.811  71.212  1.00  0.00     2.079 S  
HETATM    2  C   UNL     1      -6.869  19.251  70.576  1.00  0.00     0.575 C  
ENDROOT
BRANCH   2   3
HETATM    3  S   UNL     1      -7.109  17.835  71.627  1.00  0.00     6.872 SA 
BRANCH   3   4
HETATM    4  S   UNL     1      -7.899  16.452  70.295  1.00  0.00     2.215 SA 
BRANCH   4   5
HETATM    5  C   UNL     1      -9.543  16.163  70.911  1.00  0.00     2.432 C  
HETATM    6  S   UNL     1      -9.936  16.766  72.440  1.00  0.00     8.434 S  
BRANCH   5   7
HETATM    7  N   UNL     1     -10.457  15.555  70.018  1.00  0.00    -0.304 N  
HETATM    8  C   UNL     1     -11.005  15.189  67.611  1.00  0.00    -0.308 C  
HETATM    9  C   UNL     1     -10.842  16.200  68.747  1.00  0.00    -0.310 C  
HETATM   10  C   UNL     1     -11.963  14.067  67.990  1.00  0.00    -0.386 C  
HETATM   11  C   UNL     1     -11.527  13.421  69.299  1.00  0.00    -0.345 C  
HETATM   12  C   UNL     1     -11.361  14.459  70.410  1.00  0.00    -0.094 C  
ENDBRANCH   5   7
ENDBRANCH   4   5
ENDBRANCH   3   4
ENDBRANCH   2   3
BRANCH   2  13
HETATM   13  N   UNL     1      -6.724  18.957  69.217  1.00  0.00    -0.295 N  
HETATM   14  C   UNL     1      -5.433  20.177  67.478  1.00  0.00    -0.190 C  
HETATM   15  C   UNL     1      -7.872  18.775  68.324  1.00  0.00    -0.305 C  
HETATM   16  C   UNL     1      -5.429  19.069  68.527  1.00  0.00    -0.196 C  
HETATM   17  C   UNL     1      -7.924  19.896  67.279  1.00  0.00    -0.337 C  
HETATM   18  C   UNL     1      -6.606  20.011  66.514  1.00  0.00    -0.226 C  
ENDBRANCH   2  13
TORSDOF 5
ENDMDL
MODEL      308
REMARK 921   NORMALIZED FREE ENERGY PREDICTED BY IDOCK:   20.02 KCAL/MOL
REMARK 922        TOTAL FREE ENERGY PREDICTED BY IDOCK:   25.38 KCAL/MOL
REMARK 923 INTER-LIGAND FREE ENERGY PREDICTED BY IDOCK:   18.08 KCAL/MOL
REMARK 924 INTRA-LIGAND FREE ENERGY PREDICTED BY IDOCK:    7.30 KCAL/MOL
REMARK 927      BINDING AFFINITY PREDICTED BY RF-SCORE:    0.00 PKD
ROOT
HETATM    1  S   UNL     1      -7.052  14.430  73.120  1.00  0.00     4.953 S  
HETATM    2  C   UNL     1      -7.643  14.598  71.551  1.00  0.00     3.223 C  
ENDROOT
BRANCH   2   3
HETATM    3  S   UNL     1      -6.592  14.345  70.138  1.00  0.00    -0.043 SA 
BRANCH   3   4
HETATM    4  S   UNL     1      -6.440  16.272  69.377  1.00  0.00    -0.203 SA 
BRANCH   4   5
HETATM    5  C   UNL     1      -7.066  16.121  67.718  1.00  0.00    -0.138 C  
HETATM    6  S   UNL     1      -5.959  16.180  66.442  1.00  0.00     1.625 S  
BRANCH   5   7
HETATM    7  N   UNL     1      -8.444  15.830  67.584  1.00  0.00    -0.156 N  
HETATM    8  C   UNL     1     -10.747  16.597  68.166  1.00  0.00    -0.349 C  
HETATM    9  C   UNL     1      -9.400  16.087  68.679  1.00  0.00    -0.214 C  
HETATM   10  C   UNL     1     -11.333  15.670  67.109  1.00  0.00    -0.082 C  
HETATM   11  C   UNL     1     -10.323  15.437  65.992  1.00  0.00    -0.339 C  
HETATM   12  C   UNL     1      -8.984  14.940  66.540  1.00  0.00    -0.253 C  
ENDBRANCH   5   7
ENDBRANCH   4   5
ENDBRANCH   3   4
ENDBRANCH   2   3
BRANCH   2  13
HETATM   13  N   UNL     1      -8.964  14.944  71.247  1.00  0.00     2.947 N  
HETATM   14  C   UNL     1     -11.078  14.047  72.199  1.00  0.00     2.847 C  
HETATM   15  C   UNL     1      -9.492  14.907  69.880  1.00  0.00     0.265 C  
HETATM   16  C   UNL     1      -9.988  15.112  72.290  1.00  0.00     3.785 C  
HETATM   17  C   UNL     1     -10.566  13.821  69.748  1.00  0.00     0.406 C  
HETATM   18  C   UNL     1     -11.669  13.991  70.792  1.00  0.00    -0.190 C  
ENDBRANCH   2  13
TORSDOF 5
ENDMDL
MODEL      309
REMARK 921   NORMALIZED FREE ENERGY PREDICTED BY IDOCK:   41.74 KCAL/MOL
REMARK 922        TOTAL FREE ENERGY PREDICTED BY IDOCK:   53.44 KCAL/MOL
REMARK 923 INTER-LIGAND FREE ENERGY PREDICTED BY IDOCK:   49.05 KCAL/MOL
REMARK 924 INTRA-LIGAND FREE ENERGY PREDICTED BY IDOCK:    4.39 KCAL/MOL
REMARK 927      BINDING AFFINITY PREDICTED BY RF-SCORE:    0.00 PKD
ROOT
HETATM    1  S   UNL     1      -9.847  13.350  67.172  1.00  0.00    -0.243 S  
HETATM    2  C   UNL     1     -10.499  12.195  68.211  1.00  0.00    -0.213 C  
ENDROOT
BRANCH   2   3
HETATM    3  S   UNL     1     -11.784  11.088  67.670  1.00  0.00     0.190 SA 
BRANCH   3   4
HETATM    4  S   UNL     1     -10.825  10.038  66.158  1.00  0.00     0.382 SA 
BRANCH   4   5
HETATM    5  C   UNL     1      -9.340  10.976  65.869  1.00  0.00    -0.204 C  
HETATM    6  S   UNL     1      -7.947  10.542  66.723  1.00  0.00    -0.125 S  
BRANCH   5   7
HETATM    7  N   UNL     1      -9.392  11.946  64.840  1.00  0.00     0.027 N  
HETATM    8  C   UNL     1      -8.927  12.370  62.425  1.00  0.00     3.093 C  
HETATM    9  C   UNL     1      -8.349  12.025  63.798  1.00  0.00     2.053 C  
HETATM   10  C   UNL     1      -9.776  13.634  62.474  1.00  0.00     9.827 C  
HETATM   11  C   UNL     1     -10.846  13.509  63.552  1.00  0.00     0.724 C  
HETATM   12  C   UNL     1     -10.237  13.152  64.909  1.00  0.00    -0.287 C  
ENDBRANCH   5   7
ENDBRANCH   4   5
ENDBRANCH   3   4
ENDBRANCH   2   3
BRANCH   2  13
HETATM   13  N   UNL     1     -10.096  12.024  69.540  1.00  0.00     0.553 N  
HETATM   14  C   UNL     1     -10.198  13.637  71.428  1.00  0.00     6.149 C  
HETATM   15  C   UNL     1      -8.744  11.590  69.903  1.00  0.00     1.897 C  
HETATM   16  C   UNL     1     -10.901  12.515  70.669  1.00  0.00     2.675 C  
HETATM   17  C   UNL     1      -7.999  12.711  70.636  1.00  0.00     5.710 C  
HETATM   18  C   UNL     1      -8.790  13.216  71.843  1.00  0.00    16.845 C  
ENDBRANCH   2  13
TORSDOF 5
ENDMDL
