MODEL        1
REMARK 921   NORMALIZED FREE ENERGY PREDICTED BY IDOCK:   -6.62 KCAL/MOL
REMARK 922        TOTAL FREE ENERGY PREDICTED BY IDOCK:   -7.67 KCAL/MOL
REMARK 923 INTER-LIGAND FREE ENERGY PREDICTED BY IDOCK:   -7.40 KCAL/MOL
REMARK 924 INTRA-LIGAND FREE ENERGY PREDICTED BY IDOCK:   -0.28 KCAL/MOL
REMARK 927      BINDING AFFINITY PREDICTED BY RF-SCORE:    0.00 PKD
ROOT
HETATM    1  N   UNL     1     -11.717  13.077  69.093  1.00  0.00    -0.310 NA 
HETATM    2  H1  UNL     1     -11.954  12.875  70.065  1.00  0.00     0.000 HD 
HETATM    3  H2  UNL     1     -11.296  12.328  68.543  1.00  0.00     0.000 HD 
HETATM    4  C   UNL     1     -11.911  14.213  68.509  1.00  0.00    -0.332 C  
HETATM    5  N   UNL     1     -11.594  14.484  67.207  1.00  0.00    -0.371 NA 
HETATM    6  N   UNL     1     -12.454  15.315  69.119  1.00  0.00    -0.602 NA 
HETATM    7  H   UNL     1     -11.452  15.465  66.967  1.00  0.00     0.000 HD 
HETATM    8  H   UNL     1     -12.750  16.087  68.523  1.00  0.00     0.000 HD 
ENDROOT
BRANCH   5   9
HETATM    9  C   UNL     1     -11.441  13.557  66.163  1.00  0.00    -0.325 A  
HETATM   10  C   UNL     1     -12.526  13.248  65.333  1.00  0.00    -0.543 A  
HETATM   11  C   UNL     1     -12.379  12.348  64.272  1.00  0.00    -0.544 A  
HETATM   12  C   UNL     1     -10.204  12.955  65.896  1.00  0.00    -0.299 A  
HETATM   13  C   UNL     1     -10.058  12.049  64.844  1.00  0.00    -0.289 A  
HETATM   14  C   UNL     1     -11.146  11.745  64.032  1.00  0.00    -0.461 A  
ENDBRANCH   5   9
BRANCH   6  15
HETATM   15  C   UNL     1     -12.632  15.457  70.512  1.00  0.00    -0.423 A  
HETATM   16  C   UNL     1     -11.797  16.113  72.703  1.00  0.00    -0.609 A  
HETATM   17  C   UNL     1     -11.612  15.960  71.327  1.00  0.00    -0.509 A  
HETATM   18  C   UNL     1     -14.028  15.229  72.490  1.00  0.00    -0.609 A  
HETATM   19  C   UNL     1     -13.846  15.092  71.109  1.00  0.00    -0.495 A  
HETATM   20  C   UNL     1     -13.007  15.745  73.284  1.00  0.00    -0.675 A  
ENDBRANCH   6  15
TORSDOF 2
ENDMDL
MODEL        2
REMARK 921   NORMALIZED FREE ENERGY PREDICTED BY IDOCK:   -6.61 KCAL/MOL
REMARK 922        TOTAL FREE ENERGY PREDICTED BY IDOCK:   -7.66 KCAL/MOL
REMARK 923 INTER-LIGAND FREE ENERGY PREDICTED BY IDOCK:   -7.36 KCAL/MOL
REMARK 924 INTRA-LIGAND FREE ENERGY PREDICTED BY IDOCK:   -0.29 KCAL/MOL
REMARK 927      BINDING AFFINITY PREDICTED BY RF-SCORE:    0.00 PKD
ROOT
HETATM    1  N   UNL     1     -11.967  13.138  68.970  1.00  0.00    -0.308 NA 
HETATM    2  H1  UNL     1     -12.272  12.877  69.908  1.00  0.00     0.000 HD 
HETATM    3  H2  UNL     1     -11.621  12.395  68.361  1.00  0.00     0.000 HD 
HETATM    4  C   UNL     1     -11.988  14.340  68.496  1.00  0.00    -0.317 C  
HETATM    5  N   UNL     1     -11.580  14.689  67.239  1.00  0.00    -0.379 NA 
HETATM    6  N   UNL     1     -12.412  15.440  69.196  1.00  0.00    -0.605 NA 
HETATM    7  H   UNL     1     -11.304  15.661  67.103  1.00  0.00     0.000 HD 
HETATM    8  H   UNL     1     -12.580  16.298  68.671  1.00  0.00     0.000 HD 
ENDROOT
BRANCH   5   9
HETATM    9  C   UNL     1     -11.500  13.853  66.113  1.00  0.00    -0.345 A  
HETATM   10  C   UNL     1     -10.253  13.418  65.646  1.00  0.00    -0.300 A  
HETATM   11  C   UNL     1     -10.161  12.562  64.544  1.00  0.00    -0.332 A  
HETATM   12  C   UNL     1     -12.653  13.398  65.457  1.00  0.00    -0.520 A  
HETATM   13  C   UNL     1     -12.563  12.552  64.351  1.00  0.00    -0.497 A  
HETATM   14  C   UNL     1     -11.317  12.134  63.894  1.00  0.00    -0.501 A  
ENDBRANCH   5   9
BRANCH   6  15
HETATM   15  C   UNL     1     -12.633  15.472  70.589  1.00  0.00    -0.443 A  
HETATM   16  C   UNL     1     -14.113  15.249  72.509  1.00  0.00    -0.567 A  
HETATM   17  C   UNL     1     -13.901  15.232  71.129  1.00  0.00    -0.498 A  
HETATM   18  C   UNL     1     -11.789  15.782  72.848  1.00  0.00    -0.568 A  
HETATM   19  C   UNL     1     -11.576  15.748  71.465  1.00  0.00    -0.531 A  
HETATM   20  C   UNL     1     -13.055  15.527  73.368  1.00  0.00    -0.651 A  
ENDBRANCH   6  15
TORSDOF 2
ENDMDL
MODEL        3
REMARK 921   NORMALIZED FREE ENERGY PREDICTED BY IDOCK:   -6.34 KCAL/MOL
REMARK 922        TOTAL FREE ENERGY PREDICTED BY IDOCK:   -7.36 KCAL/MOL
REMARK 923 INTER-LIGAND FREE ENERGY PREDICTED BY IDOCK:   -7.07 KCAL/MOL
REMARK 924 INTRA-LIGAND FREE ENERGY PREDICTED BY IDOCK:   -0.29 KCAL/MOL
REMARK 927      BINDING AFFINITY PREDICTED BY RF-SCORE:    0.00 PKD
ROOT
HETATM    1  N   UNL     1     -12.253  12.980  68.873  1.00  0.00    -0.149 NA 
HETATM    2  H1  UNL     1     -11.979  12.138  68.367  1.00  0.00     0.000 HD 
HETATM    3  H2  UNL     1     -12.658  12.863  69.802  1.00  0.00     0.000 HD 
HETATM    4  C   UNL     1     -12.125  14.184  68.423  1.00  0.00    -0.273 C  
HETATM    5  N   UNL     1     -12.493  15.313  69.101  1.00  0.00    -0.602 NA 
HETATM    6  N   UNL     1     -11.612  14.500  67.191  1.00  0.00    -0.375 NA 
HETATM    7  H   UNL     1     -12.683  16.141  68.538  1.00  0.00     0.000 HD 
HETATM    8  H   UNL     1     -11.367  15.474  67.017  1.00  0.00     0.000 HD 
ENDROOT
BRANCH   5   9
HETATM    9  C   UNL     1     -12.637  15.455  70.491  1.00  0.00    -0.423 A  
HETATM   10  C   UNL     1     -11.548  15.860  71.274  1.00  0.00    -0.509 A  
HETATM   11  C   UNL     1     -11.686  16.033  72.654  1.00  0.00    -0.513 A  
HETATM   12  C   UNL     1     -13.870  15.242  71.123  1.00  0.00    -0.498 A  
HETATM   13  C   UNL     1     -14.008  15.404  72.502  1.00  0.00    -0.640 A  
HETATM   14  C   UNL     1     -12.916  15.800  73.269  1.00  0.00    -0.675 A  
ENDBRANCH   5   9
BRANCH   6  15
HETATM   15  C   UNL     1     -11.398  13.575  66.148  1.00  0.00    -0.308 A  
HETATM   16  C   UNL     1      -9.973  11.983  64.979  1.00  0.00    -0.259 A  
HETATM   17  C   UNL     1     -10.175  12.910  66.004  1.00  0.00    -0.293 A  
HETATM   18  C   UNL     1     -12.212  12.386  64.188  1.00  0.00    -0.558 A  
HETATM   19  C   UNL     1     -12.418  13.302  65.226  1.00  0.00    -0.543 A  
HETATM   20  C   UNL     1     -10.993  11.724  64.070  1.00  0.00    -0.451 A  
ENDBRANCH   6  15
TORSDOF 2
ENDMDL
MODEL        4
REMARK 921   NORMALIZED FREE ENERGY PREDICTED BY IDOCK:   -6.27 KCAL/MOL
REMARK 922        TOTAL FREE ENERGY PREDICTED BY IDOCK:   -7.28 KCAL/MOL
REMARK 923 INTER-LIGAND FREE ENERGY PREDICTED BY IDOCK:   -7.17 KCAL/MOL
REMARK 924 INTRA-LIGAND FREE ENERGY PREDICTED BY IDOCK:   -0.11 KCAL/MOL
REMARK 927      BINDING AFFINITY PREDICTED BY RF-SCORE:    0.00 PKD
ROOT
HETATM    1  N   UNL     1     -11.913  14.857  68.001  1.00  0.00    -0.537 NA 
HETATM    2  H1  UNL     1     -11.912  15.061  67.001  1.00  0.00     0.000 HD 
HETATM    3  H2  UNL     1     -11.937  15.648  68.645  1.00  0.00     0.000 HD 
HETATM    4  C   UNL     1     -11.887  13.670  68.509  1.00  0.00    -0.371 C  
HETATM    5  N   UNL     1     -11.889  13.397  69.850  1.00  0.00    -0.385 NA 
HETATM    6  N   UNL     1     -11.840  12.513  67.775  1.00  0.00    -0.385 NA 
HETATM    7  H   UNL     1     -11.511  12.492  70.130  1.00  0.00     0.000 HD 
HETATM    8  H   UNL     1     -12.027  11.637  68.261  1.00  0.00     0.000 HD 
ENDROOT
BRANCH   5   9
HETATM    9  C   UNL     1     -12.355  14.227  70.881  1.00  0.00    -0.359 A  
HETATM   10  C   UNL     1     -13.714  14.231  71.223  1.00  0.00    -0.328 A  
HETATM   11  C   UNL     1     -14.185  15.032  72.267  1.00  0.00    -0.594 A  
HETATM   12  C   UNL     1     -11.479  15.035  71.621  1.00  0.00    -0.377 A  
HETATM   13  C   UNL     1     -11.950  15.843  72.657  1.00  0.00    -0.610 A  
HETATM   14  C   UNL     1     -13.304  15.842  72.981  1.00  0.00    -0.679 A  
ENDBRANCH   5   9
BRANCH   6  15
HETATM   15  C   UNL     1     -11.552  12.448  66.395  1.00  0.00    -0.384 A  
HETATM   16  C   UNL     1     -12.143  12.908  64.078  1.00  0.00    -0.526 A  
HETATM   17  C   UNL     1     -12.439  12.961  65.442  1.00  0.00    -0.511 A  
HETATM   18  C   UNL     1     -10.068  11.792  64.583  1.00  0.00    -0.310 A  
HETATM   19  C   UNL     1     -10.360  11.861  65.950  1.00  0.00    -0.277 A  
HETATM   20  C   UNL     1     -10.957  12.321  63.650  1.00  0.00    -0.532 A  
ENDBRANCH   6  15
TORSDOF 2
ENDMDL
MODEL        5
REMARK 921   NORMALIZED FREE ENERGY PREDICTED BY IDOCK:   -5.98 KCAL/MOL
REMARK 922        TOTAL FREE ENERGY PREDICTED BY IDOCK:   -6.95 KCAL/MOL
REMARK 923 INTER-LIGAND FREE ENERGY PREDICTED BY IDOCK:   -6.68 KCAL/MOL
REMARK 924 INTRA-LIGAND FREE ENERGY PREDICTED BY IDOCK:   -0.27 KCAL/MOL
REMARK 927      BINDING AFFINITY PREDICTED BY RF-SCORE:    0.00 PKD
ROOT
HETATM    1  N   UNL     1     -10.827  16.538  64.578  1.00  0.00    -1.008 NA 
HETATM    2  H1  UNL     1     -11.404  16.078  63.873  1.00  0.00     0.000 HD 
HETATM    3  H2  UNL     1     -10.583  17.517  64.424  1.00  0.00     0.000 HD 
HETATM    4  C   UNL     1     -10.385  15.971  65.651  1.00  0.00    -0.392 C  
HETATM    5  N   UNL     1      -9.611  16.587  66.596  1.00  0.00    -0.245 NA 
HETATM    6  N   UNL     1     -10.618  14.662  65.989  1.00  0.00    -0.298 NA 
HETATM    7  H   UNL     1      -9.039  15.981  67.182  1.00  0.00     0.000 HD 
HETATM    8  H   UNL     1     -10.400  14.374  66.942  1.00  0.00     0.000 HD 
ENDROOT
BRANCH   5   9
HETATM    9  C   UNL     1      -9.521  17.966  66.846  1.00  0.00    -0.279 A  
HETATM   10  C   UNL     1      -8.334  18.656  66.566  1.00  0.00    -0.304 A  
HETATM   11  C   UNL     1      -8.240  20.034  66.783  1.00  0.00    -0.362 A  
HETATM   12  C   UNL     1     -10.615  18.693  67.336  1.00  0.00    -0.490 A  
HETATM   13  C   UNL     1     -10.519  20.067  67.564  1.00  0.00    -0.487 A  
HETATM   14  C   UNL     1      -9.332  20.738  67.287  1.00  0.00    -0.418 A  
ENDBRANCH   5   9
BRANCH   6  15
HETATM   15  C   UNL     1     -11.138  13.687  65.112  1.00  0.00    -0.318 A  
HETATM   16  C   UNL     1     -10.826  12.021  63.363  1.00  0.00    -0.471 A  
HETATM   17  C   UNL     1     -10.311  12.997  64.219  1.00  0.00    -0.385 A  
HETATM   18  C   UNL     1     -13.029  12.422  64.253  1.00  0.00    -0.257 A  
HETATM   19  C   UNL     1     -12.507  13.388  65.120  1.00  0.00    -0.509 A  
HETATM   20  C   UNL     1     -12.187  11.736  63.380  1.00  0.00    -0.461 A  
ENDBRANCH   6  15
TORSDOF 2
ENDMDL
MODEL        6
REMARK 921   NORMALIZED FREE ENERGY PREDICTED BY IDOCK:   -5.87 KCAL/MOL
REMARK 922        TOTAL FREE ENERGY PREDICTED BY IDOCK:   -6.83 KCAL/MOL
REMARK 923 INTER-LIGAND FREE ENERGY PREDICTED BY IDOCK:   -6.53 KCAL/MOL
REMARK 924 INTRA-LIGAND FREE ENERGY PREDICTED BY IDOCK:   -0.30 KCAL/MOL
REMARK 927      BINDING AFFINITY PREDICTED BY RF-SCORE:    0.00 PKD
ROOT
HETATM    1  N   UNL     1     -11.851  10.473  68.120  1.00  0.00    -0.774 NA 
HETATM    2  H1  UNL     1     -12.225   9.601  68.496  1.00  0.00     0.000 HD 
HETATM    3  H2  UNL     1     -11.801  10.567  67.105  1.00  0.00     0.000 HD 
HETATM    4  C   UNL     1     -11.436  11.466  68.835  1.00  0.00    -0.298 C  
HETATM    5  N   UNL     1     -10.936  12.634  68.330  1.00  0.00    -0.235 NA 
HETATM    6  N   UNL     1     -11.429  11.483  70.206  1.00  0.00    -0.515 NA 
HETATM    7  H   UNL     1     -10.326  13.171  68.945  1.00  0.00     0.000 HD 
HETATM    8  H   UNL     1     -11.276  12.379  70.667  1.00  0.00     0.000 HD 
ENDROOT
BRANCH   5   9
HETATM    9  C   UNL     1     -11.170  13.174  67.055  1.00  0.00    -0.294 A  
HETATM   10  C   UNL     1     -10.213  13.030  66.043  1.00  0.00    -0.292 A  
HETATM   11  C   UNL     1     -10.447  13.537  64.761  1.00  0.00    -0.430 A  
HETATM   12  C   UNL     1     -12.373  13.825  66.748  1.00  0.00    -0.365 A  
HETATM   13  C   UNL     1     -12.604  14.342  65.472  1.00  0.00    -0.429 A  
HETATM   14  C   UNL     1     -11.641  14.198  64.478  1.00  0.00    -0.400 A  
ENDBRANCH   5   9
BRANCH   6  15
HETATM   15  C   UNL     1     -11.616  10.349  71.025  1.00  0.00    -0.295 A  
HETATM   16  C   UNL     1     -10.756   8.343  72.104  1.00  0.00    -0.407 A  
HETATM   17  C   UNL     1     -10.571   9.456  71.281  1.00  0.00    -0.400 A  
HETATM   18  C   UNL     1     -13.060   8.973  72.416  1.00  0.00    -0.487 A  
HETATM   19  C   UNL     1     -12.867  10.096  71.603  1.00  0.00    -0.559 A  
HETATM   20  C   UNL     1     -12.004   8.102  72.670  1.00  0.00    -0.353 A  
ENDBRANCH   6  15
TORSDOF 2
ENDMDL
MODEL        7
REMARK 921   NORMALIZED FREE ENERGY PREDICTED BY IDOCK:   -5.86 KCAL/MOL
REMARK 922        TOTAL FREE ENERGY PREDICTED BY IDOCK:   -6.83 KCAL/MOL
REMARK 923 INTER-LIGAND FREE ENERGY PREDICTED BY IDOCK:   -6.53 KCAL/MOL
REMARK 924 INTRA-LIGAND FREE ENERGY PREDICTED BY IDOCK:   -0.30 KCAL/MOL
REMARK 927      BINDING AFFINITY PREDICTED BY RF-SCORE:    0.00 PKD
ROOT
HETATM    1  N   UNL     1     -10.874  16.550  64.577  1.00  0.00    -1.008 NA 
HETATM    2  H1  UNL     1     -10.599  17.501  64.326  1.00  0.00     0.000 HD 
HETATM    3  H2  UNL     1     -11.406  16.015  63.890  1.00  0.00     0.000 HD 
HETATM    4  C   UNL     1     -10.597  15.976  65.700  1.00  0.00    -0.377 C  
HETATM    5  N   UNL     1     -10.964  14.702  66.036  1.00  0.00    -0.318 NA 
HETATM    6  N   UNL     1      -9.902  16.569  66.723  1.00  0.00    -0.255 NA 
HETATM    7  H   UNL     1     -11.015  14.490  67.032  1.00  0.00     0.000 HD 
HETATM    8  H   UNL     1      -9.563  15.969  67.474  1.00  0.00     0.000 HD 
ENDROOT
BRANCH   5   9
HETATM    9  C   UNL     1     -11.281  13.654  65.156  1.00  0.00    -0.310 A  
HETATM   10  C   UNL     1     -12.617  13.283  64.955  1.00  0.00    -0.483 A  
HETATM   11  C   UNL     1     -12.947  12.261  64.060  1.00  0.00    -0.296 A  
HETATM   12  C   UNL     1     -10.286  12.985  64.429  1.00  0.00    -0.397 A  
HETATM   13  C   UNL     1     -10.613  11.957  63.543  1.00  0.00    -0.507 A  
HETATM   14  C   UNL     1     -11.944  11.594  63.359  1.00  0.00    -0.310 A  
ENDBRANCH   5   9
BRANCH   6  15
HETATM   15  C   UNL     1      -9.622  17.949  66.810  1.00  0.00    -0.305 A  
HETATM   16  C   UNL     1      -8.159  19.850  66.393  1.00  0.00    -0.357 A  
HETATM   17  C   UNL     1      -8.425  18.482  66.319  1.00  0.00    -0.227 A  
HETATM   18  C   UNL     1     -10.277  20.191  67.489  1.00  0.00    -0.520 A  
HETATM   19  C   UNL     1     -10.549  18.821  67.398  1.00  0.00    -0.505 A  
HETATM   20  C   UNL     1      -9.086  20.704  66.981  1.00  0.00    -0.356 A  
ENDBRANCH   6  15
TORSDOF 2
ENDMDL
MODEL        8
REMARK 921   NORMALIZED FREE ENERGY PREDICTED BY IDOCK:   -5.86 KCAL/MOL
REMARK 922        TOTAL FREE ENERGY PREDICTED BY IDOCK:   -6.82 KCAL/MOL
REMARK 923 INTER-LIGAND FREE ENERGY PREDICTED BY IDOCK:   -6.53 KCAL/MOL
REMARK 924 INTRA-LIGAND FREE ENERGY PREDICTED BY IDOCK:   -0.28 KCAL/MOL
REMARK 927      BINDING AFFINITY PREDICTED BY RF-SCORE:    0.00 PKD
ROOT
HETATM    1  N   UNL     1     -11.878  10.411  67.972  1.00  0.00    -0.681 NA 
HETATM    2  H1  UNL     1     -12.240   9.541  68.364  1.00  0.00     0.000 HD 
HETATM    3  H2  UNL     1     -11.813  10.480  66.956  1.00  0.00     0.000 HD 
HETATM    4  C   UNL     1     -11.496  11.430  68.668  1.00  0.00    -0.296 C  
HETATM    5  N   UNL     1     -11.011  12.595  68.142  1.00  0.00    -0.225 NA 
HETATM    6  N   UNL     1     -11.513  11.482  70.038  1.00  0.00    -0.472 NA 
HETATM    7  H   UNL     1     -10.423  13.161  68.753  1.00  0.00     0.000 HD 
HETATM    8  H   UNL     1     -11.387  12.393  70.478  1.00  0.00     0.000 HD 
ENDROOT
BRANCH   5   9
HETATM    9  C   UNL     1     -11.235  13.097  66.849  1.00  0.00    -0.296 A  
HETATM   10  C   UNL     1     -10.313  12.841  65.826  1.00  0.00    -0.297 A  
HETATM   11  C   UNL     1     -10.539  13.311  64.528  1.00  0.00    -0.437 A  
HETATM   12  C   UNL     1     -12.393  13.823  66.538  1.00  0.00    -0.432 A  
HETATM   13  C   UNL     1     -12.615  14.301  65.246  1.00  0.00    -0.405 A  
HETATM   14  C   UNL     1     -11.688  14.046  64.240  1.00  0.00    -0.388 A  
ENDBRANCH   5   9
BRANCH   6  15
HETATM   15  C   UNL     1     -11.691  10.366  70.883  1.00  0.00    -0.360 A  
HETATM   16  C   UNL     1     -13.104   8.982  72.303  1.00  0.00    -0.508 A  
HETATM   17  C   UNL     1     -12.927  10.096  71.480  1.00  0.00    -0.547 A  
HETATM   18  C   UNL     1     -10.791   8.391  71.981  1.00  0.00    -0.390 A  
HETATM   19  C   UNL     1     -10.621   9.499  71.143  1.00  0.00    -0.388 A  
HETATM   20  C   UNL     1     -12.033   8.131  72.555  1.00  0.00    -0.410 A  
ENDBRANCH   6  15
TORSDOF 2
ENDMDL
MODEL        9
REMARK 921   NORMALIZED FREE ENERGY PREDICTED BY IDOCK:   -5.85 KCAL/MOL
REMARK 922        TOTAL FREE ENERGY PREDICTED BY IDOCK:   -6.81 KCAL/MOL
REMARK 923 INTER-LIGAND FREE ENERGY PREDICTED BY IDOCK:   -6.66 KCAL/MOL
REMARK 924 INTRA-LIGAND FREE ENERGY PREDICTED BY IDOCK:   -0.15 KCAL/MOL
REMARK 927      BINDING AFFINITY PREDICTED BY RF-SCORE:    0.00 PKD
ROOT
HETATM    1  N   UNL     1     -10.796  16.948  70.200  1.00  0.00    -0.285 NA 
HETATM    2  H1  UNL     1     -10.302  17.841  70.172  1.00  0.00     0.000 HD 
HETATM    3  H2  UNL     1     -10.937  16.514  71.113  1.00  0.00     0.000 HD 
HETATM    4  C   UNL     1     -11.254  16.328  69.164  1.00  0.00    -0.309 C  
HETATM    5  N   UNL     1     -11.916  15.131  69.201  1.00  0.00    -0.468 NA 
HETATM    6  N   UNL     1     -11.131  16.777  67.874  1.00  0.00    -0.253 NA 
HETATM    7  H   UNL     1     -11.907  14.579  68.344  1.00  0.00     0.000 HD 
HETATM    8  H   UNL     1     -11.698  16.324  67.159  1.00  0.00     0.000 HD 
ENDROOT
BRANCH   5   9
HETATM    9  C   UNL     1     -12.606  14.581  70.293  1.00  0.00    -0.323 A  
HETATM   10  C   UNL     1     -13.583  15.332  70.960  1.00  0.00    -0.486 A  
HETATM   11  C   UNL     1     -14.298  14.785  72.030  1.00  0.00    -0.642 A  
HETATM   12  C   UNL     1     -12.373  13.264  70.716  1.00  0.00    -0.425 A  
HETATM   13  C   UNL     1     -13.079  12.720  71.791  1.00  0.00    -0.455 A  
HETATM   14  C   UNL     1     -14.041  13.481  72.448  1.00  0.00    -0.563 A  
ENDBRANCH   5   9
BRANCH   6  15
HETATM   15  C   UNL     1     -10.275  17.822  67.466  1.00  0.00    -0.356 A  
HETATM   16  C   UNL     1      -8.079  18.627  66.787  1.00  0.00    -0.275 A  
HETATM   17  C   UNL     1      -8.920  17.593  67.206  1.00  0.00    -0.242 A  
HETATM   18  C   UNL     1      -9.930  20.164  66.908  1.00  0.00    -0.600 A  
HETATM   19  C   UNL     1     -10.773  19.123  67.312  1.00  0.00    -0.585 A  
HETATM   20  C   UNL     1      -8.586  19.914  66.641  1.00  0.00    -0.390 A  
ENDBRANCH   6  15
TORSDOF 2
ENDMDL
MODEL       10
REMARK 921   NORMALIZED FREE ENERGY PREDICTED BY IDOCK:   -5.81 KCAL/MOL
REMARK 922        TOTAL FREE ENERGY PREDICTED BY IDOCK:   -6.77 KCAL/MOL
REMARK 923 INTER-LIGAND FREE ENERGY PREDICTED BY IDOCK:   -6.47 KCAL/MOL
REMARK 924 INTRA-LIGAND FREE ENERGY PREDICTED BY IDOCK:   -0.30 KCAL/MOL
REMARK 927      BINDING AFFINITY PREDICTED BY RF-SCORE:    0.00 PKD
ROOT
HETATM    1  N   UNL     1     -11.036  16.619  64.523  1.00  0.00    -1.105 NA 
HETATM    2  H1  UNL     1     -10.785  17.582  64.299  1.00  0.00     0.000 HD 
HETATM    3  H2  UNL     1     -11.590  16.102  63.839  1.00  0.00     0.000 HD 
HETATM    4  C   UNL     1     -10.703  16.006  65.611  1.00  0.00    -0.329 C  
HETATM    5  N   UNL     1     -11.039  14.714  65.911  1.00  0.00    -0.332 NA 
HETATM    6  N   UNL     1      -9.974  16.569  66.626  1.00  0.00    -0.263 NA 
HETATM    7  H   UNL     1     -11.044  14.463  66.899  1.00  0.00     0.000 HD 
HETATM    8  H   UNL     1      -9.595  15.946  67.338  1.00  0.00     0.000 HD 
ENDROOT
BRANCH   5   9
HETATM    9  C   UNL     1     -11.378  13.696  65.005  1.00  0.00    -0.329 A  
HETATM   10  C   UNL     1     -10.381  13.068  64.247  1.00  0.00    -0.385 A  
HETATM   11  C   UNL     1     -10.702  12.033  63.363  1.00  0.00    -0.475 A  
HETATM   12  C   UNL     1     -12.700  13.252  64.867  1.00  0.00    -0.391 A  
HETATM   13  C   UNL     1     -13.024  12.226  63.977  1.00  0.00    -0.296 A  
HETATM   14  C   UNL     1     -12.025  11.616  63.225  1.00  0.00    -0.235 A  
ENDBRANCH   5   9
BRANCH   6  15
HETATM   15  C   UNL     1      -9.710  17.949  66.756  1.00  0.00    -0.314 A  
HETATM   16  C   UNL     1     -10.389  20.186  67.437  1.00  0.00    -0.488 A  
HETATM   17  C   UNL     1     -10.659  18.823  67.296  1.00  0.00    -0.504 A  
HETATM   18  C   UNL     1      -8.212  19.843  66.465  1.00  0.00    -0.364 A  
HETATM   19  C   UNL     1      -8.479  18.475  66.340  1.00  0.00    -0.275 A  
HETATM   20  C   UNL     1      -9.164  20.695  67.019  1.00  0.00    -0.390 A  
ENDBRANCH   6  15
TORSDOF 2
ENDMDL
MODEL       11
REMARK 921   NORMALIZED FREE ENERGY PREDICTED BY IDOCK:   -5.79 KCAL/MOL
REMARK 922        TOTAL FREE ENERGY PREDICTED BY IDOCK:   -6.75 KCAL/MOL
REMARK 923 INTER-LIGAND FREE ENERGY PREDICTED BY IDOCK:   -6.46 KCAL/MOL
REMARK 924 INTRA-LIGAND FREE ENERGY PREDICTED BY IDOCK:   -0.29 KCAL/MOL
REMARK 927      BINDING AFFINITY PREDICTED BY RF-SCORE:    0.00 PKD
ROOT
HETATM    1  N   UNL     1     -11.894  10.529  67.970  1.00  0.00    -0.740 NA 
HETATM    2  H1  UNL     1     -12.282   9.667  68.352  1.00  0.00     0.000 HD 
HETATM    3  H2  UNL     1     -11.833  10.612  66.955  1.00  0.00     0.000 HD 
HETATM    4  C   UNL     1     -11.474  11.524  68.679  1.00  0.00    -0.293 C  
HETATM    5  N   UNL     1     -10.954  12.681  68.167  1.00  0.00    -0.225 NA 
HETATM    6  N   UNL     1     -11.480  11.556  70.050  1.00  0.00    -0.472 NA 
HETATM    7  H   UNL     1     -10.344  13.218  68.783  1.00  0.00     0.000 HD 
HETATM    8  H   UNL     1     -11.321  12.455  70.503  1.00  0.00     0.000 HD 
ENDROOT
BRANCH   5   9
HETATM    9  C   UNL     1     -11.169  13.210  66.884  1.00  0.00    -0.296 A  
HETATM   10  C   UNL     1     -12.405  13.783  66.557  1.00  0.00    -0.432 A  
HETATM   11  C   UNL     1     -12.622  14.339  65.293  1.00  0.00    -0.405 A  
HETATM   12  C   UNL     1     -10.152  13.221  65.918  1.00  0.00    -0.296 A  
HETATM   13  C   UNL     1     -10.371  13.766  64.652  1.00  0.00    -0.393 A  
HETATM   14  C   UNL     1     -11.606  14.325  64.339  1.00  0.00    -0.358 A  
ENDBRANCH   5   9
BRANCH   6  15
HETATM   15  C   UNL     1     -11.690  10.434  70.879  1.00  0.00    -0.360 A  
HETATM   16  C   UNL     1     -10.848   8.472  72.050  1.00  0.00    -0.405 A  
HETATM   17  C   UNL     1     -10.640   9.573  71.217  1.00  0.00    -0.358 A  
HETATM   18  C   UNL     1     -13.183   9.046  72.205  1.00  0.00    -0.519 A  
HETATM   19  C   UNL     1     -12.968  10.158  71.383  1.00  0.00    -0.528 A  
HETATM   20  C   UNL     1     -12.123   8.208  72.542  1.00  0.00    -0.377 A  
ENDBRANCH   6  15
TORSDOF 2
ENDMDL
MODEL       12
REMARK 921   NORMALIZED FREE ENERGY PREDICTED BY IDOCK:   -5.75 KCAL/MOL
REMARK 922        TOTAL FREE ENERGY PREDICTED BY IDOCK:   -6.70 KCAL/MOL
REMARK 923 INTER-LIGAND FREE ENERGY PREDICTED BY IDOCK:   -6.40 KCAL/MOL
REMARK 924 INTRA-LIGAND FREE ENERGY PREDICTED BY IDOCK:   -0.29 KCAL/MOL
REMARK 927      BINDING AFFINITY PREDICTED BY RF-SCORE:    0.00 PKD
ROOT
HETATM    1  N   UNL     1     -12.013  10.559  68.018  1.00  0.00    -0.667 NA 
HETATM    2  H1  UNL     1     -12.032  10.586  66.998  1.00  0.00     0.000 HD 
HETATM    3  H2  UNL     1     -12.367   9.719  68.476  1.00  0.00     0.000 HD 
HETATM    4  C   UNL     1     -11.573  11.512  68.771  1.00  0.00    -0.316 C  
HETATM    5  N   UNL     1     -11.547  11.476  70.138  1.00  0.00    -0.468 NA 
HETATM    6  N   UNL     1     -11.079  12.703  68.304  1.00  0.00    -0.244 NA 
HETATM    7  H   UNL     1     -11.528  12.376  70.617  1.00  0.00     0.000 HD 
HETATM    8  H   UNL     1     -10.575  13.296  68.962  1.00  0.00     0.000 HD 
ENDROOT
BRANCH   5   9
HETATM    9  C   UNL     1     -11.545  10.334  70.954  1.00  0.00    -0.365 A  
HETATM   10  C   UNL     1     -12.702   9.965  71.652  1.00  0.00    -0.527 A  
HETATM   11  C   UNL     1     -12.721   8.813  72.445  1.00  0.00    -0.433 A  
HETATM   12  C   UNL     1     -10.412   9.514  71.059  1.00  0.00    -0.377 A  
HETATM   13  C   UNL     1     -10.426   8.369  71.859  1.00  0.00    -0.366 A  
HETATM   14  C   UNL     1     -11.581   8.019  72.552  1.00  0.00    -0.464 A  
ENDBRANCH   5   9
BRANCH   6  15
HETATM   15  C   UNL     1     -11.219  13.167  66.979  1.00  0.00    -0.294 A  
HETATM   16  C   UNL     1     -10.346  13.443  64.723  1.00  0.00    -0.397 A  
HETATM   17  C   UNL     1     -10.198  12.996  66.038  1.00  0.00    -0.292 A  
HETATM   18  C   UNL     1     -12.539  14.279  65.266  1.00  0.00    -0.405 A  
HETATM   19  C   UNL     1     -12.395  13.815  66.579  1.00  0.00    -0.432 A  
HETATM   20  C   UNL     1     -11.518  14.087  64.339  1.00  0.00    -0.357 A  
ENDBRANCH   6  15
TORSDOF 2
ENDMDL
MODEL       13
REMARK 921   NORMALIZED FREE ENERGY PREDICTED BY IDOCK:   -5.72 KCAL/MOL
REMARK 922        TOTAL FREE ENERGY PREDICTED BY IDOCK:   -6.67 KCAL/MOL
REMARK 923 INTER-LIGAND FREE ENERGY PREDICTED BY IDOCK:   -6.40 KCAL/MOL
REMARK 924 INTRA-LIGAND FREE ENERGY PREDICTED BY IDOCK:   -0.27 KCAL/MOL
REMARK 927      BINDING AFFINITY PREDICTED BY RF-SCORE:    0.00 PKD
ROOT
HETATM    1  N   UNL     1      -9.049  15.366  65.960  1.00  0.00    -0.421 NA 
HETATM    2  H1  UNL     1      -8.595  14.650  65.392  1.00  0.00     0.000 HD 
HETATM    3  H2  UNL     1      -8.478  16.148  66.281  1.00  0.00     0.000 HD 
HETATM    4  C   UNL     1     -10.295  15.354  66.302  1.00  0.00    -0.294 C  
HETATM    5  N   UNL     1     -10.903  16.314  67.063  1.00  0.00    -0.236 NA 
HETATM    6  N   UNL     1     -11.183  14.367  65.959  1.00  0.00    -0.327 NA 
HETATM    7  H   UNL     1     -11.749  16.034  67.559  1.00  0.00     0.000 HD 
HETATM    8  H   UNL     1     -12.175  14.552  66.104  1.00  0.00     0.000 HD 
ENDROOT
BRANCH   5   9
HETATM    9  C   UNL     1     -10.488  17.644  67.236  1.00  0.00    -0.338 A  
HETATM   10  C   UNL     1     -10.529  18.540  66.160  1.00  0.00    -0.447 A  
HETATM   11  C   UNL     1     -10.146  19.874  66.326  1.00  0.00    -0.613 A  
HETATM   12  C   UNL     1     -10.069  18.122  68.486  1.00  0.00    -0.413 A  
HETATM   13  C   UNL     1      -9.677  19.451  68.652  1.00  0.00    -0.504 A  
HETATM   14  C   UNL     1      -9.715  20.328  67.572  1.00  0.00    -0.575 A  
ENDBRANCH   5   9
BRANCH   6  15
HETATM   15  C   UNL     1     -10.823  13.113  65.422  1.00  0.00    -0.282 A  
HETATM   16  C   UNL     1     -10.460  11.646  63.512  1.00  0.00    -0.498 A  
HETATM   17  C   UNL     1     -10.831  12.884  64.042  1.00  0.00    -0.443 A  
HETATM   18  C   UNL     1     -10.090  10.816  65.744  1.00  0.00    -0.320 A  
HETATM   19  C   UNL     1     -10.447  12.063  66.270  1.00  0.00    -0.273 A  
HETATM   20  C   UNL     1     -10.091  10.612  64.366  1.00  0.00    -0.418 A  
ENDBRANCH   6  15
TORSDOF 2
ENDMDL
MODEL       14
REMARK 921   NORMALIZED FREE ENERGY PREDICTED BY IDOCK:   -5.72 KCAL/MOL
REMARK 922        TOTAL FREE ENERGY PREDICTED BY IDOCK:   -6.67 KCAL/MOL
REMARK 923 INTER-LIGAND FREE ENERGY PREDICTED BY IDOCK:   -6.59 KCAL/MOL
REMARK 924 INTRA-LIGAND FREE ENERGY PREDICTED BY IDOCK:   -0.08 KCAL/MOL
REMARK 927      BINDING AFFINITY PREDICTED BY RF-SCORE:    0.00 PKD
ROOT
HETATM    1  N   UNL     1     -12.036  10.930  67.968  1.00  0.00    -0.777 NA 
HETATM    2  H1  UNL     1     -11.962  11.038  66.956  1.00  0.00     0.000 HD 
HETATM    3  H2  UNL     1     -12.412  10.051  68.324  1.00  0.00     0.000 HD 
HETATM    4  C   UNL     1     -11.686  11.826  68.831  1.00  0.00    -0.323 C  
HETATM    5  N   UNL     1     -11.785  11.680  70.188  1.00  0.00    -0.458 NA 
HETATM    6  N   UNL     1     -11.178  13.057  68.507  1.00  0.00    -0.256 NA 
HETATM    7  H   UNL     1     -11.828  12.539  70.736  1.00  0.00     0.000 HD 
HETATM    8  H   UNL     1     -10.748  13.602  69.254  1.00  0.00     0.000 HD 
ENDROOT
BRANCH   5   9
HETATM    9  C   UNL     1     -11.832  10.476  70.908  1.00  0.00    -0.355 A  
HETATM   10  C   UNL     1     -10.676   9.699  71.056  1.00  0.00    -0.393 A  
HETATM   11  C   UNL     1     -10.703   8.512  71.796  1.00  0.00    -0.373 A  
HETATM   12  C   UNL     1     -13.011  10.042  71.530  1.00  0.00    -0.535 A  
HETATM   13  C   UNL     1     -13.043   8.853  72.260  1.00  0.00    -0.491 A  
HETATM   14  C   UNL     1     -11.889   8.087  72.393  1.00  0.00    -0.429 A  
ENDBRANCH   5   9
BRANCH   6  15
HETATM   15  C   UNL     1     -11.206  13.624  67.216  1.00  0.00    -0.309 A  
HETATM   16  C   UNL     1     -12.429  14.320  65.229  1.00  0.00    -0.428 A  
HETATM   17  C   UNL     1     -12.402  13.745  66.501  1.00  0.00    -0.432 A  
HETATM   18  C   UNL     1     -10.044  14.643  65.338  1.00  0.00    -0.403 A  
HETATM   19  C   UNL     1     -10.023  14.081  66.619  1.00  0.00    -0.280 A  
HETATM   20  C   UNL     1     -11.247  14.768  64.647  1.00  0.00    -0.350 A  
ENDBRANCH   6  15
TORSDOF 2
ENDMDL
MODEL       15
REMARK 921   NORMALIZED FREE ENERGY PREDICTED BY IDOCK:   -5.67 KCAL/MOL
REMARK 922        TOTAL FREE ENERGY PREDICTED BY IDOCK:   -6.61 KCAL/MOL
REMARK 923 INTER-LIGAND FREE ENERGY PREDICTED BY IDOCK:   -6.36 KCAL/MOL
REMARK 924 INTRA-LIGAND FREE ENERGY PREDICTED BY IDOCK:   -0.25 KCAL/MOL
REMARK 927      BINDING AFFINITY PREDICTED BY RF-SCORE:    0.00 PKD
ROOT
HETATM    1  N   UNL     1      -9.046  15.417  65.833  1.00  0.00    -0.430 NA 
HETATM    2  H1  UNL     1      -8.616  14.721  65.223  1.00  0.00     0.000 HD 
HETATM    3  H2  UNL     1      -8.481  16.222  66.105  1.00  0.00     0.000 HD 
HETATM    4  C   UNL     1     -10.255  15.353  66.285  1.00  0.00    -0.290 C  
HETATM    5  N   UNL     1     -10.831  16.286  67.102  1.00  0.00    -0.248 NA 
HETATM    6  N   UNL     1     -11.128  14.330  66.018  1.00  0.00    -0.314 NA 
HETATM    7  H   UNL     1     -11.617  15.970  67.670  1.00  0.00     0.000 HD 
HETATM    8  H   UNL     1     -12.110  14.475  66.251  1.00  0.00     0.000 HD 
ENDROOT
BRANCH   5   9
HETATM    9  C   UNL     1     -10.458  17.632  67.244  1.00  0.00    -0.338 A  
HETATM   10  C   UNL     1      -9.967  18.101  68.470  1.00  0.00    -0.408 A  
HETATM   11  C   UNL     1      -9.565  19.432  68.615  1.00  0.00    -0.490 A  
HETATM   12  C   UNL     1     -10.523  18.526  66.165  1.00  0.00    -0.447 A  
HETATM   13  C   UNL     1     -10.131  19.858  66.312  1.00  0.00    -0.613 A  
HETATM   14  C   UNL     1      -9.652  20.311  67.537  1.00  0.00    -0.562 A  
ENDBRANCH   5   9
BRANCH   6  15
HETATM   15  C   UNL     1     -10.767  13.093  65.444  1.00  0.00    -0.294 A  
HETATM   16  C   UNL     1     -10.494  11.653  63.500  1.00  0.00    -0.498 A  
HETATM   17  C   UNL     1     -10.867  12.874  64.066  1.00  0.00    -0.443 A  
HETATM   18  C   UNL     1      -9.937  10.821  65.691  1.00  0.00    -0.317 A  
HETATM   19  C   UNL     1     -10.296  12.051  66.254  1.00  0.00    -0.253 A  
HETATM   20  C   UNL     1     -10.030  10.625  64.315  1.00  0.00    -0.413 A  
ENDBRANCH   6  15
TORSDOF 2
ENDMDL
MODEL       16
REMARK 921   NORMALIZED FREE ENERGY PREDICTED BY IDOCK:   -5.62 KCAL/MOL
REMARK 922        TOTAL FREE ENERGY PREDICTED BY IDOCK:   -6.55 KCAL/MOL
REMARK 923 INTER-LIGAND FREE ENERGY PREDICTED BY IDOCK:   -6.27 KCAL/MOL
REMARK 924 INTRA-LIGAND FREE ENERGY PREDICTED BY IDOCK:   -0.29 KCAL/MOL
REMARK 927      BINDING AFFINITY PREDICTED BY RF-SCORE:    0.00 PKD
ROOT
HETATM    1  N   UNL     1     -11.899  10.365  68.012  1.00  0.00    -0.681 NA 
HETATM    2  H1  UNL     1     -11.942  10.359  66.993  1.00  0.00     0.000 HD 
HETATM    3  H2  UNL     1     -12.256   9.546  68.505  1.00  0.00     0.000 HD 
HETATM    4  C   UNL     1     -11.425  11.334  68.723  1.00  0.00    -0.293 C  
HETATM    5  N   UNL     1     -11.367  11.341  70.089  1.00  0.00    -0.480 NA 
HETATM    6  N   UNL     1     -10.923  12.500  68.206  1.00  0.00    -0.227 NA 
HETATM    7  H   UNL     1     -11.321  12.256  70.538  1.00  0.00     0.000 HD 
HETATM    8  H   UNL     1     -10.393  13.105  68.832  1.00  0.00     0.000 HD 
ENDROOT
BRANCH   5   9
HETATM    9  C   UNL     1     -11.364  10.226  70.942  1.00  0.00    -0.295 A  
HETATM   10  C   UNL     1     -12.535   9.850  71.613  1.00  0.00    -0.507 A  
HETATM   11  C   UNL     1     -12.552   8.724  72.442  1.00  0.00    -0.430 A  
HETATM   12  C   UNL     1     -10.216   9.438  71.111  1.00  0.00    -0.361 A  
HETATM   13  C   UNL     1     -10.229   8.320  71.946  1.00  0.00    -0.314 A  
HETATM   14  C   UNL     1     -11.397   7.962  72.612  1.00  0.00    -0.468 A  
ENDBRANCH   5   9
BRANCH   6  15
HETATM   15  C   UNL     1     -11.086  12.924  66.870  1.00  0.00    -0.278 A  
HETATM   16  C   UNL     1     -12.321  14.152  65.168  1.00  0.00    -0.460 A  
HETATM   17  C   UNL     1     -12.170  13.722  66.488  1.00  0.00    -0.475 A  
HETATM   18  C   UNL     1     -10.314  12.964  64.565  1.00  0.00    -0.380 A  
HETATM   19  C   UNL     1     -10.157  12.548  65.892  1.00  0.00    -0.270 A  
HETATM   20  C   UNL     1     -11.392  13.770  64.206  1.00  0.00    -0.344 A  
ENDBRANCH   6  15
TORSDOF 2
ENDMDL
MODEL       17
REMARK 921   NORMALIZED FREE ENERGY PREDICTED BY IDOCK:   -5.60 KCAL/MOL
REMARK 922        TOTAL FREE ENERGY PREDICTED BY IDOCK:   -6.53 KCAL/MOL
REMARK 923 INTER-LIGAND FREE ENERGY PREDICTED BY IDOCK:   -6.23 KCAL/MOL
REMARK 924 INTRA-LIGAND FREE ENERGY PREDICTED BY IDOCK:   -0.29 KCAL/MOL
REMARK 927      BINDING AFFINITY PREDICTED BY RF-SCORE:    0.00 PKD
ROOT
HETATM    1  N   UNL     1     -11.386   9.634  67.764  1.00  0.00    -0.439 NA 
HETATM    2  H1  UNL     1     -11.693   8.838  68.323  1.00  0.00     0.000 HD 
HETATM    3  H2  UNL     1     -11.411   9.536  66.748  1.00  0.00     0.000 HD 
HETATM    4  C   UNL     1     -10.967  10.756  68.248  1.00  0.00    -0.255 C  
HETATM    5  N   UNL     1     -10.555  11.823  67.498  1.00  0.00    -0.208 NA 
HETATM    6  N   UNL     1     -10.864  11.032  69.587  1.00  0.00    -0.401 NA 
HETATM    7  H   UNL     1      -9.928  12.485  67.954  1.00  0.00     0.000 HD 
HETATM    8  H   UNL     1     -10.720  12.004  69.860  1.00  0.00     0.000 HD 
ENDROOT
BRANCH   5   9
HETATM    9  C   UNL     1     -10.902  12.105  66.166  1.00  0.00    -0.282 A  
HETATM   10  C   UNL     1     -12.030  12.886  65.883  1.00  0.00    -0.504 A  
HETATM   11  C   UNL     1     -12.369  13.198  64.563  1.00  0.00    -0.447 A  
HETATM   12  C   UNL     1     -10.115  11.656  65.096  1.00  0.00    -0.304 A  
HETATM   13  C   UNL     1     -10.458  11.958  63.777  1.00  0.00    -0.468 A  
HETATM   14  C   UNL     1     -11.585  12.729  63.510  1.00  0.00    -0.565 A  
ENDBRANCH   5   9
BRANCH   6  15
HETATM   15  C   UNL     1     -10.944  10.069  70.615  1.00  0.00    -0.322 A  
HETATM   16  C   UNL     1      -9.901   8.387  72.034  1.00  0.00    -0.354 A  
HETATM   17  C   UNL     1      -9.823   9.329  71.006  1.00  0.00    -0.355 A  
HETATM   18  C   UNL     1     -12.247   8.877  72.287  1.00  0.00    -0.413 A  
HETATM   19  C   UNL     1     -12.161   9.832  71.268  1.00  0.00    -0.470 A  
HETATM   20  C   UNL     1     -11.116   8.160  72.673  1.00  0.00    -0.450 A  
ENDBRANCH   6  15
TORSDOF 2
ENDMDL
MODEL       18
REMARK 921   NORMALIZED FREE ENERGY PREDICTED BY IDOCK:   -5.53 KCAL/MOL
REMARK 922        TOTAL FREE ENERGY PREDICTED BY IDOCK:   -6.45 KCAL/MOL
REMARK 923 INTER-LIGAND FREE ENERGY PREDICTED BY IDOCK:   -6.26 KCAL/MOL
REMARK 924 INTRA-LIGAND FREE ENERGY PREDICTED BY IDOCK:   -0.20 KCAL/MOL
REMARK 927      BINDING AFFINITY PREDICTED BY RF-SCORE:    0.00 PKD
ROOT
HETATM    1  N   UNL     1     -10.150  16.047  69.808  1.00  0.00    -0.250 NA 
HETATM    2  H1  UNL     1      -9.359  16.691  69.800  1.00  0.00     0.000 HD 
HETATM    3  H2  UNL     1     -10.137  15.290  70.491  1.00  0.00     0.000 HD 
HETATM    4  C   UNL     1     -11.167  16.121  69.015  1.00  0.00    -0.347 C  
HETATM    5  N   UNL     1     -12.228  15.257  69.026  1.00  0.00    -0.594 NA 
HETATM    6  N   UNL     1     -11.322  17.072  68.039  1.00  0.00    -0.016 NA 
HETATM    7  H   UNL     1     -12.766  15.187  68.163  1.00  0.00     0.000 HD 
HETATM    8  H   UNL     1     -12.242  17.165  67.611  1.00  0.00     0.000 HD 
ENDROOT
BRANCH   5   9
HETATM    9  C   UNL     1     -12.656  14.457  70.097  1.00  0.00    -0.286 A  
HETATM   10  C   UNL     1     -12.243  13.121  70.186  1.00  0.00    -0.360 A  
HETATM   11  C   UNL     1     -12.639  12.321  71.263  1.00  0.00    -0.336 A  
HETATM   12  C   UNL     1     -13.461  14.975  71.120  1.00  0.00    -0.503 A  
HETATM   13  C   UNL     1     -13.866  14.176  72.191  1.00  0.00    -0.613 A  
HETATM   14  C   UNL     1     -13.455  12.849  72.262  1.00  0.00    -0.631 A  
ENDBRANCH   5   9
BRANCH   6  15
HETATM   15  C   UNL     1     -10.299  17.931  67.585  1.00  0.00    -0.381 A  
HETATM   16  C   UNL     1      -9.345  20.159  67.351  1.00  0.00    -0.513 A  
HETATM   17  C   UNL     1     -10.367  19.314  67.788  1.00  0.00    -0.531 A  
HETATM   18  C   UNL     1      -8.168  18.256  66.460  1.00  0.00    -0.290 A  
HETATM   19  C   UNL     1      -9.185  17.409  66.914  1.00  0.00    -0.266 A  
HETATM   20  C   UNL     1      -8.246  19.628  66.684  1.00  0.00    -0.342 A  
ENDBRANCH   6  15
TORSDOF 2
ENDMDL
MODEL       19
REMARK 921   NORMALIZED FREE ENERGY PREDICTED BY IDOCK:   -5.52 KCAL/MOL
REMARK 922        TOTAL FREE ENERGY PREDICTED BY IDOCK:   -6.45 KCAL/MOL
REMARK 923 INTER-LIGAND FREE ENERGY PREDICTED BY IDOCK:   -6.19 KCAL/MOL
REMARK 924 INTRA-LIGAND FREE ENERGY PREDICTED BY IDOCK:   -0.26 KCAL/MOL
REMARK 927      BINDING AFFINITY PREDICTED BY RF-SCORE:    0.00 PKD
ROOT
HETATM    1  N   UNL     1      -9.927  15.280  70.005  1.00  0.00    -0.483 NA 
HETATM    2  H1  UNL     1      -9.818  14.436  70.568  1.00  0.00     0.000 HD 
HETATM    3  H2  UNL     1      -9.143  15.931  69.971  1.00  0.00     0.000 HD 
HETATM    4  C   UNL     1     -10.988  15.584  69.333  1.00  0.00    -0.276 C  
HETATM    5  N   UNL     1     -11.135  16.715  68.579  1.00  0.00    -0.339 NA 
HETATM    6  N   UNL     1     -12.124  14.817  69.291  1.00  0.00    -0.489 NA 
HETATM    7  H   UNL     1     -12.091  17.022  68.401  1.00  0.00     0.000 HD 
HETATM    8  H   UNL     1     -12.818  15.040  68.578  1.00  0.00     0.000 HD 
ENDROOT
BRANCH   5   9
HETATM    9  C   UNL     1     -10.112  17.500  68.023  1.00  0.00    -0.332 A  
HETATM   10  C   UNL     1      -9.847  18.777  68.535  1.00  0.00    -0.444 A  
HETATM   11  C   UNL     1      -8.812  19.557  68.010  1.00  0.00    -0.368 A  
HETATM   12  C   UNL     1      -9.306  17.019  66.982  1.00  0.00    -0.249 A  
HETATM   13  C   UNL     1      -8.279  17.800  66.449  1.00  0.00    -0.290 A  
HETATM   14  C   UNL     1      -8.032  19.069  66.963  1.00  0.00    -0.269 A  
ENDBRANCH   5   9
BRANCH   6  15
HETATM   15  C   UNL     1     -12.403  13.743  70.162  1.00  0.00    -0.323 A  
HETATM   16  C   UNL     1     -13.406  12.868  72.201  1.00  0.00    -0.615 A  
HETATM   17  C   UNL     1     -13.120  13.936  71.348  1.00  0.00    -0.413 A  
HETATM   18  C   UNL     1     -12.232  11.381  70.714  1.00  0.00    -0.475 A  
HETATM   19  C   UNL     1     -11.960  12.450  69.853  1.00  0.00    -0.369 A  
HETATM   20  C   UNL     1     -12.959  11.590  71.883  1.00  0.00    -0.453 A  
ENDBRANCH   6  15
TORSDOF 2
ENDMDL
MODEL       20
REMARK 921   NORMALIZED FREE ENERGY PREDICTED BY IDOCK:   -5.50 KCAL/MOL
REMARK 922        TOTAL FREE ENERGY PREDICTED BY IDOCK:   -6.42 KCAL/MOL
REMARK 923 INTER-LIGAND FREE ENERGY PREDICTED BY IDOCK:   -6.33 KCAL/MOL
REMARK 924 INTRA-LIGAND FREE ENERGY PREDICTED BY IDOCK:   -0.09 KCAL/MOL
REMARK 927      BINDING AFFINITY PREDICTED BY RF-SCORE:    0.00 PKD
ROOT
HETATM    1  N   UNL     1     -13.152  10.400  69.902  1.00  0.00    -0.519 NA 
HETATM    2  H1  UNL     1     -13.430   9.435  69.722  1.00  0.00     0.000 HD 
HETATM    3  H2  UNL     1     -13.885  11.109  69.915  1.00  0.00     0.000 HD 
HETATM    4  C   UNL     1     -11.938  10.788  70.117  1.00  0.00    -0.349 C  
HETATM    5  N   UNL     1     -11.566  12.081  70.360  1.00  0.00    -0.496 NA 
HETATM    6  N   UNL     1     -10.848   9.957  70.119  1.00  0.00    -0.281 NA 
HETATM    7  H   UNL     1     -10.596  12.321  70.157  1.00  0.00     0.000 HD 
HETATM    8  H   UNL     1      -9.975  10.323  70.496  1.00  0.00     0.000 HD 
ENDROOT
BRANCH   5   9
HETATM    9  C   UNL     1     -12.375  13.115  70.858  1.00  0.00    -0.307 A  
HETATM   10  C   UNL     1     -12.396  14.362  70.220  1.00  0.00    -0.410 A  
HETATM   11  C   UNL     1     -13.219  15.390  70.689  1.00  0.00    -0.356 A  
HETATM   12  C   UNL     1     -13.209  12.920  71.968  1.00  0.00    -0.549 A  
HETATM   13  C   UNL     1     -14.023  13.948  72.444  1.00  0.00    -0.633 A  
HETATM   14  C   UNL     1     -14.029  15.184  71.805  1.00  0.00    -0.627 A  
ENDBRANCH   5   9
BRANCH   6  15
HETATM   15  C   UNL     1     -10.847   8.631  69.637  1.00  0.00    -0.157 A  
HETATM   16  C   UNL     1     -11.212   6.247  69.977  1.00  0.00    -0.480 A  
HETATM   17  C   UNL     1     -11.199   7.557  70.462  1.00  0.00    -0.287 A  
HETATM   18  C   UNL     1     -10.484   7.050  67.825  1.00  0.00    -0.282 A  
HETATM   19  C   UNL     1     -10.488   8.363  68.309  1.00  0.00    -0.214 A  
HETATM   20  C   UNL     1     -10.851   5.995  68.657  1.00  0.00    -0.379 A  
ENDBRANCH   6  15
TORSDOF 2
ENDMDL
MODEL       21
REMARK 921   NORMALIZED FREE ENERGY PREDICTED BY IDOCK:   -5.45 KCAL/MOL
REMARK 922        TOTAL FREE ENERGY PREDICTED BY IDOCK:   -6.36 KCAL/MOL
REMARK 923 INTER-LIGAND FREE ENERGY PREDICTED BY IDOCK:   -6.49 KCAL/MOL
REMARK 924 INTRA-LIGAND FREE ENERGY PREDICTED BY IDOCK:    0.13 KCAL/MOL
REMARK 927      BINDING AFFINITY PREDICTED BY RF-SCORE:    0.00 PKD
ROOT
HETATM    1  N   UNL     1     -12.618  16.129  69.282  1.00  0.00    -0.319 NA 
HETATM    2  H1  UNL     1     -13.331  15.753  69.907  1.00  0.00     0.000 HD 
HETATM    3  H2  UNL     1     -12.856  16.959  68.738  1.00  0.00     0.000 HD 
HETATM    4  C   UNL     1     -11.436  15.632  69.128  1.00  0.00    -0.359 C  
HETATM    5  N   UNL     1     -10.480  16.137  68.290  1.00  0.00    -0.265 NA 
HETATM    6  N   UNL     1     -10.975  14.515  69.778  1.00  0.00    -0.404 NA 
HETATM    7  H   UNL     1      -9.755  15.489  67.983  1.00  0.00     0.000 HD 
HETATM    8  H   UNL     1      -9.973  14.328  69.743  1.00  0.00     0.000 HD 
ENDROOT
BRANCH   5   9
HETATM    9  C   UNL     1     -10.390  17.452  67.806  1.00  0.00    -0.358 A  
HETATM   10  C   UNL     1     -10.503  17.706  66.433  1.00  0.00    -0.286 A  
HETATM   11  C   UNL     1     -10.444  19.014  65.942  1.00  0.00    -0.468 A  
HETATM   12  C   UNL     1     -10.230  18.541  68.675  1.00  0.00    -0.363 A  
HETATM   13  C   UNL     1     -10.160  19.846  68.185  1.00  0.00    -0.569 A  
HETATM   14  C   UNL     1     -10.267  20.083  66.818  1.00  0.00    -0.592 A  
ENDBRANCH   5   9
BRANCH   6  15
HETATM   15  C   UNL     1     -11.786  13.608  70.491  1.00  0.00    -0.203 A  
HETATM   16  C   UNL     1     -12.582  11.344  70.906  1.00  0.00    -0.453 A  
HETATM   17  C   UNL     1     -11.789  12.242  70.188  1.00  0.00    -0.352 A  
HETATM   18  C   UNL     1     -13.422  13.169  72.237  1.00  0.00    -0.665 A  
HETATM   19  C   UNL     1     -12.613  14.064  71.526  1.00  0.00    -0.432 A  
HETATM   20  C   UNL     1     -13.400  11.810  71.930  1.00  0.00    -0.401 A  
ENDBRANCH   6  15
TORSDOF 2
ENDMDL
MODEL       22
REMARK 921   NORMALIZED FREE ENERGY PREDICTED BY IDOCK:   -5.43 KCAL/MOL
REMARK 922        TOTAL FREE ENERGY PREDICTED BY IDOCK:   -6.34 KCAL/MOL
REMARK 923 INTER-LIGAND FREE ENERGY PREDICTED BY IDOCK:   -6.12 KCAL/MOL
REMARK 924 INTRA-LIGAND FREE ENERGY PREDICTED BY IDOCK:   -0.22 KCAL/MOL
REMARK 927      BINDING AFFINITY PREDICTED BY RF-SCORE:    0.00 PKD
ROOT
HETATM    1  N   UNL     1     -10.478   9.203  71.565  1.00  0.00    -0.341 NA 
HETATM    2  H1  UNL     1     -10.290  10.150  71.897  1.00  0.00     0.000 HD 
HETATM    3  H2  UNL     1      -9.741   8.507  71.679  1.00  0.00     0.000 HD 
HETATM    4  C   UNL     1     -11.582   8.823  71.012  1.00  0.00    -0.288 C  
HETATM    5  N   UNL     1     -11.834   7.555  70.568  1.00  0.00    -0.494 NA 
HETATM    6  N   UNL     1     -12.655   9.645  70.780  1.00  0.00    -0.495 NA 
HETATM    7  H   UNL     1     -12.552   7.458  69.851  1.00  0.00     0.000 HD 
HETATM    8  H   UNL     1     -13.540   9.206  70.529  1.00  0.00     0.000 HD 
ENDROOT
BRANCH   5   9
HETATM    9  C   UNL     1     -11.210   6.370  70.992  1.00  0.00    -0.313 A  
HETATM   10  C   UNL     1     -11.346   5.939  72.318  1.00  0.00    -0.351 A  
HETATM   11  C   UNL     1     -10.754   4.747  72.745  1.00  0.00    -0.282 A  
HETATM   12  C   UNL     1     -10.478   5.571  70.103  1.00  0.00    -0.370 A  
HETATM   13  C   UNL     1      -9.877   4.386  70.530  1.00  0.00    -0.285 A  
HETATM   14  C   UNL     1     -10.015   3.973  71.852  1.00  0.00    -0.246 A  
ENDBRANCH   5   9
BRANCH   6  15
HETATM   15  C   UNL     1     -12.623  11.053  70.863  1.00  0.00    -0.391 A  
HETATM   16  C   UNL     1     -11.995  13.220  69.947  1.00  0.00    -0.400 A  
HETATM   17  C   UNL     1     -12.012  11.826  69.869  1.00  0.00    -0.405 A  
HETATM   18  C   UNL     1     -13.177  13.105  72.043  1.00  0.00    -0.543 A  
HETATM   19  C   UNL     1     -13.207  11.709  71.954  1.00  0.00    -0.475 A  
HETATM   20  C   UNL     1     -12.577  13.859  71.037  1.00  0.00    -0.444 A  
ENDBRANCH   6  15
TORSDOF 2
ENDMDL
MODEL       23
REMARK 921   NORMALIZED FREE ENERGY PREDICTED BY IDOCK:   -5.41 KCAL/MOL
REMARK 922        TOTAL FREE ENERGY PREDICTED BY IDOCK:   -6.32 KCAL/MOL
REMARK 923 INTER-LIGAND FREE ENERGY PREDICTED BY IDOCK:   -6.04 KCAL/MOL
REMARK 924 INTRA-LIGAND FREE ENERGY PREDICTED BY IDOCK:   -0.27 KCAL/MOL
REMARK 927      BINDING AFFINITY PREDICTED BY RF-SCORE:    0.00 PKD
ROOT
HETATM    1  N   UNL     1     -12.183  10.943  68.359  1.00  0.00    -0.810 NA 
HETATM    2  H1  UNL     1     -12.865  10.188  68.445  1.00  0.00     0.000 HD 
HETATM    3  H2  UNL     1     -12.091  11.395  67.449  1.00  0.00     0.000 HD 
HETATM    4  C   UNL     1     -11.429  11.366  69.319  1.00  0.00    -0.303 C  
HETATM    5  N   UNL     1     -10.516  12.378  69.203  1.00  0.00    -0.432 NA 
HETATM    6  N   UNL     1     -11.429  10.851  70.589  1.00  0.00    -0.420 NA 
HETATM    7  H   UNL     1      -9.753  12.382  69.880  1.00  0.00     0.000 HD 
HETATM    8  H   UNL     1     -10.951  11.383  71.316  1.00  0.00     0.000 HD 
ENDROOT
BRANCH   5   9
HETATM    9  C   UNL     1     -10.514  13.411  68.252  1.00  0.00    -0.250 A  
HETATM   10  C   UNL     1     -11.100  14.647  68.555  1.00  0.00    -0.273 A  
HETATM   11  C   UNL     1     -11.078  15.693  67.628  1.00  0.00    -0.305 A  
HETATM   12  C   UNL     1      -9.895  13.254  67.004  1.00  0.00    -0.242 A  
HETATM   13  C   UNL     1      -9.883  14.294  66.073  1.00  0.00    -0.336 A  
HETATM   14  C   UNL     1     -10.474  15.514  66.385  1.00  0.00    -0.310 A  
ENDBRANCH   5   9
BRANCH   6  15
HETATM   15  C   UNL     1     -12.043   9.637  70.965  1.00  0.00    -0.337 A  
HETATM   16  C   UNL     1     -13.925   8.411  71.906  1.00  0.00    -0.483 A  
HETATM   17  C   UNL     1     -13.314   9.616  71.550  1.00  0.00    -0.468 A  
HETATM   18  C   UNL     1     -11.986   7.211  71.127  1.00  0.00    -0.381 A  
HETATM   19  C   UNL     1     -11.383   8.419  70.757  1.00  0.00    -0.290 A  
HETATM   20  C   UNL     1     -13.258   7.209  71.696  1.00  0.00    -0.403 A  
ENDBRANCH   6  15
TORSDOF 2
ENDMDL
MODEL       24
REMARK 921   NORMALIZED FREE ENERGY PREDICTED BY IDOCK:   -5.40 KCAL/MOL
REMARK 922        TOTAL FREE ENERGY PREDICTED BY IDOCK:   -6.31 KCAL/MOL
REMARK 923 INTER-LIGAND FREE ENERGY PREDICTED BY IDOCK:   -6.19 KCAL/MOL
REMARK 924 INTRA-LIGAND FREE ENERGY PREDICTED BY IDOCK:   -0.12 KCAL/MOL
REMARK 927      BINDING AFFINITY PREDICTED BY RF-SCORE:    0.00 PKD
ROOT
HETATM    1  N   UNL     1     -10.631   9.100  71.675  1.00  0.00    -0.362 NA 
HETATM    2  H1  UNL     1      -9.850   8.452  71.778  1.00  0.00     0.000 HD 
HETATM    3  H2  UNL     1     -10.524  10.037  72.064  1.00  0.00     0.000 HD 
HETATM    4  C   UNL     1     -11.746   8.820  71.086  1.00  0.00    -0.291 C  
HETATM    5  N   UNL     1     -12.794   9.688  70.947  1.00  0.00    -0.523 NA 
HETATM    6  N   UNL     1     -12.043   7.603  70.526  1.00  0.00    -0.507 NA 
HETATM    7  H   UNL     1     -13.714   9.273  70.804  1.00  0.00     0.000 HD 
HETATM    8  H   UNL     1     -12.857   7.550  69.915  1.00  0.00     0.000 HD 
ENDROOT
BRANCH   5   9
HETATM    9  C   UNL     1     -12.739  11.091  70.980  1.00  0.00    -0.386 A  
HETATM   10  C   UNL     1     -13.391  11.797  71.999  1.00  0.00    -0.417 A  
HETATM   11  C   UNL     1     -13.320  13.192  72.060  1.00  0.00    -0.587 A  
HETATM   12  C   UNL     1     -12.003  11.816  70.032  1.00  0.00    -0.421 A  
HETATM   13  C   UNL     1     -11.940  13.209  70.085  1.00  0.00    -0.381 A  
HETATM   14  C   UNL     1     -12.599  13.898  71.099  1.00  0.00    -0.446 A  
ENDBRANCH   5   9
BRANCH   6  15
HETATM   15  C   UNL     1     -11.303   6.421  70.735  1.00  0.00    -0.350 A  
HETATM   16  C   UNL     1     -10.465   4.672  72.209  1.00  0.00    -0.238 A  
HETATM   17  C   UNL     1     -11.185   5.852  72.008  1.00  0.00    -0.330 A  
HETATM   18  C   UNL     1      -9.928   4.615  69.861  1.00  0.00    -0.296 A  
HETATM   19  C   UNL     1     -10.664   5.788  69.660  1.00  0.00    -0.416 A  
HETATM   20  C   UNL     1      -9.834   4.056  71.133  1.00  0.00    -0.236 A  
ENDBRANCH   6  15
TORSDOF 2
ENDMDL
MODEL       25
REMARK 921   NORMALIZED FREE ENERGY PREDICTED BY IDOCK:   -5.35 KCAL/MOL
REMARK 922        TOTAL FREE ENERGY PREDICTED BY IDOCK:   -6.25 KCAL/MOL
REMARK 923 INTER-LIGAND FREE ENERGY PREDICTED BY IDOCK:   -6.13 KCAL/MOL
REMARK 924 INTRA-LIGAND FREE ENERGY PREDICTED BY IDOCK:   -0.13 KCAL/MOL
REMARK 927      BINDING AFFINITY PREDICTED BY RF-SCORE:    0.00 PKD
ROOT
HETATM    1  N   UNL     1     -10.730   9.078  71.920  1.00  0.00    -0.355 NA 
HETATM    2  H1  UNL     1      -9.969   8.425  72.106  1.00  0.00     0.000 HD 
HETATM    3  H2  UNL     1     -10.657  10.015  72.316  1.00  0.00     0.000 HD 
HETATM    4  C   UNL     1     -11.780   8.803  71.219  1.00  0.00    -0.298 C  
HETATM    5  N   UNL     1     -12.801   9.678  70.969  1.00  0.00    -0.487 NA 
HETATM    6  N   UNL     1     -12.026   7.587  70.635  1.00  0.00    -0.491 NA 
HETATM    7  H   UNL     1     -13.704   9.269  70.732  1.00  0.00     0.000 HD 
HETATM    8  H   UNL     1     -12.772   7.537  69.942  1.00  0.00     0.000 HD 
ENDROOT
BRANCH   5   9
HETATM    9  C   UNL     1     -12.740  11.081  71.004  1.00  0.00    -0.386 A  
HETATM   10  C   UNL     1     -12.051  11.780  70.004  1.00  0.00    -0.387 A  
HETATM   11  C   UNL     1     -12.007  13.178  70.011  1.00  0.00    -0.391 A  
HETATM   12  C   UNL     1     -13.395  11.816  72.001  1.00  0.00    -0.417 A  
HETATM   13  C   UNL     1     -13.344  13.211  72.016  1.00  0.00    -0.587 A  
HETATM   14  C   UNL     1     -12.650  13.892  71.021  1.00  0.00    -0.444 A  
ENDBRANCH   5   9
BRANCH   6  15
HETATM   15  C   UNL     1     -11.320   6.400  70.923  1.00  0.00    -0.338 A  
HETATM   16  C   UNL     1      -9.909   4.544  70.220  1.00  0.00    -0.299 A  
HETATM   17  C   UNL     1     -10.619   5.711  69.928  1.00  0.00    -0.399 A  
HETATM   18  C   UNL     1     -10.613   4.706  72.518  1.00  0.00    -0.243 A  
HETATM   19  C   UNL     1     -11.310   5.884  72.226  1.00  0.00    -0.351 A  
HETATM   20  C   UNL     1      -9.909   4.041  71.517  1.00  0.00    -0.251 A  
ENDBRANCH   6  15
TORSDOF 2
ENDMDL
MODEL       26
REMARK 921   NORMALIZED FREE ENERGY PREDICTED BY IDOCK:   -5.34 KCAL/MOL
REMARK 922        TOTAL FREE ENERGY PREDICTED BY IDOCK:   -6.24 KCAL/MOL
REMARK 923 INTER-LIGAND FREE ENERGY PREDICTED BY IDOCK:   -6.05 KCAL/MOL
REMARK 924 INTRA-LIGAND FREE ENERGY PREDICTED BY IDOCK:   -0.19 KCAL/MOL
REMARK 927      BINDING AFFINITY PREDICTED BY RF-SCORE:    0.00 PKD
ROOT
HETATM    1  N   UNL     1     -11.786  10.342  67.892  1.00  0.00    -0.680 NA 
HETATM    2  H1  UNL     1     -11.729  10.354  66.874  1.00  0.00     0.000 HD 
HETATM    3  H2  UNL     1     -12.028   9.459  68.342  1.00  0.00     0.000 HD 
HETATM    4  C   UNL     1     -11.573  11.364  68.654  1.00  0.00    -0.320 C  
HETATM    5  N   UNL     1     -11.649  11.347  70.019  1.00  0.00    -0.397 NA 
HETATM    6  N   UNL     1     -11.253  12.617  68.197  1.00  0.00    -0.250 NA 
HETATM    7  H   UNL     1     -11.820  12.243  70.476  1.00  0.00     0.000 HD 
HETATM    8  H   UNL     1     -10.909  13.294  68.877  1.00  0.00     0.000 HD 
ENDROOT
BRANCH   5   9
HETATM    9  C   UNL     1     -11.517  10.230  70.860  1.00  0.00    -0.339 A  
HETATM   10  C   UNL     1     -10.330   9.486  70.860  1.00  0.00    -0.372 A  
HETATM   11  C   UNL     1     -10.176   8.389  71.713  1.00  0.00    -0.323 A  
HETATM   12  C   UNL     1     -12.538   9.858  71.745  1.00  0.00    -0.506 A  
HETATM   13  C   UNL     1     -12.390   8.757  72.590  1.00  0.00    -0.254 A  
HETATM   14  C   UNL     1     -11.208   8.022  72.574  1.00  0.00    -0.452 A  
ENDBRANCH   5   9
BRANCH   6  15
HETATM   15  C   UNL     1     -11.365  13.036  66.855  1.00  0.00    -0.311 A  
HETATM   16  C   UNL     1     -10.450  13.227  64.606  1.00  0.00    -0.420 A  
HETATM   17  C   UNL     1     -10.330  12.824  65.938  1.00  0.00    -0.298 A  
HETATM   18  C   UNL     1     -12.645  14.100  65.081  1.00  0.00    -0.426 A  
HETATM   19  C   UNL     1     -12.528  13.681  66.411  1.00  0.00    -0.377 A  
HETATM   20  C   UNL     1     -11.609  13.868  64.180  1.00  0.00    -0.323 A  
ENDBRANCH   6  15
TORSDOF 2
ENDMDL
MODEL       27
REMARK 921   NORMALIZED FREE ENERGY PREDICTED BY IDOCK:   -5.22 KCAL/MOL
REMARK 922        TOTAL FREE ENERGY PREDICTED BY IDOCK:   -6.11 KCAL/MOL
REMARK 923 INTER-LIGAND FREE ENERGY PREDICTED BY IDOCK:   -5.91 KCAL/MOL
REMARK 924 INTRA-LIGAND FREE ENERGY PREDICTED BY IDOCK:   -0.20 KCAL/MOL
REMARK 927      BINDING AFFINITY PREDICTED BY RF-SCORE:    0.00 PKD
ROOT
HETATM    1  N   UNL     1     -10.038  10.421  70.033  1.00  0.00    -0.436 NA 
HETATM    2  H1  UNL     1      -9.656  11.347  69.839  1.00  0.00     0.000 HD 
HETATM    3  H2  UNL     1      -9.425   9.742  70.486  1.00  0.00     0.000 HD 
HETATM    4  C   UNL     1     -11.240  10.045  69.747  1.00  0.00    -0.258 C  
HETATM    5  N   UNL     1     -11.752   8.804  70.007  1.00  0.00    -0.431 NA 
HETATM    6  N   UNL     1     -12.173  10.838  69.128  1.00  0.00    -0.716 NA 
HETATM    7  H   UNL     1     -12.544   8.509  69.438  1.00  0.00     0.000 HD 
HETATM    8  H   UNL     1     -13.141  10.520  69.133  1.00  0.00     0.000 HD 
ENDROOT
BRANCH   5   9
HETATM    9  C   UNL     1     -11.303   7.890  70.975  1.00  0.00    -0.274 A  
HETATM   10  C   UNL     1     -10.872   6.614  70.592  1.00  0.00    -0.301 A  
HETATM   11  C   UNL     1     -10.396   5.705  71.542  1.00  0.00    -0.279 A  
HETATM   12  C   UNL     1     -11.232   8.239  72.331  1.00  0.00    -0.451 A  
HETATM   13  C   UNL     1     -10.767   7.330  73.283  1.00  0.00    -0.428 A  
HETATM   14  C   UNL     1     -10.349   6.062  72.889  1.00  0.00    -0.219 A  
ENDBRANCH   5   9
BRANCH   6  15
HETATM   15  C   UNL     1     -11.889  12.061  68.486  1.00  0.00    -0.311 A  
HETATM   16  C   UNL     1     -11.222  13.317  66.509  1.00  0.00    -0.329 A  
HETATM   17  C   UNL     1     -11.487  12.103  67.146  1.00  0.00    -0.413 A  
HETATM   18  C   UNL     1     -11.723  14.487  68.554  1.00  0.00    -0.353 A  
HETATM   19  C   UNL     1     -12.004  13.269  69.185  1.00  0.00    -0.343 A  
HETATM   20  C   UNL     1     -11.338  14.509  67.216  1.00  0.00    -0.363 A  
ENDBRANCH   6  15
TORSDOF 2
ENDMDL
MODEL       28
REMARK 921   NORMALIZED FREE ENERGY PREDICTED BY IDOCK:   -5.22 KCAL/MOL
REMARK 922        TOTAL FREE ENERGY PREDICTED BY IDOCK:   -6.11 KCAL/MOL
REMARK 923 INTER-LIGAND FREE ENERGY PREDICTED BY IDOCK:   -5.94 KCAL/MOL
REMARK 924 INTRA-LIGAND FREE ENERGY PREDICTED BY IDOCK:   -0.16 KCAL/MOL
REMARK 927      BINDING AFFINITY PREDICTED BY RF-SCORE:    0.00 PKD
ROOT
HETATM    1  N   UNL     1      -9.427  15.857  65.375  1.00  0.00    -0.323 NA 
HETATM    2  H1  UNL     1      -8.794  16.645  65.513  1.00  0.00     0.000 HD 
HETATM    3  H2  UNL     1      -9.150  15.140  64.704  1.00  0.00     0.000 HD 
HETATM    4  C   UNL     1     -10.553  15.701  65.989  1.00  0.00    -0.328 C  
HETATM    5  N   UNL     1     -11.401  14.644  65.805  1.00  0.00    -0.338 NA 
HETATM    6  N   UNL     1     -11.063  16.583  66.907  1.00  0.00     0.039 NA 
HETATM    7  H   UNL     1     -12.379  14.798  66.048  1.00  0.00     0.000 HD 
HETATM    8  H   UNL     1     -11.848  16.270  67.477  1.00  0.00     0.000 HD 
ENDROOT
BRANCH   5   9
HETATM    9  C   UNL     1     -11.070  13.370  65.317  1.00  0.00    -0.291 A  
HETATM   10  C   UNL     1     -11.337  13.036  63.982  1.00  0.00    -0.458 A  
HETATM   11  C   UNL     1     -10.986  11.781  63.476  1.00  0.00    -0.499 A  
HETATM   12  C   UNL     1     -10.431  12.420  66.127  1.00  0.00    -0.274 A  
HETATM   13  C   UNL     1     -10.090  11.163  65.626  1.00  0.00    -0.304 A  
HETATM   14  C   UNL     1     -10.368  10.843  64.301  1.00  0.00    -0.436 A  
ENDBRANCH   5   9
BRANCH   6  15
HETATM   15  C   UNL     1     -10.581  17.892  67.119  1.00  0.00    -0.307 A  
HETATM   16  C   UNL     1      -9.559  19.572  68.555  1.00  0.00    -0.476 A  
HETATM   17  C   UNL     1     -10.050  18.280  68.353  1.00  0.00    -0.412 A  
HETATM   18  C   UNL     1     -10.151  20.137  66.289  1.00  0.00    -0.552 A  
HETATM   19  C   UNL     1     -10.627  18.837  66.085  1.00  0.00    -0.435 A  
HETATM   20  C   UNL     1      -9.613  20.501  67.521  1.00  0.00    -0.545 A  
ENDBRANCH   6  15
TORSDOF 2
ENDMDL
MODEL       29
REMARK 921   NORMALIZED FREE ENERGY PREDICTED BY IDOCK:   -5.21 KCAL/MOL
REMARK 922        TOTAL FREE ENERGY PREDICTED BY IDOCK:   -6.10 KCAL/MOL
REMARK 923 INTER-LIGAND FREE ENERGY PREDICTED BY IDOCK:   -5.89 KCAL/MOL
REMARK 924 INTRA-LIGAND FREE ENERGY PREDICTED BY IDOCK:   -0.21 KCAL/MOL
REMARK 927      BINDING AFFINITY PREDICTED BY RF-SCORE:    0.00 PKD
ROOT
HETATM    1  N   UNL     1     -10.217  12.044  69.141  1.00  0.00    -0.414 NA 
HETATM    2  H1  UNL     1      -9.717  12.906  68.921  1.00  0.00     0.000 HD 
HETATM    3  H2  UNL     1      -9.797  11.415  69.825  1.00  0.00     0.000 HD 
HETATM    4  C   UNL     1     -11.343  11.691  68.615  1.00  0.00    -0.267 C  
HETATM    5  N   UNL     1     -12.013  10.536  68.911  1.00  0.00    -0.694 NA 
HETATM    6  N   UNL     1     -12.022  12.423  67.675  1.00  0.00    -0.481 NA 
HETATM    7  H   UNL     1     -12.668  10.197  68.207  1.00  0.00     0.000 HD 
HETATM    8  H   UNL     1     -12.988  12.162  67.480  1.00  0.00     0.000 HD 
ENDROOT
BRANCH   5   9
HETATM    9  C   UNL     1     -11.898   9.767  70.080  1.00  0.00    -0.079 A  
HETATM   10  C   UNL     1     -12.750  10.004  71.166  1.00  0.00    -0.484 A  
HETATM   11  C   UNL     1     -12.664   9.226  72.325  1.00  0.00    -0.435 A  
HETATM   12  C   UNL     1     -10.968   8.722  70.178  1.00  0.00    -0.236 A  
HETATM   13  C   UNL     1     -10.873   7.951  71.337  1.00  0.00    -0.259 A  
HETATM   14  C   UNL     1     -11.722   8.203  72.412  1.00  0.00    -0.461 A  
ENDBRANCH   5   9
BRANCH   6  15
HETATM   15  C   UNL     1     -11.481  13.511  66.959  1.00  0.00    -0.340 A  
HETATM   16  C   UNL     1     -10.833  15.855  66.827  1.00  0.00    -0.228 A  
HETATM   17  C   UNL     1     -11.383  14.783  67.533  1.00  0.00    -0.355 A  
HETATM   18  C   UNL     1     -10.490  14.412  64.928  1.00  0.00    -0.448 A  
HETATM   19  C   UNL     1     -11.027  13.336  65.645  1.00  0.00    -0.292 A  
HETATM   20  C   UNL     1     -10.388  15.667  65.522  1.00  0.00    -0.421 A  
ENDBRANCH   6  15
TORSDOF 2
ENDMDL
MODEL       30
REMARK 921   NORMALIZED FREE ENERGY PREDICTED BY IDOCK:   -5.18 KCAL/MOL
REMARK 922        TOTAL FREE ENERGY PREDICTED BY IDOCK:   -6.07 KCAL/MOL
REMARK 923 INTER-LIGAND FREE ENERGY PREDICTED BY IDOCK:   -6.15 KCAL/MOL
REMARK 924 INTRA-LIGAND FREE ENERGY PREDICTED BY IDOCK:    0.08 KCAL/MOL
REMARK 927      BINDING AFFINITY PREDICTED BY RF-SCORE:    0.00 PKD
ROOT
HETATM    1  N   UNL     1     -10.296  12.800  69.117  1.00  0.00    -0.426 NA 
HETATM    2  H1  UNL     1      -9.560  12.648  68.427  1.00  0.00     0.000 HD 
HETATM    3  H2  UNL     1     -10.072  13.376  69.929  1.00  0.00     0.000 HD 
HETATM    4  C   UNL     1     -11.491  12.315  69.037  1.00  0.00    -0.297 C  
HETATM    5  N   UNL     1     -12.477  12.518  69.962  1.00  0.00    -0.047 NA 
HETATM    6  N   UNL     1     -11.936  11.515  68.016  1.00  0.00    -0.627 NA 
HETATM    7  H   UNL     1     -13.225  11.826  69.991  1.00  0.00     0.000 HD 
HETATM    8  H   UNL     1     -12.940  11.357  67.943  1.00  0.00     0.000 HD 
ENDROOT
BRANCH   5   9
HETATM    9  C   UNL     1     -12.572  13.579  70.878  1.00  0.00    -0.337 A  
HETATM   10  C   UNL     1     -13.171  13.377  72.129  1.00  0.00    -0.557 A  
HETATM   11  C   UNL     1     -13.245  14.417  73.060  1.00  0.00    -0.547 A  
HETATM   12  C   UNL     1     -12.039  14.843  70.590  1.00  0.00    -0.366 A  
HETATM   13  C   UNL     1     -12.122  15.885  71.515  1.00  0.00    -0.533 A  
HETATM   14  C   UNL     1     -12.725  15.673  72.751  1.00  0.00    -0.538 A  
ENDBRANCH   5   9
BRANCH   6  15
HETATM   15  C   UNL     1     -11.104  10.896  67.059  1.00  0.00    -0.202 A  
HETATM   16  C   UNL     1      -9.950  10.920  64.915  1.00  0.00    -0.361 A  
HETATM   17  C   UNL     1     -10.786  11.530  65.853  1.00  0.00    -0.325 A  
HETATM   18  C   UNL     1      -9.753   9.000  66.356  1.00  0.00    -0.337 A  
HETATM   19  C   UNL     1     -10.578   9.620  67.302  1.00  0.00    -0.315 A  
HETATM   20  C   UNL     1      -9.436   9.653  65.168  1.00  0.00    -0.332 A  
ENDBRANCH   6  15
TORSDOF 2
ENDMDL
MODEL       31
REMARK 921   NORMALIZED FREE ENERGY PREDICTED BY IDOCK:   -5.16 KCAL/MOL
REMARK 922        TOTAL FREE ENERGY PREDICTED BY IDOCK:   -6.04 KCAL/MOL
REMARK 923 INTER-LIGAND FREE ENERGY PREDICTED BY IDOCK:   -5.73 KCAL/MOL
REMARK 924 INTRA-LIGAND FREE ENERGY PREDICTED BY IDOCK:   -0.30 KCAL/MOL
REMARK 927      BINDING AFFINITY PREDICTED BY RF-SCORE:    0.00 PKD
ROOT
HETATM    1  N   UNL     1     -12.260  11.019  68.252  1.00  0.00    -0.736 NA 
HETATM    2  H1  UNL     1     -12.621  11.436  67.393  1.00  0.00     0.000 HD 
HETATM    3  H2  UNL     1     -12.895  10.436  68.798  1.00  0.00     0.000 HD 
HETATM    4  C   UNL     1     -11.058  11.176  68.697  1.00  0.00    -0.239 C  
HETATM    5  N   UNL     1     -10.574  10.617  69.847  1.00  0.00    -0.433 NA 
HETATM    6  N   UNL     1     -10.097  11.937  68.082  1.00  0.00    -0.192 NA 
HETATM    7  H   UNL     1      -9.773  11.079  70.277  1.00  0.00     0.000 HD 
HETATM    8  H   UNL     1      -9.134  11.831  68.401  1.00  0.00     0.000 HD 
ENDROOT
BRANCH   5   9
HETATM    9  C   UNL     1     -11.061   9.474  70.502  1.00  0.00    -0.283 A  
HETATM   10  C   UNL     1     -11.903   9.605  71.614  1.00  0.00    -0.457 A  
HETATM   11  C   UNL     1     -12.418   8.476  72.257  1.00  0.00    -0.448 A  
HETATM   12  C   UNL     1     -10.760   8.184  70.042  1.00  0.00    -0.243 A  
HETATM   13  C   UNL     1     -11.265   7.055  70.689  1.00  0.00    -0.327 A  
HETATM   14  C   UNL     1     -12.094   7.200  71.797  1.00  0.00    -0.363 A  
ENDBRANCH   5   9
BRANCH   6  15
HETATM   15  C   UNL     1     -10.344  12.857  67.042  1.00  0.00    -0.242 A  
HETATM   16  C   UNL     1     -10.468  13.399  64.671  1.00  0.00    -0.428 A  
HETATM   17  C   UNL     1     -10.207  12.490  65.699  1.00  0.00    -0.287 A  
HETATM   18  C   UNL     1     -10.981  15.088  66.311  1.00  0.00    -0.338 A  
HETATM   19  C   UNL     1     -10.735  14.170  67.338  1.00  0.00    -0.284 A  
HETATM   20  C   UNL     1     -10.853  14.700  64.979  1.00  0.00    -0.431 A  
ENDBRANCH   6  15
TORSDOF 2
ENDMDL
MODEL       32
REMARK 921   NORMALIZED FREE ENERGY PREDICTED BY IDOCK:   -5.16 KCAL/MOL
REMARK 922        TOTAL FREE ENERGY PREDICTED BY IDOCK:   -6.04 KCAL/MOL
REMARK 923 INTER-LIGAND FREE ENERGY PREDICTED BY IDOCK:   -6.01 KCAL/MOL
REMARK 924 INTRA-LIGAND FREE ENERGY PREDICTED BY IDOCK:   -0.03 KCAL/MOL
REMARK 927      BINDING AFFINITY PREDICTED BY RF-SCORE:    0.00 PKD
ROOT
HETATM    1  N   UNL     1      -9.970  11.658  68.950  1.00  0.00    -0.387 NA 
HETATM    2  H1  UNL     1      -9.706  12.565  68.563  1.00  0.00     0.000 HD 
HETATM    3  H2  UNL     1      -9.396  11.280  69.704  1.00  0.00     0.000 HD 
HETATM    4  C   UNL     1     -10.978  10.954  68.553  1.00  0.00    -0.230 C  
HETATM    5  N   UNL     1     -11.332   9.739  69.072  1.00  0.00    -0.464 NA 
HETATM    6  N   UNL     1     -11.831  11.322  67.545  1.00  0.00    -0.604 NA 
HETATM    7  H   UNL     1     -11.889   9.133  68.471  1.00  0.00     0.000 HD 
HETATM    8  H   UNL     1     -12.703  10.802  67.449  1.00  0.00     0.000 HD 
ENDROOT
BRANCH   5   9
HETATM    9  C   UNL     1     -11.011   9.237  70.344  1.00  0.00    -0.255 A  
HETATM   10  C   UNL     1     -12.030   8.868  71.232  1.00  0.00    -0.365 A  
HETATM   11  C   UNL     1     -11.723   8.339  72.489  1.00  0.00    -0.451 A  
HETATM   12  C   UNL     1      -9.679   9.050  70.740  1.00  0.00    -0.306 A  
HETATM   13  C   UNL     1      -9.372   8.531  71.999  1.00  0.00    -0.353 A  
HETATM   14  C   UNL     1     -10.393   8.176  72.875  1.00  0.00    -0.333 A  
ENDBRANCH   5   9
BRANCH   6  15
HETATM   15  C   UNL     1     -11.591  12.369  66.630  1.00  0.00    -0.385 A  
HETATM   16  C   UNL     1     -10.646  13.188  64.540  1.00  0.00    -0.425 A  
HETATM   17  C   UNL     1     -10.870  12.153  65.451  1.00  0.00    -0.335 A  
HETATM   18  C   UNL     1     -11.838  14.702  65.987  1.00  0.00    -0.280 A  
HETATM   19  C   UNL     1     -12.074  13.658  66.890  1.00  0.00    -0.431 A  
HETATM   20  C   UNL     1     -11.130  14.464  64.811  1.00  0.00    -0.402 A  
ENDBRANCH   6  15
TORSDOF 2
ENDMDL
MODEL       33
REMARK 921   NORMALIZED FREE ENERGY PREDICTED BY IDOCK:   -5.10 KCAL/MOL
REMARK 922        TOTAL FREE ENERGY PREDICTED BY IDOCK:   -5.97 KCAL/MOL
REMARK 923 INTER-LIGAND FREE ENERGY PREDICTED BY IDOCK:   -5.69 KCAL/MOL
REMARK 924 INTRA-LIGAND FREE ENERGY PREDICTED BY IDOCK:   -0.28 KCAL/MOL
REMARK 927      BINDING AFFINITY PREDICTED BY RF-SCORE:    0.00 PKD
ROOT
HETATM    1  N   UNL     1     -10.039  10.409  69.725  1.00  0.00    -0.394 NA 
HETATM    2  H1  UNL     1      -9.382   9.733  70.117  1.00  0.00     0.000 HD 
HETATM    3  H2  UNL     1      -9.660  11.288  69.373  1.00  0.00     0.000 HD 
HETATM    4  C   UNL     1     -11.316  10.230  69.642  1.00  0.00    -0.257 C  
HETATM    5  N   UNL     1     -12.197  11.134  69.116  1.00  0.00    -0.513 NA 
HETATM    6  N   UNL     1     -11.971   9.109  70.082  1.00  0.00    -0.443 NA 
HETATM    7  H   UNL     1     -13.166  11.056  69.422  1.00  0.00     0.000 HD 
HETATM    8  H   UNL     1     -12.939   8.981  69.788  1.00  0.00     0.000 HD 
ENDROOT
BRANCH   5   9
HETATM    9  C   UNL     1     -11.910  12.160  68.201  1.00  0.00    -0.299 A  
HETATM   10  C   UNL     1     -11.701  11.859  66.849  1.00  0.00    -0.291 A  
HETATM   11  C   UNL     1     -11.444  12.874  65.923  1.00  0.00    -0.387 A  
HETATM   12  C   UNL     1     -11.868  13.504  68.600  1.00  0.00    -0.404 A  
HETATM   13  C   UNL     1     -11.601  14.518  67.678  1.00  0.00    -0.402 A  
HETATM   14  C   UNL     1     -11.389  14.204  66.339  1.00  0.00    -0.342 A  
ENDBRANCH   5   9
BRANCH   6  15
HETATM   15  C   UNL     1     -11.404   8.119  70.913  1.00  0.00    -0.268 A  
HETATM   16  C   UNL     1     -10.423   5.912  71.221  1.00  0.00    -0.289 A  
HETATM   17  C   UNL     1     -10.999   6.883  70.398  1.00  0.00    -0.315 A  
HETATM   18  C   UNL     1     -10.672   7.383  73.112  1.00  0.00    -0.436 A  
HETATM   19  C   UNL     1     -11.234   8.360  72.283  1.00  0.00    -0.446 A  
HETATM   20  C   UNL     1     -10.263   6.163  72.579  1.00  0.00    -0.206 A  
ENDBRANCH   6  15
TORSDOF 2
ENDMDL
MODEL       34
REMARK 921   NORMALIZED FREE ENERGY PREDICTED BY IDOCK:   -5.04 KCAL/MOL
REMARK 922        TOTAL FREE ENERGY PREDICTED BY IDOCK:   -5.91 KCAL/MOL
REMARK 923 INTER-LIGAND FREE ENERGY PREDICTED BY IDOCK:   -5.62 KCAL/MOL
REMARK 924 INTRA-LIGAND FREE ENERGY PREDICTED BY IDOCK:   -0.29 KCAL/MOL
REMARK 927      BINDING AFFINITY PREDICTED BY RF-SCORE:    0.00 PKD
ROOT
HETATM    1  N   UNL     1     -10.573  17.295  69.396  1.00  0.00    -0.359 NA 
HETATM    2  H1  UNL     1     -11.390  17.619  69.914  1.00  0.00     0.000 HD 
HETATM    3  H2  UNL     1     -10.205  17.903  68.664  1.00  0.00     0.000 HD 
HETATM    4  C   UNL     1      -9.971  16.170  69.599  1.00  0.00    -0.179 C  
HETATM    5  N   UNL     1      -8.876  15.736  68.904  1.00  0.00    -0.203 NA 
HETATM    6  N   UNL     1     -10.355  15.244  70.535  1.00  0.00    -0.482 NA 
HETATM    7  H   UNL     1      -8.715  14.729  68.890  1.00  0.00     0.000 HD 
HETATM    8  H   UNL     1      -9.700  14.493  70.752  1.00  0.00     0.000 HD 
ENDROOT
BRANCH   5   9
HETATM    9  C   UNL     1      -7.949  16.527  68.206  1.00  0.00    -0.177 A  
HETATM   10  C   UNL     1      -8.051  16.670  66.816  1.00  0.00    -0.281 A  
HETATM   11  C   UNL     1      -7.152  17.478  66.114  1.00  0.00    -0.341 A  
HETATM   12  C   UNL     1      -6.933  17.223  68.876  1.00  0.00    -0.233 A  
HETATM   13  C   UNL     1      -6.028  18.022  68.175  1.00  0.00    -0.171 A  
HETATM   14  C   UNL     1      -6.137  18.149  66.793  1.00  0.00    -0.187 A  
ENDBRANCH   5   9
BRANCH   6  15
HETATM   15  C   UNL     1     -11.589  15.255  71.218  1.00  0.00    -0.380 A  
HETATM   16  C   UNL     1     -12.909  15.727  73.209  1.00  0.00    -0.655 A  
HETATM   17  C   UNL     1     -11.683  15.702  72.541  1.00  0.00    -0.567 A  
HETATM   18  C   UNL     1     -13.981  14.822  71.251  1.00  0.00    -0.444 A  
HETATM   19  C   UNL     1     -12.754  14.814  70.578  1.00  0.00    -0.397 A  
HETATM   20  C   UNL     1     -14.058  15.283  72.563  1.00  0.00    -0.567 A  
ENDBRANCH   6  15
TORSDOF 2
ENDMDL
MODEL       35
REMARK 921   NORMALIZED FREE ENERGY PREDICTED BY IDOCK:   -5.03 KCAL/MOL
REMARK 922        TOTAL FREE ENERGY PREDICTED BY IDOCK:   -5.89 KCAL/MOL
REMARK 923 INTER-LIGAND FREE ENERGY PREDICTED BY IDOCK:   -5.64 KCAL/MOL
REMARK 924 INTRA-LIGAND FREE ENERGY PREDICTED BY IDOCK:   -0.25 KCAL/MOL
REMARK 927      BINDING AFFINITY PREDICTED BY RF-SCORE:    0.00 PKD
ROOT
HETATM    1  N   UNL     1     -11.921  10.415  68.483  1.00  0.00    -0.759 NA 
HETATM    2  H1  UNL     1     -11.629  10.715  67.553  1.00  0.00     0.000 HD 
HETATM    3  H2  UNL     1     -12.370   9.502  68.567  1.00  0.00     0.000 HD 
HETATM    4  C   UNL     1     -11.762  11.107  69.563  1.00  0.00    -0.335 C  
HETATM    5  N   UNL     1     -12.153  10.704  70.810  1.00  0.00    -0.341 NA 
HETATM    6  N   UNL     1     -11.189  12.351  69.608  1.00  0.00    -0.484 NA 
HETATM    7  H   UNL     1     -12.310  11.440  71.498  1.00  0.00     0.000 HD 
HETATM    8  H   UNL     1     -10.929  12.719  70.523  1.00  0.00     0.000 HD 
ENDROOT
BRANCH   5   9
HETATM    9  C   UNL     1     -12.362   9.386  71.247  1.00  0.00    -0.341 A  
HETATM   10  C   UNL     1     -11.275   8.597  71.648  1.00  0.00    -0.379 A  
HETATM   11  C   UNL     1     -11.473   7.293  72.112  1.00  0.00    -0.310 A  
HETATM   12  C   UNL     1     -13.650   8.841  71.336  1.00  0.00    -0.292 A  
HETATM   13  C   UNL     1     -13.848   7.536  71.789  1.00  0.00    -0.438 A  
HETATM   14  C   UNL     1     -12.759   6.761  72.177  1.00  0.00    -0.132 A  
ENDBRANCH   5   9
BRANCH   6  15
HETATM   15  C   UNL     1     -10.934  13.160  68.481  1.00  0.00    -0.263 A  
HETATM   16  C   UNL     1      -9.383  14.162  66.893  1.00  0.00    -0.274 A  
HETATM   17  C   UNL     1      -9.631  13.373  68.019  1.00  0.00    -0.219 A  
HETATM   18  C   UNL     1     -11.746  14.578  66.679  1.00  0.00    -0.384 A  
HETATM   19  C   UNL     1     -11.993  13.773  67.798  1.00  0.00    -0.391 A  
HETATM   20  C   UNL     1     -10.443  14.766  66.225  1.00  0.00    -0.300 A  
ENDBRANCH   6  15
TORSDOF 2
ENDMDL
MODEL       36
REMARK 921   NORMALIZED FREE ENERGY PREDICTED BY IDOCK:   -5.01 KCAL/MOL
REMARK 922        TOTAL FREE ENERGY PREDICTED BY IDOCK:   -5.87 KCAL/MOL
REMARK 923 INTER-LIGAND FREE ENERGY PREDICTED BY IDOCK:   -5.67 KCAL/MOL
REMARK 924 INTRA-LIGAND FREE ENERGY PREDICTED BY IDOCK:   -0.20 KCAL/MOL
REMARK 927      BINDING AFFINITY PREDICTED BY RF-SCORE:    0.00 PKD
ROOT
HETATM    1  N   UNL     1     -10.250  17.298  66.518  1.00  0.00    -0.319 NA 
HETATM    2  H1  UNL     1     -11.182  16.891  66.607  1.00  0.00     0.000 HD 
HETATM    3  H2  UNL     1     -10.159  18.304  66.657  1.00  0.00     0.000 HD 
HETATM    4  C   UNL     1      -9.179  16.631  66.241  1.00  0.00    -0.294 C  
HETATM    5  N   UNL     1      -7.931  17.176  66.121  1.00  0.00    -0.447 NA 
HETATM    6  N   UNL     1      -9.145  15.279  66.015  1.00  0.00    -0.453 NA 
HETATM    7  H   UNL     1      -7.256  16.652  65.565  1.00  0.00     0.000 HD 
HETATM    8  H   UNL     1      -8.233  14.823  66.007  1.00  0.00     0.000 HD 
ENDROOT
BRANCH   5   9
HETATM    9  C   UNL     1      -7.477  18.382  66.681  1.00  0.00    -0.229 A  
HETATM   10  C   UNL     1      -7.185  18.456  68.049  1.00  0.00    -0.248 A  
HETATM   11  C   UNL     1      -6.705  19.642  68.613  1.00  0.00    -0.332 A  
HETATM   12  C   UNL     1      -7.264  19.520  65.891  1.00  0.00    -0.312 A  
HETATM   13  C   UNL     1      -6.795  20.708  66.454  1.00  0.00    -0.289 A  
HETATM   14  C   UNL     1      -6.516  20.769  67.816  1.00  0.00    -0.380 A  
ENDBRANCH   5   9
BRANCH   6  15
HETATM   15  C   UNL     1     -10.281  14.472  65.792  1.00  0.00    -0.335 A  
HETATM   16  C   UNL     1     -12.197  13.831  64.432  1.00  0.00    -0.440 A  
HETATM   17  C   UNL     1     -11.082  14.642  64.657  1.00  0.00    -0.345 A  
HETATM   18  C   UNL     1     -11.758  12.674  66.499  1.00  0.00    -0.463 A  
HETATM   19  C   UNL     1     -10.632  13.476  66.713  1.00  0.00    -0.272 A  
HETATM   20  C   UNL     1     -12.535  12.848  65.357  1.00  0.00    -0.511 A  
ENDBRANCH   6  15
TORSDOF 2
ENDMDL
MODEL       37
REMARK 921   NORMALIZED FREE ENERGY PREDICTED BY IDOCK:   -5.00 KCAL/MOL
REMARK 922        TOTAL FREE ENERGY PREDICTED BY IDOCK:   -5.87 KCAL/MOL
REMARK 923 INTER-LIGAND FREE ENERGY PREDICTED BY IDOCK:   -5.67 KCAL/MOL
REMARK 924 INTRA-LIGAND FREE ENERGY PREDICTED BY IDOCK:   -0.19 KCAL/MOL
REMARK 927      BINDING AFFINITY PREDICTED BY RF-SCORE:    0.00 PKD
ROOT
HETATM    1  N   UNL     1     -12.273  10.870  68.370  1.00  0.00    -0.810 NA 
HETATM    2  H1  UNL     1     -12.600  10.553  69.282  1.00  0.00     0.000 HD 
HETATM    3  H2  UNL     1     -12.897  11.464  67.823  1.00  0.00     0.000 HD 
HETATM    4  C   UNL     1     -11.124  10.574  67.856  1.00  0.00    -0.304 C  
HETATM    5  N   UNL     1     -10.685  11.000  66.633  1.00  0.00    -0.260 NA 
HETATM    6  N   UNL     1     -10.186   9.779  68.463  1.00  0.00    -0.179 NA 
HETATM    7  H   UNL     1      -9.960  10.437  66.189  1.00  0.00     0.000 HD 
HETATM    8  H   UNL     1      -9.245   9.775  68.071  1.00  0.00     0.000 HD 
ENDROOT
BRANCH   5   9
HETATM    9  C   UNL     1     -11.124  12.129  65.923  1.00  0.00    -0.318 A  
HETATM   10  C   UNL     1     -11.691  11.982  64.650  1.00  0.00    -0.358 A  
HETATM   11  C   UNL     1     -12.159  13.095  63.945  1.00  0.00    -0.536 A  
HETATM   12  C   UNL     1     -11.050  13.415  66.476  1.00  0.00    -0.312 A  
HETATM   13  C   UNL     1     -11.507  14.528  65.769  1.00  0.00    -0.342 A  
HETATM   14  C   UNL     1     -12.061  14.369  64.503  1.00  0.00    -0.498 A  
ENDBRANCH   5   9
BRANCH   6  15
HETATM   15  C   UNL     1     -10.430   8.965  69.590  1.00  0.00    -0.216 A  
HETATM   16  C   UNL     1     -10.553   8.662  72.003  1.00  0.00    -0.421 A  
HETATM   17  C   UNL     1     -10.296   9.465  70.890  1.00  0.00    -0.380 A  
HETATM   18  C   UNL     1     -11.054   6.815  70.539  1.00  0.00    -0.346 A  
HETATM   19  C   UNL     1     -10.812   7.627  69.425  1.00  0.00    -0.136 A  
HETATM   20  C   UNL     1     -10.930   7.334  71.825  1.00  0.00    -0.256 A  
ENDBRANCH   6  15
TORSDOF 2
ENDMDL
MODEL       38
REMARK 921   NORMALIZED FREE ENERGY PREDICTED BY IDOCK:   -4.95 KCAL/MOL
REMARK 922        TOTAL FREE ENERGY PREDICTED BY IDOCK:   -5.81 KCAL/MOL
REMARK 923 INTER-LIGAND FREE ENERGY PREDICTED BY IDOCK:   -5.62 KCAL/MOL
REMARK 924 INTRA-LIGAND FREE ENERGY PREDICTED BY IDOCK:   -0.19 KCAL/MOL
REMARK 927      BINDING AFFINITY PREDICTED BY RF-SCORE:    0.00 PKD
ROOT
HETATM    1  N   UNL     1      -9.341  15.311  67.967  1.00  0.00    -0.195 NA 
HETATM    2  H1  UNL     1      -9.124  14.323  67.835  1.00  0.00     0.000 HD 
HETATM    3  H2  UNL     1      -8.583  15.983  67.843  1.00  0.00     0.000 HD 
HETATM    4  C   UNL     1     -10.507  15.773  68.280  1.00  0.00    -0.259 C  
HETATM    5  N   UNL     1     -10.798  17.097  68.457  1.00  0.00    -0.325 NA 
HETATM    6  N   UNL     1     -11.616  14.996  68.492  1.00  0.00    -0.316 NA 
HETATM    7  H   UNL     1     -11.611  17.311  69.034  1.00  0.00     0.000 HD 
HETATM    8  H   UNL     1     -12.521  15.464  68.531  1.00  0.00     0.000 HD 
ENDROOT
BRANCH   5   9
HETATM    9  C   UNL     1     -10.098  18.195  67.930  1.00  0.00    -0.357 A  
HETATM   10  C   UNL     1      -9.026  18.753  68.639  1.00  0.00    -0.368 A  
HETATM   11  C   UNL     1      -8.303  19.827  68.112  1.00  0.00    -0.326 A  
HETATM   12  C   UNL     1     -10.419  18.731  66.675  1.00  0.00    -0.483 A  
HETATM   13  C   UNL     1      -9.705  19.810  66.152  1.00  0.00    -0.510 A  
HETATM   14  C   UNL     1      -8.647  20.359  66.870  1.00  0.00    -0.330 A  
ENDBRANCH   5   9
BRANCH   6  15
HETATM   15  C   UNL     1     -11.597  13.595  68.658  1.00  0.00    -0.329 A  
HETATM   16  C   UNL     1     -11.442  11.348  67.732  1.00  0.00    -0.353 A  
HETATM   17  C   UNL     1     -11.476  12.734  67.562  1.00  0.00    -0.390 A  
HETATM   18  C   UNL     1     -11.684  11.646  70.111  1.00  0.00    -0.381 A  
HETATM   19  C   UNL     1     -11.701  13.035  69.938  1.00  0.00    -0.326 A  
HETATM   20  C   UNL     1     -11.548  10.805  69.009  1.00  0.00    -0.370 A  
ENDBRANCH   6  15
TORSDOF 2
ENDMDL
MODEL       39
REMARK 921   NORMALIZED FREE ENERGY PREDICTED BY IDOCK:   -4.93 KCAL/MOL
REMARK 922        TOTAL FREE ENERGY PREDICTED BY IDOCK:   -5.78 KCAL/MOL
REMARK 923 INTER-LIGAND FREE ENERGY PREDICTED BY IDOCK:   -5.54 KCAL/MOL
REMARK 924 INTRA-LIGAND FREE ENERGY PREDICTED BY IDOCK:   -0.24 KCAL/MOL
REMARK 927      BINDING AFFINITY PREDICTED BY RF-SCORE:    0.00 PKD
ROOT
HETATM    1  N   UNL     1     -10.163   9.451  70.497  1.00  0.00    -0.251 NA 
HETATM    2  H1  UNL     1      -9.791  10.402  70.481  1.00  0.00     0.000 HD 
HETATM    3  H2  UNL     1      -9.499   8.685  70.609  1.00  0.00     0.000 HD 
HETATM    4  C   UNL     1     -11.414   9.149  70.384  1.00  0.00    -0.194 C  
HETATM    5  N   UNL     1     -11.912   7.875  70.405  1.00  0.00    -0.474 NA 
HETATM    6  N   UNL     1     -12.420  10.064  70.215  1.00  0.00    -0.512 NA 
HETATM    7  H   UNL     1     -12.818   7.734  69.960  1.00  0.00     0.000 HD 
HETATM    8  H   UNL     1     -13.379   9.742  70.341  1.00  0.00     0.000 HD 
ENDROOT
BRANCH   5   9
HETATM    9  C   UNL     1     -11.310   6.741  70.974  1.00  0.00    -0.309 A  
HETATM   10  C   UNL     1     -11.612   6.369  72.290  1.00  0.00    -0.341 A  
HETATM   11  C   UNL     1     -11.042   5.225  72.858  1.00  0.00    -0.365 A  
HETATM   12  C   UNL     1     -10.434   5.932  70.236  1.00  0.00    -0.327 A  
HETATM   13  C   UNL     1      -9.856   4.796  70.804  1.00  0.00    -0.280 A  
HETATM   14  C   UNL     1     -10.159   4.442  72.116  1.00  0.00    -0.262 A  
ENDBRANCH   5   9
BRANCH   6  15
HETATM   15  C   UNL     1     -12.225  11.421  69.879  1.00  0.00    -0.277 A  
HETATM   16  C   UNL     1     -12.174  13.775  70.496  1.00  0.00    -0.440 A  
HETATM   17  C   UNL     1     -12.383  12.435  70.829  1.00  0.00    -0.377 A  
HETATM   18  C   UNL     1     -11.673  13.123  68.232  1.00  0.00    -0.384 A  
HETATM   19  C   UNL     1     -11.867  11.779  68.572  1.00  0.00    -0.365 A  
HETATM   20  C   UNL     1     -11.820  14.118  69.195  1.00  0.00    -0.380 A  
ENDBRANCH   6  15
TORSDOF 2
ENDMDL
MODEL       40
REMARK 921   NORMALIZED FREE ENERGY PREDICTED BY IDOCK:   -4.90 KCAL/MOL
REMARK 922        TOTAL FREE ENERGY PREDICTED BY IDOCK:   -5.75 KCAL/MOL
REMARK 923 INTER-LIGAND FREE ENERGY PREDICTED BY IDOCK:   -5.45 KCAL/MOL
REMARK 924 INTRA-LIGAND FREE ENERGY PREDICTED BY IDOCK:   -0.29 KCAL/MOL
REMARK 927      BINDING AFFINITY PREDICTED BY RF-SCORE:    0.00 PKD
ROOT
HETATM    1  N   UNL     1      -8.736  16.221  65.949  1.00  0.00    -0.397 NA 
HETATM    2  H1  UNL     1      -7.806  16.617  66.087  1.00  0.00     0.000 HD 
HETATM    3  H2  UNL     1      -8.828  15.451  65.286  1.00  0.00     0.000 HD 
HETATM    4  C   UNL     1      -9.804  16.625  66.552  1.00  0.00    -0.281 C  
HETATM    5  N   UNL     1     -11.051  16.093  66.367  1.00  0.00    -0.019 NA 
HETATM    6  N   UNL     1      -9.841  17.654  67.458  1.00  0.00    -0.290 NA 
HETATM    7  H   UNL     1     -11.841  16.695  66.599  1.00  0.00     0.000 HD 
HETATM    8  H   UNL     1     -10.684  17.757  68.022  1.00  0.00     0.000 HD 
ENDROOT
BRANCH   5   9
HETATM    9  C   UNL     1     -11.361  14.809  65.892  1.00  0.00    -0.331 A  
HETATM   10  C   UNL     1     -11.676  14.615  64.541  1.00  0.00    -0.410 A  
HETATM   11  C   UNL     1     -11.958  13.337  64.050  1.00  0.00    -0.525 A  
HETATM   12  C   UNL     1     -11.322  13.689  66.735  1.00  0.00    -0.346 A  
HETATM   13  C   UNL     1     -11.614  12.414  66.249  1.00  0.00    -0.449 A  
HETATM   14  C   UNL     1     -11.932  12.237  64.906  1.00  0.00    -0.420 A  
ENDBRANCH   5   9
BRANCH   6  15
HETATM   15  C   UNL     1      -8.797  18.580  67.664  1.00  0.00    -0.271 A  
HETATM   16  C   UNL     1      -7.698  20.691  67.148  1.00  0.00    -0.348 A  
HETATM   17  C   UNL     1      -8.724  19.769  66.930  1.00  0.00    -0.389 A  
HETATM   18  C   UNL     1      -6.766  19.238  68.828  1.00  0.00    -0.338 A  
HETATM   19  C   UNL     1      -7.804  18.323  68.619  1.00  0.00    -0.313 A  
HETATM   20  C   UNL     1      -6.717  20.422  68.097  1.00  0.00    -0.326 A  
ENDBRANCH   6  15
TORSDOF 2
ENDMDL
MODEL       41
REMARK 921   NORMALIZED FREE ENERGY PREDICTED BY IDOCK:   -4.84 KCAL/MOL
REMARK 922        TOTAL FREE ENERGY PREDICTED BY IDOCK:   -5.68 KCAL/MOL
REMARK 923 INTER-LIGAND FREE ENERGY PREDICTED BY IDOCK:   -5.39 KCAL/MOL
REMARK 924 INTRA-LIGAND FREE ENERGY PREDICTED BY IDOCK:   -0.29 KCAL/MOL
REMARK 927      BINDING AFFINITY PREDICTED BY RF-SCORE:    0.00 PKD
ROOT
HETATM    1  N   UNL     1      -8.338  16.334  67.175  1.00  0.00    -0.178 NA 
HETATM    2  H1  UNL     1      -8.398  15.434  66.698  1.00  0.00     0.000 HD 
HETATM    3  H2  UNL     1      -7.410  16.727  67.331  1.00  0.00     0.000 HD 
HETATM    4  C   UNL     1      -9.354  17.013  67.595  1.00  0.00    -0.241 C  
HETATM    5  N   UNL     1      -9.275  18.220  68.233  1.00  0.00    -0.300 NA 
HETATM    6  N   UNL     1     -10.659  16.611  67.470  1.00  0.00    -0.323 NA 
HETATM    7  H   UNL     1     -10.067  18.478  68.820  1.00  0.00     0.000 HD 
HETATM    8  H   UNL     1     -11.386  17.304  67.647  1.00  0.00     0.000 HD 
ENDROOT
BRANCH   5   9
HETATM    9  C   UNL     1      -8.219  19.144  68.167  1.00  0.00    -0.318 A  
HETATM   10  C   UNL     1      -8.113  20.015  67.075  1.00  0.00    -0.357 A  
HETATM   11  C   UNL     1      -7.083  20.958  67.012  1.00  0.00    -0.379 A  
HETATM   12  C   UNL     1      -7.277  19.251  69.200  1.00  0.00    -0.360 A  
HETATM   13  C   UNL     1      -6.242  20.185  69.134  1.00  0.00    -0.360 A  
HETATM   14  C   UNL     1      -6.144  21.039  68.040  1.00  0.00    -0.398 A  
ENDBRANCH   5   9
BRANCH   6  15
HETATM   15  C   UNL     1     -11.069  15.309  67.114  1.00  0.00    -0.323 A  
HETATM   16  C   UNL     1     -11.738  13.050  67.731  1.00  0.00    -0.405 A  
HETATM   17  C   UNL     1     -11.318  14.334  68.086  1.00  0.00    -0.313 A  
HETATM   18  C   UNL     1     -11.641  13.675  65.406  1.00  0.00    -0.334 A  
HETATM   19  C   UNL     1     -11.236  14.965  65.766  1.00  0.00    -0.334 A  
HETATM   20  C   UNL     1     -11.897  12.721  66.389  1.00  0.00    -0.472 A  
ENDBRANCH   6  15
TORSDOF 2
ENDMDL
MODEL       42
REMARK 921   NORMALIZED FREE ENERGY PREDICTED BY IDOCK:   -4.82 KCAL/MOL
REMARK 922        TOTAL FREE ENERGY PREDICTED BY IDOCK:   -5.66 KCAL/MOL
REMARK 923 INTER-LIGAND FREE ENERGY PREDICTED BY IDOCK:   -5.39 KCAL/MOL
REMARK 924 INTRA-LIGAND FREE ENERGY PREDICTED BY IDOCK:   -0.27 KCAL/MOL
REMARK 927      BINDING AFFINITY PREDICTED BY RF-SCORE:    0.00 PKD
ROOT
HETATM    1  N   UNL     1     -10.287   9.199  71.241  1.00  0.00    -0.311 NA 
HETATM    2  H1  UNL     1      -9.446   8.621  71.284  1.00  0.00     0.000 HD 
HETATM    3  H2  UNL     1     -10.324  10.025  71.838  1.00  0.00     0.000 HD 
HETATM    4  C   UNL     1     -11.306   8.959  70.484  1.00  0.00    -0.234 C  
HETATM    5  N   UNL     1     -12.432   9.733  70.426  1.00  0.00    -0.495 NA 
HETATM    6  N   UNL     1     -11.408   7.884  69.639  1.00  0.00    -0.444 NA 
HETATM    7  H   UNL     1     -13.281   9.277  70.093  1.00  0.00     0.000 HD 
HETATM    8  H   UNL     1     -12.154   7.898  68.944  1.00  0.00     0.000 HD 
ENDROOT
BRANCH   5   9
HETATM    9  C   UNL     1     -12.545  11.089  70.775  1.00  0.00    -0.369 A  
HETATM   10  C   UNL     1     -11.996  12.077  69.947  1.00  0.00    -0.391 A  
HETATM   11  C   UNL     1     -12.128  13.431  70.269  1.00  0.00    -0.419 A  
HETATM   12  C   UNL     1     -13.241  11.491  71.924  1.00  0.00    -0.479 A  
HETATM   13  C   UNL     1     -13.364  12.842  72.252  1.00  0.00    -0.597 A  
HETATM   14  C   UNL     1     -12.807  13.813  71.425  1.00  0.00    -0.449 A  
ENDBRANCH   5   9
BRANCH   6  15
HETATM   15  C   UNL     1     -10.555   6.760  69.661  1.00  0.00    -0.233 A  
HETATM   16  C   UNL     1     -10.022   4.514  70.436  1.00  0.00    -0.284 A  
HETATM   17  C   UNL     1     -10.861   5.631  70.428  1.00  0.00    -0.326 A  
HETATM   18  C   UNL     1      -8.522   5.645  68.927  1.00  0.00    -0.102 A  
HETATM   19  C   UNL     1      -9.373   6.756  68.909  1.00  0.00    -0.129 A  
HETATM   20  C   UNL     1      -8.850   4.524  69.686  1.00  0.00    -0.125 A  
ENDBRANCH   6  15
TORSDOF 2
ENDMDL
MODEL       43
REMARK 921   NORMALIZED FREE ENERGY PREDICTED BY IDOCK:   -4.76 KCAL/MOL
REMARK 922        TOTAL FREE ENERGY PREDICTED BY IDOCK:   -5.59 KCAL/MOL
REMARK 923 INTER-LIGAND FREE ENERGY PREDICTED BY IDOCK:   -5.43 KCAL/MOL
REMARK 924 INTRA-LIGAND FREE ENERGY PREDICTED BY IDOCK:   -0.16 KCAL/MOL
REMARK 927      BINDING AFFINITY PREDICTED BY RF-SCORE:    0.00 PKD
ROOT
HETATM    1  N   UNL     1     -10.038  12.506  68.876  1.00  0.00    -0.428 NA 
HETATM    2  H1  UNL     1      -9.506  11.765  69.332  1.00  0.00     0.000 HD 
HETATM    3  H2  UNL     1      -9.534  13.349  68.599  1.00  0.00     0.000 HD 
HETATM    4  C   UNL     1     -11.304  12.455  68.622  1.00  0.00    -0.288 C  
HETATM    5  N   UNL     1     -12.017  13.449  68.010  1.00  0.00    -0.347 NA 
HETATM    6  N   UNL     1     -12.116  11.398  68.944  1.00  0.00    -0.469 NA 
HETATM    7  H   UNL     1     -13.022  13.462  68.184  1.00  0.00     0.000 HD 
HETATM    8  H   UNL     1     -13.045  11.370  68.523  1.00  0.00     0.000 HD 
ENDROOT
BRANCH   5   9
HETATM    9  C   UNL     1     -11.515  14.453  67.167  1.00  0.00    -0.362 A  
HETATM   10  C   UNL     1     -11.146  15.697  67.696  1.00  0.00    -0.305 A  
HETATM   11  C   UNL     1     -10.618  16.695  66.872  1.00  0.00    -0.229 A  
HETATM   12  C   UNL     1     -11.330  14.230  65.795  1.00  0.00    -0.326 A  
HETATM   13  C   UNL     1     -10.812  15.230  64.969  1.00  0.00    -0.457 A  
HETATM   14  C   UNL     1     -10.456  16.462  65.507  1.00  0.00    -0.349 A  
ENDBRANCH   5   9
BRANCH   6  15
HETATM   15  C   UNL     1     -11.761  10.347  69.816  1.00  0.00    -0.237 A  
HETATM   16  C   UNL     1     -10.497   8.321  70.295  1.00  0.00    -0.221 A  
HETATM   17  C   UNL     1     -10.859   9.352  69.424  1.00  0.00    -0.208 A  
HETATM   18  C   UNL     1     -11.963   9.240  71.972  1.00  0.00    -0.391 A  
HETATM   19  C   UNL     1     -12.311  10.280  71.103  1.00  0.00    -0.501 A  
HETATM   20  C   UNL     1     -11.053   8.266  71.569  1.00  0.00    -0.315 A  
ENDBRANCH   6  15
TORSDOF 2
ENDMDL
MODEL       44
REMARK 921   NORMALIZED FREE ENERGY PREDICTED BY IDOCK:   -4.74 KCAL/MOL
REMARK 922        TOTAL FREE ENERGY PREDICTED BY IDOCK:   -5.57 KCAL/MOL
REMARK 923 INTER-LIGAND FREE ENERGY PREDICTED BY IDOCK:   -5.47 KCAL/MOL
REMARK 924 INTRA-LIGAND FREE ENERGY PREDICTED BY IDOCK:   -0.09 KCAL/MOL
REMARK 927      BINDING AFFINITY PREDICTED BY RF-SCORE:    0.00 PKD
ROOT
HETATM    1  N   UNL     1      -8.553  15.537  65.959  1.00  0.00    -0.339 NA 
HETATM    2  H1  UNL     1      -7.640  15.932  66.189  1.00  0.00     0.000 HD 
HETATM    3  H2  UNL     1      -8.633  15.006  65.092  1.00  0.00     0.000 HD 
HETATM    4  C   UNL     1      -9.613  15.662  66.686  1.00  0.00    -0.248 C  
HETATM    5  N   UNL     1     -10.836  15.133  66.378  1.00  0.00    -0.324 NA 
HETATM    6  N   UNL     1      -9.665  16.356  67.868  1.00  0.00    -0.232 NA 
HETATM    7  H   UNL     1     -11.647  15.579  66.806  1.00  0.00     0.000 HD 
HETATM    8  H   UNL     1     -10.486  16.223  68.458  1.00  0.00     0.000 HD 
ENDROOT
BRANCH   5   9
HETATM    9  C   UNL     1     -11.097  14.041  65.534  1.00  0.00    -0.309 A  
HETATM   10  C   UNL     1     -11.873  14.212  64.381  1.00  0.00    -0.447 A  
HETATM   11  C   UNL     1     -12.116  13.139  63.517  1.00  0.00    -0.585 A  
HETATM   12  C   UNL     1     -10.558  12.773  65.794  1.00  0.00    -0.295 A  
HETATM   13  C   UNL     1     -10.808  11.698  64.938  1.00  0.00    -0.359 A  
HETATM   14  C   UNL     1     -11.587  11.881  63.800  1.00  0.00    -0.555 A  
ENDBRANCH   5   9
BRANCH   6  15
HETATM   15  C   UNL     1      -8.665  17.240  68.326  1.00  0.00    -0.251 A  
HETATM   16  C   UNL     1      -6.450  17.644  69.252  1.00  0.00    -0.240 A  
HETATM   17  C   UNL     1      -7.443  16.765  68.814  1.00  0.00    -0.231 A  
HETATM   18  C   UNL     1      -7.895  19.506  68.754  1.00  0.00    -0.377 A  
HETATM   19  C   UNL     1      -8.882  18.624  68.300  1.00  0.00    -0.353 A  
HETATM   20  C   UNL     1      -6.679  19.016  69.223  1.00  0.00    -0.330 A  
ENDBRANCH   6  15
TORSDOF 2
ENDMDL
MODEL       45
REMARK 921   NORMALIZED FREE ENERGY PREDICTED BY IDOCK:   -4.73 KCAL/MOL
REMARK 922        TOTAL FREE ENERGY PREDICTED BY IDOCK:   -5.56 KCAL/MOL
REMARK 923 INTER-LIGAND FREE ENERGY PREDICTED BY IDOCK:   -5.26 KCAL/MOL
REMARK 924 INTRA-LIGAND FREE ENERGY PREDICTED BY IDOCK:   -0.30 KCAL/MOL
REMARK 927      BINDING AFFINITY PREDICTED BY RF-SCORE:    0.00 PKD
ROOT
HETATM    1  N   UNL     1     -12.192  11.186  69.104  1.00  0.00    -0.513 NA 
HETATM    2  H1  UNL     1     -12.848  10.487  69.455  1.00  0.00     0.000 HD 
HETATM    3  H2  UNL     1     -12.557  11.905  68.478  1.00  0.00     0.000 HD 
HETATM    4  C   UNL     1     -10.935  11.228  69.397  1.00  0.00    -0.228 C  
HETATM    5  N   UNL     1     -10.057  12.166  68.928  1.00  0.00    -0.418 NA 
HETATM    6  N   UNL     1     -10.299  10.327  70.212  1.00  0.00    -0.437 NA 
HETATM    7  H   UNL     1      -9.071  11.904  68.922  1.00  0.00     0.000 HD 
HETATM    8  H   UNL     1      -9.362  10.564  70.539  1.00  0.00     0.000 HD 
ENDROOT
BRANCH   5   9
HETATM    9  C   UNL     1     -10.365  13.451  68.453  1.00  0.00    -0.251 A  
HETATM   10  C   UNL     1     -10.424  13.696  67.075  1.00  0.00    -0.270 A  
HETATM   11  C   UNL     1     -10.759  14.964  66.589  1.00  0.00    -0.312 A  
HETATM   12  C   UNL     1     -10.663  14.502  69.331  1.00  0.00    -0.213 A  
HETATM   13  C   UNL     1     -10.987  15.771  68.848  1.00  0.00    -0.283 A  
HETATM   14  C   UNL     1     -11.035  16.003  67.477  1.00  0.00    -0.261 A  
ENDBRANCH   5   9
BRANCH   6  15
HETATM   15  C   UNL     1     -10.846   9.096  70.632  1.00  0.00    -0.264 A  
HETATM   16  C   UNL     1     -12.105   7.770  72.239  1.00  0.00    -0.332 A  
HETATM   17  C   UNL     1     -11.552   8.987  71.834  1.00  0.00    -0.441 A  
HETATM   18  C   UNL     1     -11.229   6.725  70.253  1.00  0.00    -0.385 A  
HETATM   19  C   UNL     1     -10.690   7.949  69.842  1.00  0.00    -0.244 A  
HETATM   20  C   UNL     1     -11.941   6.638  71.447  1.00  0.00    -0.405 A  
ENDBRANCH   6  15
TORSDOF 2
ENDMDL
MODEL       46
REMARK 921   NORMALIZED FREE ENERGY PREDICTED BY IDOCK:   -4.72 KCAL/MOL
REMARK 922        TOTAL FREE ENERGY PREDICTED BY IDOCK:   -5.55 KCAL/MOL
REMARK 923 INTER-LIGAND FREE ENERGY PREDICTED BY IDOCK:   -5.28 KCAL/MOL
REMARK 924 INTRA-LIGAND FREE ENERGY PREDICTED BY IDOCK:   -0.27 KCAL/MOL
REMARK 927      BINDING AFFINITY PREDICTED BY RF-SCORE:    0.00 PKD
ROOT
HETATM    1  N   UNL     1      -9.788  13.718  69.177  1.00  0.00    -0.407 NA 
HETATM    2  H1  UNL     1      -9.124  14.493  69.159  1.00  0.00     0.000 HD 
HETATM    3  H2  UNL     1      -9.521  12.878  69.690  1.00  0.00     0.000 HD 
HETATM    4  C   UNL     1     -10.942  13.725  68.596  1.00  0.00    -0.266 C  
HETATM    5  N   UNL     1     -11.833  12.687  68.621  1.00  0.00    -0.315 NA 
HETATM    6  N   UNL     1     -11.434  14.773  67.861  1.00  0.00    -0.330 NA 
HETATM    7  H   UNL     1     -12.515  12.655  67.864  1.00  0.00     0.000 HD 
HETATM    8  H   UNL     1     -12.424  14.758  67.621  1.00  0.00     0.000 HD 
ENDROOT
BRANCH   5   9
HETATM    9  C   UNL     1     -11.909  11.660  69.576  1.00  0.00    -0.348 A  
HETATM   10  C   UNL     1     -12.636  11.851  70.758  1.00  0.00    -0.325 A  
HETATM   11  C   UNL     1     -12.743  10.826  71.703  1.00  0.00    -0.520 A  
HETATM   12  C   UNL     1     -11.304  10.414  69.358  1.00  0.00    -0.310 A  
HETATM   13  C   UNL     1     -11.401   9.394  70.305  1.00  0.00    -0.261 A  
HETATM   14  C   UNL     1     -12.121   9.599  71.478  1.00  0.00    -0.482 A  
ENDBRANCH   5   9
BRANCH   6  15
HETATM   15  C   UNL     1     -10.668  15.870  67.414  1.00  0.00    -0.313 A  
HETATM   16  C   UNL     1     -10.007  18.208  67.581  1.00  0.00    -0.344 A  
HETATM   17  C   UNL     1     -10.778  17.128  68.017  1.00  0.00    -0.372 A  
HETATM   18  C   UNL     1      -9.012  16.803  65.896  1.00  0.00    -0.103 A  
HETATM   19  C   UNL     1      -9.774  15.718  66.345  1.00  0.00    -0.305 A  
HETATM   20  C   UNL     1      -9.125  18.044  66.518  1.00  0.00    -0.283 A  
ENDBRANCH   6  15
TORSDOF 2
ENDMDL
MODEL       47
REMARK 921   NORMALIZED FREE ENERGY PREDICTED BY IDOCK:   -4.71 KCAL/MOL
REMARK 922        TOTAL FREE ENERGY PREDICTED BY IDOCK:   -5.54 KCAL/MOL
REMARK 923 INTER-LIGAND FREE ENERGY PREDICTED BY IDOCK:   -5.61 KCAL/MOL
REMARK 924 INTRA-LIGAND FREE ENERGY PREDICTED BY IDOCK:    0.06 KCAL/MOL
REMARK 927      BINDING AFFINITY PREDICTED BY RF-SCORE:    0.00 PKD
ROOT
HETATM    1  N   UNL     1     -10.126   9.388  70.980  1.00  0.00    -0.297 NA 
HETATM    2  H1  UNL     1      -9.513   8.584  71.124  1.00  0.00     0.000 HD 
HETATM    3  H2  UNL     1      -9.747  10.186  70.470  1.00  0.00     0.000 HD 
HETATM    4  C   UNL     1     -11.345   9.467  71.399  1.00  0.00    -0.392 C  
HETATM    5  N   UNL     1     -12.166  10.545  71.206  1.00  0.00    -0.370 NA 
HETATM    6  N   UNL     1     -11.987   8.485  72.108  1.00  0.00    -0.361 NA 
HETATM    7  H   UNL     1     -12.940  10.650  71.861  1.00  0.00     0.000 HD 
HETATM    8  H   UNL     1     -12.999   8.560  72.211  1.00  0.00     0.000 HD 
ENDROOT
BRANCH   5   9
HETATM    9  C   UNL     1     -12.057  11.522  70.203  1.00  0.00    -0.351 A  
HETATM   10  C   UNL     1     -12.188  12.879  70.526  1.00  0.00    -0.395 A  
HETATM   11  C   UNL     1     -12.053  13.863  69.542  1.00  0.00    -0.393 A  
HETATM   12  C   UNL     1     -11.775  11.177  68.874  1.00  0.00    -0.406 A  
HETATM   13  C   UNL     1     -11.651  12.157  67.889  1.00  0.00    -0.413 A  
HETATM   14  C   UNL     1     -11.790  13.501  68.222  1.00  0.00    -0.401 A  
ENDBRANCH   5   9
BRANCH   6  15
HETATM   15  C   UNL     1     -11.349   7.377  72.705  1.00  0.00    -0.313 A  
HETATM   16  C   UNL     1      -9.748   6.447  74.286  1.00  0.00    -0.292 A  
HETATM   17  C   UNL     1     -10.366   7.546  73.686  1.00  0.00    -0.311 A  
HETATM   18  C   UNL     1     -11.062   4.971  72.909  1.00  0.00    -0.348 A  
HETATM   19  C   UNL     1     -11.692   6.074  72.321  1.00  0.00    -0.338 A  
HETATM   20  C   UNL     1     -10.096   5.159  73.894  1.00  0.00    -0.228 A  
ENDBRANCH   6  15
TORSDOF 2
ENDMDL
MODEL       48
REMARK 921   NORMALIZED FREE ENERGY PREDICTED BY IDOCK:   -4.69 KCAL/MOL
REMARK 922        TOTAL FREE ENERGY PREDICTED BY IDOCK:   -5.52 KCAL/MOL
REMARK 923 INTER-LIGAND FREE ENERGY PREDICTED BY IDOCK:   -5.31 KCAL/MOL
REMARK 924 INTRA-LIGAND FREE ENERGY PREDICTED BY IDOCK:   -0.21 KCAL/MOL
REMARK 927      BINDING AFFINITY PREDICTED BY RF-SCORE:    0.00 PKD
ROOT
HETATM    1  N   UNL     1      -9.373  15.389  68.950  1.00  0.00    -0.204 NA 
HETATM    2  H1  UNL     1      -8.805  16.222  69.106  1.00  0.00     0.000 HD 
HETATM    3  H2  UNL     1      -9.095  14.531  69.427  1.00  0.00     0.000 HD 
HETATM    4  C   UNL     1     -10.418  15.342  68.192  1.00  0.00    -0.247 C  
HETATM    5  N   UNL     1     -11.180  14.226  67.984  1.00  0.00    -0.269 NA 
HETATM    6  N   UNL     1     -10.906  16.407  67.479  1.00  0.00    -0.290 NA 
HETATM    7  H   UNL     1     -11.731  14.204  67.126  1.00  0.00     0.000 HD 
HETATM    8  H   UNL     1     -11.841  16.320  67.080  1.00  0.00     0.000 HD 
ENDROOT
BRANCH   5   9
HETATM    9  C   UNL     1     -11.285  13.104  68.823  1.00  0.00    -0.281 A  
HETATM   10  C   UNL     1     -12.061  13.168  69.988  1.00  0.00    -0.375 A  
HETATM   11  C   UNL     1     -12.197  12.050  70.816  1.00  0.00    -0.382 A  
HETATM   12  C   UNL     1     -10.661  11.891  68.502  1.00  0.00    -0.245 A  
HETATM   13  C   UNL     1     -10.787  10.777  69.334  1.00  0.00    -0.289 A  
HETATM   14  C   UNL     1     -11.555  10.856  70.491  1.00  0.00    -0.397 A  
ENDBRANCH   5   9
BRANCH   6  15
HETATM   15  C   UNL     1     -10.209  17.613  67.256  1.00  0.00    -0.343 A  
HETATM   16  C   UNL     1      -9.949  20.010  67.598  1.00  0.00    -0.566 A  
HETATM   17  C   UNL     1     -10.650  18.820  67.807  1.00  0.00    -0.452 A  
HETATM   18  C   UNL     1      -8.353  18.816  66.244  1.00  0.00    -0.262 A  
HETATM   19  C   UNL     1      -9.049  17.623  66.470  1.00  0.00    -0.284 A  
HETATM   20  C   UNL     1      -8.800  20.006  66.813  1.00  0.00    -0.427 A  
ENDBRANCH   6  15
TORSDOF 2
ENDMDL
MODEL       49
REMARK 921   NORMALIZED FREE ENERGY PREDICTED BY IDOCK:   -4.67 KCAL/MOL
REMARK 922        TOTAL FREE ENERGY PREDICTED BY IDOCK:   -5.50 KCAL/MOL
REMARK 923 INTER-LIGAND FREE ENERGY PREDICTED BY IDOCK:   -5.54 KCAL/MOL
REMARK 924 INTRA-LIGAND FREE ENERGY PREDICTED BY IDOCK:    0.04 KCAL/MOL
REMARK 927      BINDING AFFINITY PREDICTED BY RF-SCORE:    0.00 PKD
ROOT
HETATM    1  N   UNL     1     -10.500  17.874  69.934  1.00  0.00     0.073 NA 
HETATM    2  H1  UNL     1     -10.710  17.817  70.931  1.00  0.00     0.000 HD 
HETATM    3  H2  UNL     1     -10.013  18.707  69.600  1.00  0.00     0.000 HD 
HETATM    4  C   UNL     1     -10.805  16.969  69.064  1.00  0.00    -0.206 C  
HETATM    5  N   UNL     1     -10.524  17.046  67.728  1.00  0.00    -0.338 NA 
HETATM    6  N   UNL     1     -11.468  15.805  69.357  1.00  0.00    -0.330 NA 
HETATM    7  H   UNL     1     -11.105  16.484  67.107  1.00  0.00     0.000 HD 
HETATM    8  H   UNL     1     -11.479  15.075  68.646  1.00  0.00     0.000 HD 
ENDROOT
BRANCH   5   9
HETATM    9  C   UNL     1      -9.521  17.817  67.118  1.00  0.00    -0.265 A  
HETATM   10  C   UNL     1      -8.276  17.245  66.823  1.00  0.00    -0.279 A  
HETATM   11  C   UNL     1      -7.279  17.994  66.189  1.00  0.00    -0.325 A  
HETATM   12  C   UNL     1      -9.746  19.151  66.751  1.00  0.00    -0.396 A  
HETATM   13  C   UNL     1      -8.749  19.903  66.128  1.00  0.00    -0.350 A  
HETATM   14  C   UNL     1      -7.514  19.324  65.847  1.00  0.00    -0.282 A  
ENDBRANCH   5   9
BRANCH   6  15
HETATM   15  C   UNL     1     -12.137  15.545  70.572  1.00  0.00    -0.386 A  
HETATM   16  C   UNL     1     -14.166  15.009  71.807  1.00  0.00    -0.649 A  
HETATM   17  C   UNL     1     -13.510  15.281  70.604  1.00  0.00    -0.257 A  
HETATM   18  C   UNL     1     -12.087  15.291  72.990  1.00  0.00    -0.523 A  
HETATM   19  C   UNL     1     -11.429  15.547  71.782  1.00  0.00    -0.504 A  
HETATM   20  C   UNL     1     -13.452  15.017  73.001  1.00  0.00    -0.520 A  
ENDBRANCH   6  15
TORSDOF 2
ENDMDL
MODEL       50
REMARK 921   NORMALIZED FREE ENERGY PREDICTED BY IDOCK:   -4.63 KCAL/MOL
REMARK 922        TOTAL FREE ENERGY PREDICTED BY IDOCK:   -5.45 KCAL/MOL
REMARK 923 INTER-LIGAND FREE ENERGY PREDICTED BY IDOCK:   -5.35 KCAL/MOL
REMARK 924 INTRA-LIGAND FREE ENERGY PREDICTED BY IDOCK:   -0.11 KCAL/MOL
REMARK 927      BINDING AFFINITY PREDICTED BY RF-SCORE:    0.00 PKD
ROOT
HETATM    1  N   UNL     1     -10.588  15.326  67.575  1.00  0.00    -0.267 NA 
HETATM    2  H1  UNL     1     -10.865  14.495  68.099  1.00  0.00     0.000 HD 
HETATM    3  H2  UNL     1     -10.956  16.225  67.885  1.00  0.00     0.000 HD 
HETATM    4  C   UNL     1      -9.804  15.320  66.548  1.00  0.00    -0.266 C  
HETATM    5  N   UNL     1      -9.432  16.434  65.846  1.00  0.00    -0.469 NA 
HETATM    6  N   UNL     1      -9.242  14.192  66.008  1.00  0.00    -0.513 NA 
HETATM    7  H   UNL     1      -9.128  16.285  64.885  1.00  0.00     0.000 HD 
HETATM    8  H   UNL     1      -8.487  14.316  65.335  1.00  0.00     0.000 HD 
ENDROOT
BRANCH   5   9
HETATM    9  C   UNL     1      -9.423  17.760  66.307  1.00  0.00    -0.217 A  
HETATM   10  C   UNL     1     -10.466  18.632  65.964  1.00  0.00    -0.456 A  
HETATM   11  C   UNL     1     -10.483  19.946  66.440  1.00  0.00    -0.589 A  
HETATM   12  C   UNL     1      -8.408  18.234  67.150  1.00  0.00    -0.250 A  
HETATM   13  C   UNL     1      -8.419  19.549  67.618  1.00  0.00    -0.347 A  
HETATM   14  C   UNL     1      -9.456  20.406  67.263  1.00  0.00    -0.568 A  
ENDBRANCH   5   9
BRANCH   6  15
HETATM   15  C   UNL     1      -9.635  12.872  66.316  1.00  0.00    -0.243 A  
HETATM   16  C   UNL     1     -10.656  10.757  65.676  1.00  0.00    -0.199 A  
HETATM   17  C   UNL     1     -10.283  12.068  65.373  1.00  0.00    -0.295 A  
HETATM   18  C   UNL     1      -9.768  11.031  67.899  1.00  0.00    -0.183 A  
HETATM   19  C   UNL     1      -9.380  12.339  67.586  1.00  0.00    -0.186 A  
HETATM   20  C   UNL     1     -10.400  10.240  66.942  1.00  0.00    -0.298 A  
ENDBRANCH   6  15
TORSDOF 2
ENDMDL
MODEL       51
REMARK 921   NORMALIZED FREE ENERGY PREDICTED BY IDOCK:   -4.62 KCAL/MOL
REMARK 922        TOTAL FREE ENERGY PREDICTED BY IDOCK:   -5.44 KCAL/MOL
REMARK 923 INTER-LIGAND FREE ENERGY PREDICTED BY IDOCK:   -5.22 KCAL/MOL
REMARK 924 INTRA-LIGAND FREE ENERGY PREDICTED BY IDOCK:   -0.21 KCAL/MOL
REMARK 927      BINDING AFFINITY PREDICTED BY RF-SCORE:    0.00 PKD
ROOT
HETATM    1  N   UNL     1      -9.300  15.693  67.887  1.00  0.00    -0.195 NA 
HETATM    2  H1  UNL     1      -8.990  16.486  68.449  1.00  0.00     0.000 HD 
HETATM    3  H2  UNL     1      -9.158  14.757  68.268  1.00  0.00     0.000 HD 
HETATM    4  C   UNL     1      -9.859  15.788  66.726  1.00  0.00    -0.245 C  
HETATM    5  N   UNL     1     -10.275  14.725  65.972  1.00  0.00    -0.288 NA 
HETATM    6  N   UNL     1     -10.105  16.972  66.079  1.00  0.00    -0.453 NA 
HETATM    7  H   UNL     1     -10.359  14.884  64.969  1.00  0.00     0.000 HD 
HETATM    8  H   UNL     1     -10.727  16.949  65.272  1.00  0.00     0.000 HD 
ENDROOT
BRANCH   5   9
HETATM    9  C   UNL     1     -10.599  13.438  66.431  1.00  0.00    -0.285 A  
HETATM   10  C   UNL     1      -9.883  12.326  65.971  1.00  0.00    -0.263 A  
HETATM   11  C   UNL     1     -10.177  11.043  66.442  1.00  0.00    -0.284 A  
HETATM   12  C   UNL     1     -11.608  13.235  67.384  1.00  0.00    -0.396 A  
HETATM   13  C   UNL     1     -11.910  11.954  67.847  1.00  0.00    -0.308 A  
HETATM   14  C   UNL     1     -11.194  10.857  67.376  1.00  0.00    -0.345 A  
ENDBRANCH   5   9
BRANCH   6  15
HETATM   15  C   UNL     1      -9.558  18.219  66.449  1.00  0.00    -0.305 A  
HETATM   16  C   UNL     1      -7.715  19.810  66.463  1.00  0.00    -0.307 A  
HETATM   17  C   UNL     1      -8.247  18.569  66.108  1.00  0.00    -0.183 A  
HETATM   18  C   UNL     1      -9.790  20.377  67.546  1.00  0.00    -0.564 A  
HETATM   19  C   UNL     1     -10.327  19.139  67.175  1.00  0.00    -0.511 A  
HETATM   20  C   UNL     1      -8.488  20.713  67.185  1.00  0.00    -0.292 A  
ENDBRANCH   6  15
TORSDOF 2
ENDMDL
MODEL       52
REMARK 921   NORMALIZED FREE ENERGY PREDICTED BY IDOCK:   -4.59 KCAL/MOL
REMARK 922        TOTAL FREE ENERGY PREDICTED BY IDOCK:   -5.41 KCAL/MOL
REMARK 923 INTER-LIGAND FREE ENERGY PREDICTED BY IDOCK:   -5.14 KCAL/MOL
REMARK 924 INTRA-LIGAND FREE ENERGY PREDICTED BY IDOCK:   -0.27 KCAL/MOL
REMARK 927      BINDING AFFINITY PREDICTED BY RF-SCORE:    0.00 PKD
ROOT
HETATM    1  N   UNL     1      -9.143  13.992  67.116  1.00  0.00    -0.222 NA 
HETATM    2  H1  UNL     1      -8.615  13.147  66.895  1.00  0.00     0.000 HD 
HETATM    3  H2  UNL     1      -8.618  14.809  67.427  1.00  0.00     0.000 HD 
HETATM    4  C   UNL     1     -10.427  14.101  67.030  1.00  0.00    -0.271 C  
HETATM    5  N   UNL     1     -11.134  15.234  67.325  1.00  0.00    -0.332 NA 
HETATM    6  N   UNL     1     -11.266  13.089  66.640  1.00  0.00    -0.296 NA 
HETATM    7  H   UNL     1     -12.116  15.108  67.568  1.00  0.00     0.000 HD 
HETATM    8  H   UNL     1     -12.229  13.335  66.411  1.00  0.00     0.000 HD 
ENDROOT
BRANCH   5   9
HETATM    9  C   UNL     1     -10.653  16.554  67.331  1.00  0.00    -0.300 A  
HETATM   10  C   UNL     1     -10.651  17.307  66.150  1.00  0.00    -0.204 A  
HETATM   11  C   UNL     1     -10.202  18.631  66.148  1.00  0.00    -0.450 A  
HETATM   12  C   UNL     1     -10.208  17.164  68.512  1.00  0.00    -0.346 A  
HETATM   13  C   UNL     1      -9.750  18.482  68.510  1.00  0.00    -0.399 A  
HETATM   14  C   UNL     1      -9.746  19.216  67.328  1.00  0.00    -0.386 A  
ENDBRANCH   5   9
BRANCH   6  15
HETATM   15  C   UNL     1     -10.895  11.732  66.534  1.00  0.00    -0.282 A  
HETATM   16  C   UNL     1     -10.721   9.497  67.484  1.00  0.00    -0.311 A  
HETATM   17  C   UNL     1     -11.076  10.843  67.598  1.00  0.00    -0.376 A  
HETATM   18  C   UNL     1      -9.958   9.902  65.235  1.00  0.00    -0.320 A  
HETATM   19  C   UNL     1     -10.330  11.247  65.347  1.00  0.00    -0.328 A  
HETATM   20  C   UNL     1     -10.159   9.028  66.301  1.00  0.00    -0.311 A  
ENDBRANCH   6  15
TORSDOF 2
ENDMDL
MODEL       53
REMARK 921   NORMALIZED FREE ENERGY PREDICTED BY IDOCK:   -4.47 KCAL/MOL
REMARK 922        TOTAL FREE ENERGY PREDICTED BY IDOCK:   -5.27 KCAL/MOL
REMARK 923 INTER-LIGAND FREE ENERGY PREDICTED BY IDOCK:   -4.99 KCAL/MOL
REMARK 924 INTRA-LIGAND FREE ENERGY PREDICTED BY IDOCK:   -0.28 KCAL/MOL
REMARK 927      BINDING AFFINITY PREDICTED BY RF-SCORE:    0.00 PKD
ROOT
HETATM    1  N   UNL     1      -9.387  16.160  68.395  1.00  0.00    -0.201 NA 
HETATM    2  H1  UNL     1      -9.303  16.825  69.165  1.00  0.00     0.000 HD 
HETATM    3  H2  UNL     1     -10.169  15.506  68.418  1.00  0.00     0.000 HD 
HETATM    4  C   UNL     1      -8.573  16.087  67.395  1.00  0.00    -0.178 C  
HETATM    5  N   UNL     1      -8.685  15.197  66.363  1.00  0.00    -0.446 NA 
HETATM    6  N   UNL     1      -7.471  16.888  67.232  1.00  0.00    -0.156 NA 
HETATM    7  H   UNL     1      -7.830  14.988  65.847  1.00  0.00     0.000 HD 
HETATM    8  H   UNL     1      -7.017  16.887  66.319  1.00  0.00     0.000 HD 
ENDROOT
BRANCH   5   9
HETATM    9  C   UNL     1      -9.849  14.538  65.937  1.00  0.00    -0.321 A  
HETATM   10  C   UNL     1     -10.169  13.273  66.446  1.00  0.00    -0.292 A  
HETATM   11  C   UNL     1     -11.340  12.619  66.052  1.00  0.00    -0.369 A  
HETATM   12  C   UNL     1     -10.739  15.137  65.034  1.00  0.00    -0.451 A  
HETATM   13  C   UNL     1     -11.904  14.482  64.631  1.00  0.00    -0.462 A  
HETATM   14  C   UNL     1     -12.205  13.222  65.140  1.00  0.00    -0.487 A  
ENDBRANCH   5   9
BRANCH   6  15
HETATM   15  C   UNL     1      -6.920  17.711  68.236  1.00  0.00    -0.220 A  
HETATM   16  C   UNL     1      -5.565  18.000  70.239  1.00  0.00    -0.237 A  
HETATM   17  C   UNL     1      -6.121  17.180  69.255  1.00  0.00    -0.216 A  
HETATM   18  C   UNL     1      -6.624  19.913  69.226  1.00  0.00    -0.378 A  
HETATM   19  C   UNL     1      -7.166  19.090  68.232  1.00  0.00    -0.306 A  
HETATM   20  C   UNL     1      -5.820  19.368  70.224  1.00  0.00    -0.272 A  
ENDBRANCH   6  15
TORSDOF 2
ENDMDL
MODEL       54
REMARK 921   NORMALIZED FREE ENERGY PREDICTED BY IDOCK:   -4.45 KCAL/MOL
REMARK 922        TOTAL FREE ENERGY PREDICTED BY IDOCK:   -5.25 KCAL/MOL
REMARK 923 INTER-LIGAND FREE ENERGY PREDICTED BY IDOCK:   -5.05 KCAL/MOL
REMARK 924 INTRA-LIGAND FREE ENERGY PREDICTED BY IDOCK:   -0.20 KCAL/MOL
REMARK 927      BINDING AFFINITY PREDICTED BY RF-SCORE:    0.00 PKD
ROOT
HETATM    1  N   UNL     1     -11.157   5.867  71.342  1.00  0.00    -0.271 NA 
HETATM    2  H1  UNL     1     -11.206   6.516  70.556  1.00  0.00     0.000 HD 
HETATM    3  H2  UNL     1     -11.059   4.874  71.130  1.00  0.00     0.000 HD 
HETATM    4  C   UNL     1     -11.208   6.213  72.586  1.00  0.00    -0.274 C  
HETATM    5  N   UNL     1     -11.141   5.343  73.639  1.00  0.00    -0.442 NA 
HETATM    6  N   UNL     1     -11.350   7.504  73.026  1.00  0.00    -0.578 NA 
HETATM    7  H   UNL     1     -11.543   5.663  74.520  1.00  0.00     0.000 HD 
HETATM    8  H   UNL     1     -11.176   7.688  74.013  1.00  0.00     0.000 HD 
ENDROOT
BRANCH   5   9
HETATM    9  C   UNL     1     -10.578   4.057  73.639  1.00  0.00    -0.210 A  
HETATM   10  C   UNL     1      -9.234   3.877  73.990  1.00  0.00    -0.100 A  
HETATM   11  C   UNL     1      -8.669   2.598  74.022  1.00  0.00    -0.075 A  
HETATM   12  C   UNL     1     -11.346   2.924  73.335  1.00  0.00    -0.221 A  
HETATM   13  C   UNL     1     -10.781   1.647  73.357  1.00  0.00    -0.216 A  
HETATM   14  C   UNL     1      -9.443   1.484  73.700  1.00  0.00    -0.081 A  
ENDBRANCH   5   9
BRANCH   6  15
HETATM   15  C   UNL     1     -11.721   8.595  72.211  1.00  0.00    -0.358 A  
HETATM   16  C   UNL     1     -11.169  10.291  70.554  1.00  0.00    -0.408 A  
HETATM   17  C   UNL     1     -10.795   9.221  71.370  1.00  0.00    -0.434 A  
HETATM   18  C   UNL     1     -13.410  10.158  71.427  1.00  0.00    -0.413 A  
HETATM   19  C   UNL     1     -13.037   9.076  72.232  1.00  0.00    -0.508 A  
HETATM   20  C   UNL     1     -12.478  10.760  70.585  1.00  0.00    -0.461 A  
ENDBRANCH   6  15
TORSDOF 2
ENDMDL
MODEL       55
REMARK 921   NORMALIZED FREE ENERGY PREDICTED BY IDOCK:   -4.42 KCAL/MOL
REMARK 922        TOTAL FREE ENERGY PREDICTED BY IDOCK:   -5.21 KCAL/MOL
REMARK 923 INTER-LIGAND FREE ENERGY PREDICTED BY IDOCK:   -4.92 KCAL/MOL
REMARK 924 INTRA-LIGAND FREE ENERGY PREDICTED BY IDOCK:   -0.29 KCAL/MOL
REMARK 927      BINDING AFFINITY PREDICTED BY RF-SCORE:    0.00 PKD
ROOT
HETATM    1  N   UNL     1      -9.782  11.235  69.120  1.00  0.00    -0.413 NA 
HETATM    2  H1  UNL     1      -9.645  11.937  69.848  1.00  0.00     0.000 HD 
HETATM    3  H2  UNL     1      -9.008  10.600  68.924  1.00  0.00     0.000 HD 
HETATM    4  C   UNL     1     -10.865  11.092  68.430  1.00  0.00    -0.205 C  
HETATM    5  N   UNL     1     -11.049  10.151  67.455  1.00  0.00    -0.367 NA 
HETATM    6  N   UNL     1     -11.982  11.875  68.571  1.00  0.00    -0.422 NA 
HETATM    7  H   UNL     1     -11.763  10.353  66.756  1.00  0.00     0.000 HD 
HETATM    8  H   UNL     1     -12.843  11.554  68.129  1.00  0.00     0.000 HD 
ENDROOT
BRANCH   5   9
HETATM    9  C   UNL     1     -10.360   8.936  67.312  1.00  0.00    -0.280 A  
HETATM   10  C   UNL     1     -10.654   7.857  68.156  1.00  0.00    -0.179 A  
HETATM   11  C   UNL     1      -9.996   6.632  68.005  1.00  0.00    -0.157 A  
HETATM   12  C   UNL     1      -9.402   8.753  66.305  1.00  0.00    -0.283 A  
HETATM   13  C   UNL     1      -8.737   7.535  66.160  1.00  0.00    -0.174 A  
HETATM   14  C   UNL     1      -9.033   6.474  67.010  1.00  0.00    -0.121 A  
ENDBRANCH   5   9
BRANCH   6  15
HETATM   15  C   UNL     1     -12.027  13.093  69.282  1.00  0.00    -0.292 A  
HETATM   16  C   UNL     1     -12.396  14.336  71.343  1.00  0.00    -0.431 A  
HETATM   17  C   UNL     1     -12.368  13.130  70.638  1.00  0.00    -0.405 A  
HETATM   18  C   UNL     1     -11.769  15.510  69.335  1.00  0.00    -0.382 A  
HETATM   19  C   UNL     1     -11.726  14.299  68.636  1.00  0.00    -0.380 A  
HETATM   20  C   UNL     1     -12.098  15.526  70.689  1.00  0.00    -0.430 A  
ENDBRANCH   6  15
TORSDOF 2
ENDMDL
MODEL       56
REMARK 921   NORMALIZED FREE ENERGY PREDICTED BY IDOCK:   -4.40 KCAL/MOL
REMARK 922        TOTAL FREE ENERGY PREDICTED BY IDOCK:   -5.19 KCAL/MOL
REMARK 923 INTER-LIGAND FREE ENERGY PREDICTED BY IDOCK:   -5.18 KCAL/MOL
REMARK 924 INTRA-LIGAND FREE ENERGY PREDICTED BY IDOCK:   -0.02 KCAL/MOL
REMARK 927      BINDING AFFINITY PREDICTED BY RF-SCORE:    0.00 PKD
ROOT
HETATM    1  N   UNL     1     -11.721   6.486  69.370  1.00  0.00    -0.632 NA 
HETATM    2  H1  UNL     1     -11.924   5.578  68.950  1.00  0.00     0.000 HD 
HETATM    3  H2  UNL     1     -12.370   7.250  69.182  1.00  0.00     0.000 HD 
HETATM    4  C   UNL     1     -10.703   6.737  70.124  1.00  0.00    -0.233 C  
HETATM    5  N   UNL     1     -10.431   7.953  70.688  1.00  0.00    -0.211 NA 
HETATM    6  N   UNL     1      -9.740   5.818  70.457  1.00  0.00    -0.172 NA 
HETATM    7  H   UNL     1      -9.460   8.129  70.944  1.00  0.00     0.000 HD 
HETATM    8  H   UNL     1      -9.099   6.058  71.212  1.00  0.00     0.000 HD 
ENDROOT
BRANCH   5   9
HETATM    9  C   UNL     1     -11.346   8.986  70.951  1.00  0.00    -0.293 A  
HETATM   10  C   UNL     1     -12.413   8.773  71.833  1.00  0.00    -0.434 A  
HETATM   11  C   UNL     1     -13.313   9.802  72.127  1.00  0.00    -0.527 A  
HETATM   12  C   UNL     1     -11.195  10.258  70.381  1.00  0.00    -0.407 A  
HETATM   13  C   UNL     1     -12.098  11.283  70.664  1.00  0.00    -0.480 A  
HETATM   14  C   UNL     1     -13.158  11.056  71.537  1.00  0.00    -0.500 A  
ENDBRANCH   5   9
BRANCH   6  15
HETATM   15  C   UNL     1      -9.573   4.566  69.829  1.00  0.00    -0.199 A  
HETATM   16  C   UNL     1      -9.240   3.222  67.826  1.00  0.00    -0.240 A  
HETATM   17  C   UNL     1      -9.421   4.462  68.442  1.00  0.00    -0.213 A  
HETATM   18  C   UNL     1      -9.391   2.145  69.975  1.00  0.00    -0.172 A  
HETATM   19  C   UNL     1      -9.556   3.391  70.592  1.00  0.00    -0.238 A  
HETATM   20  C   UNL     1      -9.228   2.063  68.595  1.00  0.00    -0.223 A  
ENDBRANCH   6  15
TORSDOF 2
ENDMDL
MODEL       57
REMARK 921   NORMALIZED FREE ENERGY PREDICTED BY IDOCK:   -4.40 KCAL/MOL
REMARK 922        TOTAL FREE ENERGY PREDICTED BY IDOCK:   -5.19 KCAL/MOL
REMARK 923 INTER-LIGAND FREE ENERGY PREDICTED BY IDOCK:   -5.17 KCAL/MOL
REMARK 924 INTRA-LIGAND FREE ENERGY PREDICTED BY IDOCK:   -0.02 KCAL/MOL
REMARK 927      BINDING AFFINITY PREDICTED BY RF-SCORE:    0.00 PKD
ROOT
HETATM    1  N   UNL     1     -11.762   6.499  69.356  1.00  0.00    -0.632 NA 
HETATM    2  H1  UNL     1     -12.420   7.253  69.157  1.00  0.00     0.000 HD 
HETATM    3  H2  UNL     1     -11.935   5.593  68.921  1.00  0.00     0.000 HD 
HETATM    4  C   UNL     1     -10.725   6.611  70.118  1.00  0.00    -0.239 C  
HETATM    5  N   UNL     1      -9.842   5.601  70.385  1.00  0.00    -0.184 NA 
HETATM    6  N   UNL     1     -10.369   7.758  70.780  1.00  0.00    -0.202 NA 
HETATM    7  H   UNL     1      -9.300   5.685  71.244  1.00  0.00     0.000 HD 
HETATM    8  H   UNL     1      -9.434   7.799  71.185  1.00  0.00     0.000 HD 
ENDROOT
BRANCH   5   9
HETATM    9  C   UNL     1      -9.601   4.460  69.603  1.00  0.00    -0.205 A  
HETATM   10  C   UNL     1      -9.462   3.205  70.211  1.00  0.00    -0.224 A  
HETATM   11  C   UNL     1      -9.251   2.058  69.442  1.00  0.00    -0.181 A  
HETATM   12  C   UNL     1      -9.537   4.533  68.204  1.00  0.00    -0.203 A  
HETATM   13  C   UNL     1      -9.315   3.389  67.434  1.00  0.00    -0.243 A  
HETATM   14  C   UNL     1      -9.172   2.151  68.053  1.00  0.00    -0.242 A  
ENDBRANCH   5   9
BRANCH   6  15
HETATM   15  C   UNL     1     -11.202   8.885  70.939  1.00  0.00    -0.279 A  
HETATM   16  C   UNL     1     -13.093   9.995  71.999  1.00  0.00    -0.541 A  
HETATM   17  C   UNL     1     -12.279   8.872  71.832  1.00  0.00    -0.445 A  
HETATM   18  C   UNL     1     -11.787  11.171  70.351  1.00  0.00    -0.462 A  
HETATM   19  C   UNL     1     -10.964  10.050  70.198  1.00  0.00    -0.368 A  
HETATM   20  C   UNL     1     -12.846  11.144  71.255  1.00  0.00    -0.515 A  
ENDBRANCH   6  15
TORSDOF 2
ENDMDL
MODEL       58
REMARK 921   NORMALIZED FREE ENERGY PREDICTED BY IDOCK:   -4.39 KCAL/MOL
REMARK 922        TOTAL FREE ENERGY PREDICTED BY IDOCK:   -5.18 KCAL/MOL
REMARK 923 INTER-LIGAND FREE ENERGY PREDICTED BY IDOCK:   -4.99 KCAL/MOL
REMARK 924 INTRA-LIGAND FREE ENERGY PREDICTED BY IDOCK:   -0.19 KCAL/MOL
REMARK 927      BINDING AFFINITY PREDICTED BY RF-SCORE:    0.00 PKD
ROOT
HETATM    1  N   UNL     1     -10.376  18.014  68.419  1.00  0.00    -0.380 NA 
HETATM    2  H1  UNL     1     -10.316  18.758  67.723  1.00  0.00     0.000 HD 
HETATM    3  H2  UNL     1     -11.277  17.865  68.876  1.00  0.00     0.000 HD 
HETATM    4  C   UNL     1      -9.395  17.248  68.765  1.00  0.00    -0.239 C  
HETATM    5  N   UNL     1      -9.476  16.252  69.698  1.00  0.00    -0.060 NA 
HETATM    6  N   UNL     1      -8.127  17.335  68.251  1.00  0.00    -0.237 NA 
HETATM    7  H   UNL     1      -8.601  15.970  70.140  1.00  0.00     0.000 HD 
HETATM    8  H   UNL     1      -7.488  16.563  68.436  1.00  0.00     0.000 HD 
ENDROOT
BRANCH   5   9
HETATM    9  C   UNL     1     -10.633  15.574  70.114  1.00  0.00    -0.320 A  
HETATM   10  C   UNL     1     -11.413  16.089  71.157  1.00  0.00    -0.470 A  
HETATM   11  C   UNL     1     -12.584  15.440  71.561  1.00  0.00    -0.462 A  
HETATM   12  C   UNL     1     -11.062  14.401  69.477  1.00  0.00    -0.267 A  
HETATM   13  C   UNL     1     -12.224  13.746  69.886  1.00  0.00    -0.383 A  
HETATM   14  C   UNL     1     -12.986  14.265  70.928  1.00  0.00    -0.395 A  
ENDBRANCH   5   9
BRANCH   6  15
HETATM   15  C   UNL     1      -7.642  18.416  67.484  1.00  0.00    -0.223 A  
HETATM   16  C   UNL     1      -6.952  20.743  67.293  1.00  0.00    -0.414 A  
HETATM   17  C   UNL     1      -7.446  19.679  68.051  1.00  0.00    -0.331 A  
HETATM   18  C   UNL     1      -6.865  19.309  65.359  1.00  0.00    -0.255 A  
HETATM   19  C   UNL     1      -7.345  18.241  66.126  1.00  0.00    -0.298 A  
HETATM   20  C   UNL     1      -6.664  20.556  65.945  1.00  0.00    -0.256 A  
ENDBRANCH   6  15
TORSDOF 2
ENDMDL
MODEL       59
REMARK 921   NORMALIZED FREE ENERGY PREDICTED BY IDOCK:   -4.39 KCAL/MOL
REMARK 922        TOTAL FREE ENERGY PREDICTED BY IDOCK:   -5.18 KCAL/MOL
REMARK 923 INTER-LIGAND FREE ENERGY PREDICTED BY IDOCK:   -4.88 KCAL/MOL
REMARK 924 INTRA-LIGAND FREE ENERGY PREDICTED BY IDOCK:   -0.29 KCAL/MOL
REMARK 927      BINDING AFFINITY PREDICTED BY RF-SCORE:    0.00 PKD
ROOT
HETATM    1  N   UNL     1     -11.999   6.770  70.351  1.00  0.00    -0.575 NA 
HETATM    2  H1  UNL     1     -12.466   7.303  69.617  1.00  0.00     0.000 HD 
HETATM    3  H2  UNL     1     -12.412   5.878  70.624  1.00  0.00     0.000 HD 
HETATM    4  C   UNL     1     -10.922   7.143  70.959  1.00  0.00    -0.252 C  
HETATM    5  N   UNL     1     -10.295   6.428  71.942  1.00  0.00    -0.200 NA 
HETATM    6  N   UNL     1     -10.260   8.318  70.711  1.00  0.00    -0.190 NA 
HETATM    7  H   UNL     1      -9.698   6.956  72.578  1.00  0.00     0.000 HD 
HETATM    8  H   UNL     1      -9.320   8.421  71.094  1.00  0.00     0.000 HD 
ENDROOT
BRANCH   5   9
HETATM    9  C   UNL     1     -10.384   5.046  72.171  1.00  0.00    -0.215 A  
HETATM   10  C   UNL     1      -9.722   4.148  71.324  1.00  0.00    -0.255 A  
HETATM   11  C   UNL     1      -9.779   2.771  71.558  1.00  0.00    -0.225 A  
HETATM   12  C   UNL     1     -11.093   4.531  73.265  1.00  0.00    -0.389 A  
HETATM   13  C   UNL     1     -11.161   3.156  73.495  1.00  0.00    -0.316 A  
HETATM   14  C   UNL     1     -10.504   2.275  72.641  1.00  0.00    -0.214 A  
ENDBRANCH   5   9
BRANCH   6  15
HETATM   15  C   UNL     1     -10.785   9.395  69.966  1.00  0.00    -0.239 A  
HETATM   16  C   UNL     1     -11.094  10.563  67.852  1.00  0.00    -0.367 A  
HETATM   17  C   UNL     1     -10.560   9.504  68.589  1.00  0.00    -0.239 A  
HETATM   18  C   UNL     1     -12.071  11.457  69.865  1.00  0.00    -0.404 A  
HETATM   19  C   UNL     1     -11.548  10.385  70.598  1.00  0.00    -0.440 A  
HETATM   20  C   UNL     1     -11.848  11.541  68.492  1.00  0.00    -0.365 A  
ENDBRANCH   6  15
TORSDOF 2
ENDMDL
MODEL       60
REMARK 921   NORMALIZED FREE ENERGY PREDICTED BY IDOCK:   -4.37 KCAL/MOL
REMARK 922        TOTAL FREE ENERGY PREDICTED BY IDOCK:   -5.16 KCAL/MOL
REMARK 923 INTER-LIGAND FREE ENERGY PREDICTED BY IDOCK:   -4.90 KCAL/MOL
REMARK 924 INTRA-LIGAND FREE ENERGY PREDICTED BY IDOCK:   -0.26 KCAL/MOL
REMARK 927      BINDING AFFINITY PREDICTED BY RF-SCORE:    0.00 PKD
ROOT
HETATM    1  N   UNL     1      -9.847  10.496  66.673  1.00  0.00    -0.192 NA 
HETATM    2  H1  UNL     1      -9.564  11.197  65.987  1.00  0.00     0.000 HD 
HETATM    3  H2  UNL     1      -9.256   9.672  66.779  1.00  0.00     0.000 HD 
HETATM    4  C   UNL     1     -10.901  10.579  67.416  1.00  0.00    -0.291 C  
HETATM    5  N   UNL     1     -11.281   9.640  68.336  1.00  0.00    -0.502 NA 
HETATM    6  N   UNL     1     -11.796  11.617  67.379  1.00  0.00    -0.630 NA 
HETATM    7  H   UNL     1     -12.269   9.624  68.588  1.00  0.00     0.000 HD 
HETATM    8  H   UNL     1     -12.472  11.685  68.139  1.00  0.00     0.000 HD 
ENDROOT
BRANCH   5   9
HETATM    9  C   UNL     1     -10.457   8.695  68.970  1.00  0.00    -0.199 A  
HETATM   10  C   UNL     1      -9.656   9.076  70.054  1.00  0.00    -0.203 A  
HETATM   11  C   UNL     1      -8.854   8.139  70.713  1.00  0.00    -0.149 A  
HETATM   12  C   UNL     1     -10.446   7.352  68.571  1.00  0.00    -0.215 A  
HETATM   13  C   UNL     1      -9.638   6.417  69.220  1.00  0.00    -0.145 A  
HETATM   14  C   UNL     1      -8.841   6.810  70.291  1.00  0.00    -0.152 A  
ENDBRANCH   5   9
BRANCH   6  15
HETATM   15  C   UNL     1     -11.849  12.597  66.366  1.00  0.00    -0.402 A  
HETATM   16  C   UNL     1     -11.457  14.871  65.588  1.00  0.00    -0.290 A  
HETATM   17  C   UNL     1     -11.417  13.907  66.598  1.00  0.00    -0.370 A  
HETATM   18  C   UNL     1     -12.398  13.240  64.086  1.00  0.00    -0.408 A  
HETATM   19  C   UNL     1     -12.341  12.272  65.095  1.00  0.00    -0.279 A  
HETATM   20  C   UNL     1     -11.950  14.536  64.332  1.00  0.00    -0.467 A  
ENDBRANCH   6  15
TORSDOF 2
ENDMDL
MODEL       61
REMARK 921   NORMALIZED FREE ENERGY PREDICTED BY IDOCK:   -4.36 KCAL/MOL
REMARK 922        TOTAL FREE ENERGY PREDICTED BY IDOCK:   -5.15 KCAL/MOL
REMARK 923 INTER-LIGAND FREE ENERGY PREDICTED BY IDOCK:   -6.02 KCAL/MOL
REMARK 924 INTRA-LIGAND FREE ENERGY PREDICTED BY IDOCK:    0.87 KCAL/MOL
REMARK 927      BINDING AFFINITY PREDICTED BY RF-SCORE:    0.00 PKD
ROOT
HETATM    1  N   UNL     1     -11.047  12.873  68.315  1.00  0.00    -0.249 NA 
HETATM    2  H1  UNL     1     -10.962  13.801  68.732  1.00  0.00     0.000 HD 
HETATM    3  H2  UNL     1     -10.600  12.717  67.411  1.00  0.00     0.000 HD 
HETATM    4  C   UNL     1     -11.679  11.882  68.851  1.00  0.00    -0.323 C  
HETATM    5  N   UNL     1     -11.792  10.638  68.293  1.00  0.00    -0.786 NA 
HETATM    6  N   UNL     1     -12.337  11.940  70.052  1.00  0.00    -0.180 NA 
HETATM    7  H   UNL     1     -12.580  10.070  68.602  1.00  0.00     0.000 HD 
HETATM    8  H   UNL     1     -12.625  11.059  70.477  1.00  0.00     0.000 HD 
ENDROOT
BRANCH   5   9
HETATM    9  C   UNL     1     -10.940  10.058  67.339  1.00  0.00    -0.191 A  
HETATM   10  C   UNL     1     -10.633  10.746  66.158  1.00  0.00    -0.241 A  
HETATM   11  C   UNL     1      -9.763  10.192  65.214  1.00  0.00    -0.365 A  
HETATM   12  C   UNL     1     -10.343   8.808  67.557  1.00  0.00    -0.334 A  
HETATM   13  C   UNL     1      -9.482   8.249  66.612  1.00  0.00    -0.271 A  
HETATM   14  C   UNL     1      -9.192   8.940  65.439  1.00  0.00    -0.202 A  
ENDBRANCH   5   9
BRANCH   6  15
HETATM   15  C   UNL     1     -12.645  13.131  70.742  1.00  0.00    -0.260 A  
HETATM   16  C   UNL     1     -12.677  15.563  70.873  1.00  0.00    -0.525 A  
HETATM   17  C   UNL     1     -12.357  14.385  70.194  1.00  0.00    -0.406 A  
HETATM   18  C   UNL     1     -13.559  14.257  72.695  1.00  0.00    -0.601 A  
HETATM   19  C   UNL     1     -13.252  13.079  72.004  1.00  0.00    -0.543 A  
HETATM   20  C   UNL     1     -13.277  15.496  72.126  1.00  0.00    -0.541 A  
ENDBRANCH   6  15
TORSDOF 2
ENDMDL
MODEL       62
REMARK 921   NORMALIZED FREE ENERGY PREDICTED BY IDOCK:   -4.32 KCAL/MOL
REMARK 922        TOTAL FREE ENERGY PREDICTED BY IDOCK:   -5.10 KCAL/MOL
REMARK 923 INTER-LIGAND FREE ENERGY PREDICTED BY IDOCK:   -4.83 KCAL/MOL
REMARK 924 INTRA-LIGAND FREE ENERGY PREDICTED BY IDOCK:   -0.27 KCAL/MOL
REMARK 927      BINDING AFFINITY PREDICTED BY RF-SCORE:    0.00 PKD
ROOT
HETATM    1  N   UNL     1      -9.405   9.993  67.926  1.00  0.00    -0.140 NA 
HETATM    2  H1  UNL     1      -8.599   9.393  67.749  1.00  0.00     0.000 HD 
HETATM    3  H2  UNL     1      -9.225  10.966  68.175  1.00  0.00     0.000 HD 
HETATM    4  C   UNL     1     -10.637   9.610  67.855  1.00  0.00    -0.255 C  
HETATM    5  N   UNL     1     -11.717  10.415  68.091  1.00  0.00    -0.743 NA 
HETATM    6  N   UNL     1     -11.036   8.335  67.545  1.00  0.00    -0.477 NA 
HETATM    7  H   UNL     1     -12.583   9.948  68.359  1.00  0.00     0.000 HD 
HETATM    8  H   UNL     1     -12.019   8.190  67.318  1.00  0.00     0.000 HD 
ENDROOT
BRANCH   5   9
HETATM    9  C   UNL     1     -11.763  11.816  68.005  1.00  0.00    -0.293 A  
HETATM   10  C   UNL     1     -11.762  12.593  69.171  1.00  0.00    -0.375 A  
HETATM   11  C   UNL     1     -11.778  13.989  69.098  1.00  0.00    -0.375 A  
HETATM   12  C   UNL     1     -11.767  12.472  66.766  1.00  0.00    -0.453 A  
HETATM   13  C   UNL     1     -11.794  13.865  66.692  1.00  0.00    -0.447 A  
HETATM   14  C   UNL     1     -11.800  14.625  67.858  1.00  0.00    -0.352 A  
ENDBRANCH   5   9
BRANCH   6  15
HETATM   15  C   UNL     1     -10.184   7.211  67.518  1.00  0.00    -0.212 A  
HETATM   16  C   UNL     1      -9.197   5.268  68.604  1.00  0.00    -0.143 A  
HETATM   17  C   UNL     1     -10.029   6.389  68.639  1.00  0.00    -0.162 A  
HETATM   18  C   UNL     1      -8.623   5.781  66.321  1.00  0.00    -0.130 A  
HETATM   19  C   UNL     1      -9.470   6.895  66.355  1.00  0.00    -0.170 A  
HETATM   20  C   UNL     1      -8.492   4.967  67.443  1.00  0.00    -0.105 A  
ENDBRANCH   6  15
TORSDOF 2
ENDMDL
MODEL       63
REMARK 921   NORMALIZED FREE ENERGY PREDICTED BY IDOCK:   -4.23 KCAL/MOL
REMARK 922        TOTAL FREE ENERGY PREDICTED BY IDOCK:   -5.00 KCAL/MOL
REMARK 923 INTER-LIGAND FREE ENERGY PREDICTED BY IDOCK:   -4.86 KCAL/MOL
REMARK 924 INTRA-LIGAND FREE ENERGY PREDICTED BY IDOCK:   -0.14 KCAL/MOL
REMARK 927      BINDING AFFINITY PREDICTED BY RF-SCORE:    0.00 PKD
ROOT
HETATM    1  N   UNL     1     -11.870  10.964  67.839  1.00  0.00    -0.735 NA 
HETATM    2  H1  UNL     1     -12.284  10.107  67.473  1.00  0.00     0.000 HD 
HETATM    3  H2  UNL     1     -12.252  11.852  67.511  1.00  0.00     0.000 HD 
HETATM    4  C   UNL     1     -10.897  11.007  68.688  1.00  0.00    -0.215 C  
HETATM    5  N   UNL     1     -10.342  12.157  69.179  1.00  0.00    -0.422 NA 
HETATM    6  N   UNL     1     -10.274   9.902  69.208  1.00  0.00    -0.195 NA 
HETATM    7  H   UNL     1      -9.390  12.086  69.536  1.00  0.00     0.000 HD 
HETATM    8  H   UNL     1      -9.664  10.039  70.014  1.00  0.00     0.000 HD 
ENDROOT
BRANCH   5   9
HETATM    9  C   UNL     1     -10.942  13.425  69.245  1.00  0.00    -0.109 A  
HETATM   10  C   UNL     1     -10.694  14.373  68.245  1.00  0.00    -0.246 A  
HETATM   11  C   UNL     1     -11.308  15.629  68.283  1.00  0.00    -0.357 A  
HETATM   12  C   UNL     1     -11.831  13.760  70.276  1.00  0.00    -0.342 A  
HETATM   13  C   UNL     1     -12.437  15.016  70.322  1.00  0.00    -0.385 A  
HETATM   14  C   UNL     1     -12.175  15.952  69.326  1.00  0.00    -0.051 A  
ENDBRANCH   5   9
BRANCH   6  15
HETATM   15  C   UNL     1     -10.414   8.590  68.709  1.00  0.00    -0.184 A  
HETATM   16  C   UNL     1     -11.063   6.262  69.010  1.00  0.00    -0.446 A  
HETATM   17  C   UNL     1     -10.911   7.557  69.511  1.00  0.00    -0.184 A  
HETATM   18  C   UNL     1     -10.191   6.995  66.887  1.00  0.00    -0.318 A  
HETATM   19  C   UNL     1     -10.055   8.295  67.388  1.00  0.00    -0.298 A  
HETATM   20  C   UNL     1     -10.700   5.983  67.696  1.00  0.00    -0.377 A  
ENDBRANCH   6  15
TORSDOF 2
ENDMDL
MODEL       64
REMARK 921   NORMALIZED FREE ENERGY PREDICTED BY IDOCK:   -4.20 KCAL/MOL
REMARK 922        TOTAL FREE ENERGY PREDICTED BY IDOCK:   -4.97 KCAL/MOL
REMARK 923 INTER-LIGAND FREE ENERGY PREDICTED BY IDOCK:   -4.73 KCAL/MOL
REMARK 924 INTRA-LIGAND FREE ENERGY PREDICTED BY IDOCK:   -0.24 KCAL/MOL
REMARK 927      BINDING AFFINITY PREDICTED BY RF-SCORE:    0.00 PKD
ROOT
HETATM    1  N   UNL     1     -11.555   6.120  70.966  1.00  0.00    -0.263 NA 
HETATM    2  H1  UNL     1     -11.788   5.147  70.763  1.00  0.00     0.000 HD 
HETATM    3  H2  UNL     1     -11.864   6.829  70.301  1.00  0.00     0.000 HD 
HETATM    4  C   UNL     1     -10.898   6.517  72.005  1.00  0.00    -0.234 C  
HETATM    5  N   UNL     1     -10.586   7.821  72.278  1.00  0.00    -0.239 NA 
HETATM    6  N   UNL     1     -10.408   5.684  72.978  1.00  0.00    -0.192 NA 
HETATM    7  H   UNL     1      -9.790   7.979  72.895  1.00  0.00     0.000 HD 
HETATM    8  H   UNL     1     -10.088   6.109  73.847  1.00  0.00     0.000 HD 
ENDROOT
BRANCH   5   9
HETATM    9  C   UNL     1     -11.245   8.966  71.801  1.00  0.00    -0.362 A  
HETATM   10  C   UNL     1     -10.666   9.739  70.786  1.00  0.00    -0.393 A  
HETATM   11  C   UNL     1     -11.325  10.864  70.282  1.00  0.00    -0.342 A  
HETATM   12  C   UNL     1     -12.505   9.340  72.288  1.00  0.00    -0.377 A  
HETATM   13  C   UNL     1     -13.160  10.469  71.793  1.00  0.00    -0.570 A  
HETATM   14  C   UNL     1     -12.570  11.232  70.790  1.00  0.00    -0.425 A  
ENDBRANCH   5   9
BRANCH   6  15
HETATM   15  C   UNL     1     -10.316   4.281  72.863  1.00  0.00    -0.175 A  
HETATM   16  C   UNL     1      -9.292   2.292  71.900  1.00  0.00    -0.172 A  
HETATM   17  C   UNL     1      -9.391   3.681  72.000  1.00  0.00    -0.183 A  
HETATM   18  C   UNL     1     -11.072   2.061  73.507  1.00  0.00    -0.294 A  
HETATM   19  C   UNL     1     -11.158   3.454  73.617  1.00  0.00    -0.316 A  
HETATM   20  C   UNL     1     -10.136   1.482  72.653  1.00  0.00    -0.190 A  
ENDBRANCH   6  15
TORSDOF 2
ENDMDL
MODEL       65
REMARK 921   NORMALIZED FREE ENERGY PREDICTED BY IDOCK:   -4.16 KCAL/MOL
REMARK 922        TOTAL FREE ENERGY PREDICTED BY IDOCK:   -4.92 KCAL/MOL
REMARK 923 INTER-LIGAND FREE ENERGY PREDICTED BY IDOCK:   -4.75 KCAL/MOL
REMARK 924 INTRA-LIGAND FREE ENERGY PREDICTED BY IDOCK:   -0.17 KCAL/MOL
REMARK 927      BINDING AFFINITY PREDICTED BY RF-SCORE:    0.00 PKD
ROOT
HETATM    1  N   UNL     1      -9.460  10.190  66.990  1.00  0.00    -0.164 NA 
HETATM    2  H1  UNL     1      -9.163  11.162  66.903  1.00  0.00     0.000 HD 
HETATM    3  H2  UNL     1      -8.798   9.466  66.710  1.00  0.00     0.000 HD 
HETATM    4  C   UNL     1     -10.615   9.810  67.428  1.00  0.00    -0.267 C  
HETATM    5  N   UNL     1     -11.013   8.507  67.545  1.00  0.00    -0.466 NA 
HETATM    6  N   UNL     1     -11.611  10.663  67.829  1.00  0.00    -0.662 NA 
HETATM    7  H   UNL     1     -12.019   8.337  67.549  1.00  0.00     0.000 HD 
HETATM    8  H   UNL     1     -12.395  10.266  68.344  1.00  0.00     0.000 HD 
ENDROOT
BRANCH   5   9
HETATM    9  C   UNL     1     -10.187   7.377  67.659  1.00  0.00    -0.201 A  
HETATM   10  C   UNL     1      -9.257   7.288  68.703  1.00  0.00    -0.136 A  
HETATM   11  C   UNL     1      -8.449   6.156  68.845  1.00  0.00    -0.118 A  
HETATM   12  C   UNL     1     -10.299   6.298  66.771  1.00  0.00    -0.285 A  
HETATM   13  C   UNL     1      -9.486   5.171  66.905  1.00  0.00    -0.142 A  
HETATM   14  C   UNL     1      -8.560   5.100  67.942  1.00  0.00    -0.103 A  
ENDBRANCH   5   9
BRANCH   6  15
HETATM   15  C   UNL     1     -11.628  12.052  67.579  1.00  0.00    -0.330 A  
HETATM   16  C   UNL     1     -11.942  13.934  66.067  1.00  0.00    -0.436 A  
HETATM   17  C   UNL     1     -11.911  12.559  66.306  1.00  0.00    -0.453 A  
HETATM   18  C   UNL     1     -11.373  14.337  68.373  1.00  0.00    -0.309 A  
HETATM   19  C   UNL     1     -11.358  12.958  68.614  1.00  0.00    -0.327 A  
HETATM   20  C   UNL     1     -11.671  14.823  67.102  1.00  0.00    -0.351 A  
ENDBRANCH   6  15
TORSDOF 2
ENDMDL
MODEL       66
REMARK 921   NORMALIZED FREE ENERGY PREDICTED BY IDOCK:   -4.13 KCAL/MOL
REMARK 922        TOTAL FREE ENERGY PREDICTED BY IDOCK:   -4.89 KCAL/MOL
REMARK 923 INTER-LIGAND FREE ENERGY PREDICTED BY IDOCK:   -4.59 KCAL/MOL
REMARK 924 INTRA-LIGAND FREE ENERGY PREDICTED BY IDOCK:   -0.30 KCAL/MOL
REMARK 927      BINDING AFFINITY PREDICTED BY RF-SCORE:    0.00 PKD
ROOT
HETATM    1  N   UNL     1     -11.599  11.085  67.519  1.00  0.00    -0.543 NA 
HETATM    2  H1  UNL     1     -12.021  10.527  68.261  1.00  0.00     0.000 HD 
HETATM    3  H2  UNL     1     -12.132  11.877  67.159  1.00  0.00     0.000 HD 
HETATM    4  C   UNL     1     -10.436  10.862  67.002  1.00  0.00    -0.244 C  
HETATM    5  N   UNL     1      -9.869  11.610  66.008  1.00  0.00    -0.222 NA 
HETATM    6  N   UNL     1      -9.609   9.832  67.371  1.00  0.00    -0.151 NA 
HETATM    7  H   UNL     1      -9.151  11.153  65.446  1.00  0.00     0.000 HD 
HETATM    8  H   UNL     1      -8.641   9.865  67.051  1.00  0.00     0.000 HD 
ENDROOT
BRANCH   5   9
HETATM    9  C   UNL     1     -10.168  12.942  65.676  1.00  0.00    -0.285 A  
HETATM   10  C   UNL     1     -11.013  13.225  64.595  1.00  0.00    -0.384 A  
HETATM   11  C   UNL     1     -11.342  14.545  64.273  1.00  0.00    -0.135 A  
HETATM   12  C   UNL     1      -9.671  14.012  66.433  1.00  0.00    -0.309 A  
HETATM   13  C   UNL     1      -9.990  15.331  66.105  1.00  0.00    -0.325 A  
HETATM   14  C   UNL     1     -10.826  15.598  65.025  1.00  0.00    -0.468 A  
ENDBRANCH   5   9
BRANCH   6  15
HETATM   15  C   UNL     1     -10.000   8.730  68.160  1.00  0.00    -0.173 A  
HETATM   16  C   UNL     1     -11.032   6.536  68.380  1.00  0.00    -0.358 A  
HETATM   17  C   UNL     1     -10.660   7.632  67.599  1.00  0.00    -0.294 A  
HETATM   18  C   UNL     1     -10.118   7.627  70.324  1.00  0.00    -0.198 A  
HETATM   19  C   UNL     1      -9.732   8.716  69.535  1.00  0.00    -0.179 A  
HETATM   20  C   UNL     1     -10.762   6.536  69.745  1.00  0.00    -0.322 A  
ENDBRANCH   6  15
TORSDOF 2
ENDMDL
MODEL       67
REMARK 921   NORMALIZED FREE ENERGY PREDICTED BY IDOCK:   -4.13 KCAL/MOL
REMARK 922        TOTAL FREE ENERGY PREDICTED BY IDOCK:   -4.89 KCAL/MOL
REMARK 923 INTER-LIGAND FREE ENERGY PREDICTED BY IDOCK:   -4.62 KCAL/MOL
REMARK 924 INTRA-LIGAND FREE ENERGY PREDICTED BY IDOCK:   -0.27 KCAL/MOL
REMARK 927      BINDING AFFINITY PREDICTED BY RF-SCORE:    0.00 PKD
ROOT
HETATM    1  N   UNL     1      -9.620  13.631  67.894  1.00  0.00    -0.215 NA 
HETATM    2  H1  UNL     1      -9.549  12.855  68.552  1.00  0.00     0.000 HD 
HETATM    3  H2  UNL     1      -9.871  14.547  68.267  1.00  0.00     0.000 HD 
HETATM    4  C   UNL     1      -9.416  13.537  66.621  1.00  0.00    -0.265 C  
HETATM    5  N   UNL     1      -9.512  14.578  65.739  1.00  0.00    -0.531 NA 
HETATM    6  N   UNL     1      -9.086  12.375  65.973  1.00  0.00    -0.429 NA 
HETATM    7  H   UNL     1      -9.687  14.334  64.764  1.00  0.00     0.000 HD 
HETATM    8  H   UNL     1      -8.750  12.448  65.013  1.00  0.00     0.000 HD 
ENDROOT
BRANCH   5   9
HETATM    9  C   UNL     1      -9.395  15.947  66.029  1.00  0.00    -0.349 A  
HETATM   10  C   UNL     1      -8.164  16.477  66.439  1.00  0.00    -0.364 A  
HETATM   11  C   UNL     1      -8.028  17.843  66.703  1.00  0.00    -0.278 A  
HETATM   12  C   UNL     1     -10.480  16.821  65.877  1.00  0.00    -0.311 A  
HETATM   13  C   UNL     1     -10.349  18.183  66.150  1.00  0.00    -0.394 A  
HETATM   14  C   UNL     1      -9.122  18.695  66.564  1.00  0.00    -0.317 A  
ENDBRANCH   5   9
BRANCH   6  15
HETATM   15  C   UNL     1      -9.177  11.086  66.538  1.00  0.00    -0.171 A  
HETATM   16  C   UNL     1      -8.161   9.191  67.681  1.00  0.00    -0.108 A  
HETATM   17  C   UNL     1      -8.063  10.462  67.109  1.00  0.00    -0.115 A  
HETATM   18  C   UNL     1     -10.496   9.119  67.093  1.00  0.00    -0.325 A  
HETATM   19  C   UNL     1     -10.399  10.399  66.535  1.00  0.00    -0.287 A  
HETATM   20  C   UNL     1      -9.379   8.520  67.670  1.00  0.00    -0.157 A  
ENDBRANCH   6  15
TORSDOF 2
ENDMDL
MODEL       68
REMARK 921   NORMALIZED FREE ENERGY PREDICTED BY IDOCK:   -4.12 KCAL/MOL
REMARK 922        TOTAL FREE ENERGY PREDICTED BY IDOCK:   -4.88 KCAL/MOL
REMARK 923 INTER-LIGAND FREE ENERGY PREDICTED BY IDOCK:   -4.71 KCAL/MOL
REMARK 924 INTRA-LIGAND FREE ENERGY PREDICTED BY IDOCK:   -0.17 KCAL/MOL
REMARK 927      BINDING AFFINITY PREDICTED BY RF-SCORE:    0.00 PKD
ROOT
HETATM    1  N   UNL     1     -11.428   6.665  68.656  1.00  0.00    -0.570 NA 
HETATM    2  H1  UNL     1     -11.997   7.512  68.651  1.00  0.00     0.000 HD 
HETATM    3  H2  UNL     1     -11.236   6.219  67.758  1.00  0.00     0.000 HD 
HETATM    4  C   UNL     1     -10.933   6.117  69.715  1.00  0.00    -0.390 C  
HETATM    5  N   UNL     1     -10.170   4.981  69.721  1.00  0.00    -0.277 NA 
HETATM    6  N   UNL     1     -11.114   6.590  70.990  1.00  0.00    -0.273 NA 
HETATM    7  H   UNL     1     -10.144   4.455  70.594  1.00  0.00     0.000 HD 
HETATM    8  H   UNL     1     -10.520   6.208  71.725  1.00  0.00     0.000 HD 
ENDROOT
BRANCH   5   9
HETATM    9  C   UNL     1      -9.419   4.461  68.655  1.00  0.00    -0.155 A  
HETATM   10  C   UNL     1      -8.461   5.259  68.014  1.00  0.00    -0.097 A  
HETATM   11  C   UNL     1      -7.687   4.744  66.970  1.00  0.00    -0.091 A  
HETATM   12  C   UNL     1      -9.572   3.133  68.233  1.00  0.00    -0.133 A  
HETATM   13  C   UNL     1      -8.807   2.621  67.184  1.00  0.00    -0.158 A  
HETATM   14  C   UNL     1      -7.864   3.426  66.552  1.00  0.00    -0.081 A  
ENDBRANCH   5   9
BRANCH   6  15
HETATM   15  C   UNL     1     -12.062   7.569  71.357  1.00  0.00    -0.327 A  
HETATM   16  C   UNL     1     -12.629   9.866  71.931  1.00  0.00    -0.471 A  
HETATM   17  C   UNL     1     -11.685   8.897  71.582  1.00  0.00    -0.411 A  
HETATM   18  C   UNL     1     -14.357   8.188  71.869  1.00  0.00    -0.566 A  
HETATM   19  C   UNL     1     -13.412   7.223  71.504  1.00  0.00    -0.439 A  
HETATM   20  C   UNL     1     -13.966   9.509  72.076  1.00  0.00    -0.275 A  
ENDBRANCH   6  15
TORSDOF 2
ENDMDL
MODEL       69
REMARK 921   NORMALIZED FREE ENERGY PREDICTED BY IDOCK:   -4.04 KCAL/MOL
REMARK 922        TOTAL FREE ENERGY PREDICTED BY IDOCK:   -4.79 KCAL/MOL
REMARK 923 INTER-LIGAND FREE ENERGY PREDICTED BY IDOCK:   -4.65 KCAL/MOL
REMARK 924 INTRA-LIGAND FREE ENERGY PREDICTED BY IDOCK:   -0.14 KCAL/MOL
REMARK 927      BINDING AFFINITY PREDICTED BY RF-SCORE:    0.00 PKD
ROOT
HETATM    1  N   UNL     1      -9.332   9.212  67.351  1.00  0.00    -0.133 NA 
HETATM    2  H1  UNL     1      -8.690   8.437  67.181  1.00  0.00     0.000 HD 
HETATM    3  H2  UNL     1      -8.956  10.159  67.301  1.00  0.00     0.000 HD 
HETATM    4  C   UNL     1     -10.588   9.079  67.625  1.00  0.00    -0.231 C  
HETATM    5  N   UNL     1     -11.449  10.117  67.852  1.00  0.00    -0.636 NA 
HETATM    6  N   UNL     1     -11.233   7.874  67.738  1.00  0.00    -0.245 NA 
HETATM    7  H   UNL     1     -12.285   9.904  68.395  1.00  0.00     0.000 HD 
HETATM    8  H   UNL     1     -12.253   7.884  67.754  1.00  0.00     0.000 HD 
ENDROOT
BRANCH   5   9
HETATM    9  C   UNL     1     -11.307  11.445  67.418  1.00  0.00    -0.288 A  
HETATM   10  C   UNL     1     -11.036  11.720  66.071  1.00  0.00    -0.355 A  
HETATM   11  C   UNL     1     -10.921  13.038  65.621  1.00  0.00    -0.296 A  
HETATM   12  C   UNL     1     -11.473  12.523  68.299  1.00  0.00    -0.355 A  
HETATM   13  C   UNL     1     -11.348  13.840  67.853  1.00  0.00    -0.328 A  
HETATM   14  C   UNL     1     -11.072  14.098  66.514  1.00  0.00    -0.318 A  
ENDBRANCH   5   9
BRANCH   6  15
HETATM   15  C   UNL     1     -10.589   6.623  67.836  1.00  0.00    -0.247 A  
HETATM   16  C   UNL     1      -9.790   4.561  66.817  1.00  0.00    -0.242 A  
HETATM   17  C   UNL     1     -10.442   5.792  66.720  1.00  0.00    -0.350 A  
HETATM   18  C   UNL     1      -9.440   4.945  69.169  1.00  0.00    -0.205 A  
HETATM   19  C   UNL     1     -10.080   6.186  69.066  1.00  0.00    -0.213 A  
HETATM   20  C   UNL     1      -9.291   4.138  68.044  1.00  0.00    -0.213 A  
ENDBRANCH   6  15
TORSDOF 2
ENDMDL
MODEL       70
REMARK 921   NORMALIZED FREE ENERGY PREDICTED BY IDOCK:   -4.04 KCAL/MOL
REMARK 922        TOTAL FREE ENERGY PREDICTED BY IDOCK:   -4.79 KCAL/MOL
REMARK 923 INTER-LIGAND FREE ENERGY PREDICTED BY IDOCK:   -5.43 KCAL/MOL
REMARK 924 INTRA-LIGAND FREE ENERGY PREDICTED BY IDOCK:    0.64 KCAL/MOL
REMARK 927      BINDING AFFINITY PREDICTED BY RF-SCORE:    0.00 PKD
ROOT
HETATM    1  N   UNL     1     -11.528  13.243  67.957  1.00  0.00    -0.289 NA 
HETATM    2  H1  UNL     1     -11.610  14.053  68.572  1.00  0.00     0.000 HD 
HETATM    3  H2  UNL     1     -11.323  13.415  66.973  1.00  0.00     0.000 HD 
HETATM    4  C   UNL     1     -11.664  12.015  68.335  1.00  0.00    -0.332 C  
HETATM    5  N   UNL     1     -11.553  10.929  67.511  1.00  0.00    -0.522 NA 
HETATM    6  N   UNL     1     -11.952  11.627  69.618  1.00  0.00    -0.322 NA 
HETATM    7  H   UNL     1     -12.021  10.076  67.816  1.00  0.00     0.000 HD 
HETATM    8  H   UNL     1     -11.838  10.641  69.851  1.00  0.00     0.000 HD 
ENDROOT
BRANCH   5   9
HETATM    9  C   UNL     1     -10.865  10.862  66.288  1.00  0.00    -0.124 A  
HETATM   10  C   UNL     1      -9.781   9.988  66.138  1.00  0.00    -0.286 A  
HETATM   11  C   UNL     1      -9.107   9.890  64.917  1.00  0.00    -0.271 A  
HETATM   12  C   UNL     1     -11.265  11.626  65.183  1.00  0.00    -0.262 A  
HETATM   13  C   UNL     1     -10.586  11.538  63.966  1.00  0.00    -0.437 A  
HETATM   14  C   UNL     1      -9.506  10.670  63.833  1.00  0.00    -0.325 A  
ENDBRANCH   5   9
BRANCH   6  15
HETATM   15  C   UNL     1     -12.396  12.493  70.640  1.00  0.00    -0.282 A  
HETATM   16  C   UNL     1     -13.636  12.890  72.698  1.00  0.00    -0.247 A  
HETATM   17  C   UNL     1     -13.211  12.033  71.680  1.00  0.00    -0.361 A  
HETATM   18  C   UNL     1     -12.464  14.709  71.639  1.00  0.00    -0.410 A  
HETATM   19  C   UNL     1     -12.026  13.844  70.629  1.00  0.00    -0.364 A  
HETATM   20  C   UNL     1     -13.263  14.230  72.674  1.00  0.00    -0.601 A  
ENDBRANCH   6  15
TORSDOF 2
ENDMDL
MODEL       71
REMARK 921   NORMALIZED FREE ENERGY PREDICTED BY IDOCK:   -3.94 KCAL/MOL
REMARK 922        TOTAL FREE ENERGY PREDICTED BY IDOCK:   -4.68 KCAL/MOL
REMARK 923 INTER-LIGAND FREE ENERGY PREDICTED BY IDOCK:   -4.39 KCAL/MOL
REMARK 924 INTRA-LIGAND FREE ENERGY PREDICTED BY IDOCK:   -0.29 KCAL/MOL
REMARK 927      BINDING AFFINITY PREDICTED BY RF-SCORE:    0.00 PKD
ROOT
HETATM    1  N   UNL     1     -11.493  13.818  68.052  1.00  0.00    -0.291 NA 
HETATM    2  H1  UNL     1     -12.044  14.644  67.818  1.00  0.00     0.000 HD 
HETATM    3  H2  UNL     1     -11.997  12.977  68.334  1.00  0.00     0.000 HD 
HETATM    4  C   UNL     1     -10.203  13.760  68.018  1.00  0.00    -0.248 C  
HETATM    5  N   UNL     1      -9.464  12.653  68.332  1.00  0.00    -0.325 NA 
HETATM    6  N   UNL     1      -9.389  14.809  67.673  1.00  0.00    -0.193 NA 
HETATM    7  H   UNL     1      -8.498  12.816  68.617  1.00  0.00     0.000 HD 
HETATM    8  H   UNL     1      -8.409  14.603  67.481  1.00  0.00     0.000 HD 
ENDROOT
BRANCH   5   9
HETATM    9  C   UNL     1      -9.892  11.316  68.306  1.00  0.00    -0.197 A  
HETATM   10  C   UNL     1     -10.114  10.672  67.082  1.00  0.00    -0.248 A  
HETATM   11  C   UNL     1     -10.511   9.332  67.042  1.00  0.00    -0.303 A  
HETATM   12  C   UNL     1     -10.064  10.581  69.488  1.00  0.00    -0.208 A  
HETATM   13  C   UNL     1     -10.472   9.246  69.450  1.00  0.00    -0.229 A  
HETATM   14  C   UNL     1     -10.695   8.621  68.227  1.00  0.00    -0.107 A  
ENDBRANCH   5   9
BRANCH   6  15
HETATM   15  C   UNL     1      -9.810  16.151  67.563  1.00  0.00    -0.237 A  
HETATM   16  C   UNL     1     -10.284  18.317  68.570  1.00  0.00    -0.402 A  
HETATM   17  C   UNL     1      -9.881  16.984  68.685  1.00  0.00    -0.290 A  
HETATM   18  C   UNL     1     -10.589  18.009  66.200  1.00  0.00    -0.269 A  
HETATM   19  C   UNL     1     -10.170  16.678  66.316  1.00  0.00    -0.344 A  
HETATM   20  C   UNL     1     -10.640  18.827  67.326  1.00  0.00    -0.504 A  
ENDBRANCH   6  15
TORSDOF 2
ENDMDL
MODEL       72
REMARK 921   NORMALIZED FREE ENERGY PREDICTED BY IDOCK:   -3.93 KCAL/MOL
REMARK 922        TOTAL FREE ENERGY PREDICTED BY IDOCK:   -4.67 KCAL/MOL
REMARK 923 INTER-LIGAND FREE ENERGY PREDICTED BY IDOCK:   -4.50 KCAL/MOL
REMARK 924 INTRA-LIGAND FREE ENERGY PREDICTED BY IDOCK:   -0.17 KCAL/MOL
REMARK 927      BINDING AFFINITY PREDICTED BY RF-SCORE:    0.00 PKD
ROOT
HETATM    1  N   UNL     1      -9.135   7.924  69.222  1.00  0.00    -0.148 NA 
HETATM    2  H1  UNL     1      -8.683   7.230  69.817  1.00  0.00     0.000 HD 
HETATM    3  H2  UNL     1      -8.543   8.630  68.784  1.00  0.00     0.000 HD 
HETATM    4  C   UNL     1     -10.404   7.972  68.981  1.00  0.00    -0.218 C  
HETATM    5  N   UNL     1     -11.010   8.901  68.182  1.00  0.00    -0.473 NA 
HETATM    6  N   UNL     1     -11.325   7.102  69.505  1.00  0.00    -0.491 NA 
HETATM    7  H   UNL     1     -12.002   9.067  68.348  1.00  0.00     0.000 HD 
HETATM    8  H   UNL     1     -12.259   7.100  69.096  1.00  0.00     0.000 HD 
ENDROOT
BRANCH   5   9
HETATM    9  C   UNL     1     -10.414   9.654  67.157  1.00  0.00    -0.249 A  
HETATM   10  C   UNL     1      -9.831   9.008  66.058  1.00  0.00    -0.312 A  
HETATM   11  C   UNL     1      -9.260   9.747  65.017  1.00  0.00    -0.307 A  
HETATM   12  C   UNL     1     -10.423  11.055  67.179  1.00  0.00    -0.274 A  
HETATM   13  C   UNL     1      -9.844  11.794  66.146  1.00  0.00    -0.254 A  
HETATM   14  C   UNL     1      -9.262  11.140  65.065  1.00  0.00    -0.190 A  
ENDBRANCH   5   9
BRANCH   6  15
HETATM   15  C   UNL     1     -11.075   6.210  70.569  1.00  0.00    -0.337 A  
HETATM   16  C   UNL     1     -10.202   4.097  71.407  1.00  0.00    -0.091 A  
HETATM   17  C   UNL     1     -10.462   4.971  70.350  1.00  0.00    -0.237 A  
HETATM   18  C   UNL     1     -11.195   5.671  72.937  1.00  0.00    -0.338 A  
HETATM   19  C   UNL     1     -11.439   6.552  71.878  1.00  0.00    -0.345 A  
HETATM   20  C   UNL     1     -10.571   4.448  72.702  1.00  0.00    -0.233 A  
ENDBRANCH   6  15
TORSDOF 2
ENDMDL
MODEL       73
REMARK 921   NORMALIZED FREE ENERGY PREDICTED BY IDOCK:   -3.92 KCAL/MOL
REMARK 922        TOTAL FREE ENERGY PREDICTED BY IDOCK:   -4.65 KCAL/MOL
REMARK 923 INTER-LIGAND FREE ENERGY PREDICTED BY IDOCK:   -4.35 KCAL/MOL
REMARK 924 INTRA-LIGAND FREE ENERGY PREDICTED BY IDOCK:   -0.30 KCAL/MOL
REMARK 927      BINDING AFFINITY PREDICTED BY RF-SCORE:    0.00 PKD
ROOT
HETATM    1  N   UNL     1     -11.066   7.373  68.236  1.00  0.00    -0.449 NA 
HETATM    2  H1  UNL     1     -10.882   7.210  67.245  1.00  0.00     0.000 HD 
HETATM    3  H2  UNL     1     -11.617   8.194  68.486  1.00  0.00     0.000 HD 
HETATM    4  C   UNL     1     -10.653   6.613  69.196  1.00  0.00    -0.244 C  
HETATM    5  N   UNL     1     -10.900   6.831  70.523  1.00  0.00    -0.244 NA 
HETATM    6  N   UNL     1      -9.895   5.484  69.019  1.00  0.00    -0.150 NA 
HETATM    7  H   UNL     1     -10.251   6.404  71.183  1.00  0.00     0.000 HD 
HETATM    8  H   UNL     1      -9.796   4.852  69.812  1.00  0.00     0.000 HD 
ENDROOT
BRANCH   5   9
HETATM    9  C   UNL     1     -11.950   7.581  71.076  1.00  0.00    -0.290 A  
HETATM   10  C   UNL     1     -13.223   7.013  71.215  1.00  0.00    -0.304 A  
HETATM   11  C   UNL     1     -14.270   7.739  71.791  1.00  0.00    -0.558 A  
HETATM   12  C   UNL     1     -11.749   8.889  71.539  1.00  0.00    -0.394 A  
HETATM   13  C   UNL     1     -12.796   9.620  72.104  1.00  0.00    -0.460 A  
HETATM   14  C   UNL     1     -14.057   9.045  72.230  1.00  0.00    -0.485 A  
ENDBRANCH   5   9
BRANCH   6  15
HETATM   15  C   UNL     1      -9.242   5.134  67.818  1.00  0.00    -0.115 A  
HETATM   16  C   UNL     1      -9.195   3.938  65.698  1.00  0.00    -0.152 A  
HETATM   17  C   UNL     1      -9.837   4.270  66.892  1.00  0.00    -0.224 A  
HETATM   18  C   UNL     1      -7.319   5.306  66.339  1.00  0.00    -0.082 A  
HETATM   19  C   UNL     1      -7.972   5.650  67.528  1.00  0.00    -0.102 A  
HETATM   20  C   UNL     1      -7.933   4.456  65.423  1.00  0.00    -0.098 A  
ENDBRANCH   6  15
TORSDOF 2
ENDMDL
MODEL       74
REMARK 921   NORMALIZED FREE ENERGY PREDICTED BY IDOCK:   -3.88 KCAL/MOL
REMARK 922        TOTAL FREE ENERGY PREDICTED BY IDOCK:   -4.61 KCAL/MOL
REMARK 923 INTER-LIGAND FREE ENERGY PREDICTED BY IDOCK:   -5.06 KCAL/MOL
REMARK 924 INTRA-LIGAND FREE ENERGY PREDICTED BY IDOCK:    0.46 KCAL/MOL
REMARK 927      BINDING AFFINITY PREDICTED BY RF-SCORE:    0.00 PKD
ROOT
HETATM    1  N   UNL     1     -10.125   8.851  71.971  1.00  0.00    -0.329 NA 
HETATM    2  H1  UNL     1      -9.410   8.153  72.178  1.00  0.00     0.000 HD 
HETATM    3  H2  UNL     1      -9.811   9.780  71.688  1.00  0.00     0.000 HD 
HETATM    4  C   UNL     1     -11.398   8.644  72.042  1.00  0.00    -0.362 C  
HETATM    5  N   UNL     1     -12.356   9.580  71.765  1.00  0.00    -0.382 NA 
HETATM    6  N   UNL     1     -11.970   7.456  72.419  1.00  0.00    -0.476 NA 
HETATM    7  H   UNL     1     -13.272   9.433  72.188  1.00  0.00     0.000 HD 
HETATM    8  H   UNL     1     -12.968   7.336  72.247  1.00  0.00     0.000 HD 
ENDROOT
BRANCH   5   9
HETATM    9  C   UNL     1     -12.215  10.722  70.961  1.00  0.00    -0.380 A  
HETATM   10  C   UNL     1     -12.606  11.977  71.445  1.00  0.00    -0.330 A  
HETATM   11  C   UNL     1     -12.444  13.126  70.665  1.00  0.00    -0.363 A  
HETATM   12  C   UNL     1     -11.644  10.649  69.682  1.00  0.00    -0.368 A  
HETATM   13  C   UNL     1     -11.491  11.794  68.898  1.00  0.00    -0.357 A  
HETATM   14  C   UNL     1     -11.891  13.033  69.389  1.00  0.00    -0.380 A  
ENDBRANCH   5   9
BRANCH   6  15
HETATM   15  C   UNL     1     -11.278   6.388  73.027  1.00  0.00    -0.143 A  
HETATM   16  C   UNL     1     -11.021   4.010  73.483  1.00  0.00    -0.354 A  
HETATM   17  C   UNL     1     -11.717   5.066  72.892  1.00  0.00    -0.200 A  
HETATM   18  C   UNL     1      -9.436   5.579  74.394  1.00  0.00    -0.146 A  
HETATM   19  C   UNL     1     -10.127   6.634  73.787  1.00  0.00    -0.325 A  
HETATM   20  C   UNL     1      -9.880   4.269  74.237  1.00  0.00    -0.169 A  
ENDBRANCH   6  15
TORSDOF 2
ENDMDL
MODEL       75
REMARK 921   NORMALIZED FREE ENERGY PREDICTED BY IDOCK:   -3.84 KCAL/MOL
REMARK 922        TOTAL FREE ENERGY PREDICTED BY IDOCK:   -4.57 KCAL/MOL
REMARK 923 INTER-LIGAND FREE ENERGY PREDICTED BY IDOCK:   -4.29 KCAL/MOL
REMARK 924 INTRA-LIGAND FREE ENERGY PREDICTED BY IDOCK:   -0.28 KCAL/MOL
REMARK 927      BINDING AFFINITY PREDICTED BY RF-SCORE:    0.00 PKD
ROOT
HETATM    1  N   UNL     1      -9.384  10.198  66.450  1.00  0.00    -0.164 NA 
HETATM    2  H1  UNL     1      -8.824  10.940  66.029  1.00  0.00     0.000 HD 
HETATM    3  H2  UNL     1      -9.086   9.234  66.297  1.00  0.00     0.000 HD 
HETATM    4  C   UNL     1     -10.444  10.392  67.163  1.00  0.00    -0.256 C  
HETATM    5  N   UNL     1     -11.196   9.398  67.727  1.00  0.00    -0.433 NA 
HETATM    6  N   UNL     1     -10.974  11.625  67.444  1.00  0.00    -0.245 NA 
HETATM    7  H   UNL     1     -12.165   9.628  67.944  1.00  0.00     0.000 HD 
HETATM    8  H   UNL     1     -11.683  11.679  68.175  1.00  0.00     0.000 HD 
ENDROOT
BRANCH   5   9
HETATM    9  C   UNL     1     -10.777   8.095  68.040  1.00  0.00    -0.044 A  
HETATM   10  C   UNL     1     -10.928   7.063  67.104  1.00  0.00    -0.393 A  
HETATM   11  C   UNL     1     -10.488   5.768  67.392  1.00  0.00    -0.318 A  
HETATM   12  C   UNL     1     -10.162   7.799  69.265  1.00  0.00    -0.211 A  
HETATM   13  C   UNL     1      -9.732   6.504  69.558  1.00  0.00    -0.161 A  
HETATM   14  C   UNL     1      -9.895   5.488  68.622  1.00  0.00    -0.198 A  
ENDBRANCH   5   9
BRANCH   6  15
HETATM   15  C   UNL     1     -10.609  12.824  66.797  1.00  0.00    -0.252 A  
HETATM   16  C   UNL     1     -10.751  14.339  64.896  1.00  0.00    -0.448 A  
HETATM   17  C   UNL     1     -11.103  13.144  65.528  1.00  0.00    -0.299 A  
HETATM   18  C   UNL     1      -9.367  14.915  66.782  1.00  0.00    -0.270 A  
HETATM   19  C   UNL     1      -9.734  13.724  67.420  1.00  0.00    -0.235 A  
HETATM   20  C   UNL     1      -9.880  15.223  65.525  1.00  0.00    -0.362 A  
ENDBRANCH   6  15
TORSDOF 2
ENDMDL
MODEL       76
REMARK 921   NORMALIZED FREE ENERGY PREDICTED BY IDOCK:   -3.78 KCAL/MOL
REMARK 922        TOTAL FREE ENERGY PREDICTED BY IDOCK:   -4.50 KCAL/MOL
REMARK 923 INTER-LIGAND FREE ENERGY PREDICTED BY IDOCK:   -4.22 KCAL/MOL
REMARK 924 INTRA-LIGAND FREE ENERGY PREDICTED BY IDOCK:   -0.29 KCAL/MOL
REMARK 927      BINDING AFFINITY PREDICTED BY RF-SCORE:    0.00 PKD
ROOT
HETATM    1  N   UNL     1      -8.449  10.930  64.987  1.00  0.00    -0.359 NA 
HETATM    2  H1  UNL     1      -7.534  10.544  64.752  1.00  0.00     0.000 HD 
HETATM    3  H2  UNL     1      -8.566  11.942  64.923  1.00  0.00     0.000 HD 
HETATM    4  C   UNL     1      -9.469  10.230  65.358  1.00  0.00    -0.232 C  
HETATM    5  N   UNL     1     -10.696  10.747  65.672  1.00  0.00    -0.133 NA 
HETATM    6  N   UNL     1      -9.462   8.867  65.502  1.00  0.00    -0.443 NA 
HETATM    7  H   UNL     1     -11.288  10.179  66.277  1.00  0.00     0.000 HD 
HETATM    8  H   UNL     1     -10.362   8.397  65.600  1.00  0.00     0.000 HD 
ENDROOT
BRANCH   5   9
HETATM    9  C   UNL     1     -11.228  11.977  65.251  1.00  0.00    -0.322 A  
HETATM   10  C   UNL     1     -11.351  13.038  66.158  1.00  0.00    -0.349 A  
HETATM   11  C   UNL     1     -11.852  14.276  65.745  1.00  0.00    -0.377 A  
HETATM   12  C   UNL     1     -11.606  12.191  63.918  1.00  0.00    -0.532 A  
HETATM   13  C   UNL     1     -12.117  13.423  63.506  1.00  0.00    -0.497 A  
HETATM   14  C   UNL     1     -12.240  14.466  64.419  1.00  0.00    -0.481 A  
ENDBRANCH   5   9
BRANCH   6  15
HETATM   15  C   UNL     1      -8.301   8.066  65.526  1.00  0.00    -0.147 A  
HETATM   16  C   UNL     1      -6.440   7.059  66.731  1.00  0.00    -0.051 A  
HETATM   17  C   UNL     1      -7.581   7.864  66.708  1.00  0.00    -0.098 A  
HETATM   18  C   UNL     1      -6.689   6.660  64.368  1.00  0.00    -0.042 A  
HETATM   19  C   UNL     1      -7.841   7.454  64.352  1.00  0.00    -0.127 A  
HETATM   20  C   UNL     1      -5.994   6.459  65.558  1.00  0.00    -0.029 A  
ENDBRANCH   6  15
TORSDOF 2
ENDMDL
MODEL       77
REMARK 921   NORMALIZED FREE ENERGY PREDICTED BY IDOCK:   -3.78 KCAL/MOL
REMARK 922        TOTAL FREE ENERGY PREDICTED BY IDOCK:   -4.49 KCAL/MOL
REMARK 923 INTER-LIGAND FREE ENERGY PREDICTED BY IDOCK:   -4.24 KCAL/MOL
REMARK 924 INTRA-LIGAND FREE ENERGY PREDICTED BY IDOCK:   -0.25 KCAL/MOL
REMARK 927      BINDING AFFINITY PREDICTED BY RF-SCORE:    0.00 PKD
ROOT
HETATM    1  N   UNL     1     -11.496   6.625  67.235  1.00  0.00    -0.749 NA 
HETATM    2  H1  UNL     1     -12.182   7.303  67.571  1.00  0.00     0.000 HD 
HETATM    3  H2  UNL     1     -11.634   6.234  66.303  1.00  0.00     0.000 HD 
HETATM    4  C   UNL     1     -10.466   6.227  67.906  1.00  0.00    -0.230 C  
HETATM    5  N   UNL     1      -9.547   5.319  67.457  1.00  0.00    -0.128 NA 
HETATM    6  N   UNL     1     -10.155   6.651  69.172  1.00  0.00    -0.163 NA 
HETATM    7  H   UNL     1      -9.011   4.824  68.168  1.00  0.00     0.000 HD 
HETATM    8  H   UNL     1      -9.224   6.436  69.528  1.00  0.00     0.000 HD 
ENDROOT
BRANCH   5   9
HETATM    9  C   UNL     1      -9.262   4.995  66.120  1.00  0.00    -0.149 A  
HETATM   10  C   UNL     1      -9.900   3.908  65.508  1.00  0.00    -0.156 A  
HETATM   11  C   UNL     1      -9.646   3.593  64.170  1.00  0.00    -0.160 A  
HETATM   12  C   UNL     1      -8.375   5.766  65.355  1.00  0.00    -0.142 A  
HETATM   13  C   UNL     1      -8.113   5.447  64.022  1.00  0.00    -0.123 A  
HETATM   14  C   UNL     1      -8.748   4.360  63.429  1.00  0.00    -0.122 A  
ENDBRANCH   5   9
BRANCH   6  15
HETATM   15  C   UNL     1     -11.030   7.364  70.019  1.00  0.00    -0.248 A  
HETATM   16  C   UNL     1     -12.976   7.442  71.481  1.00  0.00    -0.421 A  
HETATM   17  C   UNL     1     -12.120   6.737  70.632  1.00  0.00    -0.371 A  
HETATM   18  C   UNL     1     -11.686   9.441  71.102  1.00  0.00    -0.418 A  
HETATM   19  C   UNL     1     -10.821   8.728  70.264  1.00  0.00    -0.252 A  
HETATM   20  C   UNL     1     -12.758   8.796  71.714  1.00  0.00    -0.408 A  
ENDBRANCH   6  15
TORSDOF 2
ENDMDL
MODEL       78
REMARK 921   NORMALIZED FREE ENERGY PREDICTED BY IDOCK:   -3.76 KCAL/MOL
REMARK 922        TOTAL FREE ENERGY PREDICTED BY IDOCK:   -4.47 KCAL/MOL
REMARK 923 INTER-LIGAND FREE ENERGY PREDICTED BY IDOCK:   -4.21 KCAL/MOL
REMARK 924 INTRA-LIGAND FREE ENERGY PREDICTED BY IDOCK:   -0.27 KCAL/MOL
REMARK 927      BINDING AFFINITY PREDICTED BY RF-SCORE:    0.00 PKD
ROOT
HETATM    1  N   UNL     1     -10.615   8.699  66.573  1.00  0.00    -0.221 NA 
HETATM    2  H1  UNL     1     -10.784   7.767  66.951  1.00  0.00     0.000 HD 
HETATM    3  H2  UNL     1     -11.052   8.935  65.682  1.00  0.00     0.000 HD 
HETATM    4  C   UNL     1      -9.888   9.603  67.142  1.00  0.00    -0.186 C  
HETATM    5  N   UNL     1      -9.661  10.853  66.636  1.00  0.00    -0.185 NA 
HETATM    6  N   UNL     1      -9.228   9.431  68.332  1.00  0.00    -0.128 NA 
HETATM    7  H   UNL     1      -8.820  11.330  66.959  1.00  0.00     0.000 HD 
HETATM    8  H   UNL     1      -8.854  10.262  68.789  1.00  0.00     0.000 HD 
ENDROOT
BRANCH   5   9
HETATM    9  C   UNL     1     -10.463  11.552  65.718  1.00  0.00    -0.259 A  
HETATM   10  C   UNL     1     -10.277  11.371  64.341  1.00  0.00    -0.361 A  
HETATM   11  C   UNL     1     -11.087  12.038  63.418  1.00  0.00    -0.476 A  
HETATM   12  C   UNL     1     -11.488  12.407  66.146  1.00  0.00    -0.430 A  
HETATM   13  C   UNL     1     -12.291  13.082  65.225  1.00  0.00    -0.537 A  
HETATM   14  C   UNL     1     -12.091  12.898  63.860  1.00  0.00    -0.553 A  
ENDBRANCH   5   9
BRANCH   6  15
HETATM   15  C   UNL     1      -9.028   8.187  68.968  1.00  0.00    -0.144 A  
HETATM   16  C   UNL     1      -9.664   6.527  70.632  1.00  0.00    -0.194 A  
HETATM   17  C   UNL     1      -9.854   7.766  70.015  1.00  0.00    -0.181 A  
HETATM   18  C   UNL     1      -7.783   6.110  69.185  1.00  0.00    -0.100 A  
HETATM   19  C   UNL     1      -7.987   7.344  68.558  1.00  0.00    -0.124 A  
HETATM   20  C   UNL     1      -8.625   5.701  70.217  1.00  0.00    -0.131 A  
ENDBRANCH   6  15
TORSDOF 2
ENDMDL
MODEL       79
REMARK 921   NORMALIZED FREE ENERGY PREDICTED BY IDOCK:   -3.72 KCAL/MOL
REMARK 922        TOTAL FREE ENERGY PREDICTED BY IDOCK:   -4.43 KCAL/MOL
REMARK 923 INTER-LIGAND FREE ENERGY PREDICTED BY IDOCK:   -4.28 KCAL/MOL
REMARK 924 INTRA-LIGAND FREE ENERGY PREDICTED BY IDOCK:   -0.15 KCAL/MOL
REMARK 927      BINDING AFFINITY PREDICTED BY RF-SCORE:    0.00 PKD
ROOT
HETATM    1  N   UNL     1      -9.596   9.340  65.533  1.00  0.00    -0.409 NA 
HETATM    2  H1  UNL     1      -9.321  10.056  64.861  1.00  0.00     0.000 HD 
HETATM    3  H2  UNL     1      -9.248   8.393  65.385  1.00  0.00     0.000 HD 
HETATM    4  C   UNL     1     -10.354   9.546  66.559  1.00  0.00    -0.193 C  
HETATM    5  N   UNL     1     -10.723   8.585  67.460  1.00  0.00    -0.479 NA 
HETATM    6  N   UNL     1     -10.907  10.758  66.883  1.00  0.00    -0.254 NA 
HETATM    7  H   UNL     1     -11.575   8.762  67.991  1.00  0.00     0.000 HD 
HETATM    8  H   UNL     1     -11.316  10.858  67.812  1.00  0.00     0.000 HD 
ENDROOT
BRANCH   5   9
HETATM    9  C   UNL     1     -10.054   7.381  67.734  1.00  0.00    -0.184 A  
HETATM   10  C   UNL     1     -10.709   6.156  67.552  1.00  0.00    -0.393 A  
HETATM   11  C   UNL     1     -10.045   4.949  67.793  1.00  0.00    -0.158 A  
HETATM   12  C   UNL     1      -8.716   7.367  68.151  1.00  0.00    -0.122 A  
HETATM   13  C   UNL     1      -8.055   6.164  68.402  1.00  0.00    -0.108 A  
HETATM   14  C   UNL     1      -8.719   4.954  68.224  1.00  0.00    -0.109 A  
ENDBRANCH   5   9
BRANCH   6  15
HETATM   15  C   UNL     1     -10.952  11.876  66.024  1.00  0.00    -0.309 A  
HETATM   16  C   UNL     1     -10.208  14.111  65.407  1.00  0.00    -0.380 A  
HETATM   17  C   UNL     1     -10.172  13.012  66.268  1.00  0.00    -0.291 A  
HETATM   18  C   UNL     1     -11.839  12.976  64.044  1.00  0.00    -0.510 A  
HETATM   19  C   UNL     1     -11.789  11.870  64.900  1.00  0.00    -0.236 A  
HETATM   20  C   UNL     1     -11.044  14.092  64.296  1.00  0.00    -0.146 A  
ENDBRANCH   6  15
TORSDOF 2
ENDMDL
MODEL       80
REMARK 921   NORMALIZED FREE ENERGY PREDICTED BY IDOCK:   -3.71 KCAL/MOL
REMARK 922        TOTAL FREE ENERGY PREDICTED BY IDOCK:   -4.42 KCAL/MOL
REMARK 923 INTER-LIGAND FREE ENERGY PREDICTED BY IDOCK:   -4.12 KCAL/MOL
REMARK 924 INTRA-LIGAND FREE ENERGY PREDICTED BY IDOCK:   -0.30 KCAL/MOL
REMARK 927      BINDING AFFINITY PREDICTED BY RF-SCORE:    0.00 PKD
ROOT
HETATM    1  N   UNL     1     -11.020   8.266  67.738  1.00  0.00    -0.491 NA 
HETATM    2  H1  UNL     1     -11.953   8.582  68.001  1.00  0.00     0.000 HD 
HETATM    3  H2  UNL     1     -10.919   7.779  66.847  1.00  0.00     0.000 HD 
HETATM    4  C   UNL     1      -9.956   8.439  68.450  1.00  0.00    -0.187 C  
HETATM    5  N   UNL     1      -8.704   8.016  68.097  1.00  0.00    -0.126 NA 
HETATM    6  N   UNL     1      -9.934   9.062  69.672  1.00  0.00    -0.185 NA 
HETATM    7  H   UNL     1      -8.038   7.880  68.857  1.00  0.00     0.000 HD 
HETATM    8  H   UNL     1      -9.026   9.325  70.052  1.00  0.00     0.000 HD 
ENDROOT
BRANCH   5   9
HETATM    9  C   UNL     1      -8.237   7.748  66.800  1.00  0.00    -0.120 A  
HETATM   10  C   UNL     1      -8.115   6.425  66.355  1.00  0.00    -0.112 A  
HETATM   11  C   UNL     1      -7.679   6.146  65.057  1.00  0.00    -0.099 A  
HETATM   12  C   UNL     1      -7.924   8.783  65.908  1.00  0.00    -0.104 A  
HETATM   13  C   UNL     1      -7.478   8.506  64.614  1.00  0.00    -0.096 A  
HETATM   14  C   UNL     1      -7.355   7.187  64.188  1.00  0.00    -0.083 A  
ENDBRANCH   5   9
BRANCH   6  15
HETATM   15  C   UNL     1     -11.078   9.365  70.440  1.00  0.00    -0.261 A  
HETATM   16  C   UNL     1     -12.856  10.898  71.089  1.00  0.00    -0.508 A  
HETATM   17  C   UNL     1     -11.715  10.607  70.338  1.00  0.00    -0.446 A  
HETATM   18  C   UNL     1     -12.736   8.712  72.095  1.00  0.00    -0.447 A  
HETATM   19  C   UNL     1     -11.602   8.417  71.329  1.00  0.00    -0.326 A  
HETATM   20  C   UNL     1     -13.364   9.949  71.970  1.00  0.00    -0.532 A  
ENDBRANCH   6  15
TORSDOF 2
ENDMDL
MODEL       81
REMARK 921   NORMALIZED FREE ENERGY PREDICTED BY IDOCK:   -3.69 KCAL/MOL
REMARK 922        TOTAL FREE ENERGY PREDICTED BY IDOCK:   -4.40 KCAL/MOL
REMARK 923 INTER-LIGAND FREE ENERGY PREDICTED BY IDOCK:   -4.35 KCAL/MOL
REMARK 924 INTRA-LIGAND FREE ENERGY PREDICTED BY IDOCK:   -0.06 KCAL/MOL
REMARK 927      BINDING AFFINITY PREDICTED BY RF-SCORE:    0.00 PKD
ROOT
HETATM    1  N   UNL     1      -8.895   8.570  68.038  1.00  0.00    -0.141 NA 
HETATM    2  H1  UNL     1      -8.238   7.813  68.229  1.00  0.00     0.000 HD 
HETATM    3  H2  UNL     1      -8.510   9.497  67.859  1.00  0.00     0.000 HD 
HETATM    4  C   UNL     1     -10.180   8.438  68.006  1.00  0.00    -0.212 C  
HETATM    5  N   UNL     1     -11.061   9.452  67.750  1.00  0.00    -0.487 NA 
HETATM    6  N   UNL     1     -10.844   7.261  68.238  1.00  0.00    -0.420 NA 
HETATM    7  H   UNL     1     -12.012   9.328  68.097  1.00  0.00     0.000 HD 
HETATM    8  H   UNL     1     -11.832   7.219  67.990  1.00  0.00     0.000 HD 
ENDROOT
BRANCH   5   9
HETATM    9  C   UNL     1     -10.798  10.647  67.061  1.00  0.00    -0.238 A  
HETATM   10  C   UNL     1     -10.033  10.629  65.888  1.00  0.00    -0.312 A  
HETATM   11  C   UNL     1      -9.788  11.808  65.177  1.00  0.00    -0.263 A  
HETATM   12  C   UNL     1     -11.324  11.872  67.496  1.00  0.00    -0.381 A  
HETATM   13  C   UNL     1     -11.072  13.052  66.793  1.00  0.00    -0.316 A  
HETATM   14  C   UNL     1     -10.304  13.020  65.633  1.00  0.00    -0.294 A  
ENDBRANCH   5   9
BRANCH   6  15
HETATM   15  C   UNL     1     -10.259   6.104  68.794  1.00  0.00    -0.184 A  
HETATM   16  C   UNL     1      -9.214   3.920  68.537  1.00  0.00    -0.212 A  
HETATM   17  C   UNL     1      -9.806   5.057  67.984  1.00  0.00    -0.202 A  
HETATM   18  C   UNL     1      -9.542   4.835  70.741  1.00  0.00    -0.249 A  
HETATM   19  C   UNL     1     -10.121   5.981  70.183  1.00  0.00    -0.249 A  
HETATM   20  C   UNL     1      -9.084   3.809  69.917  1.00  0.00    -0.188 A  
ENDBRANCH   6  15
TORSDOF 2
ENDMDL
MODEL       82
REMARK 921   NORMALIZED FREE ENERGY PREDICTED BY IDOCK:   -3.69 KCAL/MOL
REMARK 922        TOTAL FREE ENERGY PREDICTED BY IDOCK:   -4.40 KCAL/MOL
REMARK 923 INTER-LIGAND FREE ENERGY PREDICTED BY IDOCK:   -4.10 KCAL/MOL
REMARK 924 INTRA-LIGAND FREE ENERGY PREDICTED BY IDOCK:   -0.30 KCAL/MOL
REMARK 927      BINDING AFFINITY PREDICTED BY RF-SCORE:    0.00 PKD
ROOT
HETATM    1  N   UNL     1     -10.009   9.783  65.107  1.00  0.00    -0.400 NA 
HETATM    2  H1  UNL     1      -9.761   8.803  65.246  1.00  0.00     0.000 HD 
HETATM    3  H2  UNL     1     -10.916  10.095  65.454  1.00  0.00     0.000 HD 
HETATM    4  C   UNL     1      -9.257  10.657  64.524  1.00  0.00    -0.231 C  
HETATM    5  N   UNL     1      -9.589  11.970  64.338  1.00  0.00    -0.470 NA 
HETATM    6  N   UNL     1      -8.020  10.386  63.996  1.00  0.00    -0.288 NA 
HETATM    7  H   UNL     1      -9.111  12.458  63.580  1.00  0.00     0.000 HD 
HETATM    8  H   UNL     1      -7.430  11.178  63.745  1.00  0.00     0.000 HD 
ENDROOT
BRANCH   5   9
HETATM    9  C   UNL     1     -10.517  12.721  65.078  1.00  0.00    -0.314 A  
HETATM   10  C   UNL     1     -11.830  12.871  64.615  1.00  0.00    -0.422 A  
HETATM   11  C   UNL     1     -12.771  13.591  65.357  1.00  0.00    -0.495 A  
HETATM   12  C   UNL     1     -10.173  13.299  66.309  1.00  0.00    -0.296 A  
HETATM   13  C   UNL     1     -11.108  14.027  67.046  1.00  0.00    -0.312 A  
HETATM   14  C   UNL     1     -12.408  14.174  66.570  1.00  0.00    -0.405 A  
ENDBRANCH   5   9
BRANCH   6  15
HETATM   15  C   UNL     1      -7.507   9.090  63.776  1.00  0.00    -0.107 A  
HETATM   16  C   UNL     1      -7.301   7.093  62.399  1.00  0.00    -0.081 A  
HETATM   17  C   UNL     1      -7.824   8.369  62.620  1.00  0.00    -0.139 A  
HETATM   18  C   UNL     1      -6.148   7.212  64.511  1.00  0.00    -0.037 A  
HETATM   19  C   UNL     1      -6.660   8.497  64.722  1.00  0.00    -0.065 A  
HETATM   20  C   UNL     1      -6.464   6.514  63.347  1.00  0.00    -0.037 A  
ENDBRANCH   6  15
TORSDOF 2
ENDMDL
MODEL       83
REMARK 921   NORMALIZED FREE ENERGY PREDICTED BY IDOCK:   -3.65 KCAL/MOL
REMARK 922        TOTAL FREE ENERGY PREDICTED BY IDOCK:   -4.35 KCAL/MOL
REMARK 923 INTER-LIGAND FREE ENERGY PREDICTED BY IDOCK:   -4.10 KCAL/MOL
REMARK 924 INTRA-LIGAND FREE ENERGY PREDICTED BY IDOCK:   -0.25 KCAL/MOL
REMARK 927      BINDING AFFINITY PREDICTED BY RF-SCORE:    0.00 PKD
ROOT
HETATM    1  N   UNL     1     -10.975   8.790  67.477  1.00  0.00    -0.453 NA 
HETATM    2  H1  UNL     1     -10.975   8.394  66.536  1.00  0.00     0.000 HD 
HETATM    3  H2  UNL     1     -11.693   9.480  67.700  1.00  0.00     0.000 HD 
HETATM    4  C   UNL     1     -10.131   8.481  68.405  1.00  0.00    -0.194 C  
HETATM    5  N   UNL     1     -10.131   9.011  69.666  1.00  0.00    -0.190 NA 
HETATM    6  N   UNL     1      -9.106   7.583  68.253  1.00  0.00    -0.133 NA 
HETATM    7  H   UNL     1      -9.248   8.979  70.173  1.00  0.00     0.000 HD 
HETATM    8  H   UNL     1      -8.631   7.261  69.095  1.00  0.00     0.000 HD 
ENDROOT
BRANCH   5   9
HETATM    9  C   UNL     1     -11.217   9.597  70.337  1.00  0.00    -0.283 A  
HETATM   10  C   UNL     1     -11.971   8.844  71.246  1.00  0.00    -0.365 A  
HETATM   11  C   UNL     1     -13.036   9.423  71.943  1.00  0.00    -0.505 A  
HETATM   12  C   UNL     1     -11.548  10.947  70.153  1.00  0.00    -0.425 A  
HETATM   13  C   UNL     1     -12.617  11.524  70.840  1.00  0.00    -0.438 A  
HETATM   14  C   UNL     1     -13.362  10.762  71.735  1.00  0.00    -0.429 A  
ENDBRANCH   5   9
BRANCH   6  15
HETATM   15  C   UNL     1      -8.662   7.072  67.015  1.00  0.00    -0.123 A  
HETATM   16  C   UNL     1      -7.233   7.214  65.049  1.00  0.00    -0.074 A  
HETATM   17  C   UNL     1      -7.682   7.731  66.266  1.00  0.00    -0.089 A  
HETATM   18  C   UNL     1      -8.767   5.371  65.280  1.00  0.00    -0.145 A  
HETATM   19  C   UNL     1      -9.202   5.883  66.508  1.00  0.00    -0.154 A  
HETATM   20  C   UNL     1      -7.780   6.034  64.555  1.00  0.00    -0.100 A  
ENDBRANCH   6  15
TORSDOF 2
ENDMDL
MODEL       84
REMARK 921   NORMALIZED FREE ENERGY PREDICTED BY IDOCK:   -3.59 KCAL/MOL
REMARK 922        TOTAL FREE ENERGY PREDICTED BY IDOCK:   -4.29 KCAL/MOL
REMARK 923 INTER-LIGAND FREE ENERGY PREDICTED BY IDOCK:   -3.99 KCAL/MOL
REMARK 924 INTRA-LIGAND FREE ENERGY PREDICTED BY IDOCK:   -0.30 KCAL/MOL
REMARK 927      BINDING AFFINITY PREDICTED BY RF-SCORE:    0.00 PKD
ROOT
HETATM    1  N   UNL     1     -10.605  10.808  67.468  1.00  0.00    -0.220 NA 
HETATM    2  H1  UNL     1     -10.688  10.271  68.332  1.00  0.00     0.000 HD 
HETATM    3  H2  UNL     1     -11.466  11.140  67.033  1.00  0.00     0.000 HD 
HETATM    4  C   UNL     1      -9.488  11.097  66.886  1.00  0.00    -0.185 C  
HETATM    5  N   UNL     1      -9.377  11.817  65.729  1.00  0.00    -0.329 NA 
HETATM    6  N   UNL     1      -8.254  10.712  67.343  1.00  0.00    -0.115 NA 
HETATM    7  H   UNL     1      -8.525  11.678  65.187  1.00  0.00     0.000 HD 
HETATM    8  H   UNL     1      -7.436  11.159  66.930  1.00  0.00     0.000 HD 
ENDROOT
BRANCH   5   9
HETATM    9  C   UNL     1     -10.310  12.727  65.206  1.00  0.00    -0.296 A  
HETATM   10  C   UNL     1     -10.345  14.047  65.675  1.00  0.00    -0.342 A  
HETATM   11  C   UNL     1     -11.249  14.970  65.141  1.00  0.00    -0.391 A  
HETATM   12  C   UNL     1     -11.192  12.360  64.180  1.00  0.00    -0.434 A  
HETATM   13  C   UNL     1     -12.103  13.278  63.654  1.00  0.00    -0.551 A  
HETATM   14  C   UNL     1     -12.132  14.583  64.135  1.00  0.00    -0.377 A  
ENDBRANCH   5   9
BRANCH   6  15
HETATM   15  C   UNL     1      -8.034   9.741  68.343  1.00  0.00    -0.089 A  
HETATM   16  C   UNL     1      -7.709   7.424  69.018  1.00  0.00    -0.118 A  
HETATM   17  C   UNL     1      -7.942   8.381  68.028  1.00  0.00    -0.119 A  
HETATM   18  C   UNL     1      -7.686   9.168  70.680  1.00  0.00    -0.152 A  
HETATM   19  C   UNL     1      -7.903  10.126  69.684  1.00  0.00    -0.181 A  
HETATM   20  C   UNL     1      -7.583   7.820  70.346  1.00  0.00    -0.087 A  
ENDBRANCH   6  15
TORSDOF 2
ENDMDL
MODEL       85
REMARK 921   NORMALIZED FREE ENERGY PREDICTED BY IDOCK:   -3.58 KCAL/MOL
REMARK 922        TOTAL FREE ENERGY PREDICTED BY IDOCK:   -4.27 KCAL/MOL
REMARK 923 INTER-LIGAND FREE ENERGY PREDICTED BY IDOCK:   -4.20 KCAL/MOL
REMARK 924 INTRA-LIGAND FREE ENERGY PREDICTED BY IDOCK:   -0.07 KCAL/MOL
REMARK 927      BINDING AFFINITY PREDICTED BY RF-SCORE:    0.00 PKD
ROOT
HETATM    1  N   UNL     1      -9.410   5.283  68.533  1.00  0.00    -0.117 NA 
HETATM    2  H1  UNL     1      -8.699   4.869  67.930  1.00  0.00     0.000 HD 
HETATM    3  H2  UNL     1      -9.258   5.243  69.541  1.00  0.00     0.000 HD 
HETATM    4  C   UNL     1     -10.489   5.856  68.112  1.00  0.00    -0.233 C  
HETATM    5  N   UNL     1     -11.443   6.411  68.920  1.00  0.00    -0.575 NA 
HETATM    6  N   UNL     1     -10.838   5.976  66.791  1.00  0.00    -0.554 NA 
HETATM    7  H   UNL     1     -12.379   6.500  68.525  1.00  0.00     0.000 HD 
HETATM    8  H   UNL     1     -11.597   6.616  66.559  1.00  0.00     0.000 HD 
ENDROOT
BRANCH   5   9
HETATM    9  C   UNL     1     -11.272   6.873  70.235  1.00  0.00    -0.316 A  
HETATM   10  C   UNL     1     -11.006   8.227  70.476  1.00  0.00    -0.253 A  
HETATM   11  C   UNL     1     -10.863   8.705  71.782  1.00  0.00    -0.395 A  
HETATM   12  C   UNL     1     -11.405   6.013  71.334  1.00  0.00    -0.301 A  
HETATM   13  C   UNL     1     -11.252   6.487  72.638  1.00  0.00    -0.284 A  
HETATM   14  C   UNL     1     -10.981   7.833  72.863  1.00  0.00    -0.467 A  
ENDBRANCH   5   9
BRANCH   6  15
HETATM   15  C   UNL     1     -10.222   5.278  65.730  1.00  0.00     0.019 A  
HETATM   16  C   UNL     1     -10.296   3.604  63.964  1.00  0.00    -0.259 A  
HETATM   17  C   UNL     1     -10.903   4.282  65.023  1.00  0.00    -0.102 A  
HETATM   18  C   UNL     1      -8.286   4.885  64.312  1.00  0.00    -0.121 A  
HETATM   19  C   UNL     1      -8.903   5.574  65.363  1.00  0.00    -0.131 A  
HETATM   20  C   UNL     1      -8.985   3.906  63.611  1.00  0.00    -0.116 A  
ENDBRANCH   6  15
TORSDOF 2
ENDMDL
MODEL       86
REMARK 921   NORMALIZED FREE ENERGY PREDICTED BY IDOCK:   -3.56 KCAL/MOL
REMARK 922        TOTAL FREE ENERGY PREDICTED BY IDOCK:   -4.26 KCAL/MOL
REMARK 923 INTER-LIGAND FREE ENERGY PREDICTED BY IDOCK:   -4.02 KCAL/MOL
REMARK 924 INTRA-LIGAND FREE ENERGY PREDICTED BY IDOCK:   -0.24 KCAL/MOL
REMARK 927      BINDING AFFINITY PREDICTED BY RF-SCORE:    0.00 PKD
ROOT
HETATM    1  N   UNL     1     -10.951   8.789  68.152  1.00  0.00    -0.466 NA 
HETATM    2  H1  UNL     1     -10.737   8.684  67.160  1.00  0.00     0.000 HD 
HETATM    3  H2  UNL     1     -11.888   9.105  68.403  1.00  0.00     0.000 HD 
HETATM    4  C   UNL     1     -10.121   8.551  69.113  1.00  0.00    -0.203 C  
HETATM    5  N   UNL     1     -10.408   8.692  70.443  1.00  0.00    -0.195 NA 
HETATM    6  N   UNL     1      -8.828   8.134  68.934  1.00  0.00    -0.141 NA 
HETATM    7  H   UNL     1      -9.615   8.830  71.068  1.00  0.00     0.000 HD 
HETATM    8  H   UNL     1      -8.327   7.782  69.750  1.00  0.00     0.000 HD 
ENDROOT
BRANCH   5   9
HETATM    9  C   UNL     1     -11.679   8.669  71.042  1.00  0.00    -0.278 A  
HETATM   10  C   UNL     1     -12.387   7.464  71.143  1.00  0.00    -0.349 A  
HETATM   11  C   UNL     1     -13.639   7.422  71.762  1.00  0.00    -0.396 A  
HETATM   12  C   UNL     1     -12.250   9.827  71.588  1.00  0.00    -0.488 A  
HETATM   13  C   UNL     1     -13.506   9.789  72.197  1.00  0.00    -0.491 A  
HETATM   14  C   UNL     1     -14.201   8.586  72.284  1.00  0.00    -0.471 A  
ENDBRANCH   5   9
BRANCH   6  15
HETATM   15  C   UNL     1      -8.139   8.156  67.703  1.00  0.00    -0.127 A  
HETATM   16  C   UNL     1      -7.178   7.003  65.786  1.00  0.00    -0.073 A  
HETATM   17  C   UNL     1      -7.847   6.976  67.012  1.00  0.00    -0.108 A  
HETATM   18  C   UNL     1      -7.045   9.404  65.926  1.00  0.00    -0.091 A  
HETATM   19  C   UNL     1      -7.729   9.375  67.146  1.00  0.00    -0.091 A  
HETATM   20  C   UNL     1      -6.775   8.219  65.245  1.00  0.00    -0.052 A  
ENDBRANCH   6  15
TORSDOF 2
ENDMDL
MODEL       87
REMARK 921   NORMALIZED FREE ENERGY PREDICTED BY IDOCK:   -3.49 KCAL/MOL
REMARK 922        TOTAL FREE ENERGY PREDICTED BY IDOCK:   -4.17 KCAL/MOL
REMARK 923 INTER-LIGAND FREE ENERGY PREDICTED BY IDOCK:   -4.31 KCAL/MOL
REMARK 924 INTRA-LIGAND FREE ENERGY PREDICTED BY IDOCK:    0.14 KCAL/MOL
REMARK 927      BINDING AFFINITY PREDICTED BY RF-SCORE:    0.00 PKD
ROOT
HETATM    1  N   UNL     1     -11.087   8.056  67.600  1.00  0.00    -0.435 NA 
HETATM    2  H1  UNL     1     -11.406   9.009  67.780  1.00  0.00     0.000 HD 
HETATM    3  H2  UNL     1     -10.999   7.762  66.627  1.00  0.00     0.000 HD 
HETATM    4  C   UNL     1     -10.785   7.196  68.515  1.00  0.00    -0.152 C  
HETATM    5  N   UNL     1     -10.357   5.919  68.274  1.00  0.00    -0.192 NA 
HETATM    6  N   UNL     1     -10.864   7.438  69.863  1.00  0.00    -0.250 NA 
HETATM    7  H   UNL     1     -10.496   5.243  69.025  1.00  0.00     0.000 HD 
HETATM    8  H   UNL     1     -10.414   6.772  70.490  1.00  0.00     0.000 HD 
ENDROOT
BRANCH   5   9
HETATM    9  C   UNL     1      -9.747   5.439  67.104  1.00  0.00    -0.146 A  
HETATM   10  C   UNL     1     -10.527   4.892  66.077  1.00  0.00    -0.327 A  
HETATM   11  C   UNL     1      -9.934   4.437  64.896  1.00  0.00    -0.139 A  
HETATM   12  C   UNL     1      -8.361   5.531  66.913  1.00  0.00    -0.108 A  
HETATM   13  C   UNL     1      -7.766   5.067  65.738  1.00  0.00    -0.091 A  
HETATM   14  C   UNL     1      -8.553   4.520  64.729  1.00  0.00    -0.137 A  
ENDBRANCH   5   9
BRANCH   6  15
HETATM   15  C   UNL     1     -11.522   8.543  70.443  1.00  0.00    -0.126 A  
HETATM   16  C   UNL     1     -13.109   9.470  72.041  1.00  0.00    -0.528 A  
HETATM   17  C   UNL     1     -12.471   8.373  71.458  1.00  0.00    -0.342 A  
HETATM   18  C   UNL     1     -11.885  10.944  70.581  1.00  0.00    -0.453 A  
HETATM   19  C   UNL     1     -11.235   9.844  70.009  1.00  0.00    -0.327 A  
HETATM   20  C   UNL     1     -12.817  10.756  71.599  1.00  0.00    -0.562 A  
ENDBRANCH   6  15
TORSDOF 2
ENDMDL
MODEL       88
REMARK 921   NORMALIZED FREE ENERGY PREDICTED BY IDOCK:   -3.45 KCAL/MOL
REMARK 922        TOTAL FREE ENERGY PREDICTED BY IDOCK:   -4.13 KCAL/MOL
REMARK 923 INTER-LIGAND FREE ENERGY PREDICTED BY IDOCK:   -4.01 KCAL/MOL
REMARK 924 INTRA-LIGAND FREE ENERGY PREDICTED BY IDOCK:   -0.12 KCAL/MOL
REMARK 927      BINDING AFFINITY PREDICTED BY RF-SCORE:    0.00 PKD
ROOT
HETATM    1  N   UNL     1      -8.916   7.963  67.620  1.00  0.00    -0.131 NA 
HETATM    2  H1  UNL     1      -8.256   7.188  67.538  1.00  0.00     0.000 HD 
HETATM    3  H2  UNL     1      -8.562   8.849  67.982  1.00  0.00     0.000 HD 
HETATM    4  C   UNL     1     -10.166   7.903  67.300  1.00  0.00    -0.273 C  
HETATM    5  N   UNL     1     -11.049   8.941  67.411  1.00  0.00    -0.342 NA 
HETATM    6  N   UNL     1     -10.788   6.781  66.814  1.00  0.00    -0.539 NA 
HETATM    7  H   UNL     1     -12.036   8.694  67.479  1.00  0.00     0.000 HD 
HETATM    8  H   UNL     1     -11.715   6.895  66.405  1.00  0.00     0.000 HD 
ENDROOT
BRANCH   5   9
HETATM    9  C   UNL     1     -10.744  10.311  67.441  1.00  0.00    -0.281 A  
HETATM   10  C   UNL     1     -10.806  11.020  68.648  1.00  0.00    -0.256 A  
HETATM   11  C   UNL     1     -10.476  12.378  68.696  1.00  0.00    -0.224 A  
HETATM   12  C   UNL     1     -10.331  10.993  66.287  1.00  0.00    -0.304 A  
HETATM   13  C   UNL     1     -10.012  12.351  66.331  1.00  0.00    -0.254 A  
HETATM   14  C   UNL     1     -10.085  13.044  67.536  1.00  0.00    -0.218 A  
ENDBRANCH   5   9
BRANCH   6  15
HETATM   15  C   UNL     1     -10.238   5.482  66.840  1.00  0.00    -0.233 A  
HETATM   16  C   UNL     1      -9.490   3.470  65.691  1.00  0.00    -0.142 A  
HETATM   17  C   UNL     1     -10.048   4.750  65.663  1.00  0.00    -0.198 A  
HETATM   18  C   UNL     1      -9.326   3.607  68.090  1.00  0.00    -0.236 A  
HETATM   19  C   UNL     1      -9.870   4.895  68.058  1.00  0.00    -0.197 A  
HETATM   20  C   UNL     1      -9.131   2.899  66.907  1.00  0.00    -0.181 A  
ENDBRANCH   6  15
TORSDOF 2
ENDMDL
MODEL       89
REMARK 921   NORMALIZED FREE ENERGY PREDICTED BY IDOCK:   -3.39 KCAL/MOL
REMARK 922        TOTAL FREE ENERGY PREDICTED BY IDOCK:   -4.07 KCAL/MOL
REMARK 923 INTER-LIGAND FREE ENERGY PREDICTED BY IDOCK:   -4.31 KCAL/MOL
REMARK 924 INTRA-LIGAND FREE ENERGY PREDICTED BY IDOCK:    0.24 KCAL/MOL
REMARK 927      BINDING AFFINITY PREDICTED BY RF-SCORE:    0.00 PKD
ROOT
HETATM    1  N   UNL     1      -9.930  10.698  69.987  1.00  0.00    -0.362 NA 
HETATM    2  H1  UNL     1      -9.443   9.815  69.829  1.00  0.00     0.000 HD 
HETATM    3  H2  UNL     1      -9.376  11.554  69.963  1.00  0.00     0.000 HD 
HETATM    4  C   UNL     1     -11.197  10.809  70.214  1.00  0.00    -0.245 C  
HETATM    5  N   UNL     1     -11.849  11.992  70.425  1.00  0.00    -0.519 NA 
HETATM    6  N   UNL     1     -12.067   9.752  70.288  1.00  0.00    -0.469 NA 
HETATM    7  H   UNL     1     -12.730  11.942  70.936  1.00  0.00     0.000 HD 
HETATM    8  H   UNL     1     -13.065   9.958  70.268  1.00  0.00     0.000 HD 
ENDROOT
BRANCH   5   9
HETATM    9  C   UNL     1     -11.437  13.271  70.015  1.00  0.00    -0.035 A  
HETATM   10  C   UNL     1     -10.788  13.440  68.785  1.00  0.00    -0.275 A  
HETATM   11  C   UNL     1     -10.399  14.711  68.352  1.00  0.00    -0.237 A  
HETATM   12  C   UNL     1     -11.697  14.407  70.794  1.00  0.00    -0.296 A  
HETATM   13  C   UNL     1     -11.300  15.676  70.368  1.00  0.00    -0.373 A  
HETATM   14  C   UNL     1     -10.650  15.828  69.147  1.00  0.00    -0.242 A  
ENDBRANCH   5   9
BRANCH   6  15
HETATM   15  C   UNL     1     -11.680   8.399  70.391  1.00  0.00     0.014 A  
HETATM   16  C   UNL     1     -11.563   6.312  71.641  1.00  0.00    -0.353 A  
HETATM   17  C   UNL     1     -11.934   7.656  71.549  1.00  0.00    -0.331 A  
HETATM   18  C   UNL     1     -10.640   6.426  69.419  1.00  0.00    -0.310 A  
HETATM   19  C   UNL     1     -11.027   7.768  69.323  1.00  0.00    -0.007 A  
HETATM   20  C   UNL     1     -10.914   5.699  70.574  1.00  0.00    -0.267 A  
ENDBRANCH   6  15
TORSDOF 2
ENDMDL
MODEL       90
REMARK 921   NORMALIZED FREE ENERGY PREDICTED BY IDOCK:   -3.33 KCAL/MOL
REMARK 922        TOTAL FREE ENERGY PREDICTED BY IDOCK:   -4.00 KCAL/MOL
REMARK 923 INTER-LIGAND FREE ENERGY PREDICTED BY IDOCK:   -3.70 KCAL/MOL
REMARK 924 INTRA-LIGAND FREE ENERGY PREDICTED BY IDOCK:   -0.30 KCAL/MOL
REMARK 927      BINDING AFFINITY PREDICTED BY RF-SCORE:    0.00 PKD
ROOT
HETATM    1  N   UNL     1      -7.235  13.666  67.139  1.00  0.00    -0.362 NA 
HETATM    2  H1  UNL     1      -6.368  14.188  67.265  1.00  0.00     0.000 HD 
HETATM    3  H2  UNL     1      -7.303  13.048  66.330  1.00  0.00     0.000 HD 
HETATM    4  C   UNL     1      -8.255  13.731  67.930  1.00  0.00    -0.166 C  
HETATM    5  N   UNL     1      -9.418  13.031  67.761  1.00  0.00    -0.201 NA 
HETATM    6  N   UNL     1      -8.319  14.523  69.047  1.00  0.00    -0.309 NA 
HETATM    7  H   UNL     1     -10.249  13.416  68.209  1.00  0.00     0.000 HD 
HETATM    8  H   UNL     1      -9.077  14.350  69.707  1.00  0.00     0.000 HD 
ENDROOT
BRANCH   5   9
HETATM    9  C   UNL     1      -9.591  11.840  67.038  1.00  0.00    -0.187 A  
HETATM   10  C   UNL     1     -10.183  11.867  65.769  1.00  0.00    -0.276 A  
HETATM   11  C   UNL     1     -10.334  10.692  65.026  1.00  0.00    -0.341 A  
HETATM   12  C   UNL     1      -9.142  10.610  67.539  1.00  0.00    -0.144 A  
HETATM   13  C   UNL     1      -9.302   9.434  66.804  1.00  0.00    -0.202 A  
HETATM   14  C   UNL     1      -9.898   9.474  65.547  1.00  0.00    -0.304 A  
ENDBRANCH   5   9
BRANCH   6  15
HETATM   15  C   UNL     1      -7.413  15.561  69.350  1.00  0.00    -0.219 A  
HETATM   16  C   UNL     1      -6.685  17.875  69.135  1.00  0.00    -0.239 A  
HETATM   17  C   UNL     1      -7.575  16.846  68.821  1.00  0.00    -0.243 A  
HETATM   18  C   UNL     1      -5.417  16.346  70.497  1.00  0.00    -0.146 A  
HETATM   19  C   UNL     1      -6.320  15.321  70.194  1.00  0.00    -0.112 A  
HETATM   20  C   UNL     1      -5.604  17.622  69.972  1.00  0.00    -0.247 A  
ENDBRANCH   6  15
TORSDOF 2
ENDMDL
MODEL       91
REMARK 921   NORMALIZED FREE ENERGY PREDICTED BY IDOCK:   -3.32 KCAL/MOL
REMARK 922        TOTAL FREE ENERGY PREDICTED BY IDOCK:   -3.99 KCAL/MOL
REMARK 923 INTER-LIGAND FREE ENERGY PREDICTED BY IDOCK:   -3.71 KCAL/MOL
REMARK 924 INTRA-LIGAND FREE ENERGY PREDICTED BY IDOCK:   -0.28 KCAL/MOL
REMARK 927      BINDING AFFINITY PREDICTED BY RF-SCORE:    0.00 PKD
ROOT
HETATM    1  N   UNL     1     -11.255   9.198  68.993  1.00  0.00    -0.432 NA 
HETATM    2  H1  UNL     1     -11.790   8.667  69.681  1.00  0.00     0.000 HD 
HETATM    3  H2  UNL     1     -11.765   9.855  68.402  1.00  0.00     0.000 HD 
HETATM    4  C   UNL     1      -9.979   9.098  68.817  1.00  0.00    -0.176 C  
HETATM    5  N   UNL     1      -9.262   9.810  67.895  1.00  0.00    -0.125 NA 
HETATM    6  N   UNL     1      -9.163   8.252  69.523  1.00  0.00    -0.157 NA 
HETATM    7  H   UNL     1      -8.373   9.407  67.600  1.00  0.00     0.000 HD 
HETATM    8  H   UNL     1      -8.156   8.396  69.450  1.00  0.00     0.000 HD 
ENDROOT
BRANCH   5   9
HETATM    9  C   UNL     1      -9.618  11.035  67.309  1.00  0.00    -0.165 A  
HETATM   10  C   UNL     1      -9.458  12.229  68.025  1.00  0.00    -0.206 A  
HETATM   11  C   UNL     1      -9.782  13.459  67.443  1.00  0.00    -0.221 A  
HETATM   12  C   UNL     1     -10.096  11.105  65.993  1.00  0.00    -0.292 A  
HETATM   13  C   UNL     1     -10.429  12.331  65.414  1.00  0.00    -0.302 A  
HETATM   14  C   UNL     1     -10.273  13.508  66.139  1.00  0.00    -0.303 A  
ENDBRANCH   5   9
BRANCH   6  15
HETATM   15  C   UNL     1      -9.616   7.197  70.343  1.00  0.00    -0.169 A  
HETATM   16  C   UNL     1     -10.403   6.366  72.492  1.00  0.00    -0.212 A  
HETATM   17  C   UNL     1      -9.941   7.409  71.687  1.00  0.00    -0.193 A  
HETATM   18  C   UNL     1     -10.196   4.853  70.629  1.00  0.00    -0.282 A  
HETATM   19  C   UNL     1      -9.748   5.904  69.821  1.00  0.00    -0.202 A  
HETATM   20  C   UNL     1     -10.528   5.086  71.962  1.00  0.00    -0.269 A  
ENDBRANCH   6  15
TORSDOF 2
ENDMDL
MODEL       92
REMARK 921   NORMALIZED FREE ENERGY PREDICTED BY IDOCK:   -3.29 KCAL/MOL
REMARK 922        TOTAL FREE ENERGY PREDICTED BY IDOCK:   -3.96 KCAL/MOL
REMARK 923 INTER-LIGAND FREE ENERGY PREDICTED BY IDOCK:   -3.68 KCAL/MOL
REMARK 924 INTRA-LIGAND FREE ENERGY PREDICTED BY IDOCK:   -0.27 KCAL/MOL
REMARK 927      BINDING AFFINITY PREDICTED BY RF-SCORE:    0.00 PKD
ROOT
HETATM    1  N   UNL     1      -8.862  14.250  66.549  1.00  0.00    -0.463 NA 
HETATM    2  H1  UNL     1      -9.062  14.975  65.859  1.00  0.00     0.000 HD 
HETATM    3  H2  UNL     1      -8.923  13.278  66.245  1.00  0.00     0.000 HD 
HETATM    4  C   UNL     1      -8.535  14.474  67.779  1.00  0.00    -0.174 C  
HETATM    5  N   UNL     1      -8.266  13.502  68.703  1.00  0.00    -0.308 NA 
HETATM    6  N   UNL     1      -8.425  15.722  68.336  1.00  0.00    -0.164 NA 
HETATM    7  H   UNL     1      -8.378  13.762  69.682  1.00  0.00     0.000 HD 
HETATM    8  H   UNL     1      -7.968  15.795  69.245  1.00  0.00     0.000 HD 
ENDROOT
BRANCH   5   9
HETATM    9  C   UNL     1      -7.853  12.184  68.448  1.00  0.00    -0.149 A  
HETATM   10  C   UNL     1      -6.541  11.926  68.030  1.00  0.00    -0.063 A  
HETATM   11  C   UNL     1      -6.110  10.616  67.802  1.00  0.00    -0.047 A  
HETATM   12  C   UNL     1      -8.717  11.097  68.645  1.00  0.00    -0.153 A  
HETATM   13  C   UNL     1      -8.291   9.789  68.407  1.00  0.00    -0.110 A  
HETATM   14  C   UNL     1      -6.987   9.548  67.985  1.00  0.00    -0.079 A  
ENDBRANCH   5   9
BRANCH   6  15
HETATM   15  C   UNL     1      -8.896  16.912  67.742  1.00  0.00    -0.217 A  
HETATM   16  C   UNL     1     -10.643  18.577  67.422  1.00  0.00    -0.463 A  
HETATM   17  C   UNL     1     -10.185  17.391  67.999  1.00  0.00    -0.345 A  
HETATM   18  C   UNL     1      -8.535  18.823  66.282  1.00  0.00    -0.256 A  
HETATM   19  C   UNL     1      -8.073  17.642  66.875  1.00  0.00    -0.249 A  
HETATM   20  C   UNL     1      -9.817  19.292  66.561  1.00  0.00    -0.444 A  
ENDBRANCH   6  15
TORSDOF 2
ENDMDL
MODEL       93
REMARK 921   NORMALIZED FREE ENERGY PREDICTED BY IDOCK:   -3.22 KCAL/MOL
REMARK 922        TOTAL FREE ENERGY PREDICTED BY IDOCK:   -3.87 KCAL/MOL
REMARK 923 INTER-LIGAND FREE ENERGY PREDICTED BY IDOCK:   -3.58 KCAL/MOL
REMARK 924 INTRA-LIGAND FREE ENERGY PREDICTED BY IDOCK:   -0.29 KCAL/MOL
REMARK 927      BINDING AFFINITY PREDICTED BY RF-SCORE:    0.00 PKD
ROOT
HETATM    1  N   UNL     1      -9.017  11.701  66.830  1.00  0.00    -0.183 NA 
HETATM    2  H1  UNL     1      -9.229  10.763  66.490  1.00  0.00     0.000 HD 
HETATM    3  H2  UNL     1      -8.810  12.420  66.136  1.00  0.00     0.000 HD 
HETATM    4  C   UNL     1      -8.991  12.045  68.075  1.00  0.00    -0.187 C  
HETATM    5  N   UNL     1      -8.707  13.304  68.530  1.00  0.00    -0.335 NA 
HETATM    6  N   UNL     1      -9.234  11.191  69.120  1.00  0.00    -0.398 NA 
HETATM    7  H   UNL     1      -8.367  13.375  69.488  1.00  0.00     0.000 HD 
HETATM    8  H   UNL     1      -9.389  11.602  70.040  1.00  0.00     0.000 HD 
ENDROOT
BRANCH   5   9
HETATM    9  C   UNL     1      -8.833  14.508  67.819  1.00  0.00    -0.183 A  
HETATM   10  C   UNL     1      -7.691  15.184  67.371  1.00  0.00    -0.225 A  
HETATM   11  C   UNL     1      -7.804  16.369  66.638  1.00  0.00    -0.316 A  
HETATM   12  C   UNL     1     -10.091  15.041  67.502  1.00  0.00    -0.228 A  
HETATM   13  C   UNL     1     -10.205  16.230  66.779  1.00  0.00    -0.280 A  
HETATM   14  C   UNL     1      -9.062  16.894  66.347  1.00  0.00    -0.315 A  
ENDBRANCH   5   9
BRANCH   6  15
HETATM   15  C   UNL     1      -9.285   9.785  69.014  1.00  0.00    -0.165 A  
HETATM   16  C   UNL     1      -8.173   7.620  68.934  1.00  0.00    -0.128 A  
HETATM   17  C   UNL     1      -8.118   9.013  69.024  1.00  0.00    -0.107 A  
HETATM   18  C   UNL     1     -10.574   7.736  68.787  1.00  0.00    -0.161 A  
HETATM   19  C   UNL     1     -10.517   9.130  68.894  1.00  0.00    -0.239 A  
HETATM   20  C   UNL     1      -9.403   6.983  68.814  1.00  0.00    -0.134 A  
ENDBRANCH   6  15
TORSDOF 2
ENDMDL
MODEL       94
REMARK 921   NORMALIZED FREE ENERGY PREDICTED BY IDOCK:   -3.10 KCAL/MOL
REMARK 922        TOTAL FREE ENERGY PREDICTED BY IDOCK:   -3.74 KCAL/MOL
REMARK 923 INTER-LIGAND FREE ENERGY PREDICTED BY IDOCK:   -3.68 KCAL/MOL
REMARK 924 INTRA-LIGAND FREE ENERGY PREDICTED BY IDOCK:   -0.06 KCAL/MOL
REMARK 927      BINDING AFFINITY PREDICTED BY RF-SCORE:    0.00 PKD
ROOT
HETATM    1  N   UNL     1     -11.393   6.897  69.282  1.00  0.00    -0.535 NA 
HETATM    2  H1  UNL     1     -12.121   7.493  68.887  1.00  0.00     0.000 HD 
HETATM    3  H2  UNL     1     -11.646   5.940  69.528  1.00  0.00     0.000 HD 
HETATM    4  C   UNL     1     -10.173   7.267  69.492  1.00  0.00    -0.198 C  
HETATM    5  N   UNL     1      -9.197   6.469  70.021  1.00  0.00    -0.157 NA 
HETATM    6  N   UNL     1      -9.687   8.522  69.226  1.00  0.00    -0.171 NA 
HETATM    7  H   UNL     1      -8.412   6.943  70.467  1.00  0.00     0.000 HD 
HETATM    8  H   UNL     1      -8.676   8.648  69.236  1.00  0.00     0.000 HD 
ENDROOT
BRANCH   5   9
HETATM    9  C   UNL     1      -9.159   5.065  70.017  1.00  0.00    -0.123 A  
HETATM   10  C   UNL     1      -9.507   4.354  68.861  1.00  0.00    -0.232 A  
HETATM   11  C   UNL     1      -9.445   2.958  68.836  1.00  0.00    -0.174 A  
HETATM   12  C   UNL     1      -8.733   4.343  71.141  1.00  0.00    -0.136 A  
HETATM   13  C   UNL     1      -8.681   2.948  71.121  1.00  0.00    -0.120 A  
HETATM   14  C   UNL     1      -9.037   2.255  69.968  1.00  0.00    -0.176 A  
ENDBRANCH   5   9
BRANCH   6  15
HETATM   15  C   UNL     1     -10.485   9.649  68.938  1.00  0.00    -0.215 A  
HETATM   16  C   UNL     1     -11.872  11.511  69.672  1.00  0.00    -0.421 A  
HETATM   17  C   UNL     1     -11.095  10.387  69.959  1.00  0.00    -0.379 A  
HETATM   18  C   UNL     1     -11.476  11.170  67.320  1.00  0.00    -0.218 A  
HETATM   19  C   UNL     1     -10.685  10.053  67.612  1.00  0.00    -0.340 A  
HETATM   20  C   UNL     1     -12.064  11.900  68.350  1.00  0.00    -0.086 A  
ENDBRANCH   6  15
TORSDOF 2
ENDMDL
MODEL       95
REMARK 921   NORMALIZED FREE ENERGY PREDICTED BY IDOCK:   -3.09 KCAL/MOL
REMARK 922        TOTAL FREE ENERGY PREDICTED BY IDOCK:   -3.73 KCAL/MOL
REMARK 923 INTER-LIGAND FREE ENERGY PREDICTED BY IDOCK:   -3.97 KCAL/MOL
REMARK 924 INTRA-LIGAND FREE ENERGY PREDICTED BY IDOCK:    0.24 KCAL/MOL
REMARK 927      BINDING AFFINITY PREDICTED BY RF-SCORE:    0.00 PKD
ROOT
HETATM    1  N   UNL     1      -6.857  16.954  69.072  1.00  0.00    -0.213 NA 
HETATM    2  H1  UNL     1      -6.916  17.972  69.076  1.00  0.00     0.000 HD 
HETATM    3  H2  UNL     1      -5.989  16.528  69.399  1.00  0.00     0.000 HD 
HETATM    4  C   UNL     1      -7.802  16.164  68.682  1.00  0.00    -0.188 C  
HETATM    5  N   UNL     1      -7.724  14.798  68.677  1.00  0.00    -0.122 NA 
HETATM    6  N   UNL     1      -9.017  16.585  68.206  1.00  0.00    -0.207 NA 
HETATM    7  H   UNL     1      -8.349  14.309  68.038  1.00  0.00     0.000 HD 
HETATM    8  H   UNL     1      -9.758  15.890  68.120  1.00  0.00     0.000 HD 
ENDROOT
BRANCH   5   9
HETATM    9  C   UNL     1      -6.875  13.997  69.458  1.00  0.00    -0.052 A  
HETATM   10  C   UNL     1      -6.277  14.521  70.612  1.00  0.00    -0.141 A  
HETATM   11  C   UNL     1      -5.454  13.725  71.413  1.00  0.00    -0.219 A  
HETATM   12  C   UNL     1      -6.638  12.654  69.135  1.00  0.00    -0.099 A  
HETATM   13  C   UNL     1      -5.807  11.860  69.929  1.00  0.00    -0.137 A  
HETATM   14  C   UNL     1      -5.215  12.396  71.068  1.00  0.00    -0.155 A  
ENDBRANCH   5   9
BRANCH   6  15
HETATM   15  C   UNL     1      -9.316  17.911  67.826  1.00  0.00    -0.262 A  
HETATM   16  C   UNL     1      -9.175  19.746  66.232  1.00  0.00    -0.461 A  
HETATM   17  C   UNL     1      -8.865  18.438  66.611  1.00  0.00    -0.297 A  
HETATM   18  C   UNL     1     -10.376  20.048  68.299  1.00  0.00    -0.494 A  
HETATM   19  C   UNL     1     -10.077  18.732  68.669  1.00  0.00    -0.432 A  
HETATM   20  C   UNL     1      -9.930  20.551  67.079  1.00  0.00    -0.489 A  
ENDBRANCH   6  15
TORSDOF 2
ENDMDL
MODEL       96
REMARK 921   NORMALIZED FREE ENERGY PREDICTED BY IDOCK:   -3.08 KCAL/MOL
REMARK 922        TOTAL FREE ENERGY PREDICTED BY IDOCK:   -3.72 KCAL/MOL
REMARK 923 INTER-LIGAND FREE ENERGY PREDICTED BY IDOCK:   -3.61 KCAL/MOL
REMARK 924 INTRA-LIGAND FREE ENERGY PREDICTED BY IDOCK:   -0.11 KCAL/MOL
REMARK 927      BINDING AFFINITY PREDICTED BY RF-SCORE:    0.00 PKD
ROOT
HETATM    1  N   UNL     1      -9.380   5.130  69.540  1.00  0.00    -0.122 NA 
HETATM    2  H1  UNL     1      -8.578   4.532  69.338  1.00  0.00     0.000 HD 
HETATM    3  H2  UNL     1      -9.520   5.422  70.508  1.00  0.00     0.000 HD 
HETATM    4  C   UNL     1     -10.229   5.545  68.660  1.00  0.00    -0.193 C  
HETATM    5  N   UNL     1     -11.303   6.348  68.932  1.00  0.00    -0.579 NA 
HETATM    6  N   UNL     1     -10.181   5.229  67.327  1.00  0.00    -0.202 NA 
HETATM    7  H   UNL     1     -12.077   6.313  68.269  1.00  0.00     0.000 HD 
HETATM    8  H   UNL     1     -10.771   5.766  66.692  1.00  0.00     0.000 HD 
ENDROOT
BRANCH   5   9
HETATM    9  C   UNL     1     -11.456   7.215  70.026  1.00  0.00    -0.161 A  
HETATM   10  C   UNL     1     -12.340   6.889  71.064  1.00  0.00    -0.401 A  
HETATM   11  C   UNL     1     -12.479   7.730  72.172  1.00  0.00    -0.277 A  
HETATM   12  C   UNL     1     -10.706   8.394  70.133  1.00  0.00    -0.238 A  
HETATM   13  C   UNL     1     -10.852   9.240  71.235  1.00  0.00    -0.417 A  
HETATM   14  C   UNL     1     -11.738   8.908  72.254  1.00  0.00    -0.351 A  
ENDBRANCH   5   9
BRANCH   6  15
HETATM   15  C   UNL     1      -9.375   4.213  66.771  1.00  0.00    -0.176 A  
HETATM   16  C   UNL     1      -7.628   3.490  65.236  1.00  0.00    -0.078 A  
HETATM   17  C   UNL     1      -8.435   4.495  65.773  1.00  0.00    -0.115 A  
HETATM   18  C   UNL     1      -8.707   1.877  66.663  1.00  0.00    -0.123 A  
HETATM   19  C   UNL     1      -9.503   2.889  67.211  1.00  0.00    -0.109 A  
HETATM   20  C   UNL     1      -7.767   2.180  65.681  1.00  0.00    -0.072 A  
ENDBRANCH   6  15
TORSDOF 2
ENDMDL
MODEL       97
REMARK 921   NORMALIZED FREE ENERGY PREDICTED BY IDOCK:   -2.94 KCAL/MOL
REMARK 922        TOTAL FREE ENERGY PREDICTED BY IDOCK:   -3.56 KCAL/MOL
REMARK 923 INTER-LIGAND FREE ENERGY PREDICTED BY IDOCK:   -3.36 KCAL/MOL
REMARK 924 INTRA-LIGAND FREE ENERGY PREDICTED BY IDOCK:   -0.20 KCAL/MOL
REMARK 927      BINDING AFFINITY PREDICTED BY RF-SCORE:    0.00 PKD
ROOT
HETATM    1  N   UNL     1     -10.171   7.059  68.191  1.00  0.00    -0.173 NA 
HETATM    2  H1  UNL     1      -9.842   7.054  67.225  1.00  0.00     0.000 HD 
HETATM    3  H2  UNL     1     -10.538   6.185  68.570  1.00  0.00     0.000 HD 
HETATM    4  C   UNL     1     -10.157   8.090  68.969  1.00  0.00    -0.201 C  
HETATM    5  N   UNL     1     -10.597   8.096  70.264  1.00  0.00    -0.224 NA 
HETATM    6  N   UNL     1      -9.706   9.332  68.601  1.00  0.00    -0.148 NA 
HETATM    7  H   UNL     1     -10.872   9.000  70.647  1.00  0.00     0.000 HD 
HETATM    8  H   UNL     1      -9.548  10.016  69.340  1.00  0.00     0.000 HD 
ENDROOT
BRANCH   5   9
HETATM    9  C   UNL     1     -10.713   6.991  71.122  1.00  0.00    -0.230 A  
HETATM   10  C   UNL     1      -9.591   6.203  71.412  1.00  0.00    -0.177 A  
HETATM   11  C   UNL     1      -9.688   5.118  72.288  1.00  0.00    -0.201 A  
HETATM   12  C   UNL     1     -11.930   6.672  71.743  1.00  0.00    -0.391 A  
HETATM   13  C   UNL     1     -12.030   5.583  72.610  1.00  0.00    -0.106 A  
HETATM   14  C   UNL     1     -10.909   4.805  72.883  1.00  0.00    -0.306 A  
ENDBRANCH   5   9
BRANCH   6  15
HETATM   15  C   UNL     1      -9.446   9.731  67.273  1.00  0.00    -0.153 A  
HETATM   16  C   UNL     1      -7.899  10.085  65.426  1.00  0.00    -0.136 A  
HETATM   17  C   UNL     1      -8.151   9.704  66.746  1.00  0.00    -0.113 A  
HETATM   18  C   UNL     1     -10.241  10.567  65.131  1.00  0.00    -0.358 A  
HETATM   19  C   UNL     1     -10.493  10.168  66.449  1.00  0.00    -0.210 A  
HETATM   20  C   UNL     1      -8.947  10.519  64.620  1.00  0.00    -0.229 A  
ENDBRANCH   6  15
TORSDOF 2
ENDMDL
MODEL       98
REMARK 921   NORMALIZED FREE ENERGY PREDICTED BY IDOCK:   -2.84 KCAL/MOL
REMARK 922        TOTAL FREE ENERGY PREDICTED BY IDOCK:   -3.44 KCAL/MOL
REMARK 923 INTER-LIGAND FREE ENERGY PREDICTED BY IDOCK:   -3.72 KCAL/MOL
REMARK 924 INTRA-LIGAND FREE ENERGY PREDICTED BY IDOCK:    0.28 KCAL/MOL
REMARK 927      BINDING AFFINITY PREDICTED BY RF-SCORE:    0.00 PKD
ROOT
HETATM    1  N   UNL     1      -9.529   9.809  67.703  1.00  0.00    -0.143 NA 
HETATM    2  H1  UNL     1      -9.857   9.879  66.739  1.00  0.00     0.000 HD 
HETATM    3  H2  UNL     1      -9.265   8.886  68.048  1.00  0.00     0.000 HD 
HETATM    4  C   UNL     1      -9.425  10.806  68.518  1.00  0.00    -0.181 C  
HETATM    5  N   UNL     1      -8.985  10.713  69.810  1.00  0.00    -0.353 NA 
HETATM    6  N   UNL     1      -9.753  12.101  68.205  1.00  0.00    -0.214 NA 
HETATM    7  H   UNL     1      -9.278  11.455  70.445  1.00  0.00     0.000 HD 
HETATM    8  H   UNL     1      -9.444  12.834  68.843  1.00  0.00     0.000 HD 
ENDROOT
BRANCH   5   9
HETATM    9  C   UNL     1      -8.174   9.706  70.357  1.00  0.00    -0.160 A  
HETATM   10  C   UNL     1      -6.807   9.936  70.559  1.00  0.00    -0.122 A  
HETATM   11  C   UNL     1      -5.994   8.951  71.130  1.00  0.00    -0.050 A  
HETATM   12  C   UNL     1      -8.709   8.472  70.754  1.00  0.00    -0.183 A  
HETATM   13  C   UNL     1      -7.897   7.485  71.314  1.00  0.00    -0.094 A  
HETATM   14  C   UNL     1      -6.540   7.724  71.502  1.00  0.00    -0.045 A  
ENDBRANCH   5   9
BRANCH   6  15
HETATM   15  C   UNL     1     -10.486  12.491  67.065  1.00  0.00    -0.231 A  
HETATM   16  C   UNL     1     -12.255  13.802  66.024  1.00  0.00    -0.495 A  
HETATM   17  C   UNL     1     -11.541  13.406  67.157  1.00  0.00    -0.399 A  
HETATM   18  C   UNL     1     -10.893  12.345  64.672  1.00  0.00    -0.346 A  
HETATM   19  C   UNL     1     -10.169  11.963  65.807  1.00  0.00    -0.276 A  
HETATM   20  C   UNL     1     -11.931  13.268  64.781  1.00  0.00    -0.431 A  
ENDBRANCH   6  15
TORSDOF 2
ENDMDL
MODEL       99
REMARK 921   NORMALIZED FREE ENERGY PREDICTED BY IDOCK:   -2.80 KCAL/MOL
REMARK 922        TOTAL FREE ENERGY PREDICTED BY IDOCK:   -3.40 KCAL/MOL
REMARK 923 INTER-LIGAND FREE ENERGY PREDICTED BY IDOCK:   -3.36 KCAL/MOL
REMARK 924 INTRA-LIGAND FREE ENERGY PREDICTED BY IDOCK:   -0.04 KCAL/MOL
REMARK 927      BINDING AFFINITY PREDICTED BY RF-SCORE:    0.00 PKD
ROOT
HETATM    1  N   UNL     1      -9.543   8.365  67.261  1.00  0.00    -0.156 NA 
HETATM    2  H1  UNL     1      -9.263   7.578  67.848  1.00  0.00     0.000 HD 
HETATM    3  H2  UNL     1     -10.001   9.155  67.716  1.00  0.00     0.000 HD 
HETATM    4  C   UNL     1      -9.359   8.432  65.984  1.00  0.00    -0.177 C  
HETATM    5  N   UNL     1      -9.734   9.486  65.197  1.00  0.00    -0.448 NA 
HETATM    6  N   UNL     1      -8.771   7.447  65.233  1.00  0.00    -0.358 NA 
HETATM    7  H   UNL     1      -9.871   9.289  64.207  1.00  0.00     0.000 HD 
HETATM    8  H   UNL     1      -8.492   7.681  64.281  1.00  0.00     0.000 HD 
ENDROOT
BRANCH   5   9
HETATM    9  C   UNL     1      -9.950  10.812  65.607  1.00  0.00    -0.260 A  
HETATM   10  C   UNL     1     -11.132  11.475  65.250  1.00  0.00    -0.257 A  
HETATM   11  C   UNL     1     -11.372  12.785  65.676  1.00  0.00    -0.354 A  
HETATM   12  C   UNL     1      -9.022  11.489  66.411  1.00  0.00    -0.200 A  
HETATM   13  C   UNL     1      -9.256  12.800  66.828  1.00  0.00    -0.225 A  
HETATM   14  C   UNL     1     -10.431  13.449  66.460  1.00  0.00    -0.283 A  
ENDBRANCH   5   9
BRANCH   6  15
HETATM   15  C   UNL     1      -8.525   6.132  65.683  1.00  0.00    -0.151 A  
HETATM   16  C   UNL     1      -7.215   4.542  66.980  1.00  0.00    -0.073 A  
HETATM   17  C   UNL     1      -7.446   5.841  66.525  1.00  0.00    -0.083 A  
HETATM   18  C   UNL     1      -9.127   3.776  65.730  1.00  0.00    -0.149 A  
HETATM   19  C   UNL     1      -9.366   5.083  65.289  1.00  0.00    -0.095 A  
HETATM   20  C   UNL     1      -8.056   3.509  66.579  1.00  0.00    -0.092 A  
ENDBRANCH   6  15
TORSDOF 2
ENDMDL
MODEL      100
REMARK 921   NORMALIZED FREE ENERGY PREDICTED BY IDOCK:   -2.59 KCAL/MOL
REMARK 922        TOTAL FREE ENERGY PREDICTED BY IDOCK:   -3.16 KCAL/MOL
REMARK 923 INTER-LIGAND FREE ENERGY PREDICTED BY IDOCK:   -2.87 KCAL/MOL
REMARK 924 INTRA-LIGAND FREE ENERGY PREDICTED BY IDOCK:   -0.29 KCAL/MOL
REMARK 927      BINDING AFFINITY PREDICTED BY RF-SCORE:    0.00 PKD
ROOT
HETATM    1  N   UNL     1      -8.792   6.667  65.107  1.00  0.00    -0.360 NA 
HETATM    2  H1  UNL     1      -8.699   6.247  64.182  1.00  0.00     0.000 HD 
HETATM    3  H2  UNL     1      -8.413   7.605  65.241  1.00  0.00     0.000 HD 
HETATM    4  C   UNL     1      -9.354   6.098  66.121  1.00  0.00    -0.102 C  
HETATM    5  N   UNL     1      -9.479   6.662  67.361  1.00  0.00    -0.127 NA 
HETATM    6  N   UNL     1      -9.897   4.839  66.101  1.00  0.00    -0.196 NA 
HETATM    7  H   UNL     1      -9.599   6.019  68.144  1.00  0.00     0.000 HD 
HETATM    8  H   UNL     1     -10.490   4.567  66.884  1.00  0.00     0.000 HD 
ENDROOT
BRANCH   5   9
HETATM    9  C   UNL     1      -9.461   8.031  67.673  1.00  0.00    -0.145 A  
HETATM   10  C   UNL     1      -8.336   8.597  68.287  1.00  0.00    -0.127 A  
HETATM   11  C   UNL     1      -8.293   9.965  68.576  1.00  0.00    -0.108 A  
HETATM   12  C   UNL     1     -10.535   8.870  67.345  1.00  0.00    -0.347 A  
HETATM   13  C   UNL     1     -10.498  10.233  67.643  1.00  0.00    -0.285 A  
HETATM   14  C   UNL     1      -9.377  10.781  68.259  1.00  0.00    -0.161 A  
ENDBRANCH   5   9
BRANCH   6  15
HETATM   15  C   UNL     1      -9.692   3.892  65.074  1.00  0.00    -0.192 A  
HETATM   16  C   UNL     1      -8.346   2.156  64.024  1.00  0.00    -0.082 A  
HETATM   17  C   UNL     1      -8.538   3.103  65.033  1.00  0.00    -0.106 A  
HETATM   18  C   UNL     1     -10.455   2.789  63.046  1.00  0.00    -0.171 A  
HETATM   19  C   UNL     1     -10.652   3.725  64.067  1.00  0.00    -0.274 A  
HETATM   20  C   UNL     1      -9.306   2.002  63.029  1.00  0.00    -0.091 A  
ENDBRANCH   6  15
TORSDOF 2
ENDMDL
MODEL      101
REMARK 921   NORMALIZED FREE ENERGY PREDICTED BY IDOCK:   -2.53 KCAL/MOL
REMARK 922        TOTAL FREE ENERGY PREDICTED BY IDOCK:   -3.10 KCAL/MOL
REMARK 923 INTER-LIGAND FREE ENERGY PREDICTED BY IDOCK:   -2.84 KCAL/MOL
REMARK 924 INTRA-LIGAND FREE ENERGY PREDICTED BY IDOCK:   -0.26 KCAL/MOL
REMARK 927      BINDING AFFINITY PREDICTED BY RF-SCORE:    0.00 PKD
ROOT
HETATM    1  N   UNL     1     -10.124   6.268  66.300  1.00  0.00    -0.406 NA 
HETATM    2  H1  UNL     1     -10.617   6.967  66.856  1.00  0.00     0.000 HD 
HETATM    3  H2  UNL     1     -10.366   5.288  66.449  1.00  0.00     0.000 HD 
HETATM    4  C   UNL     1      -9.215   6.535  65.421  1.00  0.00     0.364 C  
HETATM    5  N   UNL     1      -8.554   5.598  64.676  1.00  0.00    -0.293 NA 
HETATM    6  N   UNL     1      -8.775   7.798  65.120  1.00  0.00    -0.370 NA 
HETATM    7  H   UNL     1      -7.646   5.871  64.302  1.00  0.00     0.000 HD 
HETATM    8  H   UNL     1      -8.211   7.914  64.279  1.00  0.00     0.000 HD 
ENDROOT
BRANCH   5   9
HETATM    9  C   UNL     1      -8.991   4.298  64.370  1.00  0.00    -0.148 A  
HETATM   10  C   UNL     1      -8.339   3.188  64.922  1.00  0.00    -0.094 A  
HETATM   11  C   UNL     1      -8.782   1.891  64.648  1.00  0.00    -0.103 A  
HETATM   12  C   UNL     1     -10.105   4.077  63.548  1.00  0.00    -0.136 A  
HETATM   13  C   UNL     1     -10.543   2.783  63.265  1.00  0.00    -0.217 A  
HETATM   14  C   UNL     1      -9.881   1.689  63.815  1.00  0.00    -0.130 A  
ENDBRANCH   5   9
BRANCH   6  15
HETATM   15  C   UNL     1      -9.047   8.949  65.890  1.00  0.00    -0.218 A  
HETATM   16  C   UNL     1     -10.305  10.997  66.275  1.00  0.00    -0.304 A  
HETATM   17  C   UNL     1     -10.028   9.867  65.503  1.00  0.00    -0.363 A  
HETATM   18  C   UNL     1      -8.593  10.335  67.836  1.00  0.00    -0.118 A  
HETATM   19  C   UNL     1      -8.329   9.195  67.068  1.00  0.00    -0.120 A  
HETATM   20  C   UNL     1      -9.584  11.231  67.442  1.00  0.00    -0.182 A  
ENDBRANCH   6  15
TORSDOF 2
ENDMDL
MODEL      102
REMARK 921   NORMALIZED FREE ENERGY PREDICTED BY IDOCK:   -2.24 KCAL/MOL
REMARK 922        TOTAL FREE ENERGY PREDICTED BY IDOCK:   -2.78 KCAL/MOL
REMARK 923 INTER-LIGAND FREE ENERGY PREDICTED BY IDOCK:   -2.54 KCAL/MOL
REMARK 924 INTRA-LIGAND FREE ENERGY PREDICTED BY IDOCK:   -0.23 KCAL/MOL
REMARK 927      BINDING AFFINITY PREDICTED BY RF-SCORE:    0.00 PKD
ROOT
HETATM    1  N   UNL     1      -8.494   6.284  66.497  1.00  0.00    -0.117 NA 
HETATM    2  H1  UNL     1      -8.814   6.627  67.403  1.00  0.00     0.000 HD 
HETATM    3  H2  UNL     1      -8.132   5.331  66.452  1.00  0.00     0.000 HD 
HETATM    4  C   UNL     1      -8.514   6.969  65.401  1.00  0.00    -0.086 C  
HETATM    5  N   UNL     1      -8.084   6.510  64.187  1.00  0.00    -0.257 NA 
HETATM    6  N   UNL     1      -8.958   8.263  65.305  1.00  0.00    -0.398 NA 
HETATM    7  H   UNL     1      -7.812   7.215  63.503  1.00  0.00     0.000 HD 
HETATM    8  H   UNL     1      -9.122   8.638  64.371  1.00  0.00     0.000 HD 
ENDROOT
BRANCH   5   9
HETATM    9  C   UNL     1      -7.978   5.170  63.779  1.00  0.00    -0.102 A  
HETATM   10  C   UNL     1      -9.069   4.528  63.180  1.00  0.00    -0.121 A  
HETATM   11  C   UNL     1      -8.966   3.204  62.743  1.00  0.00    -0.091 A  
HETATM   12  C   UNL     1      -6.778   4.458  63.918  1.00  0.00    -0.043 A  
HETATM   13  C   UNL     1      -6.677   3.132  63.492  1.00  0.00    -0.035 A  
HETATM   14  C   UNL     1      -7.771   2.504  62.905  1.00  0.00    -0.062 A  
ENDBRANCH   5   9
BRANCH   6  15
HETATM   15  C   UNL     1      -9.206   9.112  66.404  1.00  0.00    -0.183 A  
HETATM   16  C   UNL     1      -8.509  10.894  67.910  1.00  0.00    -0.129 A  
HETATM   17  C   UNL     1      -8.254  10.045  66.831  1.00  0.00    -0.121 A  
HETATM   18  C   UNL     1     -10.673   9.874  68.187  1.00  0.00    -0.279 A  
HETATM   19  C   UNL     1     -10.422   9.035  67.096  1.00  0.00    -0.333 A  
HETATM   20  C   UNL     1      -9.719  10.806  68.589  1.00  0.00    -0.187 A  
ENDBRANCH   6  15
TORSDOF 2
ENDMDL
MODEL      103
REMARK 921   NORMALIZED FREE ENERGY PREDICTED BY IDOCK:   -2.19 KCAL/MOL
REMARK 922        TOTAL FREE ENERGY PREDICTED BY IDOCK:   -2.72 KCAL/MOL
REMARK 923 INTER-LIGAND FREE ENERGY PREDICTED BY IDOCK:   -2.80 KCAL/MOL
REMARK 924 INTRA-LIGAND FREE ENERGY PREDICTED BY IDOCK:    0.08 KCAL/MOL
REMARK 927      BINDING AFFINITY PREDICTED BY RF-SCORE:    0.00 PKD
ROOT
HETATM    1  N   UNL     1      -8.584   7.457  67.356  1.00  0.00    -0.118 NA 
HETATM    2  H1  UNL     1      -8.120   6.647  66.944  1.00  0.00     0.000 HD 
HETATM    3  H2  UNL     1      -8.358   8.376  66.975  1.00  0.00     0.000 HD 
HETATM    4  C   UNL     1      -9.438   7.403  68.324  1.00  0.00    -0.142 C  
HETATM    5  N   UNL     1     -10.060   8.489  68.876  1.00  0.00    -0.198 NA 
HETATM    6  N   UNL     1      -9.832   6.246  68.946  1.00  0.00    -0.132 NA 
HETATM    7  H   UNL     1     -10.412   8.378  69.826  1.00  0.00     0.000 HD 
HETATM    8  H   UNL     1     -10.651   6.290  69.551  1.00  0.00     0.000 HD 
ENDROOT
BRANCH   5   9
HETATM    9  C   UNL     1     -10.267   9.741  68.274  1.00  0.00    -0.183 A  
HETATM   10  C   UNL     1     -10.297  10.902  69.058  1.00  0.00    -0.230 A  
HETATM   11  C   UNL     1     -10.473  12.157  68.468  1.00  0.00    -0.248 A  
HETATM   12  C   UNL     1     -10.405   9.870  66.885  1.00  0.00    -0.300 A  
HETATM   13  C   UNL     1     -10.592  11.121  66.296  1.00  0.00    -0.309 A  
HETATM   14  C   UNL     1     -10.626  12.266  67.087  1.00  0.00    -0.250 A  
ENDBRANCH   5   9
BRANCH   6  15
HETATM   15  C   UNL     1      -9.185   4.999  68.809  1.00  0.00    -0.122 A  
HETATM   16  C   UNL     1      -7.446   3.426  69.463  1.00  0.00    -0.048 A  
HETATM   17  C   UNL     1      -8.074   4.667  69.591  1.00  0.00    -0.064 A  
HETATM   18  C   UNL     1      -9.012   2.824  67.734  1.00  0.00    -0.197 A  
HETATM   19  C   UNL     1      -9.650   4.062  67.876  1.00  0.00    -0.199 A  
HETATM   20  C   UNL     1      -7.915   2.506  68.532  1.00  0.00    -0.061 A  
ENDBRANCH   6  15
TORSDOF 2
ENDMDL
MODEL      104
REMARK 921   NORMALIZED FREE ENERGY PREDICTED BY IDOCK:   -2.10 KCAL/MOL
REMARK 922        TOTAL FREE ENERGY PREDICTED BY IDOCK:   -2.62 KCAL/MOL
REMARK 923 INTER-LIGAND FREE ENERGY PREDICTED BY IDOCK:   -2.47 KCAL/MOL
REMARK 924 INTRA-LIGAND FREE ENERGY PREDICTED BY IDOCK:   -0.14 KCAL/MOL
REMARK 927      BINDING AFFINITY PREDICTED BY RF-SCORE:    0.00 PKD
ROOT
HETATM    1  N   UNL     1      -8.217  10.586  67.640  1.00  0.00    -0.111 NA 
HETATM    2  H1  UNL     1      -8.825   9.851  67.277  1.00  0.00     0.000 HD 
HETATM    3  H2  UNL     1      -7.874  11.285  66.980  1.00  0.00     0.000 HD 
HETATM    4  C   UNL     1      -7.851  10.696  68.874  1.00  0.00    -0.129 C  
HETATM    5  N   UNL     1      -7.036  11.681  69.360  1.00  0.00    -0.300 NA 
HETATM    6  N   UNL     1      -8.219   9.829  69.871  1.00  0.00    -0.169 NA 
HETATM    7  H   UNL     1      -6.537  11.473  70.225  1.00  0.00     0.000 HD 
HETATM    8  H   UNL     1      -8.047  10.116  70.834  1.00  0.00     0.000 HD 
ENDROOT
BRANCH   5   9
HETATM    9  C   UNL     1      -6.813  12.948  68.798  1.00  0.00    -0.099 A  
HETATM   10  C   UNL     1      -5.509  13.369  68.506  1.00  0.00    -0.083 A  
HETATM   11  C   UNL     1      -5.275  14.616  67.919  1.00  0.00    -0.073 A  
HETATM   12  C   UNL     1      -7.877  13.802  68.475  1.00  0.00    -0.132 A  
HETATM   13  C   UNL     1      -7.645  15.052  67.899  1.00  0.00    -0.150 A  
HETATM   14  C   UNL     1      -6.344  15.460  67.621  1.00  0.00    -0.177 A  
ENDBRANCH   5   9
BRANCH   6  15
HETATM   15  C   UNL     1      -8.818   8.570  69.661  1.00  0.00    -0.137 A  
HETATM   16  C   UNL     1      -8.672   6.234  68.987  1.00  0.00    -0.125 A  
HETATM   17  C   UNL     1      -8.079   7.484  69.180  1.00  0.00    -0.123 A  
HETATM   18  C   UNL     1     -10.781   7.135  69.724  1.00  0.00    -0.257 A  
HETATM   19  C   UNL     1     -10.180   8.382  69.932  1.00  0.00    -0.201 A  
HETATM   20  C   UNL     1     -10.025   6.062  69.258  1.00  0.00    -0.207 A  
ENDBRANCH   6  15
TORSDOF 2
ENDMDL
MODEL      105
REMARK 921   NORMALIZED FREE ENERGY PREDICTED BY IDOCK:   -1.74 KCAL/MOL
REMARK 922        TOTAL FREE ENERGY PREDICTED BY IDOCK:   -2.22 KCAL/MOL
REMARK 923 INTER-LIGAND FREE ENERGY PREDICTED BY IDOCK:   -2.48 KCAL/MOL
REMARK 924 INTRA-LIGAND FREE ENERGY PREDICTED BY IDOCK:    0.27 KCAL/MOL
REMARK 927      BINDING AFFINITY PREDICTED BY RF-SCORE:    0.00 PKD
ROOT
HETATM    1  N   UNL     1      -8.629  11.351  67.495  1.00  0.00    -0.134 NA 
HETATM    2  H1  UNL     1      -9.355  11.835  68.024  1.00  0.00     0.000 HD 
HETATM    3  H2  UNL     1      -8.647  10.331  67.491  1.00  0.00     0.000 HD 
HETATM    4  C   UNL     1      -7.688  11.936  66.831  1.00  0.00    -0.106 C  
HETATM    5  N   UNL     1      -6.715  11.287  66.122  1.00  0.00    -0.357 NA 
HETATM    6  N   UNL     1      -7.525  13.295  66.752  1.00  0.00    -0.169 NA 
HETATM    7  H   UNL     1      -5.854  11.805  65.952  1.00  0.00     0.000 HD 
HETATM    8  H   UNL     1      -6.884  13.654  66.045  1.00  0.00     0.000 HD 
ENDROOT
BRANCH   5   9
HETATM    9  C   UNL     1      -6.774   9.983  65.603  1.00  0.00    -0.105 A  
HETATM   10  C   UNL     1      -6.391   8.893  66.395  1.00  0.00    -0.065 A  
HETATM   11  C   UNL     1      -6.472   7.588  65.901  1.00  0.00    -0.045 A  
HETATM   12  C   UNL     1      -7.253   9.732  64.310  1.00  0.00    -0.129 A  
HETATM   13  C   UNL     1      -7.325   8.431  63.811  1.00  0.00    -0.106 A  
HETATM   14  C   UNL     1      -6.934   7.358  64.606  1.00  0.00    -0.051 A  
ENDBRANCH   5   9
BRANCH   6  15
HETATM   15  C   UNL     1      -8.180  14.233  67.578  1.00  0.00    -0.189 A  
HETATM   16  C   UNL     1      -8.145  16.245  68.949  1.00  0.00    -0.231 A  
HETATM   17  C   UNL     1      -7.490  15.310  68.144  1.00  0.00    -0.117 A  
HETATM   18  C   UNL     1     -10.204  15.025  68.670  1.00  0.00    -0.231 A  
HETATM   19  C   UNL     1      -9.548  14.099  67.850  1.00  0.00    -0.223 A  
HETATM   20  C   UNL     1      -9.503  16.099  69.213  1.00  0.00    -0.224 A  
ENDBRANCH   6  15
TORSDOF 2
ENDMDL
MODEL      106
REMARK 921   NORMALIZED FREE ENERGY PREDICTED BY IDOCK:   -1.55 KCAL/MOL
REMARK 922        TOTAL FREE ENERGY PREDICTED BY IDOCK:   -2.00 KCAL/MOL
REMARK 923 INTER-LIGAND FREE ENERGY PREDICTED BY IDOCK:   -2.50 KCAL/MOL
REMARK 924 INTRA-LIGAND FREE ENERGY PREDICTED BY IDOCK:    0.50 KCAL/MOL
REMARK 927      BINDING AFFINITY PREDICTED BY RF-SCORE:    0.00 PKD
ROOT
HETATM    1  N   UNL     1      -7.365  10.940  68.594  1.00  0.00    -0.093 NA 
HETATM    2  H1  UNL     1      -7.930  10.337  67.995  1.00  0.00     0.000 HD 
HETATM    3  H2  UNL     1      -6.825  11.680  68.145  1.00  0.00     0.000 HD 
HETATM    4  C   UNL     1      -7.284  10.833  69.878  1.00  0.00    -0.050 C  
HETATM    5  N   UNL     1      -6.526  11.640  70.681  1.00  0.00    -0.464 NA 
HETATM    6  N   UNL     1      -7.939   9.883  70.620  1.00  0.00    -0.408 NA 
HETATM    7  H   UNL     1      -6.256  11.258  71.587  1.00  0.00     0.000 HD 
HETATM    8  H   UNL     1      -7.970  10.011  71.631  1.00  0.00     0.000 HD 
ENDROOT
BRANCH   5   9
HETATM    9  C   UNL     1      -6.079  12.940  70.393  1.00  0.00    -0.030 A  
HETATM   10  C   UNL     1      -5.882  13.863  71.428  1.00  0.00    -0.170 A  
HETATM   11  C   UNL     1      -5.409  15.150  71.157  1.00  0.00    -0.089 A  
HETATM   12  C   UNL     1      -5.778  13.335  69.081  1.00  0.00    -0.076 A  
HETATM   13  C   UNL     1      -5.316  14.623  68.807  1.00  0.00    -0.089 A  
HETATM   14  C   UNL     1      -5.131  15.531  69.845  1.00  0.00    -0.101 A  
ENDBRANCH   5   9
BRANCH   6  15
HETATM   15  C   UNL     1      -8.573   8.742  70.085  1.00  0.00    -0.146 A  
HETATM   16  C   UNL     1     -10.294   7.725  68.694  1.00  0.00    -0.221 A  
HETATM   17  C   UNL     1      -9.678   8.856  69.234  1.00  0.00    -0.165 A  
HETATM   18  C   UNL     1      -8.728   6.324  69.873  1.00  0.00    -0.141 A  
HETATM   19  C   UNL     1      -8.103   7.461  70.400  1.00  0.00    -0.108 A  
HETATM   20  C   UNL     1      -9.819   6.458  69.017  1.00  0.00    -0.155 A  
ENDBRANCH   6  15
TORSDOF 2
ENDMDL
MODEL      107
REMARK 921   NORMALIZED FREE ENERGY PREDICTED BY IDOCK:   -0.97 KCAL/MOL
REMARK 922        TOTAL FREE ENERGY PREDICTED BY IDOCK:   -1.36 KCAL/MOL
REMARK 923 INTER-LIGAND FREE ENERGY PREDICTED BY IDOCK:   -1.75 KCAL/MOL
REMARK 924 INTRA-LIGAND FREE ENERGY PREDICTED BY IDOCK:    0.39 KCAL/MOL
REMARK 927      BINDING AFFINITY PREDICTED BY RF-SCORE:    0.00 PKD
ROOT
HETATM    1  N   UNL     1     -10.707  15.736  69.298  1.00  0.00    -0.227 NA 
HETATM    2  H1  UNL     1     -10.602  16.065  68.338  1.00  0.00     0.000 HD 
HETATM    3  H2  UNL     1     -10.480  16.388  70.049  1.00  0.00     0.000 HD 
HETATM    4  C   UNL     1     -11.106  14.553  69.630  1.00  0.00    -0.228 C  
HETATM    5  N   UNL     1     -11.247  14.112  70.917  1.00  0.00    -0.301 NA 
HETATM    6  N   UNL     1     -11.435  13.566  68.737  1.00  0.00    -0.287 NA 
HETATM    7  H   UNL     1     -11.212  13.103  71.059  1.00  0.00     0.000 HD 
HETATM    8  H   UNL     1     -11.928  12.749  69.095  1.00  0.00     0.000 HD 
ENDROOT
BRANCH   5   9
HETATM    9  C   UNL     1     -11.434  14.898  72.066  1.00  0.00    -0.139 A  
HETATM   10  C   UNL     1     -11.102  16.259  72.048  1.00  0.00     0.524 A  
HETATM   11  C   UNL     1     -11.311  17.060  73.175  1.00  0.00     1.111 A  
HETATM   12  C   UNL     1     -11.991  14.362  73.235  1.00  0.00     0.154 A  
HETATM   13  C   UNL     1     -12.190  15.157  74.365  1.00  0.00    -0.581 A  
HETATM   14  C   UNL     1     -11.850  16.506  74.336  1.00  0.00     0.036 A  
ENDBRANCH   5   9
BRANCH   6  15
HETATM   15  C   UNL     1     -11.141  13.600  67.357  1.00  0.00    -0.282 A  
HETATM   16  C   UNL     1      -9.581  13.306  65.511  1.00  0.00     0.036 A  
HETATM   17  C   UNL     1      -9.864  13.286  66.878  1.00  0.00    -0.247 A  
HETATM   18  C   UNL     1     -11.847  13.992  65.063  1.00  0.00    -0.383 A  
HETATM   19  C   UNL     1     -12.132  13.955  66.433  1.00  0.00    -0.489 A  
HETATM   20  C   UNL     1     -10.574  13.662  64.604  1.00  0.00    -0.446 A  
ENDBRANCH   6  15
TORSDOF 2
ENDMDL
MODEL      108
REMARK 921   NORMALIZED FREE ENERGY PREDICTED BY IDOCK:    7.76 KCAL/MOL
REMARK 922        TOTAL FREE ENERGY PREDICTED BY IDOCK:    8.39 KCAL/MOL
REMARK 923 INTER-LIGAND FREE ENERGY PREDICTED BY IDOCK:    7.34 KCAL/MOL
REMARK 924 INTRA-LIGAND FREE ENERGY PREDICTED BY IDOCK:    1.04 KCAL/MOL
REMARK 927      BINDING AFFINITY PREDICTED BY RF-SCORE:    0.00 PKD
ROOT
HETATM    1  N   UNL     1      -7.168  10.316  68.374  1.00  0.00    -0.078 NA 
HETATM    2  H1  UNL     1      -7.527  10.372  67.421  1.00  0.00     0.000 HD 
HETATM    3  H2  UNL     1      -6.458  10.994  68.652  1.00  0.00     0.000 HD 
HETATM    4  C   UNL     1      -7.547   9.450  69.254  1.00  0.00    -0.081 C  
HETATM    5  N   UNL     1      -7.066   9.376  70.532  1.00  0.00    -0.098 NA 
HETATM    6  N   UNL     1      -8.480   8.471  69.026  1.00  0.00    -0.124 NA 
HETATM    7  H   UNL     1      -7.154   8.475  71.001  1.00  0.00     0.000 HD 
HETATM    8  H   UNL     1      -8.853   7.976  69.835  1.00  0.00     0.000 HD 
ENDROOT
BRANCH   5   9
HETATM    9  C   UNL     1      -6.462  10.408  71.270  1.00  0.00     0.566 A  
HETATM   10  C   UNL     1      -5.815  11.460  70.609  1.00  0.00    -0.092 A  
HETATM   11  C   UNL     1      -5.236  12.508  71.330  1.00  0.00    -0.100 A  
HETATM   12  C   UNL     1      -6.526  10.438  72.670  1.00  0.00     2.345 A  
HETATM   13  C   UNL     1      -5.939  11.478  73.393  1.00  0.00     2.701 A  
HETATM   14  C   UNL     1      -5.293  12.513  72.723  1.00  0.00     0.613 A  
ENDBRANCH   5   9
BRANCH   6  15
HETATM   15  C   UNL     1      -8.961   8.100  67.753  1.00  0.00    -0.132 A  
HETATM   16  C   UNL     1      -8.769   8.107  65.325  1.00  0.00    -0.093 A  
HETATM   17  C   UNL     1      -8.298   8.489  66.584  1.00  0.00    -0.112 A  
HETATM   18  C   UNL     1     -10.607   6.957  66.375  1.00  0.00     0.177 A  
HETATM   19  C   UNL     1     -10.124   7.328  67.635  1.00  0.00    -0.232 A  
HETATM   20  C   UNL     1      -9.926   7.342  65.223  1.00  0.00     2.085 A  
ENDBRANCH   6  15
TORSDOF 2
ENDMDL
MODEL      109
REMARK 921   NORMALIZED FREE ENERGY PREDICTED BY IDOCK:   24.81 KCAL/MOL
REMARK 922        TOTAL FREE ENERGY PREDICTED BY IDOCK:   27.43 KCAL/MOL
REMARK 923 INTER-LIGAND FREE ENERGY PREDICTED BY IDOCK:   27.29 KCAL/MOL
REMARK 924 INTRA-LIGAND FREE ENERGY PREDICTED BY IDOCK:    0.14 KCAL/MOL
REMARK 927      BINDING AFFINITY PREDICTED BY RF-SCORE:    0.00 PKD
ROOT
HETATM    1  N   UNL     1     -10.057  16.651  68.951  1.00  0.00    -0.258 NA 
HETATM    2  H1  UNL     1      -9.727  16.919  68.023  1.00  0.00     0.000 HD 
HETATM    3  H2  UNL     1     -10.372  17.395  69.574  1.00  0.00     0.000 HD 
HETATM    4  C   UNL     1     -10.103  15.438  69.393  1.00  0.00    -0.269 C  
HETATM    5  N   UNL     1     -10.546  15.079  70.637  1.00  0.00    -0.527 NA 
HETATM    6  N   UNL     1      -9.704  14.337  68.680  1.00  0.00    -0.248 NA 
HETATM    7  H   UNL     1     -10.210  14.187  70.999  1.00  0.00     0.000 HD 
HETATM    8  H   UNL     1      -9.969  13.420  69.038  1.00  0.00     0.000 HD 
ENDROOT
BRANCH   5   9
HETATM    9  C   UNL     1     -11.412  15.806  71.469  1.00  0.00    -0.429 A  
HETATM   10  C   UNL     1     -12.366  16.667  70.912  1.00  0.00     1.580 A  
HETATM   11  C   UNL     1     -13.254  17.374  71.729  1.00  0.00     8.839 A  
HETATM   12  C   UNL     1     -11.377  15.662  72.864  1.00  0.00     0.004 A  
HETATM   13  C   UNL     1     -12.255  16.376  73.681  1.00  0.00    -0.548 A  
HETATM   14  C   UNL     1     -13.193  17.232  73.114  1.00  0.00     3.088 A  
ENDBRANCH   5   9
BRANCH   6  15
HETATM   15  C   UNL     1      -8.951  14.382  67.488  1.00  0.00    -0.190 A  
HETATM   16  C   UNL     1      -6.843  14.731  66.319  1.00  0.00     3.578 A  
HETATM   17  C   UNL     1      -7.589  14.703  67.499  1.00  0.00    -0.215 A  
HETATM   18  C   UNL     1      -8.820  14.147  65.071  1.00  0.00     2.886 A  
HETATM   19  C   UNL     1      -9.560  14.104  66.257  1.00  0.00    -0.295 A  
HETATM   20  C   UNL     1      -7.462  14.455  65.104  1.00  0.00    10.293 A  
ENDBRANCH   6  15
TORSDOF 2
ENDMDL
