MODEL        1
REMARK 921   NORMALIZED FREE ENERGY PREDICTED BY IDOCK:   -5.86 KCAL/MOL
REMARK 922        TOTAL FREE ENERGY PREDICTED BY IDOCK:   -8.82 KCAL/MOL
REMARK 923 INTER-LIGAND FREE ENERGY PREDICTED BY IDOCK:   -7.92 KCAL/MOL
REMARK 924 INTRA-LIGAND FREE ENERGY PREDICTED BY IDOCK:   -0.90 KCAL/MOL
REMARK 927      BINDING AFFINITY PREDICTED BY RF-SCORE:    0.00 PKD
ROOT
HETATM    1  C   UNL     1      -9.471  19.443  68.733  1.00  0.00    -0.404 C  
HETATM    2  N   UNL     1     -10.596  19.136  67.843  1.00  0.00    -0.395 NA 
HETATM    3  C   UNL     1     -10.369  19.728  66.526  1.00  0.00    -0.506 C  
ENDROOT
BRANCH   2   4
HETATM    4  C   UNL     1     -10.784  17.676  67.771  1.00  0.00    -0.332 C  
BRANCH   4   5
HETATM    5  C   UNL     1      -9.707  16.833  68.482  1.00  0.00    -0.248 C  
BRANCH   5   6
HETATM    6  O   UNL     1     -10.227  15.999  69.524  1.00  0.00    -0.246 OA 
BRANCH   6   7
HETATM    7  C   UNL     1     -11.587  15.562  69.353  1.00  0.00    -0.355 C  
BRANCH   7   8
HETATM    8  C   UNL     1     -11.667  14.252  68.585  1.00  0.00    -0.380 A  
HETATM    9  C   UNL     1     -12.035  14.261  67.229  1.00  0.00    -0.439 A  
HETATM   10  C   UNL     1     -12.022  13.085  66.478  1.00  0.00    -0.457 A  
HETATM   11  C   UNL     1     -11.301  13.033  69.174  1.00  0.00    -0.328 A  
HETATM   12  C   UNL     1     -11.650  11.883  67.075  1.00  0.00    -0.365 A  
HETATM   13  C   UNL     1     -11.294  11.854  68.422  1.00  0.00    -0.331 A  
ENDBRANCH   7   8
BRANCH   7  14
HETATM   14  C   UNL     1     -12.287  15.534  70.706  1.00  0.00    -0.463 A  
HETATM   15  C   UNL     1     -12.148  15.736  73.131  1.00  0.00    -0.603 A  
HETATM   16  C   UNL     1     -14.237  15.111  72.098  1.00  0.00    -0.656 A  
HETATM   17  C   UNL     1     -11.553  15.822  71.871  1.00  0.00    -0.545 A  
HETATM   18  C   UNL     1     -13.641  15.191  70.838  1.00  0.00    -0.397 A  
HETATM   19  C   UNL     1     -13.489  15.375  73.244  1.00  0.00    -0.467 A  
ENDBRANCH   7  14
ENDBRANCH   6   7
ENDBRANCH   5   6
ENDBRANCH   4   5
ENDBRANCH   2   4
TORSDOF 6
ENDMDL
MODEL        2
REMARK 921   NORMALIZED FREE ENERGY PREDICTED BY IDOCK:   -5.82 KCAL/MOL
REMARK 922        TOTAL FREE ENERGY PREDICTED BY IDOCK:   -8.76 KCAL/MOL
REMARK 923 INTER-LIGAND FREE ENERGY PREDICTED BY IDOCK:   -7.99 KCAL/MOL
REMARK 924 INTRA-LIGAND FREE ENERGY PREDICTED BY IDOCK:   -0.77 KCAL/MOL
REMARK 927      BINDING AFFINITY PREDICTED BY RF-SCORE:    0.00 PKD
ROOT
HETATM    1  C   UNL     1     -12.134  14.682  64.657  1.00  0.00    -0.454 C  
HETATM    2  N   UNL     1     -12.705  13.445  65.200  1.00  0.00    -0.675 NA 
HETATM    3  C   UNL     1     -12.534  12.353  64.243  1.00  0.00    -0.437 C  
ENDROOT
BRANCH   2   4
HETATM    4  C   UNL     1     -12.086  13.146  66.503  1.00  0.00    -0.358 C  
BRANCH   4   5
HETATM    5  C   UNL     1     -11.978  14.336  67.475  1.00  0.00    -0.376 C  
BRANCH   5   6
HETATM    6  O   UNL     1     -11.451  13.982  68.759  1.00  0.00    -0.253 OA 
BRANCH   6   7
HETATM    7  C   UNL     1     -12.381  13.364  69.666  1.00  0.00    -0.131 C  
BRANCH   7   8
HETATM    8  C   UNL     1     -11.928  11.971  70.077  1.00  0.00    -0.400 A  
HETATM    9  C   UNL     1     -12.551  11.327  71.159  1.00  0.00    -0.501 A  
HETATM   10  C   UNL     1     -12.221  10.014  71.494  1.00  0.00    -0.496 A  
HETATM   11  C   UNL     1     -10.955  11.272  69.348  1.00  0.00    -0.282 A  
HETATM   12  C   UNL     1     -11.257   9.329  70.758  1.00  0.00    -0.351 A  
HETATM   13  C   UNL     1     -10.620   9.958  69.689  1.00  0.00    -0.273 A  
ENDBRANCH   7   8
BRANCH   7  14
HETATM   14  C   UNL     1     -12.652  14.301  70.835  1.00  0.00    -0.426 A  
HETATM   15  C   UNL     1     -11.782  15.725  72.612  1.00  0.00    -0.542 A  
HETATM   16  C   UNL     1     -14.160  15.359  72.425  1.00  0.00    -0.645 A  
HETATM   17  C   UNL     1     -11.571  14.917  71.494  1.00  0.00    -0.361 A  
HETATM   18  C   UNL     1     -13.950  14.546  71.310  1.00  0.00    -0.356 A  
HETATM   19  C   UNL     1     -13.076  15.941  73.081  1.00  0.00    -0.673 A  
ENDBRANCH   7  14
ENDBRANCH   6   7
ENDBRANCH   5   6
ENDBRANCH   4   5
ENDBRANCH   2   4
TORSDOF 6
ENDMDL
MODEL        3
REMARK 921   NORMALIZED FREE ENERGY PREDICTED BY IDOCK:   -5.80 KCAL/MOL
REMARK 922        TOTAL FREE ENERGY PREDICTED BY IDOCK:   -8.73 KCAL/MOL
REMARK 923 INTER-LIGAND FREE ENERGY PREDICTED BY IDOCK:   -7.99 KCAL/MOL
REMARK 924 INTRA-LIGAND FREE ENERGY PREDICTED BY IDOCK:   -0.74 KCAL/MOL
REMARK 927      BINDING AFFINITY PREDICTED BY RF-SCORE:    0.00 PKD
ROOT
HETATM    1  C   UNL     1     -12.269  14.676  64.338  1.00  0.00    -0.452 C  
HETATM    2  N   UNL     1     -12.663  13.379  64.898  1.00  0.00    -0.686 NA 
HETATM    3  C   UNL     1     -12.245  12.300  64.004  1.00  0.00    -0.475 C  
ENDROOT
BRANCH   2   4
HETATM    4  C   UNL     1     -12.096  13.232  66.250  1.00  0.00    -0.414 C  
BRANCH   4   5
HETATM    5  C   UNL     1     -11.846  14.548  67.011  1.00  0.00    -0.385 C  
BRANCH   5   6
HETATM    6  O   UNL     1     -11.827  14.392  68.435  1.00  0.00    -0.316 OA 
BRANCH   6   7
HETATM    7  C   UNL     1     -11.778  15.612  69.196  1.00  0.00    -0.390 C  
BRANCH   7   8
HETATM    8  C   UNL     1     -12.239  15.403  70.630  1.00  0.00    -0.431 A  
HETATM    9  C   UNL     1     -13.059  14.306  70.946  1.00  0.00    -0.368 A  
HETATM   10  C   UNL     1     -13.415  14.039  72.268  1.00  0.00    -0.597 A  
HETATM   11  C   UNL     1     -11.799  16.235  71.670  1.00  0.00    -0.482 A  
HETATM   12  C   UNL     1     -12.965  14.871  73.292  1.00  0.00    -0.635 A  
HETATM   13  C   UNL     1     -12.161  15.970  72.994  1.00  0.00    -0.637 A  
ENDBRANCH   7   8
BRANCH   7  14
HETATM   14  C   UNL     1     -10.393  16.235  69.071  1.00  0.00    -0.264 A  
HETATM   15  C   UNL     1      -9.016  18.152  68.468  1.00  0.00    -0.309 A  
HETATM   16  C   UNL     1      -7.965  16.084  69.131  1.00  0.00    -0.238 A  
HETATM   17  C   UNL     1     -10.272  17.574  68.659  1.00  0.00    -0.373 A  
HETATM   18  C   UNL     1      -9.221  15.502  69.317  1.00  0.00    -0.268 A  
HETATM   19  C   UNL     1      -7.863  17.405  68.698  1.00  0.00    -0.274 A  
ENDBRANCH   7  14
ENDBRANCH   6   7
ENDBRANCH   5   6
ENDBRANCH   4   5
ENDBRANCH   2   4
TORSDOF 6
ENDMDL
MODEL        4
REMARK 921   NORMALIZED FREE ENERGY PREDICTED BY IDOCK:   -5.77 KCAL/MOL
REMARK 922        TOTAL FREE ENERGY PREDICTED BY IDOCK:   -8.70 KCAL/MOL
REMARK 923 INTER-LIGAND FREE ENERGY PREDICTED BY IDOCK:   -7.98 KCAL/MOL
REMARK 924 INTRA-LIGAND FREE ENERGY PREDICTED BY IDOCK:   -0.72 KCAL/MOL
REMARK 927      BINDING AFFINITY PREDICTED BY RF-SCORE:    0.00 PKD
ROOT
HETATM    1  C   UNL     1      -8.301  19.424  67.212  1.00  0.00    -0.293 C  
HETATM    2  N   UNL     1      -9.755  19.531  67.375  1.00  0.00    -0.325 NA 
HETATM    3  C   UNL     1     -10.422  19.253  66.104  1.00  0.00    -0.488 C  
ENDROOT
BRANCH   2   4
HETATM    4  C   UNL     1     -10.200  18.623  68.446  1.00  0.00    -0.371 C  
BRANCH   4   5
HETATM    5  C   UNL     1     -10.705  17.244  67.980  1.00  0.00    -0.367 C  
BRANCH   5   6
HETATM    6  O   UNL     1     -10.738  16.263  69.024  1.00  0.00    -0.258 OA 
BRANCH   6   7
HETATM    7  C   UNL     1     -11.954  15.503  69.127  1.00  0.00    -0.309 C  
BRANCH   7   8
HETATM    8  C   UNL     1     -11.812  14.121  68.509  1.00  0.00    -0.390 A  
HETATM    9  C   UNL     1     -11.955  13.960  67.120  1.00  0.00    -0.455 A  
HETATM   10  C   UNL     1     -11.734  12.720  66.519  1.00  0.00    -0.463 A  
HETATM   11  C   UNL     1     -11.456  13.005  69.282  1.00  0.00    -0.348 A  
HETATM   12  C   UNL     1     -11.375  11.623  67.298  1.00  0.00    -0.372 A  
HETATM   13  C   UNL     1     -11.240  11.763  68.679  1.00  0.00    -0.312 A  
ENDBRANCH   7   8
BRANCH   7  14
HETATM   14  C   UNL     1     -12.427  15.492  70.575  1.00  0.00    -0.472 A  
HETATM   15  C   UNL     1     -14.252  15.245  72.172  1.00  0.00    -0.667 A  
HETATM   16  C   UNL     1     -12.051  15.853  72.952  1.00  0.00    -0.612 A  
HETATM   17  C   UNL     1     -13.772  15.194  70.862  1.00  0.00    -0.352 A  
HETATM   18  C   UNL     1     -11.571  15.808  71.641  1.00  0.00    -0.537 A  
HETATM   19  C   UNL     1     -13.392  15.580  73.215  1.00  0.00    -0.583 A  
ENDBRANCH   7  14
ENDBRANCH   6   7
ENDBRANCH   5   6
ENDBRANCH   4   5
ENDBRANCH   2   4
TORSDOF 6
ENDMDL
MODEL        5
REMARK 921   NORMALIZED FREE ENERGY PREDICTED BY IDOCK:   -5.77 KCAL/MOL
REMARK 922        TOTAL FREE ENERGY PREDICTED BY IDOCK:   -8.69 KCAL/MOL
REMARK 923 INTER-LIGAND FREE ENERGY PREDICTED BY IDOCK:   -7.79 KCAL/MOL
REMARK 924 INTRA-LIGAND FREE ENERGY PREDICTED BY IDOCK:   -0.90 KCAL/MOL
REMARK 927      BINDING AFFINITY PREDICTED BY RF-SCORE:    0.00 PKD
ROOT
HETATM    1  C   UNL     1     -11.230  12.331  65.645  1.00  0.00    -0.333 C  
HETATM    2  N   UNL     1     -11.335  13.792  65.719  1.00  0.00    -0.301 NA 
HETATM    3  C   UNL     1     -12.067  14.301  64.560  1.00  0.00    -0.480 C  
ENDROOT
BRANCH   2   4
HETATM    4  C   UNL     1     -11.971  14.178  66.990  1.00  0.00    -0.439 C  
BRANCH   4   5
HETATM    5  C   UNL     1     -11.042  14.852  68.019  1.00  0.00    -0.295 C  
BRANCH   5   6
HETATM    6  O   UNL     1     -10.867  14.090  69.219  1.00  0.00    -0.231 OA 
BRANCH   6   7
HETATM    7  C   UNL     1     -12.069  13.550  69.796  1.00  0.00    -0.318 C  
BRANCH   7   8
HETATM    8  C   UNL     1     -11.916  12.078  70.144  1.00  0.00    -0.401 A  
HETATM    9  C   UNL     1     -10.915  11.313  69.521  1.00  0.00    -0.249 A  
HETATM   10  C   UNL     1     -10.694   9.987  69.894  1.00  0.00    -0.328 A  
HETATM   11  C   UNL     1     -12.701  11.475  71.139  1.00  0.00    -0.458 A  
HETATM   12  C   UNL     1     -11.476   9.404  70.888  1.00  0.00    -0.382 A  
HETATM   13  C   UNL     1     -12.481  10.144  71.508  1.00  0.00    -0.526 A  
ENDBRANCH   7   8
BRANCH   7  14
HETATM   14  C   UNL     1     -12.511  14.424  70.963  1.00  0.00    -0.425 A  
HETATM   15  C   UNL     1     -11.939  15.618  73.008  1.00  0.00    -0.590 A  
HETATM   16  C   UNL     1     -14.238  15.513  72.286  1.00  0.00    -0.617 A  
HETATM   17  C   UNL     1     -11.555  14.876  71.891  1.00  0.00    -0.335 A  
HETATM   18  C   UNL     1     -13.857  14.765  71.170  1.00  0.00    -0.388 A  
HETATM   19  C   UNL     1     -13.281  15.932  73.208  1.00  0.00    -0.698 A  
ENDBRANCH   7  14
ENDBRANCH   6   7
ENDBRANCH   5   6
ENDBRANCH   4   5
ENDBRANCH   2   4
TORSDOF 6
ENDMDL
MODEL        6
REMARK 921   NORMALIZED FREE ENERGY PREDICTED BY IDOCK:   -5.73 KCAL/MOL
REMARK 922        TOTAL FREE ENERGY PREDICTED BY IDOCK:   -8.64 KCAL/MOL
REMARK 923 INTER-LIGAND FREE ENERGY PREDICTED BY IDOCK:   -7.89 KCAL/MOL
REMARK 924 INTRA-LIGAND FREE ENERGY PREDICTED BY IDOCK:   -0.76 KCAL/MOL
REMARK 927      BINDING AFFINITY PREDICTED BY RF-SCORE:    0.00 PKD
ROOT
HETATM    1  C   UNL     1     -12.154  14.549  64.371  1.00  0.00    -0.472 C  
HETATM    2  N   UNL     1     -12.769  13.325  64.896  1.00  0.00    -0.690 NA 
HETATM    3  C   UNL     1     -12.402  12.183  64.061  1.00  0.00    -0.451 C  
ENDROOT
BRANCH   2   4
HETATM    4  C   UNL     1     -12.371  13.137  66.302  1.00  0.00    -0.276 C  
BRANCH   4   5
HETATM    5  C   UNL     1     -12.003  14.424  67.065  1.00  0.00    -0.395 C  
BRANCH   5   6
HETATM    6  O   UNL     1     -11.929  14.247  68.485  1.00  0.00    -0.341 OA 
BRANCH   6   7
HETATM    7  C   UNL     1     -11.832  15.455  69.260  1.00  0.00    -0.343 C  
BRANCH   7   8
HETATM    8  C   UNL     1     -12.152  15.213  70.727  1.00  0.00    -0.387 A  
HETATM    9  C   UNL     1     -11.817  16.186  71.683  1.00  0.00    -0.557 A  
HETATM   10  C   UNL     1     -12.187  16.031  73.020  1.00  0.00    -0.637 A  
HETATM   11  C   UNL     1     -12.854  14.073  71.146  1.00  0.00    -0.427 A  
HETATM   12  C   UNL     1     -12.889  14.896  73.420  1.00  0.00    -0.638 A  
HETATM   13  C   UNL     1     -13.219  13.916  72.486  1.00  0.00    -0.601 A  
ENDBRANCH   7   8
BRANCH   7  14
HETATM   14  C   UNL     1     -10.477  16.108  69.018  1.00  0.00    -0.261 A  
HETATM   15  C   UNL     1      -8.047  15.981  69.151  1.00  0.00    -0.238 A  
HETATM   16  C   UNL     1      -9.101  18.020  68.410  1.00  0.00    -0.293 A  
HETATM   17  C   UNL     1      -9.302  15.386  69.296  1.00  0.00    -0.254 A  
HETATM   18  C   UNL     1     -10.357  17.429  68.560  1.00  0.00    -0.378 A  
HETATM   19  C   UNL     1      -7.948  17.299  68.714  1.00  0.00    -0.250 A  
ENDBRANCH   7  14
ENDBRANCH   6   7
ENDBRANCH   5   6
ENDBRANCH   4   5
ENDBRANCH   2   4
TORSDOF 6
ENDMDL
MODEL        7
REMARK 921   NORMALIZED FREE ENERGY PREDICTED BY IDOCK:   -5.70 KCAL/MOL
REMARK 922        TOTAL FREE ENERGY PREDICTED BY IDOCK:   -8.60 KCAL/MOL
REMARK 923 INTER-LIGAND FREE ENERGY PREDICTED BY IDOCK:   -8.35 KCAL/MOL
REMARK 924 INTRA-LIGAND FREE ENERGY PREDICTED BY IDOCK:   -0.25 KCAL/MOL
REMARK 927      BINDING AFFINITY PREDICTED BY RF-SCORE:    0.00 PKD
ROOT
HETATM    1  C   UNL     1     -12.594  13.986  65.624  1.00  0.00    -0.512 C  
HETATM    2  N   UNL     1     -12.269  12.556  65.676  1.00  0.00    -0.612 NA 
HETATM    3  C   UNL     1     -11.919  12.074  64.341  1.00  0.00    -0.300 C  
ENDROOT
BRANCH   2   4
HETATM    4  C   UNL     1     -11.188  12.331  66.650  1.00  0.00    -0.316 C  
BRANCH   4   5
HETATM    5  C   UNL     1     -11.405  11.156  67.623  1.00  0.00    -0.284 C  
BRANCH   5   6
HETATM    6  O   UNL     1     -12.365  11.431  68.650  1.00  0.00    -0.491 OA 
BRANCH   6   7
HETATM    7  C   UNL     1     -11.824  11.660  69.963  1.00  0.00    -0.355 C  
BRANCH   7   8
HETATM    8  C   UNL     1     -12.424  12.897  70.614  1.00  0.00    -0.333 A  
HETATM    9  C   UNL     1     -12.273  14.151  69.999  1.00  0.00    -0.418 A  
HETATM   10  C   UNL     1     -12.896  15.284  70.525  1.00  0.00    -0.421 A  
HETATM   11  C   UNL     1     -13.201  12.809  71.779  1.00  0.00    -0.471 A  
HETATM   12  C   UNL     1     -13.669  15.180  71.679  1.00  0.00    -0.578 A  
HETATM   13  C   UNL     1     -13.819  13.945  72.308  1.00  0.00    -0.669 A  
ENDBRANCH   7   8
BRANCH   7  14
HETATM   14  C   UNL     1     -11.956  10.392  70.797  1.00  0.00    -0.462 A  
HETATM   15  C   UNL     1     -13.378   8.850  72.037  1.00  0.00    -0.471 A  
HETATM   16  C   UNL     1     -10.988   8.523  72.018  1.00  0.00    -0.410 A  
HETATM   17  C   UNL     1     -13.231   9.968  71.214  1.00  0.00    -0.469 A  
HETATM   18  C   UNL     1     -10.839   9.645  71.200  1.00  0.00    -0.404 A  
HETATM   19  C   UNL     1     -12.256   8.132  72.443  1.00  0.00    -0.374 A  
ENDBRANCH   7  14
ENDBRANCH   6   7
ENDBRANCH   5   6
ENDBRANCH   4   5
ENDBRANCH   2   4
TORSDOF 6
ENDMDL
MODEL        8
REMARK 921   NORMALIZED FREE ENERGY PREDICTED BY IDOCK:   -5.63 KCAL/MOL
REMARK 922        TOTAL FREE ENERGY PREDICTED BY IDOCK:   -8.50 KCAL/MOL
REMARK 923 INTER-LIGAND FREE ENERGY PREDICTED BY IDOCK:   -7.77 KCAL/MOL
REMARK 924 INTRA-LIGAND FREE ENERGY PREDICTED BY IDOCK:   -0.73 KCAL/MOL
REMARK 927      BINDING AFFINITY PREDICTED BY RF-SCORE:    0.00 PKD
ROOT
HETATM    1  C   UNL     1     -10.026  19.713  68.261  1.00  0.00    -0.436 C  
HETATM    2  N   UNL     1     -10.604  18.496  67.681  1.00  0.00    -0.424 NA 
HETATM    3  C   UNL     1      -9.858  18.108  66.485  1.00  0.00    -0.362 C  
ENDROOT
BRANCH   2   4
HETATM    4  C   UNL     1     -10.624  17.428  68.695  1.00  0.00    -0.318 C  
BRANCH   4   5
HETATM    5  C   UNL     1     -11.274  16.103  68.249  1.00  0.00    -0.343 C  
BRANCH   5   6
HETATM    6  O   UNL     1     -10.950  14.993  69.095  1.00  0.00    -0.239 OA 
BRANCH   6   7
HETATM    7  C   UNL     1     -12.071  14.288  69.655  1.00  0.00    -0.346 C  
BRANCH   7   8
HETATM    8  C   UNL     1     -11.808  12.793  69.754  1.00  0.00    -0.380 A  
HETATM    9  C   UNL     1     -12.262  12.078  70.875  1.00  0.00    -0.325 A  
HETATM   10  C   UNL     1     -12.117  10.692  70.943  1.00  0.00    -0.489 A  
HETATM   11  C   UNL     1     -11.190  12.087  68.710  1.00  0.00    -0.316 A  
HETATM   12  C   UNL     1     -11.508  10.003  69.896  1.00  0.00    -0.274 A  
HETATM   13  C   UNL     1     -11.041  10.699  68.783  1.00  0.00    -0.316 A  
ENDBRANCH   7   8
BRANCH   7  14
HETATM   14  C   UNL     1     -12.475  14.937  70.972  1.00  0.00    -0.396 A  
HETATM   15  C   UNL     1     -11.821  15.840  73.139  1.00  0.00    -0.521 A  
HETATM   16  C   UNL     1     -14.158  15.684  72.563  1.00  0.00    -0.562 A  
HETATM   17  C   UNL     1     -11.480  15.308  71.895  1.00  0.00    -0.504 A  
HETATM   18  C   UNL     1     -13.819  15.146  71.320  1.00  0.00    -0.553 A  
HETATM   19  C   UNL     1     -13.160  16.023  73.475  1.00  0.00    -0.665 A  
ENDBRANCH   7  14
ENDBRANCH   6   7
ENDBRANCH   5   6
ENDBRANCH   4   5
ENDBRANCH   2   4
TORSDOF 6
ENDMDL
MODEL        9
REMARK 921   NORMALIZED FREE ENERGY PREDICTED BY IDOCK:   -5.61 KCAL/MOL
REMARK 922        TOTAL FREE ENERGY PREDICTED BY IDOCK:   -8.47 KCAL/MOL
REMARK 923 INTER-LIGAND FREE ENERGY PREDICTED BY IDOCK:   -7.88 KCAL/MOL
REMARK 924 INTRA-LIGAND FREE ENERGY PREDICTED BY IDOCK:   -0.59 KCAL/MOL
REMARK 927      BINDING AFFINITY PREDICTED BY RF-SCORE:    0.00 PKD
ROOT
HETATM    1  C   UNL     1      -9.895  20.328  67.566  1.00  0.00    -0.436 C  
HETATM    2  N   UNL     1     -10.599  19.043  67.522  1.00  0.00    -0.454 NA 
HETATM    3  C   UNL     1     -10.508  18.467  66.182  1.00  0.00    -0.395 C  
ENDROOT
BRANCH   2   4
HETATM    4  C   UNL     1     -10.050  18.144  68.552  1.00  0.00    -0.400 C  
BRANCH   4   5
HETATM    5  C   UNL     1     -10.115  16.640  68.222  1.00  0.00    -0.268 C  
BRANCH   5   6
HETATM    6  O   UNL     1     -11.374  16.036  68.545  1.00  0.00    -0.360 OA 
BRANCH   6   7
HETATM    7  C   UNL     1     -11.318  14.659  68.956  1.00  0.00    -0.277 C  
BRANCH   7   8
HETATM    8  C   UNL     1     -12.265  14.374  70.111  1.00  0.00    -0.401 A  
HETATM    9  C   UNL     1     -12.359  13.073  70.631  1.00  0.00    -0.391 A  
HETATM   10  C   UNL     1     -13.148  12.807  71.751  1.00  0.00    -0.455 A  
HETATM   11  C   UNL     1     -12.994  15.400  70.731  1.00  0.00    -0.510 A  
HETATM   12  C   UNL     1     -13.860  13.837  72.361  1.00  0.00    -0.681 A  
HETATM   13  C   UNL     1     -13.788  15.132  71.850  1.00  0.00    -0.607 A  
ENDBRANCH   7   8
BRANCH   7  14
HETATM   14  C   UNL     1     -11.523  13.757  67.745  1.00  0.00    -0.354 A  
HETATM   15  C   UNL     1     -11.009  11.677  66.584  1.00  0.00    -0.349 A  
HETATM   16  C   UNL     1     -12.402  13.333  65.517  1.00  0.00    -0.533 A  
HETATM   17  C   UNL     1     -10.898  12.497  67.708  1.00  0.00    -0.254 A  
HETATM   18  C   UNL     1     -12.287  14.156  66.639  1.00  0.00    -0.375 A  
HETATM   19  C   UNL     1     -11.756  12.098  65.486  1.00  0.00    -0.384 A  
ENDBRANCH   7  14
ENDBRANCH   6   7
ENDBRANCH   5   6
ENDBRANCH   4   5
ENDBRANCH   2   4
TORSDOF 6
ENDMDL
MODEL       10
REMARK 921   NORMALIZED FREE ENERGY PREDICTED BY IDOCK:   -5.61 KCAL/MOL
REMARK 922        TOTAL FREE ENERGY PREDICTED BY IDOCK:   -8.47 KCAL/MOL
REMARK 923 INTER-LIGAND FREE ENERGY PREDICTED BY IDOCK:   -7.65 KCAL/MOL
REMARK 924 INTRA-LIGAND FREE ENERGY PREDICTED BY IDOCK:   -0.82 KCAL/MOL
REMARK 927      BINDING AFFINITY PREDICTED BY RF-SCORE:    0.00 PKD
ROOT
HETATM    1  C   UNL     1      -8.405  19.903  67.494  1.00  0.00    -0.324 C  
HETATM    2  N   UNL     1      -9.869  19.842  67.429  1.00  0.00    -0.382 NA 
HETATM    3  C   UNL     1     -10.291  19.312  66.134  1.00  0.00    -0.494 C  
ENDROOT
BRANCH   2   4
HETATM    4  C   UNL     1     -10.380  19.038  68.553  1.00  0.00    -0.264 C  
BRANCH   4   5
HETATM    5  C   UNL     1     -10.085  17.528  68.476  1.00  0.00    -0.363 C  
BRANCH   5   6
HETATM    6  O   UNL     1     -11.260  16.710  68.527  1.00  0.00    -0.344 OA 
BRANCH   6   7
HETATM    7  C   UNL     1     -11.133  15.481  69.263  1.00  0.00    -0.285 C  
BRANCH   7   8
HETATM    8  C   UNL     1     -11.999  15.478  70.513  1.00  0.00    -0.406 A  
HETATM    9  C   UNL     1     -11.463  15.922  71.734  1.00  0.00    -0.457 A  
HETATM   10  C   UNL     1     -12.264  16.019  72.872  1.00  0.00    -0.621 A  
HETATM   11  C   UNL     1     -13.354  15.119  70.465  1.00  0.00    -0.200 A  
HETATM   12  C   UNL     1     -13.610  15.666  72.808  1.00  0.00    -0.678 A  
HETATM   13  C   UNL     1     -14.154  15.212  71.608  1.00  0.00    -0.645 A  
ENDBRANCH   7   8
BRANCH   7  14
HETATM   14  C   UNL     1     -11.381  14.301  68.331  1.00  0.00    -0.309 A  
HETATM   15  C   UNL     1     -11.148  11.919  67.876  1.00  0.00    -0.297 A  
HETATM   16  C   UNL     1     -12.100  13.371  66.200  1.00  0.00    -0.481 A  
HETATM   17  C   UNL     1     -10.999  13.009  68.734  1.00  0.00    -0.295 A  
HETATM   18  C   UNL     1     -11.946  14.464  67.057  1.00  0.00    -0.424 A  
HETATM   19  C   UNL     1     -11.693  12.101  66.607  1.00  0.00    -0.385 A  
ENDBRANCH   7  14
ENDBRANCH   6   7
ENDBRANCH   5   6
ENDBRANCH   4   5
ENDBRANCH   2   4
TORSDOF 6
ENDMDL
MODEL       11
REMARK 921   NORMALIZED FREE ENERGY PREDICTED BY IDOCK:   -5.60 KCAL/MOL
REMARK 922        TOTAL FREE ENERGY PREDICTED BY IDOCK:   -8.46 KCAL/MOL
REMARK 923 INTER-LIGAND FREE ENERGY PREDICTED BY IDOCK:   -7.99 KCAL/MOL
REMARK 924 INTRA-LIGAND FREE ENERGY PREDICTED BY IDOCK:   -0.47 KCAL/MOL
REMARK 927      BINDING AFFINITY PREDICTED BY RF-SCORE:    0.00 PKD
ROOT
HETATM    1  C   UNL     1     -10.836  14.388  64.848  1.00  0.00    -0.416 C  
HETATM    2  N   UNL     1     -12.121  14.050  65.470  1.00  0.00    -0.389 NA 
HETATM    3  C   UNL     1     -12.635  12.802  64.910  1.00  0.00    -0.470 C  
ENDROOT
BRANCH   2   4
HETATM    4  C   UNL     1     -11.957  13.978  66.933  1.00  0.00    -0.447 C  
BRANCH   4   5
HETATM    5  C   UNL     1     -11.784  12.560  67.511  1.00  0.00    -0.374 C  
BRANCH   5   6
HETATM    6  O   UNL     1     -11.289  12.545  68.856  1.00  0.00    -0.258 OA 
BRANCH   6   7
HETATM    7  C   UNL     1     -12.274  12.325  69.880  1.00  0.00    -0.163 C  
BRANCH   7   8
HETATM    8  C   UNL     1     -12.081  10.984  70.571  1.00  0.00    -0.470 A  
HETATM    9  C   UNL     1     -10.861  10.301  70.439  1.00  0.00    -0.320 A  
HETATM   10  C   UNL     1     -10.626   9.118  71.140  1.00  0.00    -0.379 A  
HETATM   11  C   UNL     1     -13.067  10.444  71.411  1.00  0.00    -0.512 A  
HETATM   12  C   UNL     1     -11.611   8.597  71.976  1.00  0.00    -0.440 A  
HETATM   13  C   UNL     1     -12.832   9.256  72.109  1.00  0.00    -0.485 A  
ENDBRANCH   7   8
BRANCH   7  14
HETATM   14  C   UNL     1     -12.299  13.517  70.829  1.00  0.00    -0.440 A  
HETATM   15  C   UNL     1     -13.283  14.621  72.765  1.00  0.00    -0.591 A  
HETATM   16  C   UNL     1     -11.580  15.748  71.481  1.00  0.00    -0.531 A  
HETATM   17  C   UNL     1     -13.187  13.515  71.920  1.00  0.00    -0.510 A  
HETATM   18  C   UNL     1     -11.487  14.644  70.630  1.00  0.00    -0.256 A  
HETATM   19  C   UNL     1     -12.483  15.739  72.542  1.00  0.00    -0.542 A  
ENDBRANCH   7  14
ENDBRANCH   6   7
ENDBRANCH   5   6
ENDBRANCH   4   5
ENDBRANCH   2   4
TORSDOF 6
ENDMDL
MODEL       12
REMARK 921   NORMALIZED FREE ENERGY PREDICTED BY IDOCK:   -5.52 KCAL/MOL
REMARK 922        TOTAL FREE ENERGY PREDICTED BY IDOCK:   -8.36 KCAL/MOL
REMARK 923 INTER-LIGAND FREE ENERGY PREDICTED BY IDOCK:   -7.51 KCAL/MOL
REMARK 924 INTRA-LIGAND FREE ENERGY PREDICTED BY IDOCK:   -0.85 KCAL/MOL
REMARK 927      BINDING AFFINITY PREDICTED BY RF-SCORE:    0.00 PKD
ROOT
HETATM    1  C   UNL     1     -12.078  12.947  63.940  1.00  0.00    -0.480 C  
HETATM    2  N   UNL     1     -12.216  12.514  65.334  1.00  0.00    -0.578 NA 
HETATM    3  C   UNL     1     -11.037  11.752  65.741  1.00  0.00    -0.297 C  
ENDROOT
BRANCH   2   4
HETATM    4  C   UNL     1     -12.444  13.688  66.195  1.00  0.00    -0.395 C  
BRANCH   4   5
HETATM    5  C   UNL     1     -11.580  13.752  67.470  1.00  0.00    -0.354 C  
BRANCH   5   6
HETATM    6  O   UNL     1     -12.030  14.728  68.418  1.00  0.00    -0.303 OA 
BRANCH   6   7
HETATM    7  C   UNL     1     -11.167  14.945  69.547  1.00  0.00    -0.277 C  
BRANCH   7   8
HETATM    8  C   UNL     1     -10.135  16.027  69.270  1.00  0.00    -0.249 A  
HETATM    9  C   UNL     1      -8.766  15.733  69.391  1.00  0.00    -0.230 A  
HETATM   10  C   UNL     1      -7.800  16.679  69.049  1.00  0.00    -0.215 A  
HETATM   11  C   UNL     1     -10.511  17.299  68.814  1.00  0.00    -0.340 A  
HETATM   12  C   UNL     1      -8.188  17.936  68.592  1.00  0.00    -0.281 A  
HETATM   13  C   UNL     1      -9.542  18.248  68.478  1.00  0.00    -0.358 A  
ENDBRANCH   7   8
BRANCH   7  14
HETATM   14  C   UNL     1     -12.008  15.191  70.793  1.00  0.00    -0.376 A  
HETATM   15  C   UNL     1     -14.211  15.406  71.812  1.00  0.00    -0.632 A  
HETATM   16  C   UNL     1     -12.235  15.813  73.134  1.00  0.00    -0.605 A  
HETATM   17  C   UNL     1     -13.411  15.117  70.706  1.00  0.00    -0.389 A  
HETATM   18  C   UNL     1     -11.432  15.530  72.027  1.00  0.00    -0.515 A  
HETATM   19  C   UNL     1     -13.623  15.760  73.024  1.00  0.00    -0.638 A  
ENDBRANCH   7  14
ENDBRANCH   6   7
ENDBRANCH   5   6
ENDBRANCH   4   5
ENDBRANCH   2   4
TORSDOF 6
ENDMDL
MODEL       13
REMARK 921   NORMALIZED FREE ENERGY PREDICTED BY IDOCK:   -5.49 KCAL/MOL
REMARK 922        TOTAL FREE ENERGY PREDICTED BY IDOCK:   -8.32 KCAL/MOL
REMARK 923 INTER-LIGAND FREE ENERGY PREDICTED BY IDOCK:   -7.50 KCAL/MOL
REMARK 924 INTRA-LIGAND FREE ENERGY PREDICTED BY IDOCK:   -0.82 KCAL/MOL
REMARK 927      BINDING AFFINITY PREDICTED BY RF-SCORE:    0.00 PKD
ROOT
HETATM    1  C   UNL     1     -12.698  13.906  65.499  1.00  0.00    -0.499 C  
HETATM    2  N   UNL     1     -12.230  12.543  65.770  1.00  0.00    -0.626 NA 
HETATM    3  C   UNL     1     -11.729  11.932  64.540  1.00  0.00    -0.248 C  
ENDROOT
BRANCH   2   4
HETATM    4  C   UNL     1     -11.208  12.574  66.831  1.00  0.00    -0.303 C  
BRANCH   4   5
HETATM    5  C   UNL     1     -11.747  12.485  68.272  1.00  0.00    -0.340 C  
BRANCH   5   6
HETATM    6  O   UNL     1     -12.210  13.738  68.789  1.00  0.00    -0.350 OA 
BRANCH   6   7
HETATM    7  C   UNL     1     -11.329  14.394  69.717  1.00  0.00    -0.237 C  
BRANCH   7   8
HETATM    8  C   UNL     1     -10.477  15.453  69.036  1.00  0.00    -0.249 A  
HETATM    9  C   UNL     1     -11.074  16.362  68.146  1.00  0.00    -0.320 A  
HETATM   10  C   UNL     1     -10.332  17.401  67.583  1.00  0.00    -0.355 A  
HETATM   11  C   UNL     1      -9.115  15.603  69.336  1.00  0.00    -0.278 A  
HETATM   12  C   UNL     1      -8.982  17.541  67.895  1.00  0.00    -0.251 A  
HETATM   13  C   UNL     1      -8.372  16.641  68.767  1.00  0.00    -0.252 A  
ENDBRANCH   7   8
BRANCH   7  14
HETATM   14  C   UNL     1     -12.132  14.910  70.905  1.00  0.00    -0.377 A  
HETATM   15  C   UNL     1     -12.166  16.015  73.076  1.00  0.00    -0.637 A  
HETATM   16  C   UNL     1     -14.209  15.121  72.155  1.00  0.00    -0.656 A  
HETATM   17  C   UNL     1     -11.471  15.593  71.943  1.00  0.00    -0.501 A  
HETATM   18  C   UNL     1     -13.513  14.692  71.022  1.00  0.00    -0.375 A  
HETATM   19  C   UNL     1     -13.534  15.774  73.184  1.00  0.00    -0.652 A  
ENDBRANCH   7  14
ENDBRANCH   6   7
ENDBRANCH   5   6
ENDBRANCH   4   5
ENDBRANCH   2   4
TORSDOF 6
ENDMDL
MODEL       14
REMARK 921   NORMALIZED FREE ENERGY PREDICTED BY IDOCK:   -5.47 KCAL/MOL
REMARK 922        TOTAL FREE ENERGY PREDICTED BY IDOCK:   -8.29 KCAL/MOL
REMARK 923 INTER-LIGAND FREE ENERGY PREDICTED BY IDOCK:   -7.51 KCAL/MOL
REMARK 924 INTRA-LIGAND FREE ENERGY PREDICTED BY IDOCK:   -0.79 KCAL/MOL
REMARK 927      BINDING AFFINITY PREDICTED BY RF-SCORE:    0.00 PKD
ROOT
HETATM    1  C   UNL     1     -10.540  12.613  63.956  1.00  0.00    -0.427 C  
HETATM    2  N   UNL     1     -10.826  13.773  64.807  1.00  0.00    -0.380 NA 
HETATM    3  C   UNL     1     -12.056  14.427  64.365  1.00  0.00    -0.470 C  
ENDROOT
BRANCH   2   4
HETATM    4  C   UNL     1     -10.898  13.346  66.215  1.00  0.00    -0.289 C  
BRANCH   4   5
HETATM    5  C   UNL     1     -11.934  14.088  67.081  1.00  0.00    -0.430 C  
BRANCH   5   6
HETATM    6  O   UNL     1     -11.666  14.014  68.486  1.00  0.00    -0.310 OA 
BRANCH   6   7
HETATM    7  C   UNL     1     -11.705  15.265  69.195  1.00  0.00    -0.335 C  
BRANCH   7   8
HETATM    8  C   UNL     1     -12.110  15.078  70.649  1.00  0.00    -0.375 A  
HETATM    9  C   UNL     1     -11.738  16.038  71.606  1.00  0.00    -0.583 A  
HETATM   10  C   UNL     1     -12.178  15.939  72.926  1.00  0.00    -0.605 A  
HETATM   11  C   UNL     1     -12.922  14.007  71.053  1.00  0.00    -0.378 A  
HETATM   12  C   UNL     1     -12.989  14.873  73.310  1.00  0.00    -0.635 A  
HETATM   13  C   UNL     1     -13.358  13.906  72.377  1.00  0.00    -0.629 A  
ENDBRANCH   7   8
BRANCH   7  14
HETATM   14  C   UNL     1     -10.384  16.000  69.006  1.00  0.00    -0.242 A  
HETATM   15  C   UNL     1      -9.191  17.974  68.222  1.00  0.00    -0.298 A  
HETATM   16  C   UNL     1      -7.953  16.082  69.063  1.00  0.00    -0.224 A  
HETATM   17  C   UNL     1     -10.388  17.302  68.473  1.00  0.00    -0.371 A  
HETATM   18  C   UNL     1      -9.150  15.406  69.310  1.00  0.00    -0.260 A  
HETATM   19  C   UNL     1      -7.974  17.362  68.512  1.00  0.00    -0.266 A  
ENDBRANCH   7  14
ENDBRANCH   6   7
ENDBRANCH   5   6
ENDBRANCH   4   5
ENDBRANCH   2   4
TORSDOF 6
ENDMDL
MODEL       15
REMARK 921   NORMALIZED FREE ENERGY PREDICTED BY IDOCK:   -5.47 KCAL/MOL
REMARK 922        TOTAL FREE ENERGY PREDICTED BY IDOCK:   -8.29 KCAL/MOL
REMARK 923 INTER-LIGAND FREE ENERGY PREDICTED BY IDOCK:   -8.04 KCAL/MOL
REMARK 924 INTRA-LIGAND FREE ENERGY PREDICTED BY IDOCK:   -0.25 KCAL/MOL
REMARK 927      BINDING AFFINITY PREDICTED BY RF-SCORE:    0.00 PKD
ROOT
HETATM    1  C   UNL     1     -12.785  13.016  64.991  1.00  0.00    -0.410 C  
HETATM    2  N   UNL     1     -11.429  12.752  65.484  1.00  0.00    -0.322 NA 
HETATM    3  C   UNL     1     -10.486  13.695  64.885  1.00  0.00    -0.409 C  
ENDROOT
BRANCH   2   4
HETATM    4  C   UNL     1     -11.419  12.814  66.956  1.00  0.00    -0.341 C  
BRANCH   4   5
HETATM    5  C   UNL     1     -11.447  11.453  67.678  1.00  0.00    -0.273 C  
BRANCH   5   6
HETATM    6  O   UNL     1     -12.406  11.387  68.740  1.00  0.00    -0.480 OA 
BRANCH   6   7
HETATM    7  C   UNL     1     -11.894  11.645  70.059  1.00  0.00    -0.355 C  
BRANCH   7   8
HETATM    8  C   UNL     1     -12.520  12.887  70.675  1.00  0.00    -0.333 A  
HETATM    9  C   UNL     1     -13.269  12.777  71.859  1.00  0.00    -0.511 A  
HETATM   10  C   UNL     1     -13.771  13.913  72.494  1.00  0.00    -0.665 A  
HETATM   11  C   UNL     1     -12.301  14.163  70.135  1.00  0.00    -0.413 A  
HETATM   12  C   UNL     1     -13.539  15.174  71.950  1.00  0.00    -0.545 A  
HETATM   13  C   UNL     1     -12.809  15.300  70.770  1.00  0.00    -0.494 A  
ENDBRANCH   7   8
BRANCH   7  14
HETATM   14  C   UNL     1     -12.029  10.391  70.913  1.00  0.00    -0.478 A  
HETATM   15  C   UNL     1     -10.964   8.514  72.044  1.00  0.00    -0.410 A  
HETATM   16  C   UNL     1     -13.370   8.680  72.006  1.00  0.00    -0.428 A  
HETATM   17  C   UNL     1     -10.871   9.704  71.322  1.00  0.00    -0.366 A  
HETATM   18  C   UNL     1     -13.280   9.868  71.278  1.00  0.00    -0.465 A  
HETATM   19  C   UNL     1     -12.213   8.000  72.381  1.00  0.00    -0.337 A  
ENDBRANCH   7  14
ENDBRANCH   6   7
ENDBRANCH   5   6
ENDBRANCH   4   5
ENDBRANCH   2   4
TORSDOF 6
ENDMDL
MODEL       16
REMARK 921   NORMALIZED FREE ENERGY PREDICTED BY IDOCK:   -5.46 KCAL/MOL
REMARK 922        TOTAL FREE ENERGY PREDICTED BY IDOCK:   -8.27 KCAL/MOL
REMARK 923 INTER-LIGAND FREE ENERGY PREDICTED BY IDOCK:   -7.45 KCAL/MOL
REMARK 924 INTRA-LIGAND FREE ENERGY PREDICTED BY IDOCK:   -0.82 KCAL/MOL
REMARK 927      BINDING AFFINITY PREDICTED BY RF-SCORE:    0.00 PKD
ROOT
HETATM    1  C   UNL     1     -12.584  15.181  73.712  1.00  0.00    -0.575 C  
HETATM    2  N   UNL     1     -12.696  14.529  72.403  1.00  0.00    -0.337 NA 
HETATM    3  C   UNL     1     -13.738  13.504  72.442  1.00  0.00    -0.602 C  
ENDROOT
BRANCH   2   4
HETATM    4  C   UNL     1     -12.953  15.543  71.367  1.00  0.00    -0.483 C  
BRANCH   4   5
HETATM    5  C   UNL     1     -11.729  15.957  70.526  1.00  0.00    -0.373 C  
BRANCH   5   6
HETATM    6  O   UNL     1     -11.935  15.832  69.113  1.00  0.00    -0.387 OA 
BRANCH   6   7
HETATM    7  C   UNL     1     -10.744  15.697  68.319  1.00  0.00    -0.283 C  
BRANCH   7   8
HETATM    8  C   UNL     1     -11.015  14.965  67.014  1.00  0.00    -0.327 A  
HETATM    9  C   UNL     1     -12.250  14.326  66.816  1.00  0.00    -0.384 A  
HETATM   10  C   UNL     1     -12.558  13.731  65.592  1.00  0.00    -0.551 A  
HETATM   11  C   UNL     1     -10.089  14.979  65.960  1.00  0.00    -0.322 A  
HETATM   12  C   UNL     1     -11.631  13.758  64.552  1.00  0.00    -0.413 A  
HETATM   13  C   UNL     1     -10.396  14.378  64.736  1.00  0.00    -0.352 A  
ENDBRANCH   7   8
BRANCH   7  14
HETATM   14  C   UNL     1     -10.091  17.062  68.144  1.00  0.00    -0.308 A  
HETATM   15  C   UNL     1     -10.249  19.364  67.358  1.00  0.00    -0.530 A  
HETATM   16  C   UNL     1      -8.160  18.539  68.240  1.00  0.00    -0.324 A  
HETATM   17  C   UNL     1     -10.839  18.122  67.597  1.00  0.00    -0.260 A  
HETATM   18  C   UNL     1      -8.747  17.294  68.474  1.00  0.00    -0.273 A  
HETATM   19  C   UNL     1      -8.909  19.570  67.675  1.00  0.00    -0.367 A  
ENDBRANCH   7  14
ENDBRANCH   6   7
ENDBRANCH   5   6
ENDBRANCH   4   5
ENDBRANCH   2   4
TORSDOF 6
ENDMDL
MODEL       17
REMARK 921   NORMALIZED FREE ENERGY PREDICTED BY IDOCK:   -5.37 KCAL/MOL
REMARK 922        TOTAL FREE ENERGY PREDICTED BY IDOCK:   -8.15 KCAL/MOL
REMARK 923 INTER-LIGAND FREE ENERGY PREDICTED BY IDOCK:   -7.56 KCAL/MOL
REMARK 924 INTRA-LIGAND FREE ENERGY PREDICTED BY IDOCK:   -0.58 KCAL/MOL
REMARK 927      BINDING AFFINITY PREDICTED BY RF-SCORE:    0.00 PKD
ROOT
HETATM    1  C   UNL     1     -11.161   9.139  71.655  1.00  0.00    -0.375 C  
HETATM    2  N   UNL     1     -12.529   9.531  71.300  1.00  0.00    -0.330 NA 
HETATM    3  C   UNL     1     -13.450   9.157  72.373  1.00  0.00    -0.476 C  
ENDROOT
BRANCH   2   4
HETATM    4  C   UNL     1     -12.570  10.974  71.010  1.00  0.00    -0.411 C  
BRANCH   4   5
HETATM    5  C   UNL     1     -11.886  11.407  69.698  1.00  0.00    -0.362 C  
BRANCH   5   6
HETATM    6  O   UNL     1     -11.312  12.718  69.756  1.00  0.00    -0.166 OA 
BRANCH   6   7
HETATM    7  C   UNL     1     -12.212  13.806  69.481  1.00  0.00    -0.293 C  
BRANCH   7   8
HETATM    8  C   UNL     1     -12.547  14.594  70.737  1.00  0.00    -0.415 A  
HETATM    9  C   UNL     1     -13.890  14.820  71.081  1.00  0.00    -0.388 A  
HETATM   10  C   UNL     1     -14.224  15.456  72.277  1.00  0.00    -0.639 A  
HETATM   11  C   UNL     1     -11.545  15.037  71.613  1.00  0.00    -0.416 A  
HETATM   12  C   UNL     1     -13.218  15.885  73.141  1.00  0.00    -0.692 A  
HETATM   13  C   UNL     1     -11.880  15.680  72.809  1.00  0.00    -0.580 A  
ENDBRANCH   7   8
BRANCH   7  14
HETATM   14  C   UNL     1     -11.654  14.652  68.344  1.00  0.00    -0.351 A  
HETATM   15  C   UNL     1     -10.928  14.809  66.023  1.00  0.00    -0.328 A  
HETATM   16  C   UNL     1     -10.679  16.711  67.487  1.00  0.00    -0.278 A  
HETATM   17  C   UNL     1     -11.501  14.082  67.067  1.00  0.00    -0.370 A  
HETATM   18  C   UNL     1     -11.247  15.982  68.534  1.00  0.00    -0.374 A  
HETATM   19  C   UNL     1     -10.512  16.122  66.235  1.00  0.00    -0.321 A  
ENDBRANCH   7  14
ENDBRANCH   6   7
ENDBRANCH   5   6
ENDBRANCH   4   5
ENDBRANCH   2   4
TORSDOF 6
ENDMDL
MODEL       18
REMARK 921   NORMALIZED FREE ENERGY PREDICTED BY IDOCK:   -5.36 KCAL/MOL
REMARK 922        TOTAL FREE ENERGY PREDICTED BY IDOCK:   -8.14 KCAL/MOL
REMARK 923 INTER-LIGAND FREE ENERGY PREDICTED BY IDOCK:   -7.46 KCAL/MOL
REMARK 924 INTRA-LIGAND FREE ENERGY PREDICTED BY IDOCK:   -0.67 KCAL/MOL
REMARK 927      BINDING AFFINITY PREDICTED BY RF-SCORE:    0.00 PKD
ROOT
HETATM    1  C   UNL     1     -13.521  13.246  72.334  1.00  0.00    -0.569 C  
HETATM    2  N   UNL     1     -13.348  14.523  71.634  1.00  0.00    -0.342 NA 
HETATM    3  C   UNL     1     -13.996  15.598  72.383  1.00  0.00    -0.515 C  
ENDROOT
BRANCH   2   4
HETATM    4  C   UNL     1     -11.913  14.780  71.423  1.00  0.00    -0.345 C  
BRANCH   4   5
HETATM    5  C   UNL     1     -11.575  16.090  70.686  1.00  0.00    -0.383 C  
BRANCH   5   6
HETATM    6  O   UNL     1     -10.700  15.908  69.566  1.00  0.00    -0.240 OA 
BRANCH   6   7
HETATM    7  C   UNL     1     -11.115  16.538  68.341  1.00  0.00    -0.333 C  
BRANCH   7   8
HETATM    8  C   UNL     1     -10.271  17.762  68.020  1.00  0.00    -0.377 A  
HETATM    9  C   UNL     1     -10.863  18.874  67.398  1.00  0.00    -0.449 A  
HETATM   10  C   UNL     1     -10.134  20.043  67.181  1.00  0.00    -0.587 A  
HETATM   11  C   UNL     1      -8.924  17.845  68.405  1.00  0.00    -0.285 A  
HETATM   12  C   UNL     1      -8.799  20.114  67.575  1.00  0.00    -0.431 A  
HETATM   13  C   UNL     1      -8.193  19.016  68.182  1.00  0.00    -0.349 A  
ENDBRANCH   7   8
BRANCH   7  14
HETATM   14  C   UNL     1     -11.160  15.502  67.225  1.00  0.00    -0.271 A  
HETATM   15  C   UNL     1     -10.594  14.873  64.940  1.00  0.00    -0.417 A  
HETATM   16  C   UNL     1     -11.939  13.395  66.291  1.00  0.00    -0.460 A  
HETATM   17  C   UNL     1     -10.512  15.771  66.005  1.00  0.00    -0.350 A  
HETATM   18  C   UNL     1     -11.862  14.295  67.357  1.00  0.00    -0.441 A  
HETATM   19  C   UNL     1     -11.312  13.688  65.081  1.00  0.00    -0.319 A  
ENDBRANCH   7  14
ENDBRANCH   6   7
ENDBRANCH   5   6
ENDBRANCH   4   5
ENDBRANCH   2   4
TORSDOF 6
ENDMDL
MODEL       19
REMARK 921   NORMALIZED FREE ENERGY PREDICTED BY IDOCK:   -5.34 KCAL/MOL
REMARK 922        TOTAL FREE ENERGY PREDICTED BY IDOCK:   -8.12 KCAL/MOL
REMARK 923 INTER-LIGAND FREE ENERGY PREDICTED BY IDOCK:   -7.22 KCAL/MOL
REMARK 924 INTRA-LIGAND FREE ENERGY PREDICTED BY IDOCK:   -0.90 KCAL/MOL
REMARK 927      BINDING AFFINITY PREDICTED BY RF-SCORE:    0.00 PKD
ROOT
HETATM    1  C   UNL     1     -12.736  15.657  73.866  1.00  0.00    -0.600 C  
HETATM    2  N   UNL     1     -12.720  15.215  72.468  1.00  0.00    -0.331 NA 
HETATM    3  C   UNL     1     -14.088  15.045  71.981  1.00  0.00    -0.535 C  
ENDROOT
BRANCH   2   4
HETATM    4  C   UNL     1     -11.955  16.176  71.655  1.00  0.00    -0.462 C  
BRANCH   4   5
HETATM    5  C   UNL     1     -11.770  15.791  70.174  1.00  0.00    -0.356 C  
BRANCH   5   6
HETATM    6  O   UNL     1     -11.150  14.513  69.986  1.00  0.00    -0.220 OA 
BRANCH   6   7
HETATM    7  C   UNL     1     -11.871  13.586  69.156  1.00  0.00    -0.340 C  
BRANCH   7   8
HETATM    8  C   UNL     1     -11.466  13.703  67.695  1.00  0.00    -0.357 A  
HETATM    9  C   UNL     1     -12.380  13.351  66.688  1.00  0.00    -0.324 A  
HETATM   10  C   UNL     1     -12.067  13.540  65.341  1.00  0.00    -0.447 A  
HETATM   11  C   UNL     1     -10.223  14.234  67.319  1.00  0.00    -0.252 A  
HETATM   12  C   UNL     1     -10.831  14.075  64.983  1.00  0.00    -0.401 A  
HETATM   13  C   UNL     1      -9.908  14.418  65.969  1.00  0.00    -0.342 A  
ENDBRANCH   7   8
BRANCH   7  14
HETATM   14  C   UNL     1     -11.740  12.181  69.729  1.00  0.00    -0.381 A  
HETATM   15  C   UNL     1     -12.413  10.538  71.399  1.00  0.00    -0.516 A  
HETATM   16  C   UNL     1     -10.658  10.004  69.831  1.00  0.00    -0.324 A  
HETATM   17  C   UNL     1     -12.557  11.794  70.807  1.00  0.00    -0.344 A  
HETATM   18  C   UNL     1     -10.798  11.262  69.242  1.00  0.00    -0.259 A  
HETATM   19  C   UNL     1     -11.459   9.646  70.914  1.00  0.00    -0.427 A  
ENDBRANCH   7  14
ENDBRANCH   6   7
ENDBRANCH   5   6
ENDBRANCH   4   5
ENDBRANCH   2   4
TORSDOF 6
ENDMDL
MODEL       20
REMARK 921   NORMALIZED FREE ENERGY PREDICTED BY IDOCK:   -5.29 KCAL/MOL
REMARK 922        TOTAL FREE ENERGY PREDICTED BY IDOCK:   -8.04 KCAL/MOL
REMARK 923 INTER-LIGAND FREE ENERGY PREDICTED BY IDOCK:   -7.26 KCAL/MOL
REMARK 924 INTRA-LIGAND FREE ENERGY PREDICTED BY IDOCK:   -0.79 KCAL/MOL
REMARK 927      BINDING AFFINITY PREDICTED BY RF-SCORE:    0.00 PKD
ROOT
HETATM    1  C   UNL     1     -10.044  19.987  66.217  1.00  0.00    -0.486 C  
HETATM    2  N   UNL     1      -9.525  18.620  66.096  1.00  0.00    -0.484 NA 
HETATM    3  C   UNL     1      -8.093  18.601  66.386  1.00  0.00    -0.281 C  
ENDROOT
BRANCH   2   4
HETATM    4  C   UNL     1     -10.285  17.723  66.984  1.00  0.00    -0.346 C  
BRANCH   4   5
HETATM    5  C   UNL     1      -9.933  16.227  66.873  1.00  0.00    -0.260 C  
BRANCH   5   6
HETATM    6  O   UNL     1     -11.075  15.363  66.934  1.00  0.00    -0.316 OA 
BRANCH   6   7
HETATM    7  C   UNL     1     -10.791  13.966  67.124  1.00  0.00    -0.284 C  
BRANCH   7   8
HETATM    8  C   UNL     1     -11.424  13.429  68.398  1.00  0.00    -0.351 A  
HETATM    9  C   UNL     1     -11.334  12.058  68.697  1.00  0.00    -0.329 A  
HETATM   10  C   UNL     1     -11.822  11.558  69.904  1.00  0.00    -0.430 A  
HETATM   11  C   UNL     1     -12.030  14.282  69.332  1.00  0.00    -0.381 A  
HETATM   12  C   UNL     1     -12.415  12.418  70.825  1.00  0.00    -0.356 A  
HETATM   13  C   UNL     1     -12.524  13.778  70.539  1.00  0.00    -0.409 A  
ENDBRANCH   7   8
BRANCH   7  14
HETATM   14  C   UNL     1     -11.169  13.194  65.866  1.00  0.00    -0.311 A  
HETATM   15  C   UNL     1     -10.484  11.783  64.001  1.00  0.00    -0.415 A  
HETATM   16  C   UNL     1     -12.761  12.570  64.136  1.00  0.00    -0.417 A  
HETATM   17  C   UNL     1     -10.187  12.443  65.194  1.00  0.00    -0.305 A  
HETATM   18  C   UNL     1     -12.463  13.236  65.326  1.00  0.00    -0.543 A  
HETATM   19  C   UNL     1     -11.770  11.851  63.470  1.00  0.00    -0.550 A  
ENDBRANCH   7  14
ENDBRANCH   6   7
ENDBRANCH   5   6
ENDBRANCH   4   5
ENDBRANCH   2   4
TORSDOF 6
ENDMDL
MODEL       21
REMARK 921   NORMALIZED FREE ENERGY PREDICTED BY IDOCK:   -5.29 KCAL/MOL
REMARK 922        TOTAL FREE ENERGY PREDICTED BY IDOCK:   -8.04 KCAL/MOL
REMARK 923 INTER-LIGAND FREE ENERGY PREDICTED BY IDOCK:   -7.33 KCAL/MOL
REMARK 924 INTRA-LIGAND FREE ENERGY PREDICTED BY IDOCK:   -0.71 KCAL/MOL
REMARK 927      BINDING AFFINITY PREDICTED BY RF-SCORE:    0.00 PKD
ROOT
HETATM    1  C   UNL     1     -10.967   9.409  71.337  1.00  0.00    -0.373 C  
HETATM    2  N   UNL     1     -12.353   9.731  70.983  1.00  0.00    -0.322 NA 
HETATM    3  C   UNL     1     -13.263   9.233  72.013  1.00  0.00    -0.447 C  
ENDROOT
BRANCH   2   4
HETATM    4  C   UNL     1     -12.485  11.184  70.780  1.00  0.00    -0.384 C  
BRANCH   4   5
HETATM    5  C   UNL     1     -11.703  11.761  69.583  1.00  0.00    -0.344 C  
BRANCH   5   6
HETATM    6  O   UNL     1     -12.146  13.063  69.183  1.00  0.00    -0.276 OA 
BRANCH   6   7
HETATM    7  C   UNL     1     -11.387  14.168  69.705  1.00  0.00    -0.236 C  
BRANCH   7   8
HETATM    8  C   UNL     1     -10.999  15.153  68.614  1.00  0.00    -0.256 A  
HETATM    9  C   UNL     1     -10.953  14.729  67.275  1.00  0.00    -0.318 A  
HETATM   10  C   UNL     1     -10.695  15.637  66.247  1.00  0.00    -0.295 A  
HETATM   11  C   UNL     1     -10.764  16.507  68.899  1.00  0.00    -0.337 A  
HETATM   12  C   UNL     1     -10.469  16.979  66.545  1.00  0.00    -0.250 A  
HETATM   13  C   UNL     1     -10.499  17.414  67.868  1.00  0.00    -0.383 A  
ENDBRANCH   7   8
BRANCH   7  14
HETATM   14  C   UNL     1     -12.138  14.795  70.873  1.00  0.00    -0.387 A  
HETATM   15  C   UNL     1     -12.079  15.785  73.098  1.00  0.00    -0.603 A  
HETATM   16  C   UNL     1     -14.200  15.402  72.013  1.00  0.00    -0.650 A  
HETATM   17  C   UNL     1     -11.417  15.270  71.983  1.00  0.00    -0.500 A  
HETATM   18  C   UNL     1     -13.538  14.881  70.899  1.00  0.00    -0.313 A  
HETATM   19  C   UNL     1     -13.471  15.846  73.115  1.00  0.00    -0.650 A  
ENDBRANCH   7  14
ENDBRANCH   6   7
ENDBRANCH   5   6
ENDBRANCH   4   5
ENDBRANCH   2   4
TORSDOF 6
ENDMDL
MODEL       22
REMARK 921   NORMALIZED FREE ENERGY PREDICTED BY IDOCK:   -5.26 KCAL/MOL
REMARK 922        TOTAL FREE ENERGY PREDICTED BY IDOCK:   -8.00 KCAL/MOL
REMARK 923 INTER-LIGAND FREE ENERGY PREDICTED BY IDOCK:   -7.24 KCAL/MOL
REMARK 924 INTRA-LIGAND FREE ENERGY PREDICTED BY IDOCK:   -0.77 KCAL/MOL
REMARK 927      BINDING AFFINITY PREDICTED BY RF-SCORE:    0.00 PKD
ROOT
HETATM    1  C   UNL     1     -14.229  15.164  71.947  1.00  0.00    -0.579 C  
HETATM    2  N   UNL     1     -12.950  15.805  72.273  1.00  0.00    -0.442 NA 
HETATM    3  C   UNL     1     -12.674  15.673  73.702  1.00  0.00    -0.596 C  
ENDROOT
BRANCH   2   4
HETATM    4  C   UNL     1     -11.881  15.223  71.444  1.00  0.00    -0.372 C  
BRANCH   4   5
HETATM    5  C   UNL     1     -11.956  15.549  69.939  1.00  0.00    -0.362 C  
BRANCH   5   6
HETATM    6  O   UNL     1     -12.364  14.438  69.132  1.00  0.00    -0.256 OA 
BRANCH   6   7
HETATM    7  C   UNL     1     -11.303  13.715  68.484  1.00  0.00    -0.290 C  
BRANCH   7   8
HETATM    8  C   UNL     1     -11.140  12.316  69.056  1.00  0.00    -0.289 A  
HETATM    9  C   UNL     1     -10.003  11.557  68.731  1.00  0.00    -0.169 A  
HETATM   10  C   UNL     1      -9.784  10.311  69.319  1.00  0.00    -0.240 A  
HETATM   11  C   UNL     1     -12.062  11.786  69.972  1.00  0.00    -0.387 A  
HETATM   12  C   UNL     1     -10.705   9.801  70.232  1.00  0.00    -0.358 A  
HETATM   13  C   UNL     1     -11.845  10.535  70.555  1.00  0.00    -0.442 A  
ENDBRANCH   7   8
BRANCH   7  14
HETATM   14  C   UNL     1     -11.509  13.751  66.975  1.00  0.00    -0.368 A  
HETATM   15  C   UNL     1     -12.296  12.646  64.951  1.00  0.00    -0.563 A  
HETATM   16  C   UNL     1     -11.185  14.782  64.795  1.00  0.00    -0.392 A  
HETATM   17  C   UNL     1     -12.155  12.675  66.339  1.00  0.00    -0.330 A  
HETATM   18  C   UNL     1     -11.038  14.810  66.183  1.00  0.00    -0.339 A  
HETATM   19  C   UNL     1     -11.806  13.697  64.179  1.00  0.00    -0.463 A  
ENDBRANCH   7  14
ENDBRANCH   6   7
ENDBRANCH   5   6
ENDBRANCH   4   5
ENDBRANCH   2   4
TORSDOF 6
ENDMDL
MODEL       23
REMARK 921   NORMALIZED FREE ENERGY PREDICTED BY IDOCK:   -5.26 KCAL/MOL
REMARK 922        TOTAL FREE ENERGY PREDICTED BY IDOCK:   -8.00 KCAL/MOL
REMARK 923 INTER-LIGAND FREE ENERGY PREDICTED BY IDOCK:   -7.64 KCAL/MOL
REMARK 924 INTRA-LIGAND FREE ENERGY PREDICTED BY IDOCK:   -0.36 KCAL/MOL
REMARK 927      BINDING AFFINITY PREDICTED BY RF-SCORE:    0.00 PKD
ROOT
HETATM    1  C   UNL     1     -10.320  12.914  65.470  1.00  0.00    -0.291 C  
HETATM    2  N   UNL     1     -11.567  13.559  65.045  1.00  0.00    -0.318 NA 
HETATM    3  C   UNL     1     -12.351  12.640  64.223  1.00  0.00    -0.435 C  
ENDROOT
BRANCH   2   4
HETATM    4  C   UNL     1     -12.312  14.021  66.229  1.00  0.00    -0.448 C  
BRANCH   4   5
HETATM    5  C   UNL     1     -11.582  13.859  67.577  1.00  0.00    -0.360 C  
BRANCH   5   6
HETATM    6  O   UNL     1     -12.466  13.766  68.701  1.00  0.00    -0.132 OA 
BRANCH   6   7
HETATM    7  C   UNL     1     -11.839  13.506  69.968  1.00  0.00    -0.301 C  
BRANCH   7   8
HETATM    8  C   UNL     1     -12.365  14.426  71.059  1.00  0.00    -0.427 A  
HETATM    9  C   UNL     1     -13.750  14.550  71.259  1.00  0.00    -0.407 A  
HETATM   10  C   UNL     1     -14.253  15.312  72.314  1.00  0.00    -0.642 A  
HETATM   11  C   UNL     1     -11.497  15.096  71.933  1.00  0.00    -0.457 A  
HETATM   12  C   UNL     1     -13.379  15.967  73.178  1.00  0.00    -0.681 A  
HETATM   13  C   UNL     1     -12.002  15.864  72.987  1.00  0.00    -0.596 A  
ENDBRANCH   7   8
BRANCH   7  14
HETATM   14  C   UNL     1     -11.951  12.022  70.297  1.00  0.00    -0.398 A  
HETATM   15  C   UNL     1     -11.235   9.732  69.872  1.00  0.00    -0.271 A  
HETATM   16  C   UNL     1     -13.021  10.158  71.436  1.00  0.00    -0.528 A  
HETATM   17  C   UNL     1     -11.109  11.103  69.645  1.00  0.00    -0.297 A  
HETATM   18  C   UNL     1     -12.900  11.530  71.206  1.00  0.00    -0.463 A  
HETATM   19  C   UNL     1     -12.195   9.260  70.763  1.00  0.00    -0.192 A  
ENDBRANCH   7  14
ENDBRANCH   6   7
ENDBRANCH   5   6
ENDBRANCH   4   5
ENDBRANCH   2   4
TORSDOF 6
ENDMDL
MODEL       24
REMARK 921   NORMALIZED FREE ENERGY PREDICTED BY IDOCK:   -5.25 KCAL/MOL
REMARK 922        TOTAL FREE ENERGY PREDICTED BY IDOCK:   -7.99 KCAL/MOL
REMARK 923 INTER-LIGAND FREE ENERGY PREDICTED BY IDOCK:   -7.12 KCAL/MOL
REMARK 924 INTRA-LIGAND FREE ENERGY PREDICTED BY IDOCK:   -0.87 KCAL/MOL
REMARK 927      BINDING AFFINITY PREDICTED BY RF-SCORE:    0.00 PKD
ROOT
HETATM    1  C   UNL     1     -11.093   7.948  72.692  1.00  0.00    -0.385 C  
HETATM    2  N   UNL     1     -11.823   8.566  71.580  1.00  0.00    -0.292 NA 
HETATM    3  C   UNL     1     -13.148   8.993  72.028  1.00  0.00    -0.414 C  
ENDROOT
BRANCH   2   4
HETATM    4  C   UNL     1     -11.035   9.683  71.032  1.00  0.00    -0.361 C  
BRANCH   4   5
HETATM    5  C   UNL     1     -11.326  10.042  69.562  1.00  0.00    -0.169 C  
BRANCH   5   6
HETATM    6  O   UNL     1     -12.174  11.187  69.407  1.00  0.00    -0.333 OA 
BRANCH   6   7
HETATM    7  C   UNL     1     -11.529  12.464  69.553  1.00  0.00    -0.240 C  
BRANCH   7   8
HETATM    8  C   UNL     1     -11.221  13.098  68.206  1.00  0.00    -0.307 A  
HETATM    9  C   UNL     1      -9.961  13.677  67.979  1.00  0.00    -0.247 A  
HETATM   10  C   UNL     1      -9.621  14.178  66.723  1.00  0.00    -0.290 A  
HETATM   11  C   UNL     1     -12.138  13.050  67.145  1.00  0.00    -0.325 A  
HETATM   12  C   UNL     1     -10.539  14.117  65.677  1.00  0.00    -0.317 A  
HETATM   13  C   UNL     1     -11.798  13.558  65.888  1.00  0.00    -0.405 A  
ENDBRANCH   7   8
BRANCH   7  14
HETATM   14  C   UNL     1     -12.351  13.346  70.484  1.00  0.00    -0.401 A  
HETATM   15  C   UNL     1     -13.907  13.528  72.351  1.00  0.00    -0.687 A  
HETATM   16  C   UNL     1     -13.246  15.511  71.144  1.00  0.00    -0.576 A  
HETATM   17  C   UNL     1     -13.089  12.755  71.526  1.00  0.00    -0.380 A  
HETATM   18  C   UNL     1     -12.432  14.737  70.314  1.00  0.00    -0.393 A  
HETATM   19  C   UNL     1     -13.989  14.905  72.156  1.00  0.00    -0.598 A  
ENDBRANCH   7  14
ENDBRANCH   6   7
ENDBRANCH   5   6
ENDBRANCH   4   5
ENDBRANCH   2   4
TORSDOF 6
ENDMDL
MODEL       25
REMARK 921   NORMALIZED FREE ENERGY PREDICTED BY IDOCK:   -5.22 KCAL/MOL
REMARK 922        TOTAL FREE ENERGY PREDICTED BY IDOCK:   -7.95 KCAL/MOL
REMARK 923 INTER-LIGAND FREE ENERGY PREDICTED BY IDOCK:   -7.18 KCAL/MOL
REMARK 924 INTRA-LIGAND FREE ENERGY PREDICTED BY IDOCK:   -0.77 KCAL/MOL
REMARK 927      BINDING AFFINITY PREDICTED BY RF-SCORE:    0.00 PKD
ROOT
HETATM    1  C   UNL     1     -13.770   9.086  72.162  1.00  0.00    -0.480 C  
HETATM    2  N   UNL     1     -12.507   9.783  71.896  1.00  0.00    -0.382 NA 
HETATM    3  C   UNL     1     -11.477   8.822  71.507  1.00  0.00    -0.305 C  
ENDROOT
BRANCH   2   4
HETATM    4  C   UNL     1     -12.721  10.816  70.867  1.00  0.00    -0.384 C  
BRANCH   4   5
HETATM    5  C   UNL     1     -11.843  10.687  69.606  1.00  0.00    -0.286 C  
BRANCH   5   6
HETATM    6  O   UNL     1     -12.269  11.524  68.524  1.00  0.00    -0.524 OA 
BRANCH   6   7
HETATM    7  C   UNL     1     -11.230  12.267  67.864  1.00  0.00    -0.274 C  
BRANCH   7   8
HETATM    8  C   UNL     1     -11.423  12.294  66.356  1.00  0.00    -0.434 A  
HETATM    9  C   UNL     1     -12.284  13.245  65.781  1.00  0.00    -0.510 A  
HETATM   10  C   UNL     1     -12.404  13.352  64.395  1.00  0.00    -0.399 A  
HETATM   11  C   UNL     1     -10.698  11.444  65.508  1.00  0.00    -0.313 A  
HETATM   12  C   UNL     1     -11.673  12.505  63.565  1.00  0.00    -0.595 A  
HETATM   13  C   UNL     1     -10.824  11.549  64.120  1.00  0.00    -0.435 A  
ENDBRANCH   7   8
BRANCH   7  14
HETATM   14  C   UNL     1     -11.106  13.646  68.501  1.00  0.00    -0.301 A  
HETATM   15  C   UNL     1      -9.735  15.599  68.995  1.00  0.00    -0.241 A  
HETATM   16  C   UNL     1     -11.973  15.449  69.886  1.00  0.00    -0.384 A  
HETATM   17  C   UNL     1      -9.905  14.366  68.365  1.00  0.00    -0.234 A  
HETATM   18  C   UNL     1     -12.142  14.212  69.260  1.00  0.00    -0.364 A  
HETATM   19  C   UNL     1     -10.767  16.138  69.760  1.00  0.00    -0.336 A  
ENDBRANCH   7  14
ENDBRANCH   6   7
ENDBRANCH   5   6
ENDBRANCH   4   5
ENDBRANCH   2   4
TORSDOF 6
ENDMDL
MODEL       26
REMARK 921   NORMALIZED FREE ENERGY PREDICTED BY IDOCK:   -5.20 KCAL/MOL
REMARK 922        TOTAL FREE ENERGY PREDICTED BY IDOCK:   -7.92 KCAL/MOL
REMARK 923 INTER-LIGAND FREE ENERGY PREDICTED BY IDOCK:   -7.11 KCAL/MOL
REMARK 924 INTRA-LIGAND FREE ENERGY PREDICTED BY IDOCK:   -0.81 KCAL/MOL
REMARK 927      BINDING AFFINITY PREDICTED BY RF-SCORE:    0.00 PKD
ROOT
HETATM    1  C   UNL     1      -8.363  18.393  68.480  1.00  0.00    -0.323 C  
HETATM    2  N   UNL     1      -9.803  18.147  68.606  1.00  0.00    -0.365 NA 
HETATM    3  C   UNL     1     -10.525  18.848  67.546  1.00  0.00    -0.450 C  
ENDROOT
BRANCH   2   4
HETATM    4  C   UNL     1     -10.059  16.696  68.587  1.00  0.00    -0.270 C  
BRANCH   4   5
HETATM    5  C   UNL     1     -10.838  16.176  67.364  1.00  0.00    -0.265 C  
BRANCH   5   6
HETATM    6  O   UNL     1     -11.705  15.075  67.662  1.00  0.00    -0.342 OA 
BRANCH   6   7
HETATM    7  C   UNL     1     -11.078  13.782  67.710  1.00  0.00    -0.268 C  
BRANCH   7   8
HETATM    8  C   UNL     1     -11.618  12.932  68.849  1.00  0.00    -0.360 A  
HETATM    9  C   UNL     1     -11.463  11.536  68.812  1.00  0.00    -0.349 A  
HETATM   10  C   UNL     1     -11.864  10.745  69.890  1.00  0.00    -0.413 A  
HETATM   11  C   UNL     1     -12.198  13.514  69.986  1.00  0.00    -0.381 A  
HETATM   12  C   UNL     1     -12.432  11.338  71.015  1.00  0.00    -0.503 A  
HETATM   13  C   UNL     1     -12.603  12.720  71.063  1.00  0.00    -0.362 A  
ENDBRANCH   7   8
BRANCH   7  14
HETATM   14  C   UNL     1     -11.171  13.119  66.341  1.00  0.00    -0.328 A  
HETATM   15  C   UNL     1     -12.528  12.490  64.417  1.00  0.00    -0.530 A  
HETATM   16  C   UNL     1     -10.222  11.789  64.538  1.00  0.00    -0.327 A  
HETATM   17  C   UNL     1     -12.391  13.147  65.640  1.00  0.00    -0.519 A  
HETATM   18  C   UNL     1     -10.085  12.442  65.765  1.00  0.00    -0.273 A  
HETATM   19  C   UNL     1     -11.445  11.806  63.869  1.00  0.00    -0.481 A  
ENDBRANCH   7  14
ENDBRANCH   6   7
ENDBRANCH   5   6
ENDBRANCH   4   5
ENDBRANCH   2   4
TORSDOF 6
ENDMDL
MODEL       27
REMARK 921   NORMALIZED FREE ENERGY PREDICTED BY IDOCK:   -5.17 KCAL/MOL
REMARK 922        TOTAL FREE ENERGY PREDICTED BY IDOCK:   -7.88 KCAL/MOL
REMARK 923 INTER-LIGAND FREE ENERGY PREDICTED BY IDOCK:   -7.13 KCAL/MOL
REMARK 924 INTRA-LIGAND FREE ENERGY PREDICTED BY IDOCK:   -0.75 KCAL/MOL
REMARK 927      BINDING AFFINITY PREDICTED BY RF-SCORE:    0.00 PKD
ROOT
HETATM    1  C   UNL     1      -9.467  19.176  68.622  1.00  0.00    -0.405 C  
HETATM    2  N   UNL     1     -10.054  18.549  67.433  1.00  0.00    -0.335 NA 
HETATM    3  C   UNL     1      -9.066  18.494  66.357  1.00  0.00    -0.269 C  
ENDROOT
BRANCH   2   4
HETATM    4  C   UNL     1     -10.571  17.214  67.783  1.00  0.00    -0.360 C  
BRANCH   4   5
HETATM    5  C   UNL     1     -10.247  16.093  66.777  1.00  0.00    -0.281 C  
BRANCH   5   6
HETATM    6  O   UNL     1     -10.251  14.783  67.357  1.00  0.00    -0.235 OA 
BRANCH   6   7
HETATM    7  C   UNL     1     -11.455  14.020  67.166  1.00  0.00    -0.352 C  
BRANCH   7   8
HETATM    8  C   UNL     1     -11.396  13.177  65.902  1.00  0.00    -0.338 A  
HETATM    9  C   UNL     1     -12.575  12.910  65.186  1.00  0.00    -0.536 A  
HETATM   10  C   UNL     1     -12.534  12.222  63.973  1.00  0.00    -0.556 A  
HETATM   11  C   UNL     1     -10.175  12.724  65.379  1.00  0.00    -0.299 A  
HETATM   12  C   UNL     1     -11.314  11.784  63.463  1.00  0.00    -0.496 A  
HETATM   13  C   UNL     1     -10.136  12.030  64.166  1.00  0.00    -0.340 A  
ENDBRANCH   7   8
BRANCH   7  14
HETATM   14  C   UNL     1     -11.760  13.226  68.430  1.00  0.00    -0.389 A  
HETATM   15  C   UNL     1     -12.427  13.213  70.774  1.00  0.00    -0.389 A  
HETATM   16  C   UNL     1     -11.802  11.147  69.694  1.00  0.00    -0.419 A  
HETATM   17  C   UNL     1     -12.206  13.902  69.581  1.00  0.00    -0.374 A  
HETATM   18  C   UNL     1     -11.575  11.837  68.501  1.00  0.00    -0.380 A  
HETATM   19  C   UNL     1     -12.219  11.837  70.832  1.00  0.00    -0.378 A  
ENDBRANCH   7  14
ENDBRANCH   6   7
ENDBRANCH   5   6
ENDBRANCH   4   5
ENDBRANCH   2   4
TORSDOF 6
ENDMDL
MODEL       28
REMARK 921   NORMALIZED FREE ENERGY PREDICTED BY IDOCK:   -5.13 KCAL/MOL
REMARK 922        TOTAL FREE ENERGY PREDICTED BY IDOCK:   -7.83 KCAL/MOL
REMARK 923 INTER-LIGAND FREE ENERGY PREDICTED BY IDOCK:   -6.92 KCAL/MOL
REMARK 924 INTRA-LIGAND FREE ENERGY PREDICTED BY IDOCK:   -0.91 KCAL/MOL
REMARK 927      BINDING AFFINITY PREDICTED BY RF-SCORE:    0.00 PKD
ROOT
HETATM    1  C   UNL     1     -12.025   9.360  71.228  1.00  0.00    -0.353 C  
HETATM    2  N   UNL     1     -12.565  10.537  70.539  1.00  0.00    -0.346 NA 
HETATM    3  C   UNL     1     -12.985  11.540  71.517  1.00  0.00    -0.380 C  
ENDROOT
BRANCH   2   4
HETATM    4  C   UNL     1     -11.559  11.064  69.600  1.00  0.00    -0.318 C  
BRANCH   4   5
HETATM    5  C   UNL     1     -11.897  12.425  68.961  1.00  0.00    -0.300 C  
BRANCH   5   6
HETATM    6  O   UNL     1     -10.958  13.458  69.282  1.00  0.00    -0.210 OA 
BRANCH   6   7
HETATM    7  C   UNL     1     -11.497  14.789  69.359  1.00  0.00    -0.301 C  
BRANCH   7   8
HETATM    8  C   UNL     1     -12.239  15.024  70.665  1.00  0.00    -0.381 A  
HETATM    9  C   UNL     1     -11.514  15.261  71.846  1.00  0.00    -0.504 A  
HETATM   10  C   UNL     1     -12.171  15.574  73.036  1.00  0.00    -0.564 A  
HETATM   11  C   UNL     1     -13.639  15.093  70.711  1.00  0.00    -0.299 A  
HETATM   12  C   UNL     1     -13.562  15.646  73.065  1.00  0.00    -0.619 A  
HETATM   13  C   UNL     1     -14.296  15.402  71.906  1.00  0.00    -0.649 A  
ENDBRANCH   7   8
BRANCH   7  14
HETATM   14  C   UNL     1     -10.395  15.802  69.077  1.00  0.00    -0.223 A  
HETATM   15  C   UNL     1      -9.740  17.988  68.222  1.00  0.00    -0.332 A  
HETATM   16  C   UNL     1      -8.048  16.433  68.954  1.00  0.00    -0.236 A  
HETATM   17  C   UNL     1     -10.732  17.065  68.556  1.00  0.00    -0.352 A  
HETATM   18  C   UNL     1      -9.039  15.505  69.284  1.00  0.00    -0.266 A  
HETATM   19  C   UNL     1      -8.398  17.670  68.416  1.00  0.00    -0.290 A  
ENDBRANCH   7  14
ENDBRANCH   6   7
ENDBRANCH   5   6
ENDBRANCH   4   5
ENDBRANCH   2   4
TORSDOF 6
ENDMDL
MODEL       29
REMARK 921   NORMALIZED FREE ENERGY PREDICTED BY IDOCK:   -5.13 KCAL/MOL
REMARK 922        TOTAL FREE ENERGY PREDICTED BY IDOCK:   -7.83 KCAL/MOL
REMARK 923 INTER-LIGAND FREE ENERGY PREDICTED BY IDOCK:   -7.09 KCAL/MOL
REMARK 924 INTRA-LIGAND FREE ENERGY PREDICTED BY IDOCK:   -0.74 KCAL/MOL
REMARK 927      BINDING AFFINITY PREDICTED BY RF-SCORE:    0.00 PKD
ROOT
HETATM    1  C   UNL     1     -10.052  11.783  63.600  1.00  0.00    -0.418 C  
HETATM    2  N   UNL     1     -10.808  13.016  63.842  1.00  0.00    -0.371 NA 
HETATM    3  C   UNL     1     -12.241  12.761  63.704  1.00  0.00    -0.512 C  
ENDROOT
BRANCH   2   4
HETATM    4  C   UNL     1     -10.464  13.553  65.170  1.00  0.00    -0.364 C  
BRANCH   4   5
HETATM    5  C   UNL     1     -10.383  15.089  65.264  1.00  0.00    -0.395 C  
BRANCH   5   6
HETATM    6  O   UNL     1     -11.084  15.633  66.389  1.00  0.00    -0.254 OA 
BRANCH   6   7
HETATM    7  C   UNL     1     -10.272  15.961  67.530  1.00  0.00    -0.269 C  
BRANCH   7   8
HETATM    8  C   UNL     1      -9.857  17.423  67.527  1.00  0.00    -0.277 A  
HETATM    9  C   UNL     1     -10.769  18.407  67.109  1.00  0.00    -0.366 A  
HETATM   10  C   UNL     1     -10.444  19.761  67.188  1.00  0.00    -0.592 A  
HETATM   11  C   UNL     1      -8.605  17.831  68.012  1.00  0.00    -0.250 A  
HETATM   12  C   UNL     1      -9.200  20.151  67.678  1.00  0.00    -0.461 A  
HETATM   13  C   UNL     1      -8.279  19.188  68.086  1.00  0.00    -0.353 A  
ENDBRANCH   7   8
BRANCH   7  14
HETATM   14  C   UNL     1     -10.981  15.517  68.804  1.00  0.00    -0.270 A  
HETATM   15  C   UNL     1     -12.326  13.854  69.971  1.00  0.00    -0.378 A  
HETATM   16  C   UNL     1     -11.777  15.933  71.065  1.00  0.00    -0.473 A  
HETATM   17  C   UNL     1     -11.609  14.259  68.844  1.00  0.00    -0.340 A  
HETATM   18  C   UNL     1     -11.064  16.342  69.936  1.00  0.00    -0.347 A  
HETATM   19  C   UNL     1     -12.414  14.693  71.079  1.00  0.00    -0.399 A  
ENDBRANCH   7  14
ENDBRANCH   6   7
ENDBRANCH   5   6
ENDBRANCH   4   5
ENDBRANCH   2   4
TORSDOF 6
ENDMDL
MODEL       30
REMARK 921   NORMALIZED FREE ENERGY PREDICTED BY IDOCK:   -5.12 KCAL/MOL
REMARK 922        TOTAL FREE ENERGY PREDICTED BY IDOCK:   -7.82 KCAL/MOL
REMARK 923 INTER-LIGAND FREE ENERGY PREDICTED BY IDOCK:   -6.99 KCAL/MOL
REMARK 924 INTRA-LIGAND FREE ENERGY PREDICTED BY IDOCK:   -0.83 KCAL/MOL
REMARK 927      BINDING AFFINITY PREDICTED BY RF-SCORE:    0.00 PKD
ROOT
HETATM    1  C   UNL     1     -13.659  13.229  72.246  1.00  0.00    -0.605 C  
HETATM    2  N   UNL     1     -13.312  13.986  71.039  1.00  0.00    -0.237 NA 
HETATM    3  C   UNL     1     -13.389  15.421  71.308  1.00  0.00    -0.520 C  
ENDROOT
BRANCH   2   4
HETATM    4  C   UNL     1     -11.976  13.580  70.569  1.00  0.00    -0.269 C  
BRANCH   4   5
HETATM    5  C   UNL     1     -11.960  12.634  69.353  1.00  0.00    -0.260 C  
BRANCH   5   6
HETATM    6  O   UNL     1     -11.024  13.018  68.339  1.00  0.00    -0.240 OA 
BRANCH   6   7
HETATM    7  C   UNL     1     -11.530  13.908  67.328  1.00  0.00    -0.344 C  
BRANCH   7   8
HETATM    8  C   UNL     1     -10.780  15.230  67.312  1.00  0.00    -0.311 A  
HETATM    9  C   UNL     1     -11.138  16.247  68.213  1.00  0.00    -0.346 A  
HETATM   10  C   UNL     1     -10.404  17.431  68.283  1.00  0.00    -0.374 A  
HETATM   11  C   UNL     1      -9.675  15.437  66.471  1.00  0.00    -0.292 A  
HETATM   12  C   UNL     1      -9.306  17.619  67.447  1.00  0.00    -0.247 A  
HETATM   13  C   UNL     1      -8.944  16.626  66.539  1.00  0.00    -0.310 A  
ENDBRANCH   7   8
BRANCH   7  14
HETATM   14  C   UNL     1     -11.557  13.190  65.985  1.00  0.00    -0.393 A  
HETATM   15  C   UNL     1     -10.776  11.354  64.585  1.00  0.00    -0.378 A  
HETATM   16  C   UNL     1     -12.207  13.054  63.644  1.00  0.00    -0.568 A  
HETATM   17  C   UNL     1     -10.829  11.997  65.823  1.00  0.00    -0.329 A  
HETATM   18  C   UNL     1     -12.256  13.701  64.880  1.00  0.00    -0.447 A  
HETATM   19  C   UNL     1     -11.461  11.886  63.495  1.00  0.00    -0.523 A  
ENDBRANCH   7  14
ENDBRANCH   6   7
ENDBRANCH   5   6
ENDBRANCH   4   5
ENDBRANCH   2   4
TORSDOF 6
ENDMDL
MODEL       31
REMARK 921   NORMALIZED FREE ENERGY PREDICTED BY IDOCK:   -5.12 KCAL/MOL
REMARK 922        TOTAL FREE ENERGY PREDICTED BY IDOCK:   -7.82 KCAL/MOL
REMARK 923 INTER-LIGAND FREE ENERGY PREDICTED BY IDOCK:   -7.02 KCAL/MOL
REMARK 924 INTRA-LIGAND FREE ENERGY PREDICTED BY IDOCK:   -0.79 KCAL/MOL
REMARK 927      BINDING AFFINITY PREDICTED BY RF-SCORE:    0.00 PKD
ROOT
HETATM    1  C   UNL     1     -14.069   9.154  72.268  1.00  0.00    -0.366 C  
HETATM    2  N   UNL     1     -12.689   8.660  72.257  1.00  0.00    -0.383 NA 
HETATM    3  C   UNL     1     -12.634   7.340  71.631  1.00  0.00    -0.368 C  
ENDROOT
BRANCH   2   4
HETATM    4  C   UNL     1     -11.821   9.635  71.574  1.00  0.00    -0.407 C  
BRANCH   4   5
HETATM    5  C   UNL     1     -12.539  10.868  70.991  1.00  0.00    -0.417 C  
BRANCH   5   6
HETATM    6  O   UNL     1     -11.649  11.826  70.406  1.00  0.00    -0.237 OA 
BRANCH   6   7
HETATM    7  C   UNL     1     -12.277  12.948  69.762  1.00  0.00    -0.162 C  
BRANCH   7   8
HETATM    8  C   UNL     1     -12.520  14.094  70.732  1.00  0.00    -0.436 A  
HETATM    9  C   UNL     1     -13.811  14.317  71.239  1.00  0.00    -0.295 A  
HETATM   10  C   UNL     1     -14.039  15.300  72.203  1.00  0.00    -0.658 A  
HETATM   11  C   UNL     1     -11.466  14.892  71.202  1.00  0.00    -0.312 A  
HETATM   12  C   UNL     1     -12.982  16.080  72.666  1.00  0.00    -0.494 A  
HETATM   13  C   UNL     1     -11.697  15.880  72.164  1.00  0.00    -0.586 A  
ENDBRANCH   7   8
BRANCH   7  14
HETATM   14  C   UNL     1     -11.479  13.338  68.524  1.00  0.00    -0.347 A  
HETATM   15  C   UNL     1     -11.358  14.563  66.421  1.00  0.00    -0.349 A  
HETATM   16  C   UNL     1      -9.537  13.122  67.075  1.00  0.00    -0.241 A  
HETATM   17  C   UNL     1     -12.034  14.241  67.599  1.00  0.00    -0.400 A  
HETATM   18  C   UNL     1     -10.215  12.794  68.251  1.00  0.00    -0.245 A  
HETATM   19  C   UNL     1     -10.112  13.999  66.157  1.00  0.00    -0.319 A  
ENDBRANCH   7  14
ENDBRANCH   6   7
ENDBRANCH   5   6
ENDBRANCH   4   5
ENDBRANCH   2   4
TORSDOF 6
ENDMDL
MODEL       32
REMARK 921   NORMALIZED FREE ENERGY PREDICTED BY IDOCK:   -5.11 KCAL/MOL
REMARK 922        TOTAL FREE ENERGY PREDICTED BY IDOCK:   -7.79 KCAL/MOL
REMARK 923 INTER-LIGAND FREE ENERGY PREDICTED BY IDOCK:   -7.03 KCAL/MOL
REMARK 924 INTRA-LIGAND FREE ENERGY PREDICTED BY IDOCK:   -0.77 KCAL/MOL
REMARK 927      BINDING AFFINITY PREDICTED BY RF-SCORE:    0.00 PKD
ROOT
HETATM    1  C   UNL     1     -12.313  12.077  63.692  1.00  0.00    -0.539 C  
HETATM    2  N   UNL     1     -12.348  12.372  65.128  1.00  0.00    -0.570 NA 
HETATM    3  C   UNL     1     -11.127  11.886  65.768  1.00  0.00    -0.317 C  
ENDROOT
BRANCH   2   4
HETATM    4  C   UNL     1     -12.543  13.819  65.329  1.00  0.00    -0.473 C  
BRANCH   4   5
HETATM    5  C   UNL     1     -11.272  14.617  65.680  1.00  0.00    -0.342 C  
BRANCH   5   6
HETATM    6  O   UNL     1     -11.508  15.700  66.588  1.00  0.00    -0.068 OA 
BRANCH   6   7
HETATM    7  C   UNL     1     -10.651  15.744  67.742  1.00  0.00    -0.292 C  
BRANCH   7   8
HETATM    8  C   UNL     1     -10.083  17.135  67.972  1.00  0.00    -0.311 A  
HETATM    9  C   UNL     1      -8.813  17.282  68.556  1.00  0.00    -0.269 A  
HETATM   10  C   UNL     1      -8.230  18.543  68.689  1.00  0.00    -0.335 A  
HETATM   11  C   UNL     1     -10.761  18.285  67.540  1.00  0.00    -0.381 A  
HETATM   12  C   UNL     1      -8.912  19.675  68.248  1.00  0.00    -0.378 A  
HETATM   13  C   UNL     1     -10.178  19.548  67.678  1.00  0.00    -0.556 A  
ENDBRANCH   7   8
BRANCH   7  14
HETATM   14  C   UNL     1     -11.386  15.165  68.945  1.00  0.00    -0.314 A  
HETATM   15  C   UNL     1     -12.610  15.537  71.018  1.00  0.00    -0.513 A  
HETATM   16  C   UNL     1     -12.074  13.288  70.332  1.00  0.00    -0.401 A  
HETATM   17  C   UNL     1     -11.991  16.034  69.871  1.00  0.00    -0.187 A  
HETATM   18  C   UNL     1     -11.449  13.784  69.186  1.00  0.00    -0.346 A  
HETATM   19  C   UNL     1     -12.647  14.165  71.251  1.00  0.00    -0.438 A  
ENDBRANCH   7  14
ENDBRANCH   6   7
ENDBRANCH   5   6
ENDBRANCH   4   5
ENDBRANCH   2   4
TORSDOF 6
ENDMDL
MODEL       33
REMARK 921   NORMALIZED FREE ENERGY PREDICTED BY IDOCK:   -5.09 KCAL/MOL
REMARK 922        TOTAL FREE ENERGY PREDICTED BY IDOCK:   -7.78 KCAL/MOL
REMARK 923 INTER-LIGAND FREE ENERGY PREDICTED BY IDOCK:   -6.98 KCAL/MOL
REMARK 924 INTRA-LIGAND FREE ENERGY PREDICTED BY IDOCK:   -0.80 KCAL/MOL
REMARK 927      BINDING AFFINITY PREDICTED BY RF-SCORE:    0.00 PKD
ROOT
HETATM    1  C   UNL     1     -10.489  18.875  68.080  1.00  0.00    -0.358 C  
HETATM    2  N   UNL     1     -10.415  18.979  66.618  1.00  0.00    -0.414 NA 
HETATM    3  C   UNL     1      -9.313  19.860  66.235  1.00  0.00    -0.385 C  
ENDROOT
BRANCH   2   4
HETATM    4  C   UNL     1     -10.280  17.634  66.034  1.00  0.00    -0.297 C  
BRANCH   4   5
HETATM    5  C   UNL     1      -9.112  16.788  66.578  1.00  0.00    -0.273 C  
BRANCH   5   6
HETATM    6  O   UNL     1      -9.527  15.562  67.191  1.00  0.00    -0.209 OA 
BRANCH   6   7
HETATM    7  C   UNL     1     -10.933  15.269  67.109  1.00  0.00    -0.331 C  
BRANCH   7   8
HETATM    8  C   UNL     1     -11.245  14.307  65.973  1.00  0.00    -0.324 A  
HETATM    9  C   UNL     1     -10.195  13.678  65.284  1.00  0.00    -0.341 A  
HETATM   10  C   UNL     1     -10.457  12.720  64.304  1.00  0.00    -0.423 A  
HETATM   11  C   UNL     1     -12.565  13.964  65.645  1.00  0.00    -0.553 A  
HETATM   12  C   UNL     1     -11.773  12.385  63.993  1.00  0.00    -0.498 A  
HETATM   13  C   UNL     1     -12.827  13.008  64.659  1.00  0.00    -0.279 A  
ENDBRANCH   7   8
BRANCH   7  14
HETATM   14  C   UNL     1     -11.438  14.810  68.471  1.00  0.00    -0.330 A  
HETATM   15  C   UNL     1     -11.919  12.981  70.008  1.00  0.00    -0.383 A  
HETATM   16  C   UNL     1     -12.495  15.243  70.619  1.00  0.00    -0.458 A  
HETATM   17  C   UNL     1     -11.400  13.441  68.797  1.00  0.00    -0.332 A  
HETATM   18  C   UNL     1     -11.981  15.704  69.406  1.00  0.00    -0.349 A  
HETATM   19  C   UNL     1     -12.472  13.881  70.916  1.00  0.00    -0.447 A  
ENDBRANCH   7  14
ENDBRANCH   6   7
ENDBRANCH   5   6
ENDBRANCH   4   5
ENDBRANCH   2   4
TORSDOF 6
ENDMDL
MODEL       34
REMARK 921   NORMALIZED FREE ENERGY PREDICTED BY IDOCK:   -5.08 KCAL/MOL
REMARK 922        TOTAL FREE ENERGY PREDICTED BY IDOCK:   -7.76 KCAL/MOL
REMARK 923 INTER-LIGAND FREE ENERGY PREDICTED BY IDOCK:   -6.85 KCAL/MOL
REMARK 924 INTRA-LIGAND FREE ENERGY PREDICTED BY IDOCK:   -0.91 KCAL/MOL
REMARK 927      BINDING AFFINITY PREDICTED BY RF-SCORE:    0.00 PKD
ROOT
HETATM    1  C   UNL     1     -11.528   9.810  70.733  1.00  0.00    -0.342 C  
HETATM    2  N   UNL     1     -10.927  10.799  69.832  1.00  0.00    -0.263 NA 
HETATM    3  C   UNL     1      -9.730  10.242  69.204  1.00  0.00    -0.217 C  
ENDROOT
BRANCH   2   4
HETATM    4  C   UNL     1     -11.925  11.233  68.839  1.00  0.00    -0.310 C  
BRANCH   4   5
HETATM    5  C   UNL     1     -11.623  12.571  68.137  1.00  0.00    -0.340 C  
BRANCH   5   6
HETATM    6  O   UNL     1     -12.179  13.708  68.806  1.00  0.00    -0.339 OA 
BRANCH   6   7
HETATM    7  C   UNL     1     -11.304  14.378  69.731  1.00  0.00    -0.237 C  
BRANCH   7   8
HETATM    8  C   UNL     1     -10.496  15.473  69.053  1.00  0.00    -0.231 A  
HETATM    9  C   UNL     1      -9.094  15.462  69.142  1.00  0.00    -0.243 A  
HETATM   10  C   UNL     1      -8.328  16.400  68.450  1.00  0.00    -0.191 A  
HETATM   11  C   UNL     1     -11.112  16.457  68.266  1.00  0.00    -0.337 A  
HETATM   12  C   UNL     1      -8.952  17.367  67.666  1.00  0.00    -0.233 A  
HETATM   13  C   UNL     1     -10.343  17.400  67.577  1.00  0.00    -0.351 A  
ENDBRANCH   7   8
BRANCH   7  14
HETATM   14  C   UNL     1     -12.104  14.850  70.939  1.00  0.00    -0.377 A  
HETATM   15  C   UNL     1     -14.268  15.160  72.015  1.00  0.00    -0.673 A  
HETATM   16  C   UNL     1     -12.268  15.973  73.091  1.00  0.00    -0.636 A  
HETATM   17  C   UNL     1     -13.500  14.675  70.955  1.00  0.00    -0.375 A  
HETATM   18  C   UNL     1     -11.498  15.494  72.028  1.00  0.00    -0.515 A  
HETATM   19  C   UNL     1     -13.652  15.814  73.079  1.00  0.00    -0.638 A  
ENDBRANCH   7  14
ENDBRANCH   6   7
ENDBRANCH   5   6
ENDBRANCH   4   5
ENDBRANCH   2   4
TORSDOF 6
ENDMDL
MODEL       35
REMARK 921   NORMALIZED FREE ENERGY PREDICTED BY IDOCK:   -5.08 KCAL/MOL
REMARK 922        TOTAL FREE ENERGY PREDICTED BY IDOCK:   -7.76 KCAL/MOL
REMARK 923 INTER-LIGAND FREE ENERGY PREDICTED BY IDOCK:   -7.00 KCAL/MOL
REMARK 924 INTRA-LIGAND FREE ENERGY PREDICTED BY IDOCK:   -0.75 KCAL/MOL
REMARK 927      BINDING AFFINITY PREDICTED BY RF-SCORE:    0.00 PKD
ROOT
HETATM    1  C   UNL     1     -14.163  15.181  71.927  1.00  0.00    -0.579 C  
HETATM    2  N   UNL     1     -12.988  15.866  72.476  1.00  0.00    -0.458 NA 
HETATM    3  C   UNL     1     -12.527  15.181  73.682  1.00  0.00    -0.564 C  
ENDROOT
BRANCH   2   4
HETATM    4  C   UNL     1     -11.938  15.945  71.445  1.00  0.00    -0.457 C  
BRANCH   4   5
HETATM    5  C   UNL     1     -12.264  15.246  70.111  1.00  0.00    -0.364 C  
BRANCH   5   6
HETATM    6  O   UNL     1     -11.806  15.966  68.960  1.00  0.00    -0.389 OA 
BRANCH   6   7
HETATM    7  C   UNL     1     -10.471  16.493  69.044  1.00  0.00    -0.303 C  
BRANCH   7   8
HETATM    8  C   UNL     1      -9.424  15.437  68.725  1.00  0.00    -0.211 A  
HETATM    9  C   UNL     1      -9.708  14.438  67.778  1.00  0.00    -0.221 A  
HETATM   10  C   UNL     1      -8.732  13.516  67.398  1.00  0.00    -0.220 A  
HETATM   11  C   UNL     1      -8.142  15.480  69.292  1.00  0.00    -0.248 A  
HETATM   12  C   UNL     1      -7.461  13.576  67.965  1.00  0.00    -0.140 A  
HETATM   13  C   UNL     1      -7.166  14.553  68.914  1.00  0.00    -0.125 A  
ENDBRANCH   7   8
BRANCH   7  14
HETATM   14  C   UNL     1     -10.365  17.752  68.193  1.00  0.00    -0.393 A  
HETATM   15  C   UNL     1     -10.344  18.779  65.983  1.00  0.00    -0.467 A  
HETATM   16  C   UNL     1      -9.936  20.133  67.937  1.00  0.00    -0.537 A  
HETATM   17  C   UNL     1     -10.505  17.656  66.796  1.00  0.00    -0.289 A  
HETATM   18  C   UNL     1     -10.092  19.010  68.752  1.00  0.00    -0.429 A  
HETATM   19  C   UNL     1     -10.054  20.016  66.554  1.00  0.00    -0.606 A  
ENDBRANCH   7  14
ENDBRANCH   6   7
ENDBRANCH   5   6
ENDBRANCH   4   5
ENDBRANCH   2   4
TORSDOF 6
ENDMDL
MODEL       36
REMARK 921   NORMALIZED FREE ENERGY PREDICTED BY IDOCK:   -5.08 KCAL/MOL
REMARK 922        TOTAL FREE ENERGY PREDICTED BY IDOCK:   -7.75 KCAL/MOL
REMARK 923 INTER-LIGAND FREE ENERGY PREDICTED BY IDOCK:   -7.06 KCAL/MOL
REMARK 924 INTRA-LIGAND FREE ENERGY PREDICTED BY IDOCK:   -0.69 KCAL/MOL
REMARK 927      BINDING AFFINITY PREDICTED BY RF-SCORE:    0.00 PKD
ROOT
HETATM    1  C   UNL     1     -10.440  11.327  63.900  1.00  0.00    -0.391 C  
HETATM    2  N   UNL     1     -10.736  12.761  64.000  1.00  0.00    -0.413 NA 
HETATM    3  C   UNL     1     -12.096  13.025  63.533  1.00  0.00    -0.542 C  
ENDROOT
BRANCH   2   4
HETATM    4  C   UNL     1     -10.527  13.212  65.387  1.00  0.00    -0.296 C  
BRANCH   4   5
HETATM    5  C   UNL     1     -10.232  14.715  65.557  1.00  0.00    -0.370 C  
BRANCH   5   6
HETATM    6  O   UNL     1      -9.895  15.084  66.900  1.00  0.00    -0.230 OA 
BRANCH   6   7
HETATM    7  C   UNL     1     -10.804  15.995  67.543  1.00  0.00    -0.292 C  
BRANCH   7   8
HETATM    8  C   UNL     1     -11.372  15.413  68.828  1.00  0.00    -0.328 A  
HETATM    9  C   UNL     1     -11.801  14.075  68.859  1.00  0.00    -0.390 A  
HETATM   10  C   UNL     1     -12.236  13.492  70.049  1.00  0.00    -0.381 A  
HETATM   11  C   UNL     1     -11.405  16.157  70.018  1.00  0.00    -0.332 A  
HETATM   12  C   UNL     1     -12.257  14.241  71.224  1.00  0.00    -0.426 A  
HETATM   13  C   UNL     1     -11.846  15.572  71.209  1.00  0.00    -0.453 A  
ENDBRANCH   7   8
BRANCH   7  14
HETATM   14  C   UNL     1     -10.129  17.350  67.717  1.00  0.00    -0.323 A  
HETATM   15  C   UNL     1     -10.192  19.766  67.405  1.00  0.00    -0.575 A  
HETATM   16  C   UNL     1      -8.212  18.726  68.310  1.00  0.00    -0.355 A  
HETATM   17  C   UNL     1     -10.810  18.517  67.324  1.00  0.00    -0.330 A  
HETATM   18  C   UNL     1      -8.827  17.475  68.224  1.00  0.00    -0.274 A  
HETATM   19  C   UNL     1      -8.892  19.869  67.893  1.00  0.00    -0.365 A  
ENDBRANCH   7  14
ENDBRANCH   6   7
ENDBRANCH   5   6
ENDBRANCH   4   5
ENDBRANCH   2   4
TORSDOF 6
ENDMDL
MODEL       37
REMARK 921   NORMALIZED FREE ENERGY PREDICTED BY IDOCK:   -5.07 KCAL/MOL
REMARK 922        TOTAL FREE ENERGY PREDICTED BY IDOCK:   -7.74 KCAL/MOL
REMARK 923 INTER-LIGAND FREE ENERGY PREDICTED BY IDOCK:   -7.09 KCAL/MOL
REMARK 924 INTRA-LIGAND FREE ENERGY PREDICTED BY IDOCK:   -0.65 KCAL/MOL
REMARK 927      BINDING AFFINITY PREDICTED BY RF-SCORE:    0.00 PKD
ROOT
HETATM    1  C   UNL     1     -10.968   9.181  71.439  1.00  0.00    -0.344 C  
HETATM    2  N   UNL     1     -12.211   9.800  70.966  1.00  0.00    -0.329 NA 
HETATM    3  C   UNL     1     -13.182   9.871  72.056  1.00  0.00    -0.456 C  
ENDROOT
BRANCH   2   4
HETATM    4  C   UNL     1     -11.916  11.127  70.397  1.00  0.00    -0.378 C  
BRANCH   4   5
HETATM    5  C   UNL     1     -12.031  11.232  68.864  1.00  0.00    -0.310 C  
BRANCH   5   6
HETATM    6  O   UNL     1     -11.178  12.232  68.293  1.00  0.00    -0.228 OA 
BRANCH   6   7
HETATM    7  C   UNL     1     -11.791  13.091  67.316  1.00  0.00    -0.363 C  
BRANCH   7   8
HETATM    8  C   UNL     1     -11.355  14.538  67.483  1.00  0.00    -0.355 A  
HETATM    9  C   UNL     1     -11.583  15.199  68.702  1.00  0.00    -0.358 A  
HETATM   10  C   UNL     1     -11.107  16.494  68.912  1.00  0.00    -0.300 A  
HETATM   11  C   UNL     1     -10.652  15.213  66.474  1.00  0.00    -0.304 A  
HETATM   12  C   UNL     1     -10.404  17.149  67.903  1.00  0.00    -0.350 A  
HETATM   13  C   UNL     1     -10.179  16.512  66.684  1.00  0.00    -0.302 A  
ENDBRANCH   7   8
BRANCH   7  14
HETATM   14  C   UNL     1     -11.557  12.527  65.921  1.00  0.00    -0.454 A  
HETATM   15  C   UNL     1     -10.098  11.343  64.369  1.00  0.00    -0.341 A  
HETATM   16  C   UNL     1     -12.191  12.255  63.588  1.00  0.00    -0.665 A  
HETATM   17  C   UNL     1     -10.375  11.811  65.654  1.00  0.00    -0.293 A  
HETATM   18  C   UNL     1     -12.467  12.729  64.872  1.00  0.00    -0.563 A  
HETATM   19  C   UNL     1     -11.004  11.570  63.335  1.00  0.00    -0.397 A  
ENDBRANCH   7  14
ENDBRANCH   6   7
ENDBRANCH   5   6
ENDBRANCH   4   5
ENDBRANCH   2   4
TORSDOF 6
ENDMDL
MODEL       38
REMARK 921   NORMALIZED FREE ENERGY PREDICTED BY IDOCK:   -5.03 KCAL/MOL
REMARK 922        TOTAL FREE ENERGY PREDICTED BY IDOCK:   -7.69 KCAL/MOL
REMARK 923 INTER-LIGAND FREE ENERGY PREDICTED BY IDOCK:   -6.99 KCAL/MOL
REMARK 924 INTRA-LIGAND FREE ENERGY PREDICTED BY IDOCK:   -0.69 KCAL/MOL
REMARK 927      BINDING AFFINITY PREDICTED BY RF-SCORE:    0.00 PKD
ROOT
HETATM    1  C   UNL     1     -12.696  15.491  72.859  1.00  0.00    -0.439 C  
HETATM    2  N   UNL     1     -12.681  14.274  72.041  1.00  0.00    -0.333 NA 
HETATM    3  C   UNL     1     -13.763  13.381  72.452  1.00  0.00    -0.597 C  
ENDROOT
BRANCH   2   4
HETATM    4  C   UNL     1     -12.770  14.636  70.616  1.00  0.00    -0.357 C  
BRANCH   4   5
HETATM    5  C   UNL     1     -12.085  13.660  69.640  1.00  0.00    -0.321 C  
BRANCH   5   6
HETATM    6  O   UNL     1     -12.197  14.050  68.266  1.00  0.00    -0.328 OA 
BRANCH   6   7
HETATM    7  C   UNL     1     -10.995  13.936  67.485  1.00  0.00    -0.276 C  
BRANCH   7   8
HETATM    8  C   UNL     1     -11.219  13.130  66.215  1.00  0.00    -0.328 A  
HETATM    9  C   UNL     1     -12.286  13.457  65.361  1.00  0.00    -0.522 A  
HETATM   10  C   UNL     1     -12.455  12.795  64.144  1.00  0.00    -0.450 A  
HETATM   11  C   UNL     1     -10.335  12.113  65.826  1.00  0.00    -0.289 A  
HETATM   12  C   UNL     1     -11.565  11.792  63.768  1.00  0.00    -0.508 A  
HETATM   13  C   UNL     1     -10.508  11.448  64.609  1.00  0.00    -0.373 A  
ENDBRANCH   7   8
BRANCH   7  14
HETATM   14  C   UNL     1     -10.407  15.322  67.248  1.00  0.00    -0.264 A  
HETATM   15  C   UNL     1     -10.478  17.718  67.682  1.00  0.00    -0.393 A  
HETATM   16  C   UNL     1      -8.892  16.835  66.092  1.00  0.00    -0.298 A  
HETATM   17  C   UNL     1     -10.947  16.428  67.930  1.00  0.00    -0.298 A  
HETATM   18  C   UNL     1      -9.364  15.543  66.335  1.00  0.00    -0.330 A  
HETATM   19  C   UNL     1      -9.455  17.922  66.759  1.00  0.00    -0.289 A  
ENDBRANCH   7  14
ENDBRANCH   6   7
ENDBRANCH   5   6
ENDBRANCH   4   5
ENDBRANCH   2   4
TORSDOF 6
ENDMDL
MODEL       39
REMARK 921   NORMALIZED FREE ENERGY PREDICTED BY IDOCK:   -5.01 KCAL/MOL
REMARK 922        TOTAL FREE ENERGY PREDICTED BY IDOCK:   -7.66 KCAL/MOL
REMARK 923 INTER-LIGAND FREE ENERGY PREDICTED BY IDOCK:   -6.83 KCAL/MOL
REMARK 924 INTRA-LIGAND FREE ENERGY PREDICTED BY IDOCK:   -0.83 KCAL/MOL
REMARK 927      BINDING AFFINITY PREDICTED BY RF-SCORE:    0.00 PKD
ROOT
HETATM    1  C   UNL     1     -11.104   9.357  71.116  1.00  0.00    -0.362 C  
HETATM    2  N   UNL     1     -10.166   9.783  70.072  1.00  0.00    -0.247 NA 
HETATM    3  C   UNL     1      -8.824   9.286  70.371  1.00  0.00    -0.234 C  
ENDROOT
BRANCH   2   4
HETATM    4  C   UNL     1     -10.649   9.325  68.758  1.00  0.00    -0.193 C  
BRANCH   4   5
HETATM    5  C   UNL     1     -10.935  10.438  67.731  1.00  0.00    -0.309 C  
BRANCH   5   6
HETATM    6  O   UNL     1     -11.830  11.447  68.214  1.00  0.00    -0.501 OA 
BRANCH   6   7
HETATM    7  C   UNL     1     -11.247  12.741  68.441  1.00  0.00    -0.278 C  
BRANCH   7   8
HETATM    8  C   UNL     1     -11.185  13.566  67.165  1.00  0.00    -0.324 A  
HETATM    9  C   UNL     1     -10.030  14.310  66.871  1.00  0.00    -0.263 A  
HETATM   10  C   UNL     1      -9.912  14.996  65.662  1.00  0.00    -0.387 A  
HETATM   11  C   UNL     1     -12.225  13.540  66.225  1.00  0.00    -0.468 A  
HETATM   12  C   UNL     1     -10.950  14.956  64.735  1.00  0.00    -0.390 A  
HETATM   13  C   UNL     1     -12.108  14.233  65.016  1.00  0.00    -0.428 A  
ENDBRANCH   7   8
BRANCH   7  14
HETATM   14  C   UNL     1     -11.967  13.430  69.594  1.00  0.00    -0.386 A  
HETATM   15  C   UNL     1     -12.715  15.495  70.649  1.00  0.00    -0.487 A  
HETATM   16  C   UNL     1     -13.049  13.386  71.773  1.00  0.00    -0.479 A  
HETATM   17  C   UNL     1     -12.123  14.828  69.576  1.00  0.00    -0.328 A  
HETATM   18  C   UNL     1     -12.452  12.718  70.702  1.00  0.00    -0.328 A  
HETATM   19  C   UNL     1     -13.173  14.775  71.749  1.00  0.00    -0.435 A  
ENDBRANCH   7  14
ENDBRANCH   6   7
ENDBRANCH   5   6
ENDBRANCH   4   5
ENDBRANCH   2   4
TORSDOF 6
ENDMDL
MODEL       40
REMARK 921   NORMALIZED FREE ENERGY PREDICTED BY IDOCK:   -5.00 KCAL/MOL
REMARK 922        TOTAL FREE ENERGY PREDICTED BY IDOCK:   -7.65 KCAL/MOL
REMARK 923 INTER-LIGAND FREE ENERGY PREDICTED BY IDOCK:   -6.56 KCAL/MOL
REMARK 924 INTRA-LIGAND FREE ENERGY PREDICTED BY IDOCK:   -1.09 KCAL/MOL
REMARK 927      BINDING AFFINITY PREDICTED BY RF-SCORE:    0.00 PKD
ROOT
HETATM    1  C   UNL     1      -8.770   9.501  65.778  1.00  0.00    -0.147 C  
HETATM    2  N   UNL     1      -9.827  10.475  66.068  1.00  0.00    -0.211 NA 
HETATM    3  C   UNL     1     -10.364  11.018  64.822  1.00  0.00    -0.324 C  
ENDROOT
BRANCH   2   4
HETATM    4  C   UNL     1     -10.869   9.841  66.894  1.00  0.00    -0.050 C  
BRANCH   4   5
HETATM    5  C   UNL     1     -10.988  10.371  68.335  1.00  0.00    -0.264 C  
BRANCH   5   6
HETATM    6  O   UNL     1     -11.951  11.422  68.482  1.00  0.00    -0.498 OA 
BRANCH   6   7
HETATM    7  C   UNL     1     -11.412  12.739  68.686  1.00  0.00    -0.303 C  
BRANCH   7   8
HETATM    8  C   UNL     1     -11.407  13.553  67.402  1.00  0.00    -0.338 A  
HETATM    9  C   UNL     1     -10.263  14.287  67.045  1.00  0.00    -0.260 A  
HETATM   10  C   UNL     1     -10.200  14.963  65.826  1.00  0.00    -0.358 A  
HETATM   11  C   UNL     1     -12.492  13.527  66.513  1.00  0.00    -0.309 A  
HETATM   12  C   UNL     1     -11.283  14.922  64.951  1.00  0.00    -0.415 A  
HETATM   13  C   UNL     1     -12.430  14.209  65.294  1.00  0.00    -0.474 A  
ENDBRANCH   7   8
BRANCH   7  14
HETATM   14  C   UNL     1     -12.133  13.412  69.847  1.00  0.00    -0.389 A  
HETATM   15  C   UNL     1     -13.372  13.202  71.935  1.00  0.00    -0.546 A  
HETATM   16  C   UNL     1     -13.064  15.377  70.938  1.00  0.00    -0.528 A  
HETATM   17  C   UNL     1     -12.645  12.623  70.894  1.00  0.00    -0.338 A  
HETATM   18  C   UNL     1     -12.341  14.799  69.893  1.00  0.00    -0.328 A  
HETATM   19  C   UNL     1     -13.585  14.578  71.954  1.00  0.00    -0.484 A  
ENDBRANCH   7  14
ENDBRANCH   6   7
ENDBRANCH   5   6
ENDBRANCH   4   5
ENDBRANCH   2   4
TORSDOF 6
ENDMDL
MODEL       41
REMARK 921   NORMALIZED FREE ENERGY PREDICTED BY IDOCK:   -4.97 KCAL/MOL
REMARK 922        TOTAL FREE ENERGY PREDICTED BY IDOCK:   -7.61 KCAL/MOL
REMARK 923 INTER-LIGAND FREE ENERGY PREDICTED BY IDOCK:   -6.80 KCAL/MOL
REMARK 924 INTRA-LIGAND FREE ENERGY PREDICTED BY IDOCK:   -0.82 KCAL/MOL
REMARK 927      BINDING AFFINITY PREDICTED BY RF-SCORE:    0.00 PKD
ROOT
HETATM    1  C   UNL     1     -11.411   8.447  72.308  1.00  0.00    -0.384 C  
HETATM    2  N   UNL     1     -12.187   9.125  71.264  1.00  0.00    -0.317 NA 
HETATM    3  C   UNL     1     -13.285   9.880  71.867  1.00  0.00    -0.458 C  
ENDROOT
BRANCH   2   4
HETATM    4  C   UNL     1     -11.296   9.982  70.465  1.00  0.00    -0.335 C  
BRANCH   4   5
HETATM    5  C   UNL     1     -11.988  11.123  69.694  1.00  0.00    -0.359 C  
BRANCH   5   6
HETATM    6  O   UNL     1     -11.280  11.533  68.518  1.00  0.00    -0.215 OA 
BRANCH   6   7
HETATM    7  C   UNL     1     -11.813  12.682  67.838  1.00  0.00    -0.332 C  
BRANCH   7   8
HETATM    8  C   UNL     1     -11.207  13.977  68.357  1.00  0.00    -0.292 A  
HETATM    9  C   UNL     1      -9.921  14.361  67.941  1.00  0.00    -0.228 A  
HETATM   10  C   UNL     1      -9.383  15.589  68.326  1.00  0.00    -0.192 A  
HETATM   11  C   UNL     1     -11.934  14.848  69.181  1.00  0.00    -0.313 A  
HETATM   12  C   UNL     1     -10.120  16.447  69.140  1.00  0.00    -0.278 A  
HETATM   13  C   UNL     1     -11.392  16.076  69.571  1.00  0.00    -0.344 A  
ENDBRANCH   7   8
BRANCH   7  14
HETATM   14  C   UNL     1     -11.679  12.491  66.332  1.00  0.00    -0.458 A  
HETATM   15  C   UNL     1     -10.646  11.318  64.463  1.00  0.00    -0.401 A  
HETATM   16  C   UNL     1     -12.139  13.167  64.040  1.00  0.00    -0.511 A  
HETATM   17  C   UNL     1     -10.845  11.473  65.835  1.00  0.00    -0.316 A  
HETATM   18  C   UNL     1     -12.333  13.327  65.414  1.00  0.00    -0.528 A  
HETATM   19  C   UNL     1     -11.289  12.169  63.566  1.00  0.00    -0.535 A  
ENDBRANCH   7  14
ENDBRANCH   6   7
ENDBRANCH   5   6
ENDBRANCH   4   5
ENDBRANCH   2   4
TORSDOF 6
ENDMDL
MODEL       42
REMARK 921   NORMALIZED FREE ENERGY PREDICTED BY IDOCK:   -4.97 KCAL/MOL
REMARK 922        TOTAL FREE ENERGY PREDICTED BY IDOCK:   -7.61 KCAL/MOL
REMARK 923 INTER-LIGAND FREE ENERGY PREDICTED BY IDOCK:   -7.19 KCAL/MOL
REMARK 924 INTRA-LIGAND FREE ENERGY PREDICTED BY IDOCK:   -0.43 KCAL/MOL
REMARK 927      BINDING AFFINITY PREDICTED BY RF-SCORE:    0.00 PKD
ROOT
HETATM    1  C   UNL     1      -9.286   9.170  65.480  1.00  0.00    -0.224 C  
HETATM    2  N   UNL     1     -10.354   9.380  66.463  1.00  0.00    -0.232 NA 
HETATM    3  C   UNL     1     -10.432   8.237  67.370  1.00  0.00    -0.283 C  
ENDROOT
BRANCH   2   4
HETATM    4  C   UNL     1     -10.121  10.645  67.181  1.00  0.00    -0.207 C  
BRANCH   4   5
HETATM    5  C   UNL     1     -11.380  11.320  67.760  1.00  0.00    -0.285 C  
BRANCH   5   6
HETATM    6  O   UNL     1     -11.184  11.874  69.067  1.00  0.00    -0.227 OA 
BRANCH   6   7
HETATM    7  C   UNL     1     -12.285  11.723  69.979  1.00  0.00    -0.242 C  
BRANCH   7   8
HETATM    8  C   UNL     1     -12.126  10.494  70.860  1.00  0.00    -0.487 A  
HETATM    9  C   UNL     1     -13.250   9.942  71.498  1.00  0.00    -0.501 A  
HETATM   10  C   UNL     1     -13.146   8.760  72.232  1.00  0.00    -0.458 A  
HETATM   11  C   UNL     1     -10.891   9.840  70.990  1.00  0.00    -0.378 A  
HETATM   12  C   UNL     1     -11.915   8.118  72.346  1.00  0.00    -0.431 A  
HETATM   13  C   UNL     1     -10.787   8.659  71.730  1.00  0.00    -0.395 A  
ENDBRANCH   7   8
BRANCH   7  14
HETATM   14  C   UNL     1     -12.488  13.021  70.752  1.00  0.00    -0.384 A  
HETATM   15  C   UNL     1     -13.544  14.202  72.603  1.00  0.00    -0.618 A  
HETATM   16  C   UNL     1     -12.198  15.422  71.016  1.00  0.00    -0.431 A  
HETATM   17  C   UNL     1     -13.282  13.017  71.914  1.00  0.00    -0.527 A  
HETATM   18  C   UNL     1     -11.940  14.238  70.321  1.00  0.00    -0.398 A  
HETATM   19  C   UNL     1     -13.007  15.405  72.151  1.00  0.00    -0.480 A  
ENDBRANCH   7  14
ENDBRANCH   6   7
ENDBRANCH   5   6
ENDBRANCH   4   5
ENDBRANCH   2   4
TORSDOF 6
ENDMDL
MODEL       43
REMARK 921   NORMALIZED FREE ENERGY PREDICTED BY IDOCK:   -4.95 KCAL/MOL
REMARK 922        TOTAL FREE ENERGY PREDICTED BY IDOCK:   -7.59 KCAL/MOL
REMARK 923 INTER-LIGAND FREE ENERGY PREDICTED BY IDOCK:   -6.76 KCAL/MOL
REMARK 924 INTRA-LIGAND FREE ENERGY PREDICTED BY IDOCK:   -0.83 KCAL/MOL
REMARK 927      BINDING AFFINITY PREDICTED BY RF-SCORE:    0.00 PKD
ROOT
HETATM    1  C   UNL     1     -13.206  10.006  71.635  1.00  0.00    -0.419 C  
HETATM    2  N   UNL     1     -11.775  10.054  71.318  1.00  0.00    -0.376 NA 
HETATM    3  C   UNL     1     -11.101   8.878  71.863  1.00  0.00    -0.372 C  
ENDROOT
BRANCH   2   4
HETATM    4  C   UNL     1     -11.596  10.172  69.860  1.00  0.00    -0.223 C  
BRANCH   4   5
HETATM    5  C   UNL     1     -10.180  10.562  69.395  1.00  0.00    -0.221 C  
BRANCH   5   6
HETATM    6  O   UNL     1     -10.153  11.718  68.548  1.00  0.00    -0.206 OA 
BRANCH   6   7
HETATM    7  C   UNL     1     -11.406  12.406  68.392  1.00  0.00    -0.285 C  
BRANCH   7   8
HETATM    8  C   UNL     1     -11.463  13.674  69.229  1.00  0.00    -0.344 A  
HETATM    9  C   UNL     1     -12.370  13.764  70.299  1.00  0.00    -0.407 A  
HETATM   10  C   UNL     1     -12.375  14.877  71.140  1.00  0.00    -0.387 A  
HETATM   11  C   UNL     1     -10.572  14.736  69.014  1.00  0.00    -0.248 A  
HETATM   12  C   UNL     1     -11.479  15.920  70.918  1.00  0.00    -0.444 A  
HETATM   13  C   UNL     1     -10.581  15.853  69.854  1.00  0.00    -0.327 A  
ENDBRANCH   7   8
BRANCH   7  14
HETATM   14  C   UNL     1     -11.686  12.625  66.911  1.00  0.00    -0.453 A  
HETATM   15  C   UNL     1     -11.252  12.007  64.593  1.00  0.00    -0.380 A  
HETATM   16  C   UNL     1     -12.696  13.877  65.085  1.00  0.00    -0.434 A  
HETATM   17  C   UNL     1     -11.072  11.789  65.960  1.00  0.00    -0.363 A  
HETATM   18  C   UNL     1     -12.511  13.663  66.453  1.00  0.00    -0.377 A  
HETATM   19  C   UNL     1     -12.060  13.055  64.157  1.00  0.00    -0.497 A  
ENDBRANCH   7  14
ENDBRANCH   6   7
ENDBRANCH   5   6
ENDBRANCH   4   5
ENDBRANCH   2   4
TORSDOF 6
ENDMDL
MODEL       44
REMARK 921   NORMALIZED FREE ENERGY PREDICTED BY IDOCK:   -4.95 KCAL/MOL
REMARK 922        TOTAL FREE ENERGY PREDICTED BY IDOCK:   -7.58 KCAL/MOL
REMARK 923 INTER-LIGAND FREE ENERGY PREDICTED BY IDOCK:   -6.94 KCAL/MOL
REMARK 924 INTRA-LIGAND FREE ENERGY PREDICTED BY IDOCK:   -0.64 KCAL/MOL
REMARK 927      BINDING AFFINITY PREDICTED BY RF-SCORE:    0.00 PKD
ROOT
HETATM    1  C   UNL     1     -11.093   8.648  72.098  1.00  0.00    -0.364 C  
HETATM    2  N   UNL     1     -12.095   9.153  71.154  1.00  0.00    -0.299 NA 
HETATM    3  C   UNL     1     -13.408   9.200  71.795  1.00  0.00    -0.406 C  
ENDROOT
BRANCH   2   4
HETATM    4  C   UNL     1     -11.676  10.471  70.647  1.00  0.00    -0.357 C  
BRANCH   4   5
HETATM    5  C   UNL     1     -12.128  10.804  69.212  1.00  0.00    -0.207 C  
BRANCH   5   6
HETATM    6  O   UNL     1     -11.257  11.719  68.535  1.00  0.00    -0.211 OA 
BRANCH   6   7
HETATM    7  C   UNL     1     -11.905  12.695  67.701  1.00  0.00    -0.329 C  
BRANCH   7   8
HETATM    8  C   UNL     1     -11.542  14.115  68.107  1.00  0.00    -0.365 A  
HETATM    9  C   UNL     1     -11.962  14.613  69.352  1.00  0.00    -0.351 A  
HETATM   10  C   UNL     1     -11.561  15.877  69.788  1.00  0.00    -0.340 A  
HETATM   11  C   UNL     1     -10.723  14.921  67.303  1.00  0.00    -0.294 A  
HETATM   12  C   UNL     1     -10.742  16.663  68.981  1.00  0.00    -0.343 A  
HETATM   13  C   UNL     1     -10.327  16.189  67.738  1.00  0.00    -0.283 A  
ENDBRANCH   7   8
BRANCH   7  14
HETATM   14  C   UNL     1     -11.632  12.377  66.237  1.00  0.00    -0.449 A  
HETATM   15  C   UNL     1     -12.299  12.572  63.901  1.00  0.00    -0.576 A  
HETATM   16  C   UNL     1     -10.393  11.216  64.494  1.00  0.00    -0.400 A  
HETATM   17  C   UNL     1     -12.481  12.902  65.245  1.00  0.00    -0.552 A  
HETATM   18  C   UNL     1     -10.577  11.541  65.839  1.00  0.00    -0.318 A  
HETATM   19  C   UNL     1     -11.259  11.725  63.527  1.00  0.00    -0.494 A  
ENDBRANCH   7  14
ENDBRANCH   6   7
ENDBRANCH   5   6
ENDBRANCH   4   5
ENDBRANCH   2   4
TORSDOF 6
ENDMDL
MODEL       45
REMARK 921   NORMALIZED FREE ENERGY PREDICTED BY IDOCK:   -4.92 KCAL/MOL
REMARK 922        TOTAL FREE ENERGY PREDICTED BY IDOCK:   -7.54 KCAL/MOL
REMARK 923 INTER-LIGAND FREE ENERGY PREDICTED BY IDOCK:   -7.06 KCAL/MOL
REMARK 924 INTRA-LIGAND FREE ENERGY PREDICTED BY IDOCK:   -0.48 KCAL/MOL
REMARK 927      BINDING AFFINITY PREDICTED BY RF-SCORE:    0.00 PKD
ROOT
HETATM    1  C   UNL     1      -9.182  18.434  68.371  1.00  0.00    -0.322 C  
HETATM    2  N   UNL     1      -7.915  17.700  68.304  1.00  0.00    -0.262 NA 
HETATM    3  C   UNL     1      -6.853  18.474  68.944  1.00  0.00    -0.278 C  
ENDROOT
BRANCH   2   4
HETATM    4  C   UNL     1      -8.081  16.371  68.918  1.00  0.00    -0.236 C  
BRANCH   4   5
HETATM    5  C   UNL     1      -9.177  15.485  68.296  1.00  0.00    -0.188 C  
BRANCH   5   6
HETATM    6  O   UNL     1     -10.063  14.905  69.262  1.00  0.00    -0.224 OA 
BRANCH   6   7
HETATM    7  C   UNL     1     -11.442  14.809  68.865  1.00  0.00    -0.297 C  
BRANCH   7   8
HETATM    8  C   UNL     1     -11.630  13.842  67.706  1.00  0.00    -0.381 A  
HETATM    9  C   UNL     1     -12.295  14.268  66.544  1.00  0.00    -0.345 A  
HETATM   10  C   UNL     1     -12.396  13.432  65.431  1.00  0.00    -0.522 A  
HETATM   11  C   UNL     1     -11.082  12.551  67.731  1.00  0.00    -0.291 A  
HETATM   12  C   UNL     1     -11.840  12.155  65.469  1.00  0.00    -0.350 A  
HETATM   13  C   UNL     1     -11.188  11.712  66.618  1.00  0.00    -0.362 A  
ENDBRANCH   7   8
BRANCH   7  14
HETATM   14  C   UNL     1     -12.302  14.496  70.082  1.00  0.00    -0.398 A  
HETATM   15  C   UNL     1     -13.750  15.293  71.873  1.00  0.00    -0.601 A  
HETATM   16  C   UNL     1     -13.129  12.964  71.782  1.00  0.00    -0.458 A  
HETATM   17  C   UNL     1     -13.010  15.535  70.715  1.00  0.00    -0.490 A  
HETATM   18  C   UNL     1     -12.384  13.205  70.626  1.00  0.00    -0.405 A  
HETATM   19  C   UNL     1     -13.805  14.009  72.409  1.00  0.00    -0.653 A  
ENDBRANCH   7  14
ENDBRANCH   6   7
ENDBRANCH   5   6
ENDBRANCH   4   5
ENDBRANCH   2   4
TORSDOF 6
ENDMDL
MODEL       46
REMARK 921   NORMALIZED FREE ENERGY PREDICTED BY IDOCK:   -4.89 KCAL/MOL
REMARK 922        TOTAL FREE ENERGY PREDICTED BY IDOCK:   -7.50 KCAL/MOL
REMARK 923 INTER-LIGAND FREE ENERGY PREDICTED BY IDOCK:   -6.57 KCAL/MOL
REMARK 924 INTRA-LIGAND FREE ENERGY PREDICTED BY IDOCK:   -0.93 KCAL/MOL
REMARK 927      BINDING AFFINITY PREDICTED BY RF-SCORE:    0.00 PKD
ROOT
HETATM    1  C   UNL     1     -10.382  11.428  63.986  1.00  0.00    -0.362 C  
HETATM    2  N   UNL     1     -11.285  12.442  63.432  1.00  0.00    -0.456 NA 
HETATM    3  C   UNL     1     -12.648  11.918  63.368  1.00  0.00    -0.431 C  
ENDROOT
BRANCH   2   4
HETATM    4  C   UNL     1     -11.200  13.672  64.239  1.00  0.00    -0.336 C  
BRANCH   4   5
HETATM    5  C   UNL     1     -12.296  13.840  65.309  1.00  0.00    -0.464 C  
BRANCH   5   6
HETATM    6  O   UNL     1     -11.815  13.691  66.651  1.00  0.00    -0.364 OA 
BRANCH   6   7
HETATM    7  C   UNL     1     -11.639  14.913  67.389  1.00  0.00    -0.332 C  
BRANCH   7   8
HETATM    8  C   UNL     1     -11.952  14.731  68.866  1.00  0.00    -0.298 A  
HETATM    9  C   UNL     1     -12.150  13.439  69.383  1.00  0.00    -0.321 A  
HETATM   10  C   UNL     1     -12.343  13.240  70.750  1.00  0.00    -0.425 A  
HETATM   11  C   UNL     1     -11.967  15.819  69.752  1.00  0.00    -0.337 A  
HETATM   12  C   UNL     1     -12.349  14.329  71.619  1.00  0.00    -0.392 A  
HETATM   13  C   UNL     1     -12.166  15.618  71.121  1.00  0.00    -0.466 A  
ENDBRANCH   7   8
BRANCH   7  14
HETATM   14  C   UNL     1     -10.252  15.480  67.112  1.00  0.00    -0.260 A  
HETATM   15  C   UNL     1      -7.833  15.263  67.305  1.00  0.00    -0.240 A  
HETATM   16  C   UNL     1      -8.783  17.264  66.350  1.00  0.00    -0.285 A  
HETATM   17  C   UNL     1      -9.115  14.740  67.482  1.00  0.00    -0.191 A  
HETATM   18  C   UNL     1     -10.067  16.744  66.531  1.00  0.00    -0.322 A  
HETATM   19  C   UNL     1      -7.668  16.527  66.745  1.00  0.00    -0.294 A  
ENDBRANCH   7  14
ENDBRANCH   6   7
ENDBRANCH   5   6
ENDBRANCH   4   5
ENDBRANCH   2   4
TORSDOF 6
ENDMDL
MODEL       47
REMARK 921   NORMALIZED FREE ENERGY PREDICTED BY IDOCK:   -4.89 KCAL/MOL
REMARK 922        TOTAL FREE ENERGY PREDICTED BY IDOCK:   -7.50 KCAL/MOL
REMARK 923 INTER-LIGAND FREE ENERGY PREDICTED BY IDOCK:   -6.73 KCAL/MOL
REMARK 924 INTRA-LIGAND FREE ENERGY PREDICTED BY IDOCK:   -0.76 KCAL/MOL
REMARK 927      BINDING AFFINITY PREDICTED BY RF-SCORE:    0.00 PKD
ROOT
HETATM    1  C   UNL     1     -12.950  10.064  71.495  1.00  0.00    -0.434 C  
HETATM    2  N   UNL     1     -11.713  10.559  70.883  1.00  0.00    -0.347 NA 
HETATM    3  C   UNL     1     -10.767   9.459  70.705  1.00  0.00    -0.305 C  
ENDROOT
BRANCH   2   4
HETATM    4  C   UNL     1     -12.027  11.233  69.611  1.00  0.00    -0.353 C  
BRANCH   4   5
HETATM    5  C   UNL     1     -11.919  12.770  69.630  1.00  0.00    -0.288 C  
BRANCH   5   6
HETATM    6  O   UNL     1     -12.136  13.376  68.350  1.00  0.00    -0.343 OA 
BRANCH   6   7
HETATM    7  C   UNL     1     -10.982  13.464  67.498  1.00  0.00    -0.267 C  
BRANCH   7   8
HETATM    8  C   UNL     1     -11.186  12.714  66.190  1.00  0.00    -0.350 A  
HETATM    9  C   UNL     1     -12.292  13.017  65.378  1.00  0.00    -0.538 A  
HETATM   10  C   UNL     1     -12.448  12.412  64.131  1.00  0.00    -0.534 A  
HETATM   11  C   UNL     1     -10.248  11.779  65.728  1.00  0.00    -0.276 A  
HETATM   12  C   UNL     1     -11.505  11.490  63.682  1.00  0.00    -0.374 A  
HETATM   13  C   UNL     1     -10.409  11.170  64.480  1.00  0.00    -0.400 A  
ENDBRANCH   7   8
BRANCH   7  14
HETATM   14  C   UNL     1     -10.587  14.925  67.323  1.00  0.00    -0.272 A  
HETATM   15  C   UNL     1      -9.198  16.591  66.212  1.00  0.00    -0.345 A  
HETATM   16  C   UNL     1     -10.684  17.263  67.990  1.00  0.00    -0.367 A  
HETATM   17  C   UNL     1      -9.633  15.272  66.349  1.00  0.00    -0.317 A  
HETATM   18  C   UNL     1     -11.116  15.942  68.132  1.00  0.00    -0.338 A  
HETATM   19  C   UNL     1      -9.720  17.585  67.036  1.00  0.00    -0.284 A  
ENDBRANCH   7  14
ENDBRANCH   6   7
ENDBRANCH   5   6
ENDBRANCH   4   5
ENDBRANCH   2   4
TORSDOF 6
ENDMDL
MODEL       48
REMARK 921   NORMALIZED FREE ENERGY PREDICTED BY IDOCK:   -4.87 KCAL/MOL
REMARK 922        TOTAL FREE ENERGY PREDICTED BY IDOCK:   -7.48 KCAL/MOL
REMARK 923 INTER-LIGAND FREE ENERGY PREDICTED BY IDOCK:   -6.84 KCAL/MOL
REMARK 924 INTRA-LIGAND FREE ENERGY PREDICTED BY IDOCK:   -0.64 KCAL/MOL
REMARK 927      BINDING AFFINITY PREDICTED BY RF-SCORE:    0.00 PKD
ROOT
HETATM    1  C   UNL     1     -10.285  11.253  63.792  1.00  0.00    -0.377 C  
HETATM    2  N   UNL     1     -10.908  12.554  64.056  1.00  0.00    -0.373 NA 
HETATM    3  C   UNL     1     -12.309  12.532  63.638  1.00  0.00    -0.522 C  
ENDROOT
BRANCH   2   4
HETATM    4  C   UNL     1     -10.759  12.892  65.482  1.00  0.00    -0.279 C  
BRANCH   4   5
HETATM    5  C   UNL     1     -12.075  13.032  66.272  1.00  0.00    -0.386 C  
BRANCH   5   6
HETATM    6  O   UNL     1     -12.137  12.198  67.436  1.00  0.00    -0.553 OA 
BRANCH   6   7
HETATM    7  C   UNL     1     -11.056  12.353  68.372  1.00  0.00    -0.250 C  
BRANCH   7   8
HETATM    8  C   UNL     1     -11.080  13.717  69.044  1.00  0.00    -0.296 A  
HETATM    9  C   UNL     1      -9.977  14.578  68.915  1.00  0.00    -0.206 A  
HETATM   10  C   UNL     1     -10.015  15.870  69.441  1.00  0.00    -0.274 A  
HETATM   11  C   UNL     1     -12.216  14.178  69.726  1.00  0.00    -0.397 A  
HETATM   12  C   UNL     1     -11.152  16.316  70.110  1.00  0.00    -0.346 A  
HETATM   13  C   UNL     1     -12.251  15.471  70.256  1.00  0.00    -0.432 A  
ENDBRANCH   7   8
BRANCH   7  14
HETATM   14  C   UNL     1     -11.052  11.180  69.344  1.00  0.00    -0.314 A  
HETATM   15  C   UNL     1     -12.211   9.880  71.048  1.00  0.00    -0.446 A  
HETATM   16  C   UNL     1      -9.923   9.354  70.490  1.00  0.00    -0.328 A  
HETATM   17  C   UNL     1     -12.206  10.903  70.099  1.00  0.00    -0.423 A  
HETATM   18  C   UNL     1      -9.915  10.381  69.544  1.00  0.00    -0.229 A  
HETATM   19  C   UNL     1     -11.068   9.110  71.247  1.00  0.00    -0.405 A  
ENDBRANCH   7  14
ENDBRANCH   6   7
ENDBRANCH   5   6
ENDBRANCH   4   5
ENDBRANCH   2   4
TORSDOF 6
ENDMDL
MODEL       49
REMARK 921   NORMALIZED FREE ENERGY PREDICTED BY IDOCK:   -4.85 KCAL/MOL
REMARK 922        TOTAL FREE ENERGY PREDICTED BY IDOCK:   -7.45 KCAL/MOL
REMARK 923 INTER-LIGAND FREE ENERGY PREDICTED BY IDOCK:   -6.51 KCAL/MOL
REMARK 924 INTRA-LIGAND FREE ENERGY PREDICTED BY IDOCK:   -0.94 KCAL/MOL
REMARK 927      BINDING AFFINITY PREDICTED BY RF-SCORE:    0.00 PKD
ROOT
HETATM    1  C   UNL     1      -6.863  16.854  69.228  1.00  0.00    -0.228 C  
HETATM    2  N   UNL     1      -8.094  17.185  68.502  1.00  0.00    -0.252 NA 
HETATM    3  C   UNL     1      -8.179  18.629  68.291  1.00  0.00    -0.323 C  
ENDROOT
BRANCH   2   4
HETATM    4  C   UNL     1      -8.137  16.435  67.235  1.00  0.00    -0.171 C  
BRANCH   4   5
HETATM    5  C   UNL     1      -9.501  16.421  66.518  1.00  0.00    -0.272 C  
BRANCH   5   6
HETATM    6  O   UNL     1     -10.594  16.058  67.371  1.00  0.00    -0.307 OA 
BRANCH   6   7
HETATM    7  C   UNL     1     -10.648  14.675  67.761  1.00  0.00    -0.251 C  
BRANCH   7   8
HETATM    8  C   UNL     1     -11.521  14.468  68.988  1.00  0.00    -0.318 A  
HETATM    9  C   UNL     1     -11.645  13.184  69.547  1.00  0.00    -0.347 A  
HETATM   10  C   UNL     1     -12.362  12.986  70.727  1.00  0.00    -0.394 A  
HETATM   11  C   UNL     1     -12.148  15.545  69.633  1.00  0.00    -0.352 A  
HETATM   12  C   UNL     1     -12.973  14.066  71.360  1.00  0.00    -0.427 A  
HETATM   13  C   UNL     1     -12.871  15.343  70.812  1.00  0.00    -0.524 A  
ENDBRANCH   7   8
BRANCH   7  14
HETATM   14  C   UNL     1     -11.044  13.823  66.562  1.00  0.00    -0.309 A  
HETATM   15  C   UNL     1     -12.750  13.142  64.960  1.00  0.00    -0.456 A  
HETATM   16  C   UNL     1     -10.594  12.059  64.948  1.00  0.00    -0.334 A  
HETATM   17  C   UNL     1     -12.333  13.958  66.013  1.00  0.00    -0.511 A  
HETATM   18  C   UNL     1     -10.177  12.871  66.005  1.00  0.00    -0.293 A  
HETATM   19  C   UNL     1     -11.882  12.189  64.432  1.00  0.00    -0.436 A  
ENDBRANCH   7  14
ENDBRANCH   6   7
ENDBRANCH   5   6
ENDBRANCH   4   5
ENDBRANCH   2   4
TORSDOF 6
ENDMDL
MODEL       50
REMARK 921   NORMALIZED FREE ENERGY PREDICTED BY IDOCK:   -4.83 KCAL/MOL
REMARK 922        TOTAL FREE ENERGY PREDICTED BY IDOCK:   -7.43 KCAL/MOL
REMARK 923 INTER-LIGAND FREE ENERGY PREDICTED BY IDOCK:   -6.55 KCAL/MOL
REMARK 924 INTRA-LIGAND FREE ENERGY PREDICTED BY IDOCK:   -0.88 KCAL/MOL
REMARK 927      BINDING AFFINITY PREDICTED BY RF-SCORE:    0.00 PKD
ROOT
HETATM    1  C   UNL     1      -9.893  10.311  65.281  1.00  0.00    -0.306 C  
HETATM    2  N   UNL     1      -9.576  10.090  66.695  1.00  0.00    -0.178 NA 
HETATM    3  C   UNL     1      -8.784  11.206  67.211  1.00  0.00    -0.139 C  
ENDROOT
BRANCH   2   4
HETATM    4  C   UNL     1     -10.822   9.895  67.456  1.00  0.00    -0.243 C  
BRANCH   4   5
HETATM    5  C   UNL     1     -10.866  10.568  68.842  1.00  0.00    -0.235 C  
BRANCH   5   6
HETATM    6  O   UNL     1     -11.896  11.556  68.967  1.00  0.00    -0.304 OA 
BRANCH   6   7
HETATM    7  C   UNL     1     -11.451  12.880  69.309  1.00  0.00    -0.282 C  
BRANCH   7   8
HETATM    8  C   UNL     1     -11.267  13.751  68.076  1.00  0.00    -0.293 A  
HETATM    9  C   UNL     1     -10.163  14.616  67.992  1.00  0.00    -0.231 A  
HETATM   10  C   UNL     1      -9.921  15.353  66.832  1.00  0.00    -0.247 A  
HETATM   11  C   UNL     1     -12.132  13.655  66.976  1.00  0.00    -0.423 A  
HETATM   12  C   UNL     1     -10.784  15.242  65.744  1.00  0.00    -0.357 A  
HETATM   13  C   UNL     1     -11.891  14.398  65.816  1.00  0.00    -0.365 A  
ENDBRANCH   7   8
BRANCH   7  14
HETATM   14  C   UNL     1     -12.382  13.475  70.359  1.00  0.00    -0.397 A  
HETATM   15  C   UNL     1     -13.532  15.424  71.262  1.00  0.00    -0.598 A  
HETATM   16  C   UNL     1     -13.668  13.311  72.418  1.00  0.00    -0.678 A  
HETATM   17  C   UNL     1     -12.739  14.833  70.277  1.00  0.00    -0.324 A  
HETATM   18  C   UNL     1     -12.869  12.719  71.437  1.00  0.00    -0.371 A  
HETATM   19  C   UNL     1     -13.991  14.664  72.335  1.00  0.00    -0.578 A  
ENDBRANCH   7  14
ENDBRANCH   6   7
ENDBRANCH   5   6
ENDBRANCH   4   5
ENDBRANCH   2   4
TORSDOF 6
ENDMDL
MODEL       51
REMARK 921   NORMALIZED FREE ENERGY PREDICTED BY IDOCK:   -4.83 KCAL/MOL
REMARK 922        TOTAL FREE ENERGY PREDICTED BY IDOCK:   -7.42 KCAL/MOL
REMARK 923 INTER-LIGAND FREE ENERGY PREDICTED BY IDOCK:   -6.49 KCAL/MOL
REMARK 924 INTRA-LIGAND FREE ENERGY PREDICTED BY IDOCK:   -0.93 KCAL/MOL
REMARK 927      BINDING AFFINITY PREDICTED BY RF-SCORE:    0.00 PKD
ROOT
HETATM    1  C   UNL     1     -10.314   7.799  69.488  1.00  0.00    -0.219 C  
HETATM    2  N   UNL     1      -9.862   8.758  68.475  1.00  0.00    -0.164 NA 
HETATM    3  C   UNL     1     -10.490   8.460  67.188  1.00  0.00    -0.310 C  
ENDROOT
BRANCH   2   4
HETATM    4  C   UNL     1     -10.150  10.129  68.930  1.00  0.00    -0.200 C  
BRANCH   4   5
HETATM    5  C   UNL     1     -11.630  10.428  69.237  1.00  0.00    -0.176 C  
BRANCH   5   6
HETATM    6  O   UNL     1     -12.169  11.509  68.465  1.00  0.00    -0.524 OA 
BRANCH   6   7
HETATM    7  C   UNL     1     -11.206  12.431  67.926  1.00  0.00    -0.266 C  
BRANCH   7   8
HETATM    8  C   UNL     1     -11.467  12.727  66.458  1.00  0.00    -0.409 A  
HETATM    9  C   UNL     1     -11.020  11.828  65.475  1.00  0.00    -0.344 A  
HETATM   10  C   UNL     1     -11.330  12.028  64.130  1.00  0.00    -0.455 A  
HETATM   11  C   UNL     1     -12.219  13.842  66.057  1.00  0.00    -0.495 A  
HETATM   12  C   UNL     1     -12.084  13.136  63.747  1.00  0.00    -0.563 A  
HETATM   13  C   UNL     1     -12.524  14.044  64.708  1.00  0.00    -0.392 A  
ENDBRANCH   7   8
BRANCH   7  14
HETATM   14  C   UNL     1     -11.140  13.671  68.809  1.00  0.00    -0.302 A  
HETATM   15  C   UNL     1     -12.237  15.168  70.388  1.00  0.00    -0.391 A  
HETATM   16  C   UNL     1     -10.022  15.689  69.584  1.00  0.00    -0.290 A  
HETATM   17  C   UNL     1     -12.239  14.002  69.622  1.00  0.00    -0.383 A  
HETATM   18  C   UNL     1     -10.026  14.525  68.813  1.00  0.00    -0.232 A  
HETATM   19  C   UNL     1     -11.130  16.014  70.365  1.00  0.00    -0.376 A  
ENDBRANCH   7  14
ENDBRANCH   6   7
ENDBRANCH   5   6
ENDBRANCH   4   5
ENDBRANCH   2   4
TORSDOF 6
ENDMDL
MODEL       52
REMARK 921   NORMALIZED FREE ENERGY PREDICTED BY IDOCK:   -4.82 KCAL/MOL
REMARK 922        TOTAL FREE ENERGY PREDICTED BY IDOCK:   -7.41 KCAL/MOL
REMARK 923 INTER-LIGAND FREE ENERGY PREDICTED BY IDOCK:   -6.69 KCAL/MOL
REMARK 924 INTRA-LIGAND FREE ENERGY PREDICTED BY IDOCK:   -0.73 KCAL/MOL
REMARK 927      BINDING AFFINITY PREDICTED BY RF-SCORE:    0.00 PKD
ROOT
HETATM    1  C   UNL     1     -11.682   8.640  72.053  1.00  0.00    -0.369 C  
HETATM    2  N   UNL     1     -12.284   9.595  71.117  1.00  0.00    -0.330 NA 
HETATM    3  C   UNL     1     -13.187  10.495  71.832  1.00  0.00    -0.420 C  
ENDROOT
BRANCH   2   4
HETATM    4  C   UNL     1     -11.221  10.325  70.405  1.00  0.00    -0.332 C  
BRANCH   4   5
HETATM    5  C   UNL     1     -11.705  11.375  69.386  1.00  0.00    -0.338 C  
BRANCH   5   6
HETATM    6  O   UNL     1     -11.812  10.870  68.049  1.00  0.00    -0.585 OA 
BRANCH   6   7
HETATM    7  C   UNL     1     -10.662  11.077  67.210  1.00  0.00    -0.265 C  
BRANCH   7   8
HETATM    8  C   UNL     1      -9.852   9.802  67.036  1.00  0.00    -0.245 A  
HETATM    9  C   UNL     1     -10.509   8.562  66.963  1.00  0.00    -0.362 A  
HETATM   10  C   UNL     1      -9.795   7.391  66.707  1.00  0.00    -0.290 A  
HETATM   11  C   UNL     1      -8.460   9.837  66.863  1.00  0.00    -0.120 A  
HETATM   12  C   UNL     1      -8.415   7.441  66.531  1.00  0.00    -0.128 A  
HETATM   13  C   UNL     1      -7.746   8.661  66.612  1.00  0.00    -0.096 A  
ENDBRANCH   7   8
BRANCH   7  14
HETATM   14  C   UNL     1     -11.097  11.722  65.900  1.00  0.00    -0.355 A  
HETATM   15  C   UNL     1     -12.478  13.362  64.741  1.00  0.00    -0.416 A  
HETATM   16  C   UNL     1     -11.119  11.826  63.470  1.00  0.00    -0.503 A  
HETATM   17  C   UNL     1     -12.006  12.796  65.926  1.00  0.00    -0.506 A  
HETATM   18  C   UNL     1     -10.650  11.255  64.655  1.00  0.00    -0.392 A  
HETATM   19  C   UNL     1     -12.038  12.873  63.513  1.00  0.00    -0.633 A  
ENDBRANCH   7  14
ENDBRANCH   6   7
ENDBRANCH   5   6
ENDBRANCH   4   5
ENDBRANCH   2   4
TORSDOF 6
ENDMDL
MODEL       53
REMARK 921   NORMALIZED FREE ENERGY PREDICTED BY IDOCK:   -4.78 KCAL/MOL
REMARK 922        TOTAL FREE ENERGY PREDICTED BY IDOCK:   -7.36 KCAL/MOL
REMARK 923 INTER-LIGAND FREE ENERGY PREDICTED BY IDOCK:   -6.44 KCAL/MOL
REMARK 924 INTRA-LIGAND FREE ENERGY PREDICTED BY IDOCK:   -0.92 KCAL/MOL
REMARK 927      BINDING AFFINITY PREDICTED BY RF-SCORE:    0.00 PKD
ROOT
HETATM    1  C   UNL     1      -9.880   9.769  65.544  1.00  0.00    -0.308 C  
HETATM    2  N   UNL     1     -10.260   8.823  66.598  1.00  0.00    -0.284 NA 
HETATM    3  C   UNL     1      -9.402   7.640  66.543  1.00  0.00    -0.189 C  
ENDROOT
BRANCH   2   4
HETATM    4  C   UNL     1     -10.199   9.493  67.909  1.00  0.00    -0.205 C  
BRANCH   4   5
HETATM    5  C   UNL     1      -9.075  10.534  68.069  1.00  0.00    -0.138 C  
BRANCH   5   6
HETATM    6  O   UNL     1      -9.538  11.815  68.514  1.00  0.00    -0.200 OA 
BRANCH   6   7
HETATM    7  C   UNL     1     -10.925  12.098  68.262  1.00  0.00    -0.234 C  
BRANCH   7   8
HETATM    8  C   UNL     1     -11.670  12.459  69.537  1.00  0.00    -0.388 A  
HETATM    9  C   UNL     1     -11.978  13.803  69.809  1.00  0.00    -0.406 A  
HETATM   10  C   UNL     1     -12.744  14.148  70.923  1.00  0.00    -0.432 A  
HETATM   11  C   UNL     1     -12.136  11.471  70.419  1.00  0.00    -0.471 A  
HETATM   12  C   UNL     1     -13.205  13.156  71.786  1.00  0.00    -0.494 A  
HETATM   13  C   UNL     1     -12.898  11.819  71.537  1.00  0.00    -0.450 A  
ENDBRANCH   7   8
BRANCH   7  14
HETATM   14  C   UNL     1     -11.039  13.142  67.158  1.00  0.00    -0.305 A  
HETATM   15  C   UNL     1     -12.344  14.138  65.356  1.00  0.00    -0.475 A  
HETATM   16  C   UNL     1     -10.088  14.892  65.760  1.00  0.00    -0.367 A  
HETATM   17  C   UNL     1     -12.233  13.241  66.419  1.00  0.00    -0.419 A  
HETATM   18  C   UNL     1      -9.974  13.990  66.821  1.00  0.00    -0.268 A  
HETATM   19  C   UNL     1     -11.269  14.959  65.024  1.00  0.00    -0.408 A  
ENDBRANCH   7  14
ENDBRANCH   6   7
ENDBRANCH   5   6
ENDBRANCH   4   5
ENDBRANCH   2   4
TORSDOF 6
ENDMDL
MODEL       54
REMARK 921   NORMALIZED FREE ENERGY PREDICTED BY IDOCK:   -4.76 KCAL/MOL
REMARK 922        TOTAL FREE ENERGY PREDICTED BY IDOCK:   -7.33 KCAL/MOL
REMARK 923 INTER-LIGAND FREE ENERGY PREDICTED BY IDOCK:   -6.98 KCAL/MOL
REMARK 924 INTRA-LIGAND FREE ENERGY PREDICTED BY IDOCK:   -0.35 KCAL/MOL
REMARK 927      BINDING AFFINITY PREDICTED BY RF-SCORE:    0.00 PKD
ROOT
HETATM    1  C   UNL     1     -14.391  14.992  72.056  1.00  0.00    -0.573 C  
HETATM    2  N   UNL     1     -13.095  15.275  71.429  1.00  0.00    -0.416 NA 
HETATM    3  C   UNL     1     -12.226  15.977  72.372  1.00  0.00    -0.514 C  
ENDROOT
BRANCH   2   4
HETATM    4  C   UNL     1     -12.494  14.018  70.950  1.00  0.00    -0.369 C  
BRANCH   4   5
HETATM    5  C   UNL     1     -11.978  14.042  69.498  1.00  0.00    -0.339 C  
BRANCH   5   6
HETATM    6  O   UNL     1     -11.397  12.802  69.076  1.00  0.00    -0.264 OA 
BRANCH   6   7
HETATM    7  C   UNL     1     -11.721  12.386  67.738  1.00  0.00    -0.350 C  
BRANCH   7   8
HETATM    8  C   UNL     1     -11.520  13.508  66.732  1.00  0.00    -0.374 A  
HETATM    9  C   UNL     1     -10.326  14.248  66.742  1.00  0.00    -0.274 A  
HETATM   10  C   UNL     1     -10.079  15.217  65.769  1.00  0.00    -0.384 A  
HETATM   11  C   UNL     1     -12.467  13.774  65.732  1.00  0.00    -0.527 A  
HETATM   12  C   UNL     1     -11.026  15.466  64.778  1.00  0.00    -0.411 A  
HETATM   13  C   UNL     1     -12.221  14.749  64.761  1.00  0.00    -0.356 A  
ENDBRANCH   7   8
BRANCH   7  14
HETATM   14  C   UNL     1     -10.962  11.107  67.405  1.00  0.00    -0.347 A  
HETATM   15  C   UNL     1      -9.855   9.713  65.741  1.00  0.00    -0.373 A  
HETATM   16  C   UNL     1     -10.105   8.909  68.002  1.00  0.00    -0.239 A  
HETATM   17  C   UNL     1     -10.491  10.904  66.094  1.00  0.00    -0.290 A  
HETATM   18  C   UNL     1     -10.747  10.098  68.356  1.00  0.00    -0.266 A  
HETATM   19  C   UNL     1      -9.667   8.714  66.693  1.00  0.00    -0.315 A  
ENDBRANCH   7  14
ENDBRANCH   6   7
ENDBRANCH   5   6
ENDBRANCH   4   5
ENDBRANCH   2   4
TORSDOF 6
ENDMDL
MODEL       55
REMARK 921   NORMALIZED FREE ENERGY PREDICTED BY IDOCK:   -4.75 KCAL/MOL
REMARK 922        TOTAL FREE ENERGY PREDICTED BY IDOCK:   -7.32 KCAL/MOL
REMARK 923 INTER-LIGAND FREE ENERGY PREDICTED BY IDOCK:   -6.54 KCAL/MOL
REMARK 924 INTRA-LIGAND FREE ENERGY PREDICTED BY IDOCK:   -0.78 KCAL/MOL
REMARK 927      BINDING AFFINITY PREDICTED BY RF-SCORE:    0.00 PKD
ROOT
HETATM    1  C   UNL     1      -6.338  16.455  68.586  1.00  0.00    -0.133 C  
HETATM    2  N   UNL     1      -7.484  17.323  68.875  1.00  0.00    -0.254 NA 
HETATM    3  C   UNL     1      -7.688  18.265  67.775  1.00  0.00    -0.235 C  
ENDROOT
BRANCH   2   4
HETATM    4  C   UNL     1      -8.677  16.497  69.128  1.00  0.00    -0.150 C  
BRANCH   4   5
HETATM    5  C   UNL     1      -9.650  16.356  67.941  1.00  0.00    -0.228 C  
BRANCH   5   6
HETATM    6  O   UNL     1     -10.956  15.905  68.320  1.00  0.00    -0.299 OA 
BRANCH   6   7
HETATM    7  C   UNL     1     -11.057  14.515  68.675  1.00  0.00    -0.257 C  
BRANCH   7   8
HETATM    8  C   UNL     1     -11.937  14.306  69.897  1.00  0.00    -0.397 A  
HETATM    9  C   UNL     1     -12.533  15.413  70.526  1.00  0.00    -0.468 A  
HETATM   10  C   UNL     1     -13.420  15.238  71.589  1.00  0.00    -0.573 A  
HETATM   11  C   UNL     1     -12.240  13.021  70.371  1.00  0.00    -0.386 A  
HETATM   12  C   UNL     1     -13.716  13.955  72.044  1.00  0.00    -0.577 A  
HETATM   13  C   UNL     1     -13.124  12.848  71.440  1.00  0.00    -0.331 A  
ENDBRANCH   7   8
BRANCH   7  14
HETATM   14  C   UNL     1     -11.484  13.708  67.455  1.00  0.00    -0.360 A  
HETATM   15  C   UNL     1     -11.248  11.698  66.098  1.00  0.00    -0.314 A  
HETATM   16  C   UNL     1     -12.708  13.473  65.365  1.00  0.00    -0.495 A  
HETATM   17  C   UNL     1     -10.931  12.432  67.242  1.00  0.00    -0.302 A  
HETATM   18  C   UNL     1     -12.388  14.212  66.507  1.00  0.00    -0.405 A  
HETATM   19  C   UNL     1     -12.132  12.221  65.158  1.00  0.00    -0.379 A  
ENDBRANCH   7  14
ENDBRANCH   6   7
ENDBRANCH   5   6
ENDBRANCH   4   5
ENDBRANCH   2   4
TORSDOF 6
ENDMDL
MODEL       56
REMARK 921   NORMALIZED FREE ENERGY PREDICTED BY IDOCK:   -4.73 KCAL/MOL
REMARK 922        TOTAL FREE ENERGY PREDICTED BY IDOCK:   -7.28 KCAL/MOL
REMARK 923 INTER-LIGAND FREE ENERGY PREDICTED BY IDOCK:   -6.33 KCAL/MOL
REMARK 924 INTRA-LIGAND FREE ENERGY PREDICTED BY IDOCK:   -0.95 KCAL/MOL
REMARK 927      BINDING AFFINITY PREDICTED BY RF-SCORE:    0.00 PKD
ROOT
HETATM    1  C   UNL     1     -10.442  11.135  65.192  1.00  0.00    -0.277 C  
HETATM    2  N   UNL     1     -11.009  12.427  64.793  1.00  0.00    -0.290 NA 
HETATM    3  C   UNL     1     -11.167  12.478  63.340  1.00  0.00    -0.397 C  
ENDROOT
BRANCH   2   4
HETATM    4  C   UNL     1     -12.283  12.647  65.499  1.00  0.00    -0.440 C  
BRANCH   4   5
HETATM    5  C   UNL     1     -12.373  13.952  66.313  1.00  0.00    -0.449 C  
BRANCH   5   6
HETATM    6  O   UNL     1     -11.492  13.986  67.442  1.00  0.00    -0.312 OA 
BRANCH   6   7
HETATM    7  C   UNL     1     -11.907  13.211  68.580  1.00  0.00    -0.328 C  
BRANCH   7   8
HETATM    8  C   UNL     1     -10.997  12.015  68.812  1.00  0.00    -0.282 A  
HETATM    9  C   UNL     1      -9.621  12.124  68.549  1.00  0.00    -0.137 A  
HETATM   10  C   UNL     1      -8.752  11.073  68.845  1.00  0.00    -0.122 A  
HETATM   11  C   UNL     1     -11.482  10.820  69.365  1.00  0.00    -0.366 A  
HETATM   12  C   UNL     1      -9.248   9.896  69.399  1.00  0.00    -0.225 A  
HETATM   13  C   UNL     1     -10.611   9.766  69.656  1.00  0.00    -0.260 A  
ENDBRANCH   7   8
BRANCH   7  14
HETATM   14  C   UNL     1     -12.058  14.123  69.791  1.00  0.00    -0.409 A  
HETATM   15  C   UNL     1     -11.448  16.185  70.937  1.00  0.00    -0.421 A  
HETATM   16  C   UNL     1     -12.883  14.585  72.033  1.00  0.00    -0.409 A  
HETATM   17  C   UNL     1     -11.387  15.359  69.814  1.00  0.00    -0.317 A  
HETATM   18  C   UNL     1     -12.818  13.755  70.912  1.00  0.00    -0.341 A  
HETATM   19  C   UNL     1     -12.192  15.795  72.048  1.00  0.00    -0.548 A  
ENDBRANCH   7  14
ENDBRANCH   6   7
ENDBRANCH   5   6
ENDBRANCH   4   5
ENDBRANCH   2   4
TORSDOF 6
ENDMDL
MODEL       57
REMARK 921   NORMALIZED FREE ENERGY PREDICTED BY IDOCK:   -4.72 KCAL/MOL
REMARK 922        TOTAL FREE ENERGY PREDICTED BY IDOCK:   -7.28 KCAL/MOL
REMARK 923 INTER-LIGAND FREE ENERGY PREDICTED BY IDOCK:   -6.46 KCAL/MOL
REMARK 924 INTRA-LIGAND FREE ENERGY PREDICTED BY IDOCK:   -0.82 KCAL/MOL
REMARK 927      BINDING AFFINITY PREDICTED BY RF-SCORE:    0.00 PKD
ROOT
HETATM    1  C   UNL     1      -9.372   9.794  66.844  1.00  0.00    -0.149 C  
HETATM    2  N   UNL     1     -10.465   9.089  67.522  1.00  0.00    -0.266 NA 
HETATM    3  C   UNL     1     -10.524   7.701  67.067  1.00  0.00    -0.349 C  
ENDROOT
BRANCH   2   4
HETATM    4  C   UNL     1     -10.286   9.189  68.981  1.00  0.00    -0.215 C  
BRANCH   4   5
HETATM    5  C   UNL     1     -11.384   9.966  69.732  1.00  0.00    -0.193 C  
BRANCH   5   6
HETATM    6  O   UNL     1     -11.041  11.332  69.998  1.00  0.00    -0.194 OA 
BRANCH   6   7
HETATM    7  C   UNL     1     -11.910  12.318  69.416  1.00  0.00    -0.310 C  
BRANCH   7   8
HETATM    8  C   UNL     1     -12.459  13.276  70.461  1.00  0.00    -0.332 A  
HETATM    9  C   UNL     1     -12.427  14.661  70.224  1.00  0.00    -0.401 A  
HETATM   10  C   UNL     1     -13.011  15.553  71.123  1.00  0.00    -0.560 A  
HETATM   11  C   UNL     1     -13.076  12.809  71.631  1.00  0.00    -0.428 A  
HETATM   12  C   UNL     1     -13.626  15.074  72.278  1.00  0.00    -0.547 A  
HETATM   13  C   UNL     1     -13.656  13.705  72.535  1.00  0.00    -0.675 A  
ENDBRANCH   7   8
BRANCH   7  14
HETATM   14  C   UNL     1     -11.199  13.003  68.255  1.00  0.00    -0.309 A  
HETATM   15  C   UNL     1      -9.135  13.871  67.295  1.00  0.00    -0.230 A  
HETATM   16  C   UNL     1     -11.222  14.179  66.125  1.00  0.00    -0.326 A  
HETATM   17  C   UNL     1      -9.805  13.185  68.309  1.00  0.00    -0.227 A  
HETATM   18  C   UNL     1     -11.895  13.498  67.142  1.00  0.00    -0.430 A  
HETATM   19  C   UNL     1      -9.844  14.372  66.207  1.00  0.00    -0.321 A  
ENDBRANCH   7  14
ENDBRANCH   6   7
ENDBRANCH   5   6
ENDBRANCH   4   5
ENDBRANCH   2   4
TORSDOF 6
ENDMDL
MODEL       58
REMARK 921   NORMALIZED FREE ENERGY PREDICTED BY IDOCK:   -4.72 KCAL/MOL
REMARK 922        TOTAL FREE ENERGY PREDICTED BY IDOCK:   -7.28 KCAL/MOL
REMARK 923 INTER-LIGAND FREE ENERGY PREDICTED BY IDOCK:   -6.20 KCAL/MOL
REMARK 924 INTRA-LIGAND FREE ENERGY PREDICTED BY IDOCK:   -1.08 KCAL/MOL
REMARK 927      BINDING AFFINITY PREDICTED BY RF-SCORE:    0.00 PKD
ROOT
HETATM    1  C   UNL     1     -10.348  11.939  64.533  1.00  0.00    -0.292 C  
HETATM    2  N   UNL     1     -10.621  13.031  65.473  1.00  0.00    -0.277 NA 
HETATM    3  C   UNL     1     -10.682  14.304  64.757  1.00  0.00    -0.416 C  
ENDROOT
BRANCH   2   4
HETATM    4  C   UNL     1     -11.865  12.748  66.210  1.00  0.00    -0.423 C  
BRANCH   4   5
HETATM    5  C   UNL     1     -11.777  12.900  67.741  1.00  0.00    -0.362 C  
BRANCH   5   6
HETATM    6  O   UNL     1     -12.095  11.699  68.456  1.00  0.00    -0.491 OA 
BRANCH   6   7
HETATM    7  C   UNL     1     -10.996  11.069  69.136  1.00  0.00    -0.237 C  
BRANCH   7   8
HETATM    8  C   UNL     1     -11.468  10.216  70.303  1.00  0.00    -0.381 A  
HETATM    9  C   UNL     1     -10.564   9.353  70.947  1.00  0.00    -0.390 A  
HETATM   10  C   UNL     1     -10.948   8.633  72.079  1.00  0.00    -0.432 A  
HETATM   11  C   UNL     1     -12.770  10.327  70.813  1.00  0.00    -0.434 A  
HETATM   12  C   UNL     1     -12.242   8.758  72.578  1.00  0.00    -0.347 A  
HETATM   13  C   UNL     1     -13.154   9.600  71.944  1.00  0.00    -0.530 A  
ENDBRANCH   7   8
BRANCH   7  14
HETATM   14  C   UNL     1     -10.132  10.322  68.128  1.00  0.00    -0.175 A  
HETATM   15  C   UNL     1      -7.986  10.072  67.000  1.00  0.00    -0.106 A  
HETATM   16  C   UNL     1      -9.847   8.676  66.358  1.00  0.00    -0.341 A  
HETATM   17  C   UNL     1      -8.784  10.689  67.965  1.00  0.00    -0.126 A  
HETATM   18  C   UNL     1     -10.647   9.297  67.319  1.00  0.00    -0.303 A  
HETATM   19  C   UNL     1      -8.520   9.070  66.194  1.00  0.00    -0.135 A  
ENDBRANCH   7  14
ENDBRANCH   6   7
ENDBRANCH   5   6
ENDBRANCH   4   5
ENDBRANCH   2   4
TORSDOF 6
ENDMDL
MODEL       59
REMARK 921   NORMALIZED FREE ENERGY PREDICTED BY IDOCK:   -4.71 KCAL/MOL
REMARK 922        TOTAL FREE ENERGY PREDICTED BY IDOCK:   -7.26 KCAL/MOL
REMARK 923 INTER-LIGAND FREE ENERGY PREDICTED BY IDOCK:   -6.90 KCAL/MOL
REMARK 924 INTRA-LIGAND FREE ENERGY PREDICTED BY IDOCK:   -0.36 KCAL/MOL
REMARK 927      BINDING AFFINITY PREDICTED BY RF-SCORE:    0.00 PKD
ROOT
HETATM    1  C   UNL     1     -11.776   6.748  70.477  1.00  0.00    -0.375 C  
HETATM    2  N   UNL     1     -12.425   7.189  71.716  1.00  0.00    -0.343 NA 
HETATM    3  C   UNL     1     -11.418   7.627  72.681  1.00  0.00    -0.349 C  
ENDROOT
BRANCH   2   4
HETATM    4  C   UNL     1     -13.401   8.249  71.411  1.00  0.00    -0.210 C  
BRANCH   4   5
HETATM    5  C   UNL     1     -13.386   9.459  72.365  1.00  0.00    -0.424 C  
BRANCH   5   6
HETATM    6  O   UNL     1     -12.415  10.453  72.016  1.00  0.00    -0.290 OA 
BRANCH   6   7
HETATM    7  C   UNL     1     -12.725  11.249  70.859  1.00  0.00    -0.318 C  
BRANCH   7   8
HETATM    8  C   UNL     1     -12.885  12.720  71.212  1.00  0.00    -0.355 A  
HETATM    9  C   UNL     1     -12.353  13.703  70.360  1.00  0.00    -0.415 A  
HETATM   10  C   UNL     1     -12.570  15.058  70.611  1.00  0.00    -0.429 A  
HETATM   11  C   UNL     1     -13.627  13.129  72.330  1.00  0.00    -0.677 A  
HETATM   12  C   UNL     1     -13.315  15.449  71.722  1.00  0.00    -0.567 A  
HETATM   13  C   UNL     1     -13.840  14.487  72.583  1.00  0.00    -0.483 A  
ENDBRANCH   7   8
BRANCH   7  14
HETATM   14  C   UNL     1     -11.701  10.979  69.765  1.00  0.00    -0.410 A  
HETATM   15  C   UNL     1     -11.129  10.989  67.396  1.00  0.00    -0.370 A  
HETATM   16  C   UNL     1      -9.566  10.094  69.002  1.00  0.00    -0.202 A  
HETATM   17  C   UNL     1     -12.017  11.290  68.429  1.00  0.00    -0.255 A  
HETATM   18  C   UNL     1     -10.457  10.389  70.037  1.00  0.00    -0.235 A  
HETATM   19  C   UNL     1      -9.906  10.387  67.682  1.00  0.00    -0.197 A  
ENDBRANCH   7  14
ENDBRANCH   6   7
ENDBRANCH   5   6
ENDBRANCH   4   5
ENDBRANCH   2   4
TORSDOF 6
ENDMDL
MODEL       60
REMARK 921   NORMALIZED FREE ENERGY PREDICTED BY IDOCK:   -4.68 KCAL/MOL
REMARK 922        TOTAL FREE ENERGY PREDICTED BY IDOCK:   -7.22 KCAL/MOL
REMARK 923 INTER-LIGAND FREE ENERGY PREDICTED BY IDOCK:   -6.36 KCAL/MOL
REMARK 924 INTRA-LIGAND FREE ENERGY PREDICTED BY IDOCK:   -0.86 KCAL/MOL
REMARK 927      BINDING AFFINITY PREDICTED BY RF-SCORE:    0.00 PKD
ROOT
HETATM    1  C   UNL     1     -10.903  16.825  69.318  1.00  0.00    -0.275 C  
HETATM    2  N   UNL     1     -11.030  17.179  67.900  1.00  0.00    -0.293 NA 
HETATM    3  C   UNL     1     -10.474  18.511  67.665  1.00  0.00    -0.417 C  
ENDROOT
BRANCH   2   4
HETATM    4  C   UNL     1     -10.375  16.150  67.074  1.00  0.00    -0.290 C  
BRANCH   4   5
HETATM    5  C   UNL     1      -9.535  15.115  67.846  1.00  0.00    -0.194 C  
BRANCH   5   6
HETATM    6  O   UNL     1      -9.667  13.779  67.344  1.00  0.00    -0.226 OA 
BRANCH   6   7
HETATM    7  C   UNL     1     -11.014  13.295  67.207  1.00  0.00    -0.268 C  
BRANCH   7   8
HETATM    8  C   UNL     1     -11.301  12.814  65.793  1.00  0.00    -0.357 A  
HETATM    9  C   UNL     1     -10.268  12.250  65.026  1.00  0.00    -0.312 A  
HETATM   10  C   UNL     1     -10.528  11.715  63.764  1.00  0.00    -0.454 A  
HETATM   11  C   UNL     1     -12.598  12.843  65.258  1.00  0.00    -0.502 A  
HETATM   12  C   UNL     1     -11.822  11.744  63.248  1.00  0.00    -0.342 A  
HETATM   13  C   UNL     1     -12.855  12.311  63.992  1.00  0.00    -0.387 A  
ENDBRANCH   7   8
BRANCH   7  14
HETATM   14  C   UNL     1     -11.296  12.258  68.287  1.00  0.00    -0.339 A  
HETATM   15  C   UNL     1     -12.153  11.741  70.509  1.00  0.00    -0.439 A  
HETATM   16  C   UNL     1     -11.109  10.008  69.194  1.00  0.00    -0.232 A  
HETATM   17  C   UNL     1     -11.944  12.652  69.472  1.00  0.00    -0.332 A  
HETATM   18  C   UNL     1     -10.894  10.920  68.158  1.00  0.00    -0.283 A  
HETATM   19  C   UNL     1     -11.730  10.421  70.372  1.00  0.00    -0.419 A  
ENDBRANCH   7  14
ENDBRANCH   6   7
ENDBRANCH   5   6
ENDBRANCH   4   5
ENDBRANCH   2   4
TORSDOF 6
ENDMDL
MODEL       61
REMARK 921   NORMALIZED FREE ENERGY PREDICTED BY IDOCK:   -4.67 KCAL/MOL
REMARK 922        TOTAL FREE ENERGY PREDICTED BY IDOCK:   -7.21 KCAL/MOL
REMARK 923 INTER-LIGAND FREE ENERGY PREDICTED BY IDOCK:   -6.64 KCAL/MOL
REMARK 924 INTRA-LIGAND FREE ENERGY PREDICTED BY IDOCK:   -0.57 KCAL/MOL
REMARK 927      BINDING AFFINITY PREDICTED BY RF-SCORE:    0.00 PKD
ROOT
HETATM    1  C   UNL     1      -8.755  10.494  65.356  1.00  0.00    -0.183 C  
HETATM    2  N   UNL     1      -9.827  11.415  64.964  1.00  0.00    -0.252 NA 
HETATM    3  C   UNL     1     -10.359  11.037  63.656  1.00  0.00    -0.352 C  
ENDROOT
BRANCH   2   4
HETATM    4  C   UNL     1     -10.870  11.431  66.005  1.00  0.00    -0.249 C  
BRANCH   4   5
HETATM    5  C   UNL     1     -10.632  10.483  67.196  1.00  0.00    -0.264 C  
BRANCH   5   6
HETATM    6  O   UNL     1     -10.553  11.157  68.458  1.00  0.00    -0.173 OA 
BRANCH   6   7
HETATM    7  C   UNL     1     -11.797  11.302  69.166  1.00  0.00    -0.355 C  
BRANCH   7   8
HETATM    8  C   UNL     1     -11.898  10.336  70.336  1.00  0.00    -0.396 A  
HETATM    9  C   UNL     1     -13.160  10.002  70.857  1.00  0.00    -0.381 A  
HETATM   10  C   UNL     1     -13.285   9.045  71.865  1.00  0.00    -0.462 A  
HETATM   11  C   UNL     1     -10.764   9.699  70.861  1.00  0.00    -0.402 A  
HETATM   12  C   UNL     1     -12.150   8.417  72.372  1.00  0.00    -0.443 A  
HETATM   13  C   UNL     1     -10.890   8.745  71.875  1.00  0.00    -0.431 A  
ENDBRANCH   7   8
BRANCH   7  14
HETATM   14  C   UNL     1     -11.999  12.764  69.546  1.00  0.00    -0.338 A  
HETATM   15  C   UNL     1     -11.799  15.119  68.954  1.00  0.00    -0.337 A  
HETATM   16  C   UNL     1     -12.562  14.498  71.157  1.00  0.00    -0.406 A  
HETATM   17  C   UNL     1     -11.691  13.771  68.612  1.00  0.00    -0.391 A  
HETATM   18  C   UNL     1     -12.449  13.148  70.818  1.00  0.00    -0.389 A  
HETATM   19  C   UNL     1     -12.229  15.482  70.228  1.00  0.00    -0.432 A  
ENDBRANCH   7  14
ENDBRANCH   6   7
ENDBRANCH   5   6
ENDBRANCH   4   5
ENDBRANCH   2   4
TORSDOF 6
ENDMDL
MODEL       62
REMARK 921   NORMALIZED FREE ENERGY PREDICTED BY IDOCK:   -4.66 KCAL/MOL
REMARK 922        TOTAL FREE ENERGY PREDICTED BY IDOCK:   -7.20 KCAL/MOL
REMARK 923 INTER-LIGAND FREE ENERGY PREDICTED BY IDOCK:   -6.27 KCAL/MOL
REMARK 924 INTRA-LIGAND FREE ENERGY PREDICTED BY IDOCK:   -0.93 KCAL/MOL
REMARK 927      BINDING AFFINITY PREDICTED BY RF-SCORE:    0.00 PKD
ROOT
HETATM    1  C   UNL     1     -10.012  10.439  64.825  1.00  0.00    -0.339 C  
HETATM    2  N   UNL     1     -10.219  11.885  64.955  1.00  0.00    -0.269 NA 
HETATM    3  C   UNL     1     -10.711  12.436  63.694  1.00  0.00    -0.455 C  
ENDROOT
BRANCH   2   4
HETATM    4  C   UNL     1     -11.138  12.154  66.075  1.00  0.00    -0.313 C  
BRANCH   4   5
HETATM    5  C   UNL     1     -12.262  13.167  65.782  1.00  0.00    -0.456 C  
BRANCH   5   6
HETATM    6  O   UNL     1     -12.299  14.264  66.703  1.00  0.00    -0.446 OA 
BRANCH   6   7
HETATM    7  C   UNL     1     -11.275  14.266  67.713  1.00  0.00    -0.291 C  
BRANCH   7   8
HETATM    8  C   UNL     1     -10.370  15.482  67.598  1.00  0.00    -0.269 A  
HETATM    9  C   UNL     1     -10.718  16.531  66.730  1.00  0.00    -0.155 A  
HETATM   10  C   UNL     1      -9.955  17.698  66.679  1.00  0.00    -0.328 A  
HETATM   11  C   UNL     1      -9.229  15.626  68.401  1.00  0.00    -0.191 A  
HETATM   12  C   UNL     1      -8.829  17.830  67.488  1.00  0.00    -0.243 A  
HETATM   13  C   UNL     1      -8.463  16.794  68.345  1.00  0.00    -0.231 A  
ENDBRANCH   7   8
BRANCH   7  14
HETATM   14  C   UNL     1     -11.911  14.091  69.085  1.00  0.00    -0.400 A  
HETATM   15  C   UNL     1     -12.974  15.095  71.035  1.00  0.00    -0.494 A  
HETATM   16  C   UNL     1     -12.481  12.734  71.023  1.00  0.00    -0.369 A  
HETATM   17  C   UNL     1     -12.447  15.210  69.748  1.00  0.00    -0.221 A  
HETATM   18  C   UNL     1     -11.948  12.848  69.737  1.00  0.00    -0.365 A  
HETATM   19  C   UNL     1     -12.985  13.858  71.674  1.00  0.00    -0.433 A  
ENDBRANCH   7  14
ENDBRANCH   6   7
ENDBRANCH   5   6
ENDBRANCH   4   5
ENDBRANCH   2   4
TORSDOF 6
ENDMDL
MODEL       63
REMARK 921   NORMALIZED FREE ENERGY PREDICTED BY IDOCK:   -4.64 KCAL/MOL
REMARK 922        TOTAL FREE ENERGY PREDICTED BY IDOCK:   -7.16 KCAL/MOL
REMARK 923 INTER-LIGAND FREE ENERGY PREDICTED BY IDOCK:   -6.19 KCAL/MOL
REMARK 924 INTRA-LIGAND FREE ENERGY PREDICTED BY IDOCK:   -0.97 KCAL/MOL
REMARK 927      BINDING AFFINITY PREDICTED BY RF-SCORE:    0.00 PKD
ROOT
HETATM    1  C   UNL     1      -6.755  11.804  67.032  1.00  0.00    -0.139 C  
HETATM    2  N   UNL     1      -7.987  12.582  67.197  1.00  0.00    -0.166 NA 
HETATM    3  C   UNL     1      -9.064  11.720  67.680  1.00  0.00    -0.177 C  
ENDROOT
BRANCH   2   4
HETATM    4  C   UNL     1      -7.736  13.718  68.101  1.00  0.00    -0.140 C  
BRANCH   4   5
HETATM    5  C   UNL     1      -7.197  14.995  67.428  1.00  0.00    -0.194 C  
BRANCH   5   6
HETATM    6  O   UNL     1      -8.106  15.573  66.483  1.00  0.00    -0.225 OA 
BRANCH   6   7
HETATM    7  C   UNL     1      -9.355  16.037  67.023  1.00  0.00    -0.218 C  
BRANCH   7   8
HETATM    8  C   UNL     1      -9.497  17.546  66.904  1.00  0.00    -0.278 A  
HETATM    9  C   UNL     1     -10.626  18.185  67.444  1.00  0.00    -0.406 A  
HETATM   10  C   UNL     1     -10.732  19.576  67.432  1.00  0.00    -0.589 A  
HETATM   11  C   UNL     1      -8.484  18.335  66.339  1.00  0.00    -0.266 A  
HETATM   12  C   UNL     1      -9.716  20.347  66.873  1.00  0.00    -0.567 A  
HETATM   13  C   UNL     1      -8.595  19.729  66.323  1.00  0.00    -0.397 A  
ENDBRANCH   7   8
BRANCH   7  14
HETATM   14  C   UNL     1     -10.503  15.252  66.399  1.00  0.00    -0.307 A  
HETATM   15  C   UNL     1     -11.866  14.753  64.442  1.00  0.00    -0.393 A  
HETATM   16  C   UNL     1     -12.411  13.752  66.569  1.00  0.00    -0.432 A  
HETATM   17  C   UNL     1     -10.779  15.403  65.028  1.00  0.00    -0.460 A  
HETATM   18  C   UNL     1     -11.326  14.407  67.158  1.00  0.00    -0.356 A  
HETATM   19  C   UNL     1     -12.685  13.932  65.214  1.00  0.00    -0.485 A  
ENDBRANCH   7  14
ENDBRANCH   6   7
ENDBRANCH   5   6
ENDBRANCH   4   5
ENDBRANCH   2   4
TORSDOF 6
ENDMDL
MODEL       64
REMARK 921   NORMALIZED FREE ENERGY PREDICTED BY IDOCK:   -4.59 KCAL/MOL
REMARK 922        TOTAL FREE ENERGY PREDICTED BY IDOCK:   -7.09 KCAL/MOL
REMARK 923 INTER-LIGAND FREE ENERGY PREDICTED BY IDOCK:   -6.22 KCAL/MOL
REMARK 924 INTRA-LIGAND FREE ENERGY PREDICTED BY IDOCK:   -0.88 KCAL/MOL
REMARK 927      BINDING AFFINITY PREDICTED BY RF-SCORE:    0.00 PKD
ROOT
HETATM    1  C   UNL     1      -7.176  10.223  66.059  1.00  0.00    -0.128 C  
HETATM    2  N   UNL     1      -8.510  10.576  65.563  1.00  0.00    -0.170 NA 
HETATM    3  C   UNL     1      -8.951   9.598  64.570  1.00  0.00    -0.235 C  
ENDROOT
BRANCH   2   4
HETATM    4  C   UNL     1      -9.447  10.679  66.696  1.00  0.00    -0.167 C  
BRANCH   4   5
HETATM    5  C   UNL     1      -9.073  11.715  67.773  1.00  0.00    -0.175 C  
BRANCH   5   6
HETATM    6  O   UNL     1     -10.188  12.149  68.562  1.00  0.00    -0.216 OA 
BRANCH   6   7
HETATM    7  C   UNL     1     -10.481  13.556  68.506  1.00  0.00    -0.244 C  
BRANCH   7   8
HETATM    8  C   UNL     1     -10.914  13.989  67.115  1.00  0.00    -0.303 A  
HETATM    9  C   UNL     1     -12.106  13.485  66.567  1.00  0.00    -0.460 A  
HETATM   10  C   UNL     1     -12.573  13.940  65.334  1.00  0.00    -0.538 A  
HETATM   11  C   UNL     1     -10.194  14.950  66.388  1.00  0.00    -0.292 A  
HETATM   12  C   UNL     1     -11.851  14.899  64.627  1.00  0.00    -0.412 A  
HETATM   13  C   UNL     1     -10.661  15.401  65.150  1.00  0.00    -0.460 A  
ENDBRANCH   7   8
BRANCH   7  14
HETATM   14  C   UNL     1     -11.471  13.914  69.607  1.00  0.00    -0.310 A  
HETATM   15  C   UNL     1     -13.020  13.179  71.339  1.00  0.00    -0.386 A  
HETATM   16  C   UNL     1     -12.815  15.529  70.835  1.00  0.00    -0.535 A  
HETATM   17  C   UNL     1     -12.057  12.888  70.372  1.00  0.00    -0.385 A  
HETATM   18  C   UNL     1     -11.855  15.240  69.863  1.00  0.00    -0.363 A  
HETATM   19  C   UNL     1     -13.402  14.498  71.566  1.00  0.00    -0.435 A  
ENDBRANCH   7  14
ENDBRANCH   6   7
ENDBRANCH   5   6
ENDBRANCH   4   5
ENDBRANCH   2   4
TORSDOF 6
ENDMDL
MODEL       65
REMARK 921   NORMALIZED FREE ENERGY PREDICTED BY IDOCK:   -4.55 KCAL/MOL
REMARK 922        TOTAL FREE ENERGY PREDICTED BY IDOCK:   -7.04 KCAL/MOL
REMARK 923 INTER-LIGAND FREE ENERGY PREDICTED BY IDOCK:   -6.33 KCAL/MOL
REMARK 924 INTRA-LIGAND FREE ENERGY PREDICTED BY IDOCK:   -0.72 KCAL/MOL
REMARK 927      BINDING AFFINITY PREDICTED BY RF-SCORE:    0.00 PKD
ROOT
HETATM    1  C   UNL     1     -12.382  12.425  63.762  1.00  0.00    -0.528 C  
HETATM    2  N   UNL     1     -12.570  12.807  65.166  1.00  0.00    -0.641 NA 
HETATM    3  C   UNL     1     -11.567  12.150  66.002  1.00  0.00    -0.358 C  
ENDROOT
BRANCH   2   4
HETATM    4  C   UNL     1     -12.522  14.274  65.289  1.00  0.00    -0.421 C  
BRANCH   4   5
HETATM    5  C   UNL     1     -11.115  14.899  65.226  1.00  0.00    -0.378 C  
BRANCH   5   6
HETATM    6  O   UNL     1     -10.756  15.623  66.410  1.00  0.00    -0.306 OA 
BRANCH   6   7
HETATM    7  C   UNL     1      -9.440  16.204  66.410  1.00  0.00    -0.295 C  
BRANCH   7   8
HETATM    8  C   UNL     1      -9.485  17.705  66.650  1.00  0.00    -0.288 A  
HETATM    9  C   UNL     1     -10.627  18.285  67.228  1.00  0.00    -0.406 A  
HETATM   10  C   UNL     1     -10.654  19.644  67.546  1.00  0.00    -0.577 A  
HETATM   11  C   UNL     1      -8.376  18.523  66.386  1.00  0.00    -0.278 A  
HETATM   12  C   UNL     1      -9.544  20.442  67.283  1.00  0.00    -0.592 A  
HETATM   13  C   UNL     1      -8.407  19.885  66.700  1.00  0.00    -0.369 A  
ENDBRANCH   7   8
BRANCH   7  14
HETATM   14  C   UNL     1      -8.548  15.444  67.383  1.00  0.00    -0.197 A  
HETATM   15  C   UNL     1      -7.438  15.342  69.550  1.00  0.00    -0.214 A  
HETATM   16  C   UNL     1      -7.056  13.600  67.926  1.00  0.00    -0.151 A  
HETATM   17  C   UNL     1      -8.306  15.978  68.663  1.00  0.00    -0.203 A  
HETATM   18  C   UNL     1      -7.921  14.238  67.034  1.00  0.00    -0.013 A  
HETATM   19  C   UNL     1      -6.809  14.156  69.180  1.00  0.00    -0.113 A  
ENDBRANCH   7  14
ENDBRANCH   6   7
ENDBRANCH   5   6
ENDBRANCH   4   5
ENDBRANCH   2   4
TORSDOF 6
ENDMDL
MODEL       66
REMARK 921   NORMALIZED FREE ENERGY PREDICTED BY IDOCK:   -4.50 KCAL/MOL
REMARK 922        TOTAL FREE ENERGY PREDICTED BY IDOCK:   -6.97 KCAL/MOL
REMARK 923 INTER-LIGAND FREE ENERGY PREDICTED BY IDOCK:   -6.17 KCAL/MOL
REMARK 924 INTRA-LIGAND FREE ENERGY PREDICTED BY IDOCK:   -0.80 KCAL/MOL
REMARK 927      BINDING AFFINITY PREDICTED BY RF-SCORE:    0.00 PKD
ROOT
HETATM    1  C   UNL     1     -12.399  12.113  63.550  1.00  0.00    -0.574 C  
HETATM    2  N   UNL     1     -11.148  11.422  63.877  1.00  0.00    -0.376 NA 
HETATM    3  C   UNL     1     -10.025  12.079  63.210  1.00  0.00    -0.307 C  
ENDROOT
BRANCH   2   4
HETATM    4  C   UNL     1     -10.976  11.376  65.339  1.00  0.00    -0.184 C  
BRANCH   4   5
HETATM    5  C   UNL     1     -11.205  12.709  66.076  1.00  0.00    -0.306 C  
BRANCH   5   6
HETATM    6  O   UNL     1     -11.044  12.614  67.497  1.00  0.00    -0.249 OA 
BRANCH   6   7
HETATM    7  C   UNL     1     -11.517  13.741  68.255  1.00  0.00    -0.312 C  
BRANCH   7   8
HETATM    8  C   UNL     1     -12.089  13.318  69.599  1.00  0.00    -0.331 A  
HETATM    9  C   UNL     1     -12.654  14.283  70.451  1.00  0.00    -0.405 A  
HETATM   10  C   UNL     1     -13.270  13.907  71.645  1.00  0.00    -0.446 A  
HETATM   11  C   UNL     1     -12.143  11.970  69.981  1.00  0.00    -0.355 A  
HETATM   12  C   UNL     1     -13.323  12.563  72.008  1.00  0.00    -0.528 A  
HETATM   13  C   UNL     1     -12.757  11.595  71.180  1.00  0.00    -0.426 A  
ENDBRANCH   7   8
BRANCH   7  14
HETATM   14  C   UNL     1     -10.417  14.790  68.348  1.00  0.00    -0.243 A  
HETATM   15  C   UNL     1      -9.689  17.087  67.981  1.00  0.00    -0.260 A  
HETATM   16  C   UNL     1      -8.111  15.442  68.772  1.00  0.00    -0.166 A  
HETATM   17  C   UNL     1     -10.694  16.118  67.974  1.00  0.00    -0.321 A  
HETATM   18  C   UNL     1      -9.114  14.471  68.760  1.00  0.00    -0.158 A  
HETATM   19  C   UNL     1      -8.397  16.747  68.375  1.00  0.00    -0.222 A  
ENDBRANCH   7  14
ENDBRANCH   6   7
ENDBRANCH   5   6
ENDBRANCH   4   5
ENDBRANCH   2   4
TORSDOF 6
ENDMDL
MODEL       67
REMARK 921   NORMALIZED FREE ENERGY PREDICTED BY IDOCK:   -4.49 KCAL/MOL
REMARK 922        TOTAL FREE ENERGY PREDICTED BY IDOCK:   -6.96 KCAL/MOL
REMARK 923 INTER-LIGAND FREE ENERGY PREDICTED BY IDOCK:   -6.13 KCAL/MOL
REMARK 924 INTRA-LIGAND FREE ENERGY PREDICTED BY IDOCK:   -0.82 KCAL/MOL
REMARK 927      BINDING AFFINITY PREDICTED BY RF-SCORE:    0.00 PKD
ROOT
HETATM    1  C   UNL     1      -8.582   8.334  65.550  1.00  0.00    -0.159 C  
HETATM    2  N   UNL     1      -9.672   8.936  66.325  1.00  0.00    -0.261 NA 
HETATM    3  C   UNL     1     -10.519   7.889  66.895  1.00  0.00    -0.318 C  
ENDROOT
BRANCH   2   4
HETATM    4  C   UNL     1      -9.112   9.823  67.359  1.00  0.00    -0.134 C  
BRANCH   4   5
HETATM    5  C   UNL     1      -9.216   9.303  68.806  1.00  0.00    -0.136 C  
BRANCH   5   6
HETATM    6  O   UNL     1      -9.858  10.219  69.700  1.00  0.00    -0.230 OA 
BRANCH   6   7
HETATM    7  C   UNL     1     -11.192   9.865  70.104  1.00  0.00    -0.289 C  
BRANCH   7   8
HETATM    8  C   UNL     1     -11.194   8.728  71.113  1.00  0.00    -0.339 A  
HETATM    9  C   UNL     1     -12.036   7.620  70.914  1.00  0.00    -0.252 A  
HETATM   10  C   UNL     1     -11.986   6.522  71.773  1.00  0.00    -0.394 A  
HETATM   11  C   UNL     1     -10.313   8.715  72.205  1.00  0.00    -0.403 A  
HETATM   12  C   UNL     1     -11.101   6.520  72.849  1.00  0.00    -0.257 A  
HETATM   13  C   UNL     1     -10.268   7.616  73.068  1.00  0.00    -0.379 A  
ENDBRANCH   7   8
BRANCH   7  14
HETATM   14  C   UNL     1     -11.931  11.113  70.570  1.00  0.00    -0.475 A  
HETATM   15  C   UNL     1     -12.290  13.516  70.383  1.00  0.00    -0.397 A  
HETATM   16  C   UNL     1     -13.444  12.262  72.091  1.00  0.00    -0.431 A  
HETATM   17  C   UNL     1     -11.682  12.343  69.934  1.00  0.00    -0.339 A  
HETATM   18  C   UNL     1     -12.832  11.088  71.646  1.00  0.00    -0.540 A  
HETATM   19  C   UNL     1     -13.166  13.476  71.465  1.00  0.00    -0.402 A  
ENDBRANCH   7  14
ENDBRANCH   6   7
ENDBRANCH   5   6
ENDBRANCH   4   5
ENDBRANCH   2   4
TORSDOF 6
ENDMDL
MODEL       68
REMARK 921   NORMALIZED FREE ENERGY PREDICTED BY IDOCK:   -4.44 KCAL/MOL
REMARK 922        TOTAL FREE ENERGY PREDICTED BY IDOCK:   -6.89 KCAL/MOL
REMARK 923 INTER-LIGAND FREE ENERGY PREDICTED BY IDOCK:   -6.16 KCAL/MOL
REMARK 924 INTRA-LIGAND FREE ENERGY PREDICTED BY IDOCK:   -0.73 KCAL/MOL
REMARK 927      BINDING AFFINITY PREDICTED BY RF-SCORE:    0.00 PKD
ROOT
HETATM    1  C   UNL     1      -7.816  11.760  67.083  1.00  0.00    -0.166 C  
HETATM    2  N   UNL     1      -9.027  11.440  67.847  1.00  0.00    -0.147 NA 
HETATM    3  C   UNL     1      -8.709  10.499  68.919  1.00  0.00    -0.154 C  
ENDROOT
BRANCH   2   4
HETATM    4  C   UNL     1      -9.630  12.683  68.359  1.00  0.00    -0.173 C  
BRANCH   4   5
HETATM    5  C   UNL     1     -10.976  13.079  67.724  1.00  0.00    -0.251 C  
BRANCH   5   6
HETATM    6  O   UNL     1     -11.671  14.105  68.443  1.00  0.00    -0.306 OA 
BRANCH   6   7
HETATM    7  C   UNL     1     -10.929  14.736  69.501  1.00  0.00    -0.266 C  
BRANCH   7   8
HETATM    8  C   UNL     1     -10.248  16.012  69.032  1.00  0.00    -0.236 A  
HETATM    9  C   UNL     1      -8.853  16.141  69.147  1.00  0.00    -0.239 A  
HETATM   10  C   UNL     1      -8.196  17.261  68.636  1.00  0.00    -0.262 A  
HETATM   11  C   UNL     1     -10.969  17.041  68.407  1.00  0.00    -0.263 A  
HETATM   12  C   UNL     1      -8.924  18.271  68.012  1.00  0.00    -0.301 A  
HETATM   13  C   UNL     1     -10.309  18.164  67.901  1.00  0.00    -0.410 A  
ENDBRANCH   7   8
BRANCH   7  14
HETATM   14  C   UNL     1     -11.831  14.921  70.715  1.00  0.00    -0.368 A  
HETATM   15  C   UNL     1     -12.257  16.021  72.847  1.00  0.00    -0.621 A  
HETATM   16  C   UNL     1     -13.748  14.289  72.073  1.00  0.00    -0.542 A  
HETATM   17  C   UNL     1     -11.491  15.877  71.690  1.00  0.00    -0.473 A  
HETATM   18  C   UNL     1     -12.978  14.139  70.918  1.00  0.00    -0.374 A  
HETATM   19  C   UNL     1     -13.382  15.223  73.041  1.00  0.00    -0.610 A  
ENDBRANCH   7  14
ENDBRANCH   6   7
ENDBRANCH   5   6
ENDBRANCH   4   5
ENDBRANCH   2   4
TORSDOF 6
ENDMDL
MODEL       69
REMARK 921   NORMALIZED FREE ENERGY PREDICTED BY IDOCK:   -4.42 KCAL/MOL
REMARK 922        TOTAL FREE ENERGY PREDICTED BY IDOCK:   -6.87 KCAL/MOL
REMARK 923 INTER-LIGAND FREE ENERGY PREDICTED BY IDOCK:   -5.90 KCAL/MOL
REMARK 924 INTRA-LIGAND FREE ENERGY PREDICTED BY IDOCK:   -0.96 KCAL/MOL
REMARK 927      BINDING AFFINITY PREDICTED BY RF-SCORE:    0.00 PKD
ROOT
HETATM    1  C   UNL     1      -6.423   9.829  65.509  1.00  0.00    -0.084 C  
HETATM    2  N   UNL     1      -7.613  10.445  66.106  1.00  0.00    -0.125 NA 
HETATM    3  C   UNL     1      -8.531   9.409  66.575  1.00  0.00    -0.133 C  
ENDROOT
BRANCH   2   4
HETATM    4  C   UNL     1      -7.206  11.359  67.187  1.00  0.00    -0.134 C  
BRANCH   4   5
HETATM    5  C   UNL     1      -8.137  11.390  68.414  1.00  0.00    -0.145 C  
BRANCH   5   6
HETATM    6  O   UNL     1      -9.096  12.454  68.379  1.00  0.00    -0.195 OA 
BRANCH   6   7
HETATM    7  C   UNL     1     -10.435  12.075  68.016  1.00  0.00    -0.207 C  
BRANCH   7   8
HETATM    8  C   UNL     1     -11.391  12.177  69.194  1.00  0.00    -0.333 A  
HETATM    9  C   UNL     1     -11.821  11.010  69.847  1.00  0.00    -0.431 A  
HETATM   10  C   UNL     1     -12.620  11.084  70.988  1.00  0.00    -0.512 A  
HETATM   11  C   UNL     1     -11.797  13.420  69.703  1.00  0.00    -0.394 A  
HETATM   12  C   UNL     1     -13.009  12.325  71.487  1.00  0.00    -0.390 A  
HETATM   13  C   UNL     1     -12.602  13.492  70.843  1.00  0.00    -0.414 A  
ENDBRANCH   7   8
BRANCH   7  14
HETATM   14  C   UNL     1     -10.872  12.863  66.788  1.00  0.00    -0.288 A  
HETATM   15  C   UNL     1     -10.531  14.761  65.298  1.00  0.00    -0.427 A  
HETATM   16  C   UNL     1     -12.443  13.323  64.987  1.00  0.00    -0.498 A  
HETATM   17  C   UNL     1     -10.118  13.977  66.376  1.00  0.00    -0.299 A  
HETATM   18  C   UNL     1     -12.033  12.540  66.069  1.00  0.00    -0.456 A  
HETATM   19  C   UNL     1     -11.696  14.437  64.607  1.00  0.00    -0.438 A  
ENDBRANCH   7  14
ENDBRANCH   6   7
ENDBRANCH   5   6
ENDBRANCH   4   5
ENDBRANCH   2   4
TORSDOF 6
ENDMDL
MODEL       70
REMARK 921   NORMALIZED FREE ENERGY PREDICTED BY IDOCK:   -4.41 KCAL/MOL
REMARK 922        TOTAL FREE ENERGY PREDICTED BY IDOCK:   -6.86 KCAL/MOL
REMARK 923 INTER-LIGAND FREE ENERGY PREDICTED BY IDOCK:   -6.01 KCAL/MOL
REMARK 924 INTRA-LIGAND FREE ENERGY PREDICTED BY IDOCK:   -0.85 KCAL/MOL
REMARK 927      BINDING AFFINITY PREDICTED BY RF-SCORE:    0.00 PKD
ROOT
HETATM    1  C   UNL     1      -8.977   6.231  66.196  1.00  0.00    -0.153 C  
HETATM    2  N   UNL     1      -9.647   7.093  67.175  1.00  0.00    -0.143 NA 
HETATM    3  C   UNL     1      -9.801   8.442  66.633  1.00  0.00    -0.273 C  
ENDROOT
BRANCH   2   4
HETATM    4  C   UNL     1     -10.939   6.496  67.556  1.00  0.00    -0.359 C  
BRANCH   4   5
HETATM    5  C   UNL     1     -11.272   6.538  69.060  1.00  0.00    -0.284 C  
BRANCH   5   6
HETATM    6  O   UNL     1     -10.697   7.659  69.743  1.00  0.00    -0.243 OA 
BRANCH   6   7
HETATM    7  C   UNL     1     -11.304   8.000  71.002  1.00  0.00    -0.273 C  
BRANCH   7   8
HETATM    8  C   UNL     1     -10.389   7.685  72.175  1.00  0.00    -0.270 A  
HETATM    9  C   UNL     1      -9.147   8.333  72.285  1.00  0.00    -0.289 A  
HETATM   10  C   UNL     1      -8.334   8.133  73.400  1.00  0.00    -0.282 A  
HETATM   11  C   UNL     1     -10.788   6.818  73.203  1.00  0.00    -0.315 A  
HETATM   12  C   UNL     1      -8.746   7.275  74.417  1.00  0.00    -0.242 A  
HETATM   13  C   UNL     1      -9.969   6.614  74.318  1.00  0.00    -0.372 A  
ENDBRANCH   7   8
BRANCH   7  14
HETATM   14  C   UNL     1     -11.787   9.444  70.959  1.00  0.00    -0.396 A  
HETATM   15  C   UNL     1     -11.679  11.650  69.929  1.00  0.00    -0.414 A  
HETATM   16  C   UNL     1     -13.042  11.309  71.891  1.00  0.00    -0.510 A  
HETATM   17  C   UNL     1     -11.310  10.304  69.953  1.00  0.00    -0.354 A  
HETATM   18  C   UNL     1     -12.669   9.964  71.919  1.00  0.00    -0.501 A  
HETATM   19  C   UNL     1     -12.540  12.153  70.901  1.00  0.00    -0.340 A  
ENDBRANCH   7  14
ENDBRANCH   6   7
ENDBRANCH   5   6
ENDBRANCH   4   5
ENDBRANCH   2   4
TORSDOF 6
ENDMDL
MODEL       71
REMARK 921   NORMALIZED FREE ENERGY PREDICTED BY IDOCK:   -4.38 KCAL/MOL
REMARK 922        TOTAL FREE ENERGY PREDICTED BY IDOCK:   -6.82 KCAL/MOL
REMARK 923 INTER-LIGAND FREE ENERGY PREDICTED BY IDOCK:   -6.38 KCAL/MOL
REMARK 924 INTRA-LIGAND FREE ENERGY PREDICTED BY IDOCK:   -0.43 KCAL/MOL
REMARK 927      BINDING AFFINITY PREDICTED BY RF-SCORE:    0.00 PKD
ROOT
HETATM    1  C   UNL     1      -8.014  16.958  66.466  1.00  0.00    -0.294 C  
HETATM    2  N   UNL     1      -9.084  16.529  67.373  1.00  0.00    -0.203 NA 
HETATM    3  C   UNL     1      -9.507  17.649  68.212  1.00  0.00    -0.295 C  
ENDROOT
BRANCH   2   4
HETATM    4  C   UNL     1     -10.199  15.967  66.592  1.00  0.00    -0.291 C  
BRANCH   4   5
HETATM    5  C   UNL     1     -11.186  15.087  67.383  1.00  0.00    -0.335 C  
BRANCH   5   6
HETATM    6  O   UNL     1     -10.626  13.840  67.812  1.00  0.00    -0.242 OA 
BRANCH   6   7
HETATM    7  C   UNL     1     -11.441  12.678  67.581  1.00  0.00    -0.334 C  
BRANCH   7   8
HETATM    8  C   UNL     1     -11.467  12.289  66.111  1.00  0.00    -0.429 A  
HETATM    9  C   UNL     1     -12.532  12.710  65.297  1.00  0.00    -0.483 A  
HETATM   10  C   UNL     1     -12.530  12.448  63.927  1.00  0.00    -0.573 A  
HETATM   11  C   UNL     1     -10.408  11.585  65.520  1.00  0.00    -0.322 A  
HETATM   12  C   UNL     1     -11.468  11.754  63.353  1.00  0.00    -0.424 A  
HETATM   13  C   UNL     1     -10.410  11.318  64.148  1.00  0.00    -0.410 A  
ENDBRANCH   7   8
BRANCH   7  14
HETATM   14  C   UNL     1     -11.005  11.556  68.515  1.00  0.00    -0.268 A  
HETATM   15  C   UNL     1     -11.582   9.943  70.248  1.00  0.00    -0.319 A  
HETATM   16  C   UNL     1      -9.288  10.164  69.532  1.00  0.00    -0.230 A  
HETATM   17  C   UNL     1     -11.961  10.925  69.332  1.00  0.00    -0.393 A  
HETATM   18  C   UNL     1      -9.666  11.151  68.619  1.00  0.00    -0.202 A  
HETATM   19  C   UNL     1     -10.245   9.567  70.352  1.00  0.00    -0.337 A  
ENDBRANCH   7  14
ENDBRANCH   6   7
ENDBRANCH   5   6
ENDBRANCH   4   5
ENDBRANCH   2   4
TORSDOF 6
ENDMDL
MODEL       72
REMARK 921   NORMALIZED FREE ENERGY PREDICTED BY IDOCK:   -4.38 KCAL/MOL
REMARK 922        TOTAL FREE ENERGY PREDICTED BY IDOCK:   -6.81 KCAL/MOL
REMARK 923 INTER-LIGAND FREE ENERGY PREDICTED BY IDOCK:   -5.95 KCAL/MOL
REMARK 924 INTRA-LIGAND FREE ENERGY PREDICTED BY IDOCK:   -0.86 KCAL/MOL
REMARK 927      BINDING AFFINITY PREDICTED BY RF-SCORE:    0.00 PKD
ROOT
HETATM    1  C   UNL     1      -7.501  17.667  67.143  1.00  0.00    -0.193 C  
HETATM    2  N   UNL     1      -8.328  18.399  68.108  1.00  0.00    -0.277 NA 
HETATM    3  C   UNL     1      -7.687  19.665  68.458  1.00  0.00    -0.334 C  
ENDROOT
BRANCH   2   4
HETATM    4  C   UNL     1      -9.679  18.594  67.553  1.00  0.00    -0.310 C  
BRANCH   4   5
HETATM    5  C   UNL     1     -10.601  17.361  67.603  1.00  0.00    -0.350 C  
BRANCH   5   6
HETATM    6  O   UNL     1     -10.841  16.877  68.930  1.00  0.00    -0.321 OA 
BRANCH   6   7
HETATM    7  C   UNL     1     -11.129  15.473  69.039  1.00  0.00    -0.267 C  
BRANCH   7   8
HETATM    8  C   UNL     1      -9.919  14.619  68.693  1.00  0.00    -0.234 A  
HETATM    9  C   UNL     1      -8.656  14.958  69.206  1.00  0.00    -0.106 A  
HETATM   10  C   UNL     1      -7.550  14.137  68.981  1.00  0.00    -0.058 A  
HETATM   11  C   UNL     1     -10.043  13.445  67.935  1.00  0.00    -0.238 A  
HETATM   12  C   UNL     1      -7.690  12.971  68.232  1.00  0.00    -0.141 A  
HETATM   13  C   UNL     1      -8.934  12.626  67.706  1.00  0.00    -0.189 A  
ENDBRANCH   7   8
BRANCH   7  14
HETATM   14  C   UNL     1     -11.725  15.180  70.410  1.00  0.00    -0.333 A  
HETATM   15  C   UNL     1     -13.128  13.767  71.816  1.00  0.00    -0.463 A  
HETATM   16  C   UNL     1     -12.165  15.784  72.726  1.00  0.00    -0.577 A  
HETATM   17  C   UNL     1     -12.510  14.026  70.592  1.00  0.00    -0.435 A  
HETATM   18  C   UNL     1     -11.551  16.047  71.500  1.00  0.00    -0.529 A  
HETATM   19  C   UNL     1     -12.960  14.649  72.881  1.00  0.00    -0.592 A  
ENDBRANCH   7  14
ENDBRANCH   6   7
ENDBRANCH   5   6
ENDBRANCH   4   5
ENDBRANCH   2   4
TORSDOF 6
ENDMDL
MODEL       73
REMARK 921   NORMALIZED FREE ENERGY PREDICTED BY IDOCK:   -4.37 KCAL/MOL
REMARK 922        TOTAL FREE ENERGY PREDICTED BY IDOCK:   -6.80 KCAL/MOL
REMARK 923 INTER-LIGAND FREE ENERGY PREDICTED BY IDOCK:   -5.82 KCAL/MOL
REMARK 924 INTRA-LIGAND FREE ENERGY PREDICTED BY IDOCK:   -0.98 KCAL/MOL
REMARK 927      BINDING AFFINITY PREDICTED BY RF-SCORE:    0.00 PKD
ROOT
HETATM    1  C   UNL     1     -12.482  13.374  64.741  1.00  0.00    -0.365 C  
HETATM    2  N   UNL     1     -11.579  12.669  65.656  1.00  0.00    -0.356 NA 
HETATM    3  C   UNL     1     -10.384  12.226  64.939  1.00  0.00    -0.290 C  
ENDROOT
BRANCH   2   4
HETATM    4  C   UNL     1     -11.251  13.542  66.796  1.00  0.00    -0.310 C  
BRANCH   4   5
HETATM    5  C   UNL     1     -11.870  13.131  68.146  1.00  0.00    -0.348 C  
BRANCH   5   6
HETATM    6  O   UNL     1     -11.055  12.227  68.900  1.00  0.00    -0.224 OA 
BRANCH   6   7
HETATM    7  C   UNL     1     -11.323  10.828  68.699  1.00  0.00    -0.291 C  
BRANCH   7   8
HETATM    8  C   UNL     1     -10.220  10.149  67.904  1.00  0.00    -0.217 A  
HETATM    9  C   UNL     1     -10.530   9.065  67.065  1.00  0.00    -0.316 A  
HETATM   10  C   UNL     1      -9.553   8.488  66.253  1.00  0.00    -0.306 A  
HETATM   11  C   UNL     1      -8.902  10.629  67.921  1.00  0.00    -0.131 A  
HETATM   12  C   UNL     1      -8.250   8.980  66.275  1.00  0.00    -0.115 A  
HETATM   13  C   UNL     1      -7.922  10.047  67.111  1.00  0.00    -0.109 A  
ENDBRANCH   7   8
BRANCH   7  14
HETATM   14  C   UNL     1     -11.622  10.169  70.039  1.00  0.00    -0.323 A  
HETATM   15  C   UNL     1     -10.965   8.598  71.783  1.00  0.00    -0.396 A  
HETATM   16  C   UNL     1     -13.094   9.724  71.925  1.00  0.00    -0.544 A  
HETATM   17  C   UNL     1     -10.689   9.272  70.592  1.00  0.00    -0.331 A  
HETATM   18  C   UNL     1     -12.822  10.394  70.730  1.00  0.00    -0.450 A  
HETATM   19  C   UNL     1     -12.169   8.820  72.446  1.00  0.00    -0.396 A  
ENDBRANCH   7  14
ENDBRANCH   6   7
ENDBRANCH   5   6
ENDBRANCH   4   5
ENDBRANCH   2   4
TORSDOF 6
ENDMDL
MODEL       74
REMARK 921   NORMALIZED FREE ENERGY PREDICTED BY IDOCK:   -4.35 KCAL/MOL
REMARK 922        TOTAL FREE ENERGY PREDICTED BY IDOCK:   -6.77 KCAL/MOL
REMARK 923 INTER-LIGAND FREE ENERGY PREDICTED BY IDOCK:   -6.05 KCAL/MOL
REMARK 924 INTRA-LIGAND FREE ENERGY PREDICTED BY IDOCK:   -0.72 KCAL/MOL
REMARK 927      BINDING AFFINITY PREDICTED BY RF-SCORE:    0.00 PKD
ROOT
HETATM    1  C   UNL     1      -8.712   9.015  65.830  1.00  0.00    -0.169 C  
HETATM    2  N   UNL     1      -9.220  10.370  65.594  1.00  0.00    -0.172 NA 
HETATM    3  C   UNL     1      -9.645  10.511  64.202  1.00  0.00    -0.313 C  
ENDROOT
BRANCH   2   4
HETATM    4  C   UNL     1     -10.312  10.659  66.540  1.00  0.00    -0.241 C  
BRANCH   4   5
HETATM    5  C   UNL     1     -10.610   9.550  67.568  1.00  0.00    -0.275 C  
BRANCH   5   6
HETATM    6  O   UNL     1     -10.481   9.980  68.929  1.00  0.00    -0.191 OA 
BRANCH   6   7
HETATM    7  C   UNL     1     -11.634   9.769  69.762  1.00  0.00    -0.030 C  
BRANCH   7   8
HETATM    8  C   UNL     1     -11.399   8.671  70.786  1.00  0.00    -0.299 A  
HETATM    9  C   UNL     1     -10.376   8.813  71.739  1.00  0.00    -0.413 A  
HETATM   10  C   UNL     1     -10.204   7.865  72.748  1.00  0.00    -0.380 A  
HETATM   11  C   UNL     1     -12.234   7.546  70.860  1.00  0.00    -0.224 A  
HETATM   12  C   UNL     1     -11.045   6.757  72.813  1.00  0.00    -0.292 A  
HETATM   13  C   UNL     1     -12.057   6.594  71.868  1.00  0.00    -0.385 A  
ENDBRANCH   7   8
BRANCH   7  14
HETATM   14  C   UNL     1     -12.078  11.097  70.363  1.00  0.00    -0.475 A  
HETATM   15  C   UNL     1     -13.286  12.297  72.106  1.00  0.00    -0.466 A  
HETATM   16  C   UNL     1     -12.298  13.519  70.276  1.00  0.00    -0.370 A  
HETATM   17  C   UNL     1     -12.804  11.103  71.568  1.00  0.00    -0.542 A  
HETATM   18  C   UNL     1     -11.821  12.324  69.732  1.00  0.00    -0.388 A  
HETATM   19  C   UNL     1     -13.037  13.504  71.457  1.00  0.00    -0.427 A  
ENDBRANCH   7  14
ENDBRANCH   6   7
ENDBRANCH   5   6
ENDBRANCH   4   5
ENDBRANCH   2   4
TORSDOF 6
ENDMDL
MODEL       75
REMARK 921   NORMALIZED FREE ENERGY PREDICTED BY IDOCK:   -4.35 KCAL/MOL
REMARK 922        TOTAL FREE ENERGY PREDICTED BY IDOCK:   -6.77 KCAL/MOL
REMARK 923 INTER-LIGAND FREE ENERGY PREDICTED BY IDOCK:   -5.77 KCAL/MOL
REMARK 924 INTRA-LIGAND FREE ENERGY PREDICTED BY IDOCK:   -1.00 KCAL/MOL
REMARK 927      BINDING AFFINITY PREDICTED BY RF-SCORE:    0.00 PKD
ROOT
HETATM    1  C   UNL     1      -8.170  17.008  68.506  1.00  0.00    -0.259 C  
HETATM    2  N   UNL     1      -7.253  16.626  67.427  1.00  0.00    -0.143 NA 
HETATM    3  C   UNL     1      -6.016  17.399  67.525  1.00  0.00    -0.143 C  
ENDROOT
BRANCH   2   4
HETATM    4  C   UNL     1      -7.008  15.175  67.478  1.00  0.00    -0.192 C  
BRANCH   4   5
HETATM    5  C   UNL     1      -8.009  14.362  68.321  1.00  0.00    -0.140 C  
BRANCH   5   6
HETATM    6  O   UNL     1      -8.916  13.578  67.536  1.00  0.00    -0.189 OA 
BRANCH   6   7
HETATM    7  C   UNL     1     -10.203  14.172  67.291  1.00  0.00    -0.256 C  
BRANCH   7   8
HETATM    8  C   UNL     1     -10.921  13.508  66.127  1.00  0.00    -0.289 A  
HETATM    9  C   UNL     1     -10.317  12.429  65.460  1.00  0.00    -0.298 A  
HETATM   10  C   UNL     1     -10.996  11.742  64.453  1.00  0.00    -0.397 A  
HETATM   11  C   UNL     1     -12.216  13.893  65.748  1.00  0.00    -0.488 A  
HETATM   12  C   UNL     1     -12.285  12.131  64.092  1.00  0.00    -0.509 A  
HETATM   13  C   UNL     1     -12.893  13.207  64.736  1.00  0.00    -0.298 A  
ENDBRANCH   7   8
BRANCH   7  14
HETATM   14  C   UNL     1     -11.007  14.197  68.586  1.00  0.00    -0.275 A  
HETATM   15  C   UNL     1     -12.128  12.971  70.368  1.00  0.00    -0.391 A  
HETATM   16  C   UNL     1     -12.260  15.379  70.304  1.00  0.00    -0.414 A  
HETATM   17  C   UNL     1     -11.334  12.985  69.220  1.00  0.00    -0.310 A  
HETATM   18  C   UNL     1     -11.470  15.394  69.153  1.00  0.00    -0.344 A  
HETATM   19  C   UNL     1     -12.595  14.168  70.906  1.00  0.00    -0.433 A  
ENDBRANCH   7  14
ENDBRANCH   6   7
ENDBRANCH   5   6
ENDBRANCH   4   5
ENDBRANCH   2   4
TORSDOF 6
ENDMDL
MODEL       76
REMARK 921   NORMALIZED FREE ENERGY PREDICTED BY IDOCK:   -4.32 KCAL/MOL
REMARK 922        TOTAL FREE ENERGY PREDICTED BY IDOCK:   -6.73 KCAL/MOL
REMARK 923 INTER-LIGAND FREE ENERGY PREDICTED BY IDOCK:   -6.07 KCAL/MOL
REMARK 924 INTRA-LIGAND FREE ENERGY PREDICTED BY IDOCK:   -0.67 KCAL/MOL
REMARK 927      BINDING AFFINITY PREDICTED BY RF-SCORE:    0.00 PKD
ROOT
HETATM    1  C   UNL     1     -13.403  13.062  72.122  1.00  0.00    -0.524 C  
HETATM    2  N   UNL     1     -13.446  14.250  71.263  1.00  0.00    -0.339 NA 
HETATM    3  C   UNL     1     -14.323  15.262  71.852  1.00  0.00    -0.589 C  
ENDROOT
BRANCH   2   4
HETATM    4  C   UNL     1     -12.079  14.756  71.050  1.00  0.00    -0.330 C  
BRANCH   4   5
HETATM    5  C   UNL     1     -11.881  15.620  69.790  1.00  0.00    -0.363 C  
BRANCH   5   6
HETATM    6  O   UNL     1     -10.585  16.225  69.707  1.00  0.00    -0.308 OA 
BRANCH   6   7
HETATM    7  C   UNL     1      -9.973  16.214  68.406  1.00  0.00    -0.230 C  
BRANCH   7   8
HETATM    8  C   UNL     1      -9.684  17.621  67.905  1.00  0.00    -0.295 A  
HETATM    9  C   UNL     1     -10.573  18.239  67.010  1.00  0.00    -0.375 A  
HETATM   10  C   UNL     1     -10.381  19.562  66.612  1.00  0.00    -0.570 A  
HETATM   11  C   UNL     1      -8.588  18.357  68.380  1.00  0.00    -0.345 A  
HETATM   12  C   UNL     1      -9.292  20.283  67.096  1.00  0.00    -0.536 A  
HETATM   13  C   UNL     1      -8.394  19.681  67.976  1.00  0.00    -0.341 A  
ENDBRANCH   7   8
BRANCH   7  14
HETATM   14  C   UNL     1      -8.757  15.297  68.422  1.00  0.00    -0.170 A  
HETATM   15  C   UNL     1      -6.787  14.466  69.591  1.00  0.00    -0.118 A  
HETATM   16  C   UNL     1      -7.232  13.745  67.332  1.00  0.00    -0.107 A  
HETATM   17  C   UNL     1      -7.946  15.242  69.571  1.00  0.00    -0.199 A  
HETATM   18  C   UNL     1      -8.389  14.526  67.308  1.00  0.00    -0.232 A  
HETATM   19  C   UNL     1      -6.427  13.722  68.470  1.00  0.00    -0.093 A  
ENDBRANCH   7  14
ENDBRANCH   6   7
ENDBRANCH   5   6
ENDBRANCH   4   5
ENDBRANCH   2   4
TORSDOF 6
ENDMDL
MODEL       77
REMARK 921   NORMALIZED FREE ENERGY PREDICTED BY IDOCK:   -4.31 KCAL/MOL
REMARK 922        TOTAL FREE ENERGY PREDICTED BY IDOCK:   -6.72 KCAL/MOL
REMARK 923 INTER-LIGAND FREE ENERGY PREDICTED BY IDOCK:   -5.79 KCAL/MOL
REMARK 924 INTRA-LIGAND FREE ENERGY PREDICTED BY IDOCK:   -0.93 KCAL/MOL
REMARK 927      BINDING AFFINITY PREDICTED BY RF-SCORE:    0.00 PKD
ROOT
HETATM    1  C   UNL     1     -10.972   7.922  72.831  1.00  0.00    -0.388 C  
HETATM    2  N   UNL     1     -11.772   8.280  71.655  1.00  0.00    -0.276 NA 
HETATM    3  C   UNL     1     -12.323   7.075  71.038  1.00  0.00    -0.356 C  
ENDROOT
BRANCH   2   4
HETATM    4  C   UNL     1     -12.824   9.235  72.045  1.00  0.00    -0.415 C  
BRANCH   4   5
HETATM    5  C   UNL     1     -13.076  10.386  71.053  1.00  0.00    -0.362 C  
BRANCH   5   6
HETATM    6  O   UNL     1     -11.875  10.992  70.560  1.00  0.00    -0.331 OA 
BRANCH   6   7
HETATM    7  C   UNL     1     -11.722  11.000  69.130  1.00  0.00    -0.333 C  
BRANCH   7   8
HETATM    8  C   UNL     1     -11.566  12.411  68.586  1.00  0.00    -0.365 A  
HETATM    9  C   UNL     1     -11.895  12.683  67.247  1.00  0.00    -0.395 A  
HETATM   10  C   UNL     1     -11.852  13.987  66.752  1.00  0.00    -0.450 A  
HETATM   11  C   UNL     1     -11.177  13.477  69.411  1.00  0.00    -0.244 A  
HETATM   12  C   UNL     1     -11.471  15.035  67.585  1.00  0.00    -0.344 A  
HETATM   13  C   UNL     1     -11.129  14.781  68.912  1.00  0.00    -0.264 A  
ENDBRANCH   7   8
BRANCH   7  14
HETATM   14  C   UNL     1     -10.599  10.051  68.733  1.00  0.00    -0.241 A  
HETATM   15  C   UNL     1      -9.739   8.364  67.199  1.00  0.00    -0.250 A  
HETATM   16  C   UNL     1      -8.474   8.949  69.168  1.00  0.00    -0.132 A  
HETATM   17  C   UNL     1     -10.718   9.293  67.553  1.00  0.00    -0.272 A  
HETATM   18  C   UNL     1      -9.455   9.875  69.527  1.00  0.00    -0.239 A  
HETATM   19  C   UNL     1      -8.620   8.188  68.009  1.00  0.00    -0.129 A  
ENDBRANCH   7  14
ENDBRANCH   6   7
ENDBRANCH   5   6
ENDBRANCH   4   5
ENDBRANCH   2   4
TORSDOF 6
ENDMDL
MODEL       78
REMARK 921   NORMALIZED FREE ENERGY PREDICTED BY IDOCK:   -4.28 KCAL/MOL
REMARK 922        TOTAL FREE ENERGY PREDICTED BY IDOCK:   -6.68 KCAL/MOL
REMARK 923 INTER-LIGAND FREE ENERGY PREDICTED BY IDOCK:   -5.94 KCAL/MOL
REMARK 924 INTRA-LIGAND FREE ENERGY PREDICTED BY IDOCK:   -0.73 KCAL/MOL
REMARK 927      BINDING AFFINITY PREDICTED BY RF-SCORE:    0.00 PKD
ROOT
HETATM    1  C   UNL     1      -8.955   6.087  65.851  1.00  0.00    -0.133 C  
HETATM    2  N   UNL     1     -10.167   5.475  66.406  1.00  0.00    -0.206 NA 
HETATM    3  C   UNL     1      -9.807   4.387  67.315  1.00  0.00    -0.162 C  
ENDROOT
BRANCH   2   4
HETATM    4  C   UNL     1     -10.982   6.507  67.070  1.00  0.00    -0.396 C  
BRANCH   4   5
HETATM    5  C   UNL     1     -10.326   7.190  68.286  1.00  0.00    -0.195 C  
BRANCH   5   6
HETATM    6  O   UNL     1     -11.099   7.086  69.488  1.00  0.00    -0.238 OA 
BRANCH   6   7
HETATM    7  C   UNL     1     -10.649   7.892  70.591  1.00  0.00    -0.219 C  
BRANCH   7   8
HETATM    8  C   UNL     1     -11.495   9.144  70.758  1.00  0.00    -0.337 A  
HETATM    9  C   UNL     1     -12.546   9.157  71.691  1.00  0.00    -0.433 A  
HETATM   10  C   UNL     1     -13.274  10.323  71.931  1.00  0.00    -0.550 A  
HETATM   11  C   UNL     1     -11.203  10.325  70.059  1.00  0.00    -0.376 A  
HETATM   12  C   UNL     1     -12.968  11.490  71.235  1.00  0.00    -0.397 A  
HETATM   13  C   UNL     1     -11.937  11.491  70.297  1.00  0.00    -0.455 A  
ENDBRANCH   7   8
BRANCH   7  14
HETATM   14  C   UNL     1     -10.553   7.033  71.845  1.00  0.00    -0.239 A  
HETATM   15  C   UNL     1     -11.180   4.999  73.032  1.00  0.00    -0.383 A  
HETATM   16  C   UNL     1      -9.867   6.684  74.153  1.00  0.00    -0.335 A  
HETATM   17  C   UNL     1     -11.189   5.778  71.874  1.00  0.00    -0.289 A  
HETATM   18  C   UNL     1      -9.881   7.468  72.997  1.00  0.00    -0.292 A  
HETATM   19  C   UNL     1     -10.523   5.455  74.173  1.00  0.00    -0.310 A  
ENDBRANCH   7  14
ENDBRANCH   6   7
ENDBRANCH   5   6
ENDBRANCH   4   5
ENDBRANCH   2   4
TORSDOF 6
ENDMDL
MODEL       79
REMARK 921   NORMALIZED FREE ENERGY PREDICTED BY IDOCK:   -4.25 KCAL/MOL
REMARK 922        TOTAL FREE ENERGY PREDICTED BY IDOCK:   -6.64 KCAL/MOL
REMARK 923 INTER-LIGAND FREE ENERGY PREDICTED BY IDOCK:   -5.80 KCAL/MOL
REMARK 924 INTRA-LIGAND FREE ENERGY PREDICTED BY IDOCK:   -0.84 KCAL/MOL
REMARK 927      BINDING AFFINITY PREDICTED BY RF-SCORE:    0.00 PKD
ROOT
HETATM    1  C   UNL     1     -13.286  12.414  71.995  1.00  0.00    -0.409 C  
HETATM    2  N   UNL     1     -13.054  11.220  71.175  1.00  0.00    -0.245 NA 
HETATM    3  C   UNL     1     -12.033  11.497  70.166  1.00  0.00    -0.369 C  
ENDROOT
BRANCH   2   4
HETATM    4  C   UNL     1     -12.684  10.089  72.043  1.00  0.00    -0.347 C  
BRANCH   4   5
HETATM    5  C   UNL     1     -13.616   8.864  71.969  1.00  0.00    -0.441 C  
BRANCH   5   6
HETATM    6  O   UNL     1     -13.003   7.713  71.374  1.00  0.00    -0.339 OA 
BRANCH   6   7
HETATM    7  C   UNL     1     -11.566   7.698  71.381  1.00  0.00    -0.274 C  
BRANCH   7   8
HETATM    8  C   UNL     1     -11.015   6.763  72.446  1.00  0.00    -0.280 A  
HETATM    9  C   UNL     1      -9.910   7.159  73.219  1.00  0.00    -0.275 A  
HETATM   10  C   UNL     1      -9.448   6.361  74.265  1.00  0.00    -0.230 A  
HETATM   11  C   UNL     1     -11.635   5.539  72.738  1.00  0.00    -0.298 A  
HETATM   12  C   UNL     1     -10.077   5.151  74.548  1.00  0.00    -0.283 A  
HETATM   13  C   UNL     1     -11.167   4.737  73.784  1.00  0.00    -0.226 A  
ENDBRANCH   7   8
BRANCH   7  14
HETATM   14  C   UNL     1     -11.052   7.412  69.975  1.00  0.00    -0.238 A  
HETATM   15  C   UNL     1     -10.036   8.236  67.919  1.00  0.00    -0.227 A  
HETATM   16  C   UNL     1     -10.769   5.941  68.058  1.00  0.00    -0.332 A  
HETATM   17  C   UNL     1     -10.452   8.447  69.234  1.00  0.00    -0.223 A  
HETATM   18  C   UNL     1     -11.191   6.153  69.372  1.00  0.00    -0.466 A  
HETATM   19  C   UNL     1     -10.199   6.984  67.330  1.00  0.00    -0.301 A  
ENDBRANCH   7  14
ENDBRANCH   6   7
ENDBRANCH   5   6
ENDBRANCH   4   5
ENDBRANCH   2   4
TORSDOF 6
ENDMDL
MODEL       80
REMARK 921   NORMALIZED FREE ENERGY PREDICTED BY IDOCK:   -4.25 KCAL/MOL
REMARK 922        TOTAL FREE ENERGY PREDICTED BY IDOCK:   -6.64 KCAL/MOL
REMARK 923 INTER-LIGAND FREE ENERGY PREDICTED BY IDOCK:   -5.98 KCAL/MOL
REMARK 924 INTRA-LIGAND FREE ENERGY PREDICTED BY IDOCK:   -0.66 KCAL/MOL
REMARK 927      BINDING AFFINITY PREDICTED BY RF-SCORE:    0.00 PKD
ROOT
HETATM    1  C   UNL     1      -6.213  15.781  67.404  1.00  0.00    -0.109 C  
HETATM    2  N   UNL     1      -6.679  15.512  68.769  1.00  0.00    -0.110 NA 
HETATM    3  C   UNL     1      -6.588  16.727  69.577  1.00  0.00    -0.207 C  
ENDROOT
BRANCH   2   4
HETATM    4  C   UNL     1      -8.049  14.973  68.725  1.00  0.00    -0.166 C  
BRANCH   4   5
HETATM    5  C   UNL     1      -9.155  15.935  69.201  1.00  0.00    -0.255 C  
BRANCH   5   6
HETATM    6  O   UNL     1     -10.473  15.532  68.810  1.00  0.00    -0.222 OA 
BRANCH   6   7
HETATM    7  C   UNL     1     -10.584  14.204  68.268  1.00  0.00    -0.251 C  
BRANCH   7   8
HETATM    8  C   UNL     1     -11.317  13.267  69.214  1.00  0.00    -0.311 A  
HETATM    9  C   UNL     1     -11.078  11.884  69.149  1.00  0.00    -0.285 A  
HETATM   10  C   UNL     1     -11.665  11.014  70.069  1.00  0.00    -0.437 A  
HETATM   11  C   UNL     1     -12.172  13.755  70.213  1.00  0.00    -0.429 A  
HETATM   12  C   UNL     1     -12.506  11.514  71.060  1.00  0.00    -0.458 A  
HETATM   13  C   UNL     1     -12.764  12.882  71.131  1.00  0.00    -0.366 A  
ENDBRANCH   7   8
BRANCH   7  14
HETATM   14  C   UNL     1     -11.184  14.274  66.869  1.00  0.00    -0.333 A  
HETATM   15  C   UNL     1     -12.730  13.369  65.217  1.00  0.00    -0.481 A  
HETATM   16  C   UNL     1     -11.249  15.175  64.610  1.00  0.00    -0.352 A  
HETATM   17  C   UNL     1     -12.208  13.377  66.511  1.00  0.00    -0.414 A  
HETATM   18  C   UNL     1     -10.723  15.181  65.904  1.00  0.00    -0.341 A  
HETATM   19  C   UNL     1     -12.246  14.263  64.265  1.00  0.00    -0.451 A  
ENDBRANCH   7  14
ENDBRANCH   6   7
ENDBRANCH   5   6
ENDBRANCH   4   5
ENDBRANCH   2   4
TORSDOF 6
ENDMDL
MODEL       81
REMARK 921   NORMALIZED FREE ENERGY PREDICTED BY IDOCK:   -4.24 KCAL/MOL
REMARK 922        TOTAL FREE ENERGY PREDICTED BY IDOCK:   -6.63 KCAL/MOL
REMARK 923 INTER-LIGAND FREE ENERGY PREDICTED BY IDOCK:   -5.80 KCAL/MOL
REMARK 924 INTRA-LIGAND FREE ENERGY PREDICTED BY IDOCK:   -0.83 KCAL/MOL
REMARK 927      BINDING AFFINITY PREDICTED BY RF-SCORE:    0.00 PKD
ROOT
HETATM    1  C   UNL     1      -7.081  10.339  65.422  1.00  0.00    -0.139 C  
HETATM    2  N   UNL     1      -8.025  10.848  66.422  1.00  0.00    -0.154 NA 
HETATM    3  C   UNL     1      -8.526   9.747  67.243  1.00  0.00    -0.125 C  
ENDROOT
BRANCH   2   4
HETATM    4  C   UNL     1      -7.373  11.892  67.230  1.00  0.00    -0.146 C  
BRANCH   4   5
HETATM    5  C   UNL     1      -8.193  12.414  68.426  1.00  0.00    -0.144 C  
BRANCH   5   6
HETATM    6  O   UNL     1      -9.094  13.474  68.084  1.00  0.00    -0.189 OA 
BRANCH   6   7
HETATM    7  C   UNL     1     -10.493  13.151  68.158  1.00  0.00    -0.248 C  
BRANCH   7   8
HETATM    8  C   UNL     1     -11.175  13.852  69.323  1.00  0.00    -0.296 A  
HETATM    9  C   UNL     1     -10.973  15.228  69.524  1.00  0.00    -0.280 A  
HETATM   10  C   UNL     1     -11.662  15.912  70.526  1.00  0.00    -0.394 A  
HETATM   11  C   UNL     1     -12.074  13.175  70.161  1.00  0.00    -0.392 A  
HETATM   12  C   UNL     1     -12.556  15.228  71.346  1.00  0.00    -0.444 A  
HETATM   13  C   UNL     1     -12.759  13.860  71.168  1.00  0.00    -0.441 A  
ENDBRANCH   7   8
BRANCH   7  14
HETATM   14  C   UNL     1     -11.148  13.409  66.807  1.00  0.00    -0.308 A  
HETATM   15  C   UNL     1     -12.528  12.597  64.970  1.00  0.00    -0.556 A  
HETATM   16  C   UNL     1     -11.488  14.769  64.818  1.00  0.00    -0.410 A  
HETATM   17  C   UNL     1     -11.972  12.420  66.237  1.00  0.00    -0.369 A  
HETATM   18  C   UNL     1     -10.926  14.591  66.084  1.00  0.00    -0.322 A  
HETATM   19  C   UNL     1     -12.282  13.769  64.258  1.00  0.00    -0.444 A  
ENDBRANCH   7  14
ENDBRANCH   6   7
ENDBRANCH   5   6
ENDBRANCH   4   5
ENDBRANCH   2   4
TORSDOF 6
ENDMDL
MODEL       82
REMARK 921   NORMALIZED FREE ENERGY PREDICTED BY IDOCK:   -4.22 KCAL/MOL
REMARK 922        TOTAL FREE ENERGY PREDICTED BY IDOCK:   -6.60 KCAL/MOL
REMARK 923 INTER-LIGAND FREE ENERGY PREDICTED BY IDOCK:   -5.88 KCAL/MOL
REMARK 924 INTRA-LIGAND FREE ENERGY PREDICTED BY IDOCK:   -0.72 KCAL/MOL
REMARK 927      BINDING AFFINITY PREDICTED BY RF-SCORE:    0.00 PKD
ROOT
HETATM    1  C   UNL     1     -12.138   7.490  71.188  1.00  0.00    -0.307 C  
HETATM    2  N   UNL     1     -11.033   8.230  71.806  1.00  0.00    -0.260 NA 
HETATM    3  C   UNL     1      -9.754   7.746  71.289  1.00  0.00    -0.157 C  
ENDROOT
BRANCH   2   4
HETATM    4  C   UNL     1     -11.216   9.674  71.574  1.00  0.00    -0.307 C  
BRANCH   4   5
HETATM    5  C   UNL     1     -11.908  10.050  70.249  1.00  0.00    -0.216 C  
BRANCH   5   6
HETATM    6  O   UNL     1     -11.124  10.913  69.417  1.00  0.00    -0.223 OA 
BRANCH   6   7
HETATM    7  C   UNL     1     -11.856  11.920  68.698  1.00  0.00    -0.308 C  
BRANCH   7   8
HETATM    8  C   UNL     1     -11.726  13.288  69.350  1.00  0.00    -0.383 A  
HETATM    9  C   UNL     1     -10.638  14.115  69.023  1.00  0.00    -0.227 A  
HETATM   10  C   UNL     1     -10.549  15.411  69.534  1.00  0.00    -0.270 A  
HETATM   11  C   UNL     1     -12.713  13.785  70.214  1.00  0.00    -0.208 A  
HETATM   12  C   UNL     1     -11.540  15.893  70.385  1.00  0.00    -0.387 A  
HETATM   13  C   UNL     1     -12.619  15.081  70.729  1.00  0.00    -0.429 A  
ENDBRANCH   7   8
BRANCH   7  14
HETATM   14  C   UNL     1     -11.455  11.890  67.228  1.00  0.00    -0.385 A  
HETATM   15  C   UNL     1     -10.062  10.945  65.466  1.00  0.00    -0.325 A  
HETATM   16  C   UNL     1     -11.540  12.786  64.968  1.00  0.00    -0.372 A  
HETATM   17  C   UNL     1     -10.502  10.952  66.790  1.00  0.00    -0.302 A  
HETATM   18  C   UNL     1     -11.977  12.797  66.294  1.00  0.00    -0.460 A  
HETATM   19  C   UNL     1     -10.577  11.866  64.556  1.00  0.00    -0.358 A  
ENDBRANCH   7  14
ENDBRANCH   6   7
ENDBRANCH   5   6
ENDBRANCH   4   5
ENDBRANCH   2   4
TORSDOF 6
ENDMDL
MODEL       83
REMARK 921   NORMALIZED FREE ENERGY PREDICTED BY IDOCK:   -4.22 KCAL/MOL
REMARK 922        TOTAL FREE ENERGY PREDICTED BY IDOCK:   -6.60 KCAL/MOL
REMARK 923 INTER-LIGAND FREE ENERGY PREDICTED BY IDOCK:   -5.73 KCAL/MOL
REMARK 924 INTRA-LIGAND FREE ENERGY PREDICTED BY IDOCK:   -0.87 KCAL/MOL
REMARK 927      BINDING AFFINITY PREDICTED BY RF-SCORE:    0.00 PKD
ROOT
HETATM    1  C   UNL     1     -11.192   6.602  69.091  1.00  0.00    -0.242 C  
HETATM    2  N   UNL     1     -10.025   6.704  68.208  1.00  0.00    -0.140 NA 
HETATM    3  C   UNL     1     -10.445   6.607  66.811  1.00  0.00    -0.228 C  
ENDROOT
BRANCH   2   4
HETATM    4  C   UNL     1      -9.304   7.958  68.485  1.00  0.00    -0.141 C  
BRANCH   4   5
HETATM    5  C   UNL     1      -9.636   9.135  67.547  1.00  0.00    -0.150 C  
BRANCH   5   6
HETATM    6  O   UNL     1     -10.839   9.829  67.901  1.00  0.00    -0.266 OA 
BRANCH   6   7
HETATM    7  C   UNL     1     -10.664  11.167  68.398  1.00  0.00    -0.198 C  
BRANCH   7   8
HETATM    8  C   UNL     1     -10.895  12.208  67.313  1.00  0.00    -0.286 A  
HETATM    9  C   UNL     1      -9.980  13.262  67.151  1.00  0.00    -0.238 A  
HETATM   10  C   UNL     1     -10.119  14.173  66.104  1.00  0.00    -0.324 A  
HETATM   11  C   UNL     1     -11.962  12.099  66.409  1.00  0.00    -0.201 A  
HETATM   12  C   UNL     1     -11.179  14.048  65.209  1.00  0.00    -0.319 A  
HETATM   13  C   UNL     1     -12.103  13.016  65.363  1.00  0.00    -0.490 A  
ENDBRANCH   7   8
BRANCH   7  14
HETATM   14  C   UNL     1     -11.519  11.364  69.643  1.00  0.00    -0.380 A  
HETATM   15  C   UNL     1     -12.751  10.384  71.503  1.00  0.00    -0.564 A  
HETATM   16  C   UNL     1     -12.806  12.770  71.155  1.00  0.00    -0.315 A  
HETATM   17  C   UNL     1     -11.910  10.243  70.398  1.00  0.00    -0.396 A  
HETATM   18  C   UNL     1     -11.969  12.631  70.046  1.00  0.00    -0.377 A  
HETATM   19  C   UNL     1     -13.203  11.647  71.878  1.00  0.00    -0.475 A  
ENDBRANCH   7  14
ENDBRANCH   6   7
ENDBRANCH   5   6
ENDBRANCH   4   5
ENDBRANCH   2   4
TORSDOF 6
ENDMDL
MODEL       84
REMARK 921   NORMALIZED FREE ENERGY PREDICTED BY IDOCK:   -4.20 KCAL/MOL
REMARK 922        TOTAL FREE ENERGY PREDICTED BY IDOCK:   -6.57 KCAL/MOL
REMARK 923 INTER-LIGAND FREE ENERGY PREDICTED BY IDOCK:   -5.88 KCAL/MOL
REMARK 924 INTRA-LIGAND FREE ENERGY PREDICTED BY IDOCK:   -0.69 KCAL/MOL
REMARK 927      BINDING AFFINITY PREDICTED BY RF-SCORE:    0.00 PKD
ROOT
HETATM    1  C   UNL     1     -11.982  13.083  63.121  1.00  0.00    -0.225 C  
HETATM    2  N   UNL     1     -12.230  13.728  64.415  1.00  0.00    -0.541 NA 
HETATM    3  C   UNL     1     -12.504  12.717  65.434  1.00  0.00    -0.355 C  
ENDROOT
BRANCH   2   4
HETATM    4  C   UNL     1     -11.082  14.579  64.770  1.00  0.00    -0.391 C  
BRANCH   4   5
HETATM    5  C   UNL     1      -9.846  13.834  65.311  1.00  0.00    -0.124 C  
BRANCH   5   6
HETATM    6  O   UNL     1      -9.509  14.185  66.658  1.00  0.00    -0.269 OA 
BRANCH   6   7
HETATM    7  C   UNL     1     -10.360  15.162  67.280  1.00  0.00    -0.261 C  
BRANCH   7   8
HETATM    8  C   UNL     1     -11.029  14.616  68.532  1.00  0.00    -0.261 A  
HETATM    9  C   UNL     1     -11.681  15.494  69.414  1.00  0.00    -0.382 A  
HETATM   10  C   UNL     1     -12.383  15.007  70.517  1.00  0.00    -0.411 A  
HETATM   11  C   UNL     1     -11.084  13.239  68.792  1.00  0.00    -0.303 A  
HETATM   12  C   UNL     1     -12.435  13.636  70.758  1.00  0.00    -0.432 A  
HETATM   13  C   UNL     1     -11.784  12.752  69.900  1.00  0.00    -0.321 A  
ENDBRANCH   7   8
BRANCH   7  14
HETATM   14  C   UNL     1      -9.579  16.451  67.503  1.00  0.00    -0.227 A  
HETATM   15  C   UNL     1      -7.435  17.555  67.859  1.00  0.00    -0.206 A  
HETATM   16  C   UNL     1      -9.474  18.843  67.938  1.00  0.00    -0.346 A  
HETATM   17  C   UNL     1      -8.175  16.403  67.585  1.00  0.00    -0.166 A  
HETATM   18  C   UNL     1     -10.216  17.690  67.670  1.00  0.00    -0.351 A  
HETATM   19  C   UNL     1      -8.086  18.773  68.041  1.00  0.00    -0.308 A  
ENDBRANCH   7  14
ENDBRANCH   6   7
ENDBRANCH   5   6
ENDBRANCH   4   5
ENDBRANCH   2   4
TORSDOF 6
ENDMDL
MODEL       85
REMARK 921   NORMALIZED FREE ENERGY PREDICTED BY IDOCK:   -4.20 KCAL/MOL
REMARK 922        TOTAL FREE ENERGY PREDICTED BY IDOCK:   -6.57 KCAL/MOL
REMARK 923 INTER-LIGAND FREE ENERGY PREDICTED BY IDOCK:   -5.82 KCAL/MOL
REMARK 924 INTRA-LIGAND FREE ENERGY PREDICTED BY IDOCK:   -0.75 KCAL/MOL
REMARK 927      BINDING AFFINITY PREDICTED BY RF-SCORE:    0.00 PKD
ROOT
HETATM    1  C   UNL     1     -13.058   9.303  71.827  1.00  0.00    -0.400 C  
HETATM    2  N   UNL     1     -12.850  10.438  70.922  1.00  0.00    -0.377 NA 
HETATM    3  C   UNL     1     -13.234  11.684  71.585  1.00  0.00    -0.272 C  
ENDROOT
BRANCH   2   4
HETATM    4  C   UNL     1     -11.449  10.458  70.469  1.00  0.00    -0.345 C  
BRANCH   4   5
HETATM    5  C   UNL     1     -11.245  10.450  68.942  1.00  0.00    -0.235 C  
BRANCH   5   6
HETATM    6  O   UNL     1     -10.961  11.743  68.394  1.00  0.00    -0.204 OA 
BRANCH   6   7
HETATM    7  C   UNL     1     -10.077  11.759  67.259  1.00  0.00    -0.192 C  
BRANCH   7   8
HETATM    8  C   UNL     1     -10.826  12.028  65.963  1.00  0.00    -0.329 A  
HETATM    9  C   UNL     1     -10.322  11.529  64.750  1.00  0.00    -0.341 A  
HETATM   10  C   UNL     1     -11.039  11.680  63.563  1.00  0.00    -0.476 A  
HETATM   11  C   UNL     1     -12.059  12.696  65.954  1.00  0.00    -0.459 A  
HETATM   12  C   UNL     1     -12.266  12.339  63.571  1.00  0.00    -0.669 A  
HETATM   13  C   UNL     1     -12.775  12.851  64.763  1.00  0.00    -0.442 A  
ENDBRANCH   7   8
BRANCH   7  14
HETATM   14  C   UNL     1      -8.925  12.720  67.524  1.00  0.00    -0.192 A  
HETATM   15  C   UNL     1      -7.924  14.917  67.192  1.00  0.00    -0.227 A  
HETATM   16  C   UNL     1      -6.705  13.213  68.389  1.00  0.00    -0.095 A  
HETATM   17  C   UNL     1      -8.992  14.035  67.027  1.00  0.00    -0.248 A  
HETATM   18  C   UNL     1      -7.771  12.327  68.219  1.00  0.00    -0.143 A  
HETATM   19  C   UNL     1      -6.778  14.504  67.868  1.00  0.00    -0.176 A  
ENDBRANCH   7  14
ENDBRANCH   6   7
ENDBRANCH   5   6
ENDBRANCH   4   5
ENDBRANCH   2   4
TORSDOF 6
ENDMDL
MODEL       86
REMARK 921   NORMALIZED FREE ENERGY PREDICTED BY IDOCK:   -4.20 KCAL/MOL
REMARK 922        TOTAL FREE ENERGY PREDICTED BY IDOCK:   -6.57 KCAL/MOL
REMARK 923 INTER-LIGAND FREE ENERGY PREDICTED BY IDOCK:   -6.18 KCAL/MOL
REMARK 924 INTRA-LIGAND FREE ENERGY PREDICTED BY IDOCK:   -0.39 KCAL/MOL
REMARK 927      BINDING AFFINITY PREDICTED BY RF-SCORE:    0.00 PKD
ROOT
HETATM    1  C   UNL     1     -10.190   5.700  66.504  1.00  0.00    -0.211 C  
HETATM    2  N   UNL     1     -10.996   6.650  67.279  1.00  0.00    -0.375 NA 
HETATM    3  C   UNL     1     -10.893   6.345  68.705  1.00  0.00    -0.317 C  
ENDROOT
BRANCH   2   4
HETATM    4  C   UNL     1     -10.569   8.026  66.972  1.00  0.00    -0.294 C  
BRANCH   4   5
HETATM    5  C   UNL     1     -10.154   8.878  68.187  1.00  0.00    -0.189 C  
BRANCH   5   6
HETATM    6  O   UNL     1     -10.111  10.284  67.913  1.00  0.00    -0.160 OA 
BRANCH   6   7
HETATM    7  C   UNL     1     -11.384  10.918  67.701  1.00  0.00    -0.270 C  
BRANCH   7   8
HETATM    8  C   UNL     1     -11.865  11.649  68.945  1.00  0.00    -0.392 A  
HETATM    9  C   UNL     1     -12.411  10.919  70.015  1.00  0.00    -0.385 A  
HETATM   10  C   UNL     1     -12.770  11.556  71.203  1.00  0.00    -0.458 A  
HETATM   11  C   UNL     1     -11.704  13.035  69.089  1.00  0.00    -0.378 A  
HETATM   12  C   UNL     1     -12.598  12.932  71.335  1.00  0.00    -0.319 A  
HETATM   13  C   UNL     1     -12.070  13.672  70.278  1.00  0.00    -0.427 A  
ENDBRANCH   7   8
BRANCH   7  14
HETATM   14  C   UNL     1     -11.318  11.789  66.453  1.00  0.00    -0.361 A  
HETATM   15  C   UNL     1     -12.397  13.398  64.974  1.00  0.00    -0.481 A  
HETATM   16  C   UNL     1     -10.229  12.508  64.399  1.00  0.00    -0.346 A  
HETATM   17  C   UNL     1     -12.396  12.640  66.146  1.00  0.00    -0.101 A  
HETATM   18  C   UNL     1     -10.229  11.745  65.569  1.00  0.00    -0.291 A  
HETATM   19  C   UNL     1     -11.316  13.327  64.098  1.00  0.00    -0.424 A  
ENDBRANCH   7  14
ENDBRANCH   6   7
ENDBRANCH   5   6
ENDBRANCH   4   5
ENDBRANCH   2   4
TORSDOF 6
ENDMDL
MODEL       87
REMARK 921   NORMALIZED FREE ENERGY PREDICTED BY IDOCK:   -4.18 KCAL/MOL
REMARK 922        TOTAL FREE ENERGY PREDICTED BY IDOCK:   -6.54 KCAL/MOL
REMARK 923 INTER-LIGAND FREE ENERGY PREDICTED BY IDOCK:   -5.72 KCAL/MOL
REMARK 924 INTRA-LIGAND FREE ENERGY PREDICTED BY IDOCK:   -0.82 KCAL/MOL
REMARK 927      BINDING AFFINITY PREDICTED BY RF-SCORE:    0.00 PKD
ROOT
HETATM    1  C   UNL     1      -7.619  10.045  64.277  1.00  0.00    -0.141 C  
HETATM    2  N   UNL     1      -8.913  10.725  64.159  1.00  0.00    -0.179 NA 
HETATM    3  C   UNL     1      -9.362  10.709  62.768  1.00  0.00    -0.327 C  
ENDROOT
BRANCH   2   4
HETATM    4  C   UNL     1      -9.887  10.092  65.065  1.00  0.00    -0.304 C  
BRANCH   4   5
HETATM    5  C   UNL     1      -9.303   9.514  66.368  1.00  0.00    -0.179 C  
BRANCH   5   6
HETATM    6  O   UNL     1      -9.473  10.373  67.503  1.00  0.00    -0.148 OA 
BRANCH   6   7
HETATM    7  C   UNL     1     -10.827  10.760  67.794  1.00  0.00    -0.269 C  
BRANCH   7   8
HETATM    8  C   UNL     1     -11.260  10.304  69.179  1.00  0.00    -0.268 A  
HETATM    9  C   UNL     1     -10.457   9.405  69.900  1.00  0.00    -0.257 A  
HETATM   10  C   UNL     1     -10.784   9.047  71.208  1.00  0.00    -0.379 A  
HETATM   11  C   UNL     1     -12.408  10.824  69.796  1.00  0.00    -0.305 A  
HETATM   12  C   UNL     1     -11.922   9.577  71.811  1.00  0.00    -0.443 A  
HETATM   13  C   UNL     1     -12.736  10.461  71.105  1.00  0.00    -0.514 A  
ENDBRANCH   7   8
BRANCH   7  14
HETATM   14  C   UNL     1     -10.994  12.254  67.550  1.00  0.00    -0.298 A  
HETATM   15  C   UNL     1     -10.338  14.540  68.083  1.00  0.00    -0.232 A  
HETATM   16  C   UNL     1     -12.150  14.142  66.540  1.00  0.00    -0.481 A  
HETATM   17  C   UNL     1     -10.164  13.164  68.231  1.00  0.00    -0.250 A  
HETATM   18  C   UNL     1     -11.980  12.764  66.692  1.00  0.00    -0.411 A  
HETATM   19  C   UNL     1     -11.335  15.029  67.241  1.00  0.00    -0.337 A  
ENDBRANCH   7  14
ENDBRANCH   6   7
ENDBRANCH   5   6
ENDBRANCH   4   5
ENDBRANCH   2   4
TORSDOF 6
ENDMDL
MODEL       88
REMARK 921   NORMALIZED FREE ENERGY PREDICTED BY IDOCK:   -4.16 KCAL/MOL
REMARK 922        TOTAL FREE ENERGY PREDICTED BY IDOCK:   -6.52 KCAL/MOL
REMARK 923 INTER-LIGAND FREE ENERGY PREDICTED BY IDOCK:   -5.71 KCAL/MOL
REMARK 924 INTRA-LIGAND FREE ENERGY PREDICTED BY IDOCK:   -0.81 KCAL/MOL
REMARK 927      BINDING AFFINITY PREDICTED BY RF-SCORE:    0.00 PKD
ROOT
HETATM    1  C   UNL     1      -6.389  11.383  67.784  1.00  0.00    -0.057 C  
HETATM    2  N   UNL     1      -7.607  12.197  67.861  1.00  0.00    -0.113 NA 
HETATM    3  C   UNL     1      -8.700  11.410  68.430  1.00  0.00    -0.157 C  
ENDROOT
BRANCH   2   4
HETATM    4  C   UNL     1      -7.336  13.417  68.640  1.00  0.00    -0.106 C  
BRANCH   4   5
HETATM    5  C   UNL     1      -7.564  14.745  67.893  1.00  0.00    -0.139 C  
BRANCH   5   6
HETATM    6  O   UNL     1      -8.947  15.075  67.718  1.00  0.00    -0.174 OA 
BRANCH   6   7
HETATM    7  C   UNL     1      -9.484  16.029  68.651  1.00  0.00    -0.224 C  
BRANCH   7   8
HETATM    8  C   UNL     1      -9.938  17.304  67.958  1.00  0.00    -0.304 A  
HETATM    9  C   UNL     1      -9.899  18.526  68.652  1.00  0.00    -0.419 A  
HETATM   10  C   UNL     1     -10.219  19.722  68.008  1.00  0.00    -0.581 A  
HETATM   11  C   UNL     1     -10.319  17.309  66.609  1.00  0.00    -0.305 A  
HETATM   12  C   UNL     1     -10.590  19.712  66.666  1.00  0.00    -0.599 A  
HETATM   13  C   UNL     1     -10.644  18.508  65.967  1.00  0.00    -0.368 A  
ENDBRANCH   7   8
BRANCH   7  14
HETATM   14  C   UNL     1     -10.561  15.363  69.498  1.00  0.00    -0.270 A  
HETATM   15  C   UNL     1     -12.121  13.518  69.813  1.00  0.00    -0.381 A  
HETATM   16  C   UNL     1     -12.115  15.361  71.370  1.00  0.00    -0.436 A  
HETATM   17  C   UNL     1     -11.085  14.120  69.098  1.00  0.00    -0.295 A  
HETATM   18  C   UNL     1     -11.082  15.967  70.652  1.00  0.00    -0.352 A  
HETATM   19  C   UNL     1     -12.639  14.141  70.946  1.00  0.00    -0.433 A  
ENDBRANCH   7  14
ENDBRANCH   6   7
ENDBRANCH   5   6
ENDBRANCH   4   5
ENDBRANCH   2   4
TORSDOF 6
ENDMDL
MODEL       89
REMARK 921   NORMALIZED FREE ENERGY PREDICTED BY IDOCK:   -4.15 KCAL/MOL
REMARK 922        TOTAL FREE ENERGY PREDICTED BY IDOCK:   -6.51 KCAL/MOL
REMARK 923 INTER-LIGAND FREE ENERGY PREDICTED BY IDOCK:   -5.77 KCAL/MOL
REMARK 924 INTRA-LIGAND FREE ENERGY PREDICTED BY IDOCK:   -0.74 KCAL/MOL
REMARK 927      BINDING AFFINITY PREDICTED BY RF-SCORE:    0.00 PKD
ROOT
HETATM    1  C   UNL     1      -9.145  15.904  69.286  1.00  0.00    -0.253 C  
HETATM    2  N   UNL     1      -9.316  16.145  67.850  1.00  0.00    -0.211 NA 
HETATM    3  C   UNL     1      -8.526  17.304  67.439  1.00  0.00    -0.200 C  
ENDROOT
BRANCH   2   4
HETATM    4  C   UNL     1      -8.953  14.930  67.099  1.00  0.00    -0.214 C  
BRANCH   4   5
HETATM    5  C   UNL     1      -8.772  13.656  67.946  1.00  0.00    -0.184 C  
BRANCH   5   6
HETATM    6  O   UNL     1      -9.934  12.817  67.976  1.00  0.00    -0.212 OA 
BRANCH   6   7
HETATM    7  C   UNL     1      -9.865  11.629  67.168  1.00  0.00    -0.188 C  
BRANCH   7   8
HETATM    8  C   UNL     1     -10.204  10.381  67.969  1.00  0.00    -0.199 A  
HETATM    9  C   UNL     1     -10.242   9.131  67.329  1.00  0.00    -0.319 A  
HETATM   10  C   UNL     1     -10.455   7.961  68.059  1.00  0.00    -0.245 A  
HETATM   11  C   UNL     1     -10.401  10.432  69.357  1.00  0.00    -0.259 A  
HETATM   12  C   UNL     1     -10.642   8.026  69.438  1.00  0.00    -0.210 A  
HETATM   13  C   UNL     1     -10.620   9.260  70.087  1.00  0.00    -0.266 A  
ENDBRANCH   7   8
BRANCH   7  14
HETATM   14  C   UNL     1     -10.712  11.815  65.916  1.00  0.00    -0.328 A  
HETATM   15  C   UNL     1     -10.963  11.536  63.508  1.00  0.00    -0.453 A  
HETATM   16  C   UNL     1     -12.658  12.711  64.761  1.00  0.00    -0.530 A  
HETATM   17  C   UNL     1     -10.244  11.321  64.684  1.00  0.00    -0.357 A  
HETATM   18  C   UNL     1     -11.936  12.501  65.938  1.00  0.00    -0.472 A  
HETATM   19  C   UNL     1     -12.167  12.236  63.546  1.00  0.00    -0.669 A  
ENDBRANCH   7  14
ENDBRANCH   6   7
ENDBRANCH   5   6
ENDBRANCH   4   5
ENDBRANCH   2   4
TORSDOF 6
ENDMDL
MODEL       90
REMARK 921   NORMALIZED FREE ENERGY PREDICTED BY IDOCK:   -4.15 KCAL/MOL
REMARK 922        TOTAL FREE ENERGY PREDICTED BY IDOCK:   -6.51 KCAL/MOL
REMARK 923 INTER-LIGAND FREE ENERGY PREDICTED BY IDOCK:   -5.72 KCAL/MOL
REMARK 924 INTRA-LIGAND FREE ENERGY PREDICTED BY IDOCK:   -0.79 KCAL/MOL
REMARK 927      BINDING AFFINITY PREDICTED BY RF-SCORE:    0.00 PKD
ROOT
HETATM    1  C   UNL     1      -6.589  11.098  66.537  1.00  0.00    -0.124 C  
HETATM    2  N   UNL     1      -6.939   9.918  67.334  1.00  0.00    -0.083 NA 
HETATM    3  C   UNL     1      -5.775   9.464  68.094  1.00  0.00    -0.037 C  
ENDROOT
BRANCH   2   4
HETATM    4  C   UNL     1      -8.084  10.233  68.205  1.00  0.00    -0.107 C  
BRANCH   4   5
HETATM    5  C   UNL     1      -8.656  11.657  68.061  1.00  0.00    -0.152 C  
BRANCH   5   6
HETATM    6  O   UNL     1     -10.071  11.731  68.275  1.00  0.00    -0.186 OA 
BRANCH   6   7
HETATM    7  C   UNL     1     -10.620  13.057  68.358  1.00  0.00    -0.251 C  
BRANCH   7   8
HETATM    8  C   UNL     1     -11.260  13.488  67.048  1.00  0.00    -0.330 A  
HETATM    9  C   UNL     1     -11.018  14.778  66.545  1.00  0.00    -0.325 A  
HETATM   10  C   UNL     1     -11.515  15.163  65.299  1.00  0.00    -0.266 A  
HETATM   11  C   UNL     1     -12.025  12.599  66.278  1.00  0.00    -0.439 A  
HETATM   12  C   UNL     1     -12.267  14.267  64.543  1.00  0.00    -0.476 A  
HETATM   13  C   UNL     1     -12.526  12.988  65.033  1.00  0.00    -0.534 A  
ENDBRANCH   7   8
BRANCH   7  14
HETATM   14  C   UNL     1     -11.547  13.150  69.564  1.00  0.00    -0.347 A  
HETATM   15  C   UNL     1     -12.856  12.017  71.280  1.00  0.00    -0.364 A  
HETATM   16  C   UNL     1     -12.947  14.421  71.095  1.00  0.00    -0.419 A  
HETATM   17  C   UNL     1     -11.952  11.971  70.217  1.00  0.00    -0.398 A  
HETATM   18  C   UNL     1     -12.047  14.376  70.028  1.00  0.00    -0.401 A  
HETATM   19  C   UNL     1     -13.357  13.242  71.714  1.00  0.00    -0.479 A  
ENDBRANCH   7  14
ENDBRANCH   6   7
ENDBRANCH   5   6
ENDBRANCH   4   5
ENDBRANCH   2   4
TORSDOF 6
ENDMDL
MODEL       91
REMARK 921   NORMALIZED FREE ENERGY PREDICTED BY IDOCK:   -4.15 KCAL/MOL
REMARK 922        TOTAL FREE ENERGY PREDICTED BY IDOCK:   -6.50 KCAL/MOL
REMARK 923 INTER-LIGAND FREE ENERGY PREDICTED BY IDOCK:   -5.73 KCAL/MOL
REMARK 924 INTRA-LIGAND FREE ENERGY PREDICTED BY IDOCK:   -0.78 KCAL/MOL
REMARK 927      BINDING AFFINITY PREDICTED BY RF-SCORE:    0.00 PKD
ROOT
HETATM    1  C   UNL     1      -9.887   9.738  65.733  1.00  0.00    -0.290 C  
HETATM    2  N   UNL     1      -9.720  10.894  64.846  1.00  0.00    -0.244 NA 
HETATM    3  C   UNL     1      -8.793  10.566  63.764  1.00  0.00    -0.200 C  
ENDROOT
BRANCH   2   4
HETATM    4  C   UNL     1     -11.036  11.322  64.340  1.00  0.00    -0.261 C  
BRANCH   4   5
HETATM    5  C   UNL     1     -11.756  12.392  65.184  1.00  0.00    -0.382 C  
BRANCH   5   6
HETATM    6  O   UNL     1     -11.805  12.081  66.582  1.00  0.00    -0.583 OA 
BRANCH   6   7
HETATM    7  C   UNL     1     -11.612  13.192  67.475  1.00  0.00    -0.352 C  
BRANCH   7   8
HETATM    8  C   UNL     1     -12.068  12.867  68.888  1.00  0.00    -0.182 A  
HETATM    9  C   UNL     1     -12.123  11.529  69.313  1.00  0.00    -0.344 A  
HETATM   10  C   UNL     1     -12.444  11.211  70.633  1.00  0.00    -0.448 A  
HETATM   11  C   UNL     1     -12.360  13.879  69.815  1.00  0.00    -0.330 A  
HETATM   12  C   UNL     1     -12.725  12.227  71.544  1.00  0.00    -0.339 A  
HETATM   13  C   UNL     1     -12.688  13.559  71.136  1.00  0.00    -0.425 A  
ENDBRANCH   7   8
BRANCH   7  14
HETATM   14  C   UNL     1     -10.171  13.676  67.381  1.00  0.00    -0.241 A  
HETATM   15  C   UNL     1      -7.817  13.333  67.910  1.00  0.00    -0.152 A  
HETATM   16  C   UNL     1      -8.512  15.358  66.796  1.00  0.00    -0.307 A  
HETATM   17  C   UNL     1      -9.138  12.885  67.917  1.00  0.00    -0.201 A  
HETATM   18  C   UNL     1      -9.836  14.913  66.808  1.00  0.00    -0.254 A  
HETATM   19  C   UNL     1      -7.505  14.572  67.355  1.00  0.00    -0.194 A  
ENDBRANCH   7  14
ENDBRANCH   6   7
ENDBRANCH   5   6
ENDBRANCH   4   5
ENDBRANCH   2   4
TORSDOF 6
ENDMDL
MODEL       92
REMARK 921   NORMALIZED FREE ENERGY PREDICTED BY IDOCK:   -4.13 KCAL/MOL
REMARK 922        TOTAL FREE ENERGY PREDICTED BY IDOCK:   -6.48 KCAL/MOL
REMARK 923 INTER-LIGAND FREE ENERGY PREDICTED BY IDOCK:   -5.77 KCAL/MOL
REMARK 924 INTRA-LIGAND FREE ENERGY PREDICTED BY IDOCK:   -0.71 KCAL/MOL
REMARK 927      BINDING AFFINITY PREDICTED BY RF-SCORE:    0.00 PKD
ROOT
HETATM    1  C   UNL     1      -7.678  10.228  66.134  1.00  0.00    -0.123 C  
HETATM    2  N   UNL     1      -8.968  10.735  65.654  1.00  0.00    -0.184 NA 
HETATM    3  C   UNL     1      -9.406   9.966  64.491  1.00  0.00    -0.275 C  
ENDROOT
BRANCH   2   4
HETATM    4  C   UNL     1      -9.952  10.695  66.750  1.00  0.00    -0.209 C  
BRANCH   4   5
HETATM    5  C   UNL     1     -11.387  11.106  66.367  1.00  0.00     0.079 C  
BRANCH   5   6
HETATM    6  O   UNL     1     -11.959  12.081  67.248  1.00  0.00    -0.591 OA 
BRANCH   6   7
HETATM    7  C   UNL     1     -11.079  12.597  68.262  1.00  0.00    -0.261 C  
BRANCH   7   8
HETATM    8  C   UNL     1     -10.481  13.937  67.865  1.00  0.00    -0.242 A  
HETATM    9  C   UNL     1      -9.312  14.393  68.496  1.00  0.00    -0.204 A  
HETATM   10  C   UNL     1      -8.691  15.572  68.081  1.00  0.00    -0.164 A  
HETATM   11  C   UNL     1     -11.022  14.700  66.819  1.00  0.00    -0.323 A  
HETATM   12  C   UNL     1      -9.236  16.316  67.037  1.00  0.00    -0.230 A  
HETATM   13  C   UNL     1     -10.402  15.883  66.409  1.00  0.00    -0.313 A  
ENDBRANCH   7   8
BRANCH   7  14
HETATM   14  C   UNL     1     -11.801  12.610  69.604  1.00  0.00    -0.379 A  
HETATM   15  C   UNL     1     -12.825  11.368  71.433  1.00  0.00    -0.502 A  
HETATM   16  C   UNL     1     -12.933  13.779  71.413  1.00  0.00    -0.433 A  
HETATM   17  C   UNL     1     -12.103  11.392  70.239  1.00  0.00    -0.459 A  
HETATM   18  C   UNL     1     -12.215  13.803  70.216  1.00  0.00    -0.429 A  
HETATM   19  C   UNL     1     -13.245  12.561  72.017  1.00  0.00    -0.524 A  
ENDBRANCH   7  14
ENDBRANCH   6   7
ENDBRANCH   5   6
ENDBRANCH   4   5
ENDBRANCH   2   4
TORSDOF 6
ENDMDL
MODEL       93
REMARK 921   NORMALIZED FREE ENERGY PREDICTED BY IDOCK:   -4.13 KCAL/MOL
REMARK 922        TOTAL FREE ENERGY PREDICTED BY IDOCK:   -6.48 KCAL/MOL
REMARK 923 INTER-LIGAND FREE ENERGY PREDICTED BY IDOCK:   -6.02 KCAL/MOL
REMARK 924 INTRA-LIGAND FREE ENERGY PREDICTED BY IDOCK:   -0.45 KCAL/MOL
REMARK 927      BINDING AFFINITY PREDICTED BY RF-SCORE:    0.00 PKD
ROOT
HETATM    1  C   UNL     1     -12.567  12.029  63.972  1.00  0.00    -0.359 C  
HETATM    2  N   UNL     1     -11.114  12.036  63.769  1.00  0.00    -0.399 NA 
HETATM    3  C   UNL     1     -10.549  13.299  64.241  1.00  0.00    -0.384 C  
ENDROOT
BRANCH   2   4
HETATM    4  C   UNL     1     -10.516  10.872  64.445  1.00  0.00    -0.333 C  
BRANCH   4   5
HETATM    5  C   UNL     1      -9.951  11.141  65.854  1.00  0.00    -0.239 C  
BRANCH   5   6
HETATM    6  O   UNL     1     -10.569  10.354  66.879  1.00  0.00    -0.248 OA 
BRANCH   6   7
HETATM    7  C   UNL     1     -11.407  11.074  67.799  1.00  0.00    -0.292 C  
BRANCH   7   8
HETATM    8  C   UNL     1     -11.491  10.381  69.150  1.00  0.00    -0.261 A  
HETATM    9  C   UNL     1     -10.540   9.406  69.493  1.00  0.00    -0.237 A  
HETATM   10  C   UNL     1     -10.538   8.826  70.762  1.00  0.00    -0.269 A  
HETATM   11  C   UNL     1     -12.450  10.750  70.105  1.00  0.00    -0.357 A  
HETATM   12  C   UNL     1     -11.492   9.207  71.703  1.00  0.00    -0.451 A  
HETATM   13  C   UNL     1     -12.450  10.165  71.374  1.00  0.00    -0.524 A  
ENDBRANCH   7   8
BRANCH   7  14
HETATM   14  C   UNL     1     -10.955  12.527  67.871  1.00  0.00    -0.262 A  
HETATM   15  C   UNL     1     -11.443  14.885  67.494  1.00  0.00    -0.361 A  
HETATM   16  C   UNL     1      -9.249  14.221  68.246  1.00  0.00    -0.197 A  
HETATM   17  C   UNL     1     -11.850  13.550  67.506  1.00  0.00    -0.406 A  
HETATM   18  C   UNL     1      -9.653  12.884  68.253  1.00  0.00    -0.212 A  
HETATM   19  C   UNL     1     -10.141  15.219  67.858  1.00  0.00    -0.233 A  
ENDBRANCH   7  14
ENDBRANCH   6   7
ENDBRANCH   5   6
ENDBRANCH   4   5
ENDBRANCH   2   4
TORSDOF 6
ENDMDL
MODEL       94
REMARK 921   NORMALIZED FREE ENERGY PREDICTED BY IDOCK:   -4.13 KCAL/MOL
REMARK 922        TOTAL FREE ENERGY PREDICTED BY IDOCK:   -6.48 KCAL/MOL
REMARK 923 INTER-LIGAND FREE ENERGY PREDICTED BY IDOCK:   -6.06 KCAL/MOL
REMARK 924 INTRA-LIGAND FREE ENERGY PREDICTED BY IDOCK:   -0.42 KCAL/MOL
REMARK 927      BINDING AFFINITY PREDICTED BY RF-SCORE:    0.00 PKD
ROOT
HETATM    1  C   UNL     1      -9.213   8.549  67.142  1.00  0.00    -0.142 C  
HETATM    2  N   UNL     1     -10.018   8.818  68.338  1.00  0.00    -0.173 NA 
HETATM    3  C   UNL     1      -9.768   7.793  69.351  1.00  0.00    -0.169 C  
ENDROOT
BRANCH   2   4
HETATM    4  C   UNL     1      -9.725  10.173  68.835  1.00  0.00    -0.187 C  
BRANCH   4   5
HETATM    5  C   UNL     1     -10.957  11.043  69.154  1.00  0.00    -0.237 C  
BRANCH   5   6
HETATM    6  O   UNL     1     -11.894  11.128  68.074  1.00  0.00    -0.582 OA 
BRANCH   6   7
HETATM    7  C   UNL     1     -12.033  12.425  67.469  1.00  0.00    -0.183 C  
BRANCH   7   8
HETATM    8  C   UNL     1     -11.235  13.484  68.213  1.00  0.00    -0.305 A  
HETATM    9  C   UNL     1      -9.926  13.788  67.802  1.00  0.00    -0.242 A  
HETATM   10  C   UNL     1      -9.210  14.821  68.407  1.00  0.00    -0.189 A  
HETATM   11  C   UNL     1     -11.803  14.232  69.255  1.00  0.00    -0.372 A  
HETATM   12  C   UNL     1      -9.789  15.560  69.436  1.00  0.00    -0.283 A  
HETATM   13  C   UNL     1     -11.083  15.264  69.863  1.00  0.00    -0.303 A  
ENDBRANCH   7   8
BRANCH   7  14
HETATM   14  C   UNL     1     -11.710  12.331  65.983  1.00  0.00    -0.451 A  
HETATM   15  C   UNL     1     -12.176  13.041  63.699  1.00  0.00    -0.568 A  
HETATM   16  C   UNL     1     -10.544  11.312  64.106  1.00  0.00    -0.437 A  
HETATM   17  C   UNL     1     -12.399  13.153  65.072  1.00  0.00    -0.511 A  
HETATM   18  C   UNL     1     -10.770  11.419  65.480  1.00  0.00    -0.313 A  
HETATM   19  C   UNL     1     -11.253  12.117  63.216  1.00  0.00    -0.409 A  
ENDBRANCH   7  14
ENDBRANCH   6   7
ENDBRANCH   5   6
ENDBRANCH   4   5
ENDBRANCH   2   4
TORSDOF 6
ENDMDL
MODEL       95
REMARK 921   NORMALIZED FREE ENERGY PREDICTED BY IDOCK:   -4.12 KCAL/MOL
REMARK 922        TOTAL FREE ENERGY PREDICTED BY IDOCK:   -6.47 KCAL/MOL
REMARK 923 INTER-LIGAND FREE ENERGY PREDICTED BY IDOCK:   -5.68 KCAL/MOL
REMARK 924 INTRA-LIGAND FREE ENERGY PREDICTED BY IDOCK:   -0.79 KCAL/MOL
REMARK 927      BINDING AFFINITY PREDICTED BY RF-SCORE:    0.00 PKD
ROOT
HETATM    1  C   UNL     1      -9.191  17.881  68.396  1.00  0.00    -0.286 C  
HETATM    2  N   UNL     1     -10.411  17.490  67.681  1.00  0.00    -0.346 NA 
HETATM    3  C   UNL     1     -10.227  17.672  66.242  1.00  0.00    -0.362 C  
ENDROOT
BRANCH   2   4
HETATM    4  C   UNL     1     -10.762  16.102  68.026  1.00  0.00    -0.321 C  
BRANCH   4   5
HETATM    5  C   UNL     1     -12.007  15.537  67.315  1.00  0.00     0.414 C  
BRANCH   5   6
HETATM    6  O   UNL     1     -12.203  14.134  67.531  1.00  0.00    -0.370 OA 
BRANCH   6   7
HETATM    7  C   UNL     1     -11.221  13.487  68.360  1.00  0.00    -0.278 C  
BRANCH   7   8
HETATM    8  C   UNL     1     -11.840  12.907  69.622  1.00  0.00    -0.387 A  
HETATM    9  C   UNL     1     -12.440  13.763  70.561  1.00  0.00    -0.409 A  
HETATM   10  C   UNL     1     -13.098  13.247  71.678  1.00  0.00    -0.453 A  
HETATM   11  C   UNL     1     -11.902  11.522  69.838  1.00  0.00    -0.430 A  
HETATM   12  C   UNL     1     -13.157  11.870  71.876  1.00  0.00    -0.474 A  
HETATM   13  C   UNL     1     -12.557  11.007  70.961  1.00  0.00    -0.512 A  
ENDBRANCH   7   8
BRANCH   7  14
HETATM   14  C   UNL     1     -10.438  12.478  67.529  1.00  0.00    -0.231 A  
HETATM   15  C   UNL     1      -8.300  11.459  66.957  1.00  0.00    -0.161 A  
HETATM   16  C   UNL     1     -10.284  10.848  65.729  1.00  0.00    -0.318 A  
HETATM   17  C   UNL     1      -9.057  12.324  67.749  1.00  0.00    -0.191 A  
HETATM   18  C   UNL     1     -11.043  11.717  66.517  1.00  0.00    -0.364 A  
HETATM   19  C   UNL     1      -8.913  10.726  65.944  1.00  0.00    -0.200 A  
ENDBRANCH   7  14
ENDBRANCH   6   7
ENDBRANCH   5   6
ENDBRANCH   4   5
ENDBRANCH   2   4
TORSDOF 6
ENDMDL
MODEL       96
REMARK 921   NORMALIZED FREE ENERGY PREDICTED BY IDOCK:   -4.11 KCAL/MOL
REMARK 922        TOTAL FREE ENERGY PREDICTED BY IDOCK:   -6.45 KCAL/MOL
REMARK 923 INTER-LIGAND FREE ENERGY PREDICTED BY IDOCK:   -5.67 KCAL/MOL
REMARK 924 INTRA-LIGAND FREE ENERGY PREDICTED BY IDOCK:   -0.78 KCAL/MOL
REMARK 927      BINDING AFFINITY PREDICTED BY RF-SCORE:    0.00 PKD
ROOT
HETATM    1  C   UNL     1     -11.747   7.696  71.647  1.00  0.00    -0.281 C  
HETATM    2  N   UNL     1     -12.360   8.971  71.259  1.00  0.00    -0.310 NA 
HETATM    3  C   UNL     1     -13.393   9.344  72.224  1.00  0.00    -0.461 C  
ENDROOT
BRANCH   2   4
HETATM    4  C   UNL     1     -11.317  10.003  71.135  1.00  0.00    -0.323 C  
BRANCH   4   5
HETATM    5  C   UNL     1     -11.644  11.166  70.179  1.00  0.00    -0.323 C  
BRANCH   5   6
HETATM    6  O   UNL     1     -10.660  11.363  69.157  1.00  0.00    -0.211 OA 
BRANCH   6   7
HETATM    7  C   UNL     1     -11.097  11.105  67.812  1.00  0.00    -0.285 C  
BRANCH   7   8
HETATM    8  C   UNL     1     -11.029  12.353  66.945  1.00  0.00    -0.307 A  
HETATM    9  C   UNL     1     -11.848  12.458  65.809  1.00  0.00    -0.467 A  
HETATM   10  C   UNL     1     -11.874  13.632  65.054  1.00  0.00    -0.379 A  
HETATM   11  C   UNL     1     -10.224  13.446  67.297  1.00  0.00    -0.241 A  
HETATM   12  C   UNL     1     -11.074  14.712  65.419  1.00  0.00    -0.349 A  
HETATM   13  C   UNL     1     -10.246  14.619  66.537  1.00  0.00    -0.282 A  
ENDBRANCH   7   8
BRANCH   7  14
HETATM   14  C   UNL     1     -10.334   9.913  67.248  1.00  0.00    -0.303 A  
HETATM   15  C   UNL     1      -8.635   9.055  65.726  1.00  0.00    -0.180 A  
HETATM   16  C   UNL     1      -9.975   7.517  67.015  1.00  0.00    -0.304 A  
HETATM   17  C   UNL     1      -9.305  10.129  66.313  1.00  0.00    -0.214 A  
HETATM   18  C   UNL     1     -10.650   8.592  67.600  1.00  0.00    -0.268 A  
HETATM   19  C   UNL     1      -8.975   7.749  66.073  1.00  0.00    -0.185 A  
ENDBRANCH   7  14
ENDBRANCH   6   7
ENDBRANCH   5   6
ENDBRANCH   4   5
ENDBRANCH   2   4
TORSDOF 6
ENDMDL
MODEL       97
REMARK 921   NORMALIZED FREE ENERGY PREDICTED BY IDOCK:   -4.11 KCAL/MOL
REMARK 922        TOTAL FREE ENERGY PREDICTED BY IDOCK:   -6.45 KCAL/MOL
REMARK 923 INTER-LIGAND FREE ENERGY PREDICTED BY IDOCK:   -5.66 KCAL/MOL
REMARK 924 INTRA-LIGAND FREE ENERGY PREDICTED BY IDOCK:   -0.79 KCAL/MOL
REMARK 927      BINDING AFFINITY PREDICTED BY RF-SCORE:    0.00 PKD
ROOT
HETATM    1  C   UNL     1     -12.361  15.790  72.737  1.00  0.00    -0.463 C  
HETATM    2  N   UNL     1     -12.462  14.453  72.141  1.00  0.00    -0.295 NA 
HETATM    3  C   UNL     1     -13.848  13.991  72.180  1.00  0.00    -0.532 C  
ENDROOT
BRANCH   2   4
HETATM    4  C   UNL     1     -11.924  14.483  70.770  1.00  0.00    -0.322 C  
BRANCH   4   5
HETATM    5  C   UNL     1     -10.760  15.464  70.535  1.00  0.00    -0.261 C  
BRANCH   5   6
HETATM    6  O   UNL     1     -10.557  15.795  69.156  1.00  0.00    -0.214 OA 
BRANCH   6   7
HETATM    7  C   UNL     1     -10.245  14.691  68.289  1.00  0.00    -0.227 C  
BRANCH   7   8
HETATM    8  C   UNL     1     -10.974  14.792  66.958  1.00  0.00    -0.324 A  
HETATM    9  C   UNL     1     -10.468  15.626  65.947  1.00  0.00    -0.358 A  
HETATM   10  C   UNL     1     -11.064  15.661  64.686  1.00  0.00    -0.387 A  
HETATM   11  C   UNL     1     -12.103  14.006  66.679  1.00  0.00    -0.487 A  
HETATM   12  C   UNL     1     -12.180  14.871  64.422  1.00  0.00    -0.399 A  
HETATM   13  C   UNL     1     -12.702  14.047  65.417  1.00  0.00    -0.499 A  
ENDBRANCH   7   8
BRANCH   7  14
HETATM   14  C   UNL     1      -8.733  14.555  68.162  1.00  0.00    -0.171 A  
HETATM   15  C   UNL     1      -6.803  13.177  67.599  1.00  0.00    -0.160 A  
HETATM   16  C   UNL     1      -6.473  15.392  68.497  1.00  0.00    -0.099 A  
HETATM   17  C   UNL     1      -8.185  13.359  67.661  1.00  0.00    -0.177 A  
HETATM   18  C   UNL     1      -7.856  15.573  68.566  1.00  0.00    -0.135 A  
HETATM   19  C   UNL     1      -5.948  14.192  68.022  1.00  0.00    -0.146 A  
ENDBRANCH   7  14
ENDBRANCH   6   7
ENDBRANCH   5   6
ENDBRANCH   4   5
ENDBRANCH   2   4
TORSDOF 6
ENDMDL
MODEL       98
REMARK 921   NORMALIZED FREE ENERGY PREDICTED BY IDOCK:   -4.11 KCAL/MOL
REMARK 922        TOTAL FREE ENERGY PREDICTED BY IDOCK:   -6.45 KCAL/MOL
REMARK 923 INTER-LIGAND FREE ENERGY PREDICTED BY IDOCK:   -5.67 KCAL/MOL
REMARK 924 INTRA-LIGAND FREE ENERGY PREDICTED BY IDOCK:   -0.77 KCAL/MOL
REMARK 927      BINDING AFFINITY PREDICTED BY RF-SCORE:    0.00 PKD
ROOT
HETATM    1  C   UNL     1      -7.589   8.142  65.705  1.00  0.00    -0.082 C  
HETATM    2  N   UNL     1      -8.954   7.736  66.058  1.00  0.00    -0.166 NA 
HETATM    3  C   UNL     1      -9.068   6.279  66.021  1.00  0.00    -0.109 C  
ENDROOT
BRANCH   2   4
HETATM    4  C   UNL     1      -9.307   8.288  67.377  1.00  0.00    -0.141 C  
BRANCH   4   5
HETATM    5  C   UNL     1     -10.535   9.219  67.399  1.00  0.00    -0.273 C  
BRANCH   5   6
HETATM    6  O   UNL     1     -10.430  10.283  68.354  1.00  0.00    -0.180 OA 
BRANCH   6   7
HETATM    7  C   UNL     1     -11.504  10.374  69.306  1.00  0.00    -0.215 C  
BRANCH   7   8
HETATM    8  C   UNL     1     -11.224   9.553  70.555  1.00  0.00    -0.345 A  
HETATM    9  C   UNL     1     -12.263   8.825  71.159  1.00  0.00    -0.284 A  
HETATM   10  C   UNL     1     -12.010   7.990  72.247  1.00  0.00    -0.412 A  
HETATM   11  C   UNL     1      -9.928   9.434  71.078  1.00  0.00    -0.334 A  
HETATM   12  C   UNL     1     -10.717   7.877  72.752  1.00  0.00    -0.435 A  
HETATM   13  C   UNL     1      -9.677   8.601  72.172  1.00  0.00    -0.383 A  
ENDBRANCH   7   8
BRANCH   7  14
HETATM   14  C   UNL     1     -11.818  11.839  69.581  1.00  0.00    -0.407 A  
HETATM   15  C   UNL     1     -11.665  14.170  68.888  1.00  0.00    -0.369 A  
HETATM   16  C   UNL     1     -12.643  13.617  71.023  1.00  0.00    -0.441 A  
HETATM   17  C   UNL     1     -11.455  12.814  68.634  1.00  0.00    -0.341 A  
HETATM   18  C   UNL     1     -12.428  12.260  70.773  1.00  0.00    -0.356 A  
HETATM   19  C   UNL     1     -12.254  14.571  70.085  1.00  0.00    -0.399 A  
ENDBRANCH   7  14
ENDBRANCH   6   7
ENDBRANCH   5   6
ENDBRANCH   4   5
ENDBRANCH   2   4
TORSDOF 6
ENDMDL
MODEL       99
REMARK 921   NORMALIZED FREE ENERGY PREDICTED BY IDOCK:   -4.10 KCAL/MOL
REMARK 922        TOTAL FREE ENERGY PREDICTED BY IDOCK:   -6.44 KCAL/MOL
REMARK 923 INTER-LIGAND FREE ENERGY PREDICTED BY IDOCK:   -5.44 KCAL/MOL
REMARK 924 INTRA-LIGAND FREE ENERGY PREDICTED BY IDOCK:   -1.00 KCAL/MOL
REMARK 927      BINDING AFFINITY PREDICTED BY RF-SCORE:    0.00 PKD
ROOT
HETATM    1  C   UNL     1      -8.284   8.642  68.202  1.00  0.00    -0.115 C  
HETATM    2  N   UNL     1      -9.294   9.574  67.690  1.00  0.00    -0.124 NA 
HETATM    3  C   UNL     1     -10.539   8.859  67.411  1.00  0.00    -0.235 C  
ENDROOT
BRANCH   2   4
HETATM    4  C   UNL     1      -9.487  10.672  68.653  1.00  0.00    -0.176 C  
BRANCH   4   5
HETATM    5  C   UNL     1      -8.532  11.871  68.492  1.00  0.00    -0.113 C  
BRANCH   5   6
HETATM    6  O   UNL     1      -8.885  12.743  67.411  1.00  0.00    -0.172 OA 
BRANCH   6   7
HETATM    7  C   UNL     1     -10.263  13.152  67.364  1.00  0.00    -0.232 C  
BRANCH   7   8
HETATM    8  C   UNL     1     -10.423  14.635  67.658  1.00  0.00    -0.243 A  
HETATM    9  C   UNL     1     -11.183  15.049  68.766  1.00  0.00    -0.288 A  
HETATM   10  C   UNL     1     -11.265  16.398  69.111  1.00  0.00    -0.275 A  
HETATM   11  C   UNL     1      -9.760  15.610  66.897  1.00  0.00    -0.240 A  
HETATM   12  C   UNL     1     -10.596  17.353  68.350  1.00  0.00    -0.355 A  
HETATM   13  C   UNL     1      -9.848  16.962  67.241  1.00  0.00    -0.265 A  
ENDBRANCH   7   8
BRANCH   7  14
HETATM   14  C   UNL     1     -10.881  12.708  66.044  1.00  0.00    -0.306 A  
HETATM   15  C   UNL     1     -10.579  11.832  63.790  1.00  0.00    -0.470 A  
HETATM   16  C   UNL     1     -12.778  12.488  64.537  1.00  0.00    -0.440 A  
HETATM   17  C   UNL     1     -10.054  12.182  65.035  1.00  0.00    -0.289 A  
HETATM   18  C   UNL     1     -12.253  12.843  65.781  1.00  0.00    -0.498 A  
HETATM   19  C   UNL     1     -11.940  11.991  63.540  1.00  0.00    -0.605 A  
ENDBRANCH   7  14
ENDBRANCH   6   7
ENDBRANCH   5   6
ENDBRANCH   4   5
ENDBRANCH   2   4
TORSDOF 6
ENDMDL
MODEL      100
REMARK 921   NORMALIZED FREE ENERGY PREDICTED BY IDOCK:   -4.08 KCAL/MOL
REMARK 922        TOTAL FREE ENERGY PREDICTED BY IDOCK:   -6.41 KCAL/MOL
REMARK 923 INTER-LIGAND FREE ENERGY PREDICTED BY IDOCK:   -5.61 KCAL/MOL
REMARK 924 INTRA-LIGAND FREE ENERGY PREDICTED BY IDOCK:   -0.79 KCAL/MOL
REMARK 927      BINDING AFFINITY PREDICTED BY RF-SCORE:    0.00 PKD
ROOT
HETATM    1  C   UNL     1     -10.422   5.217  66.759  1.00  0.00    -0.273 C  
HETATM    2  N   UNL     1     -11.081   6.307  67.487  1.00  0.00    -0.342 NA 
HETATM    3  C   UNL     1     -10.938   6.105  68.928  1.00  0.00    -0.356 C  
ENDROOT
BRANCH   2   4
HETATM    4  C   UNL     1     -10.527   7.599  67.049  1.00  0.00    -0.349 C  
BRANCH   4   5
HETATM    5  C   UNL     1     -10.497   8.706  68.121  1.00  0.00    -0.187 C  
BRANCH   5   6
HETATM    6  O   UNL     1      -9.897   9.926  67.669  1.00  0.00    -0.154 OA 
BRANCH   6   7
HETATM    7  C   UNL     1     -10.787  10.863  67.039  1.00  0.00    -0.266 C  
BRANCH   7   8
HETATM    8  C   UNL     1     -10.861  12.175  67.804  1.00  0.00    -0.263 A  
HETATM    9  C   UNL     1     -11.868  12.366  68.765  1.00  0.00    -0.358 A  
HETATM   10  C   UNL     1     -11.899  13.522  69.547  1.00  0.00    -0.392 A  
HETATM   11  C   UNL     1      -9.894  13.178  67.635  1.00  0.00    -0.219 A  
HETATM   12  C   UNL     1     -10.928  14.506  69.372  1.00  0.00    -0.275 A  
HETATM   13  C   UNL     1      -9.930  14.338  68.415  1.00  0.00    -0.240 A  
ENDBRANCH   7   8
BRANCH   7  14
HETATM   14  C   UNL     1     -10.407  11.018  65.571  1.00  0.00    -0.321 A  
HETATM   15  C   UNL     1      -8.808  10.616  63.777  1.00  0.00    -0.178 A  
HETATM   16  C   UNL     1     -10.779  11.941  63.351  1.00  0.00    -0.476 A  
HETATM   17  C   UNL     1      -9.218  10.433  65.099  1.00  0.00    -0.250 A  
HETATM   18  C   UNL     1     -11.188  11.763  64.674  1.00  0.00    -0.349 A  
HETATM   19  C   UNL     1      -9.585  11.375  62.906  1.00  0.00    -0.366 A  
ENDBRANCH   7  14
ENDBRANCH   6   7
ENDBRANCH   5   6
ENDBRANCH   4   5
ENDBRANCH   2   4
TORSDOF 6
ENDMDL
MODEL      101
REMARK 921   NORMALIZED FREE ENERGY PREDICTED BY IDOCK:   -4.05 KCAL/MOL
REMARK 922        TOTAL FREE ENERGY PREDICTED BY IDOCK:   -6.37 KCAL/MOL
REMARK 923 INTER-LIGAND FREE ENERGY PREDICTED BY IDOCK:   -5.52 KCAL/MOL
REMARK 924 INTRA-LIGAND FREE ENERGY PREDICTED BY IDOCK:   -0.85 KCAL/MOL
REMARK 927      BINDING AFFINITY PREDICTED BY RF-SCORE:    0.00 PKD
ROOT
HETATM    1  C   UNL     1     -12.245  15.836  72.904  1.00  0.00    -0.481 C  
HETATM    2  N   UNL     1     -12.280  14.530  72.238  1.00  0.00    -0.245 NA 
HETATM    3  C   UNL     1     -13.642  13.998  72.252  1.00  0.00    -0.525 C  
ENDROOT
BRANCH   2   4
HETATM    4  C   UNL     1     -11.747  14.658  70.871  1.00  0.00    -0.280 C  
BRANCH   4   5
HETATM    5  C   UNL     1     -12.082  13.495  69.917  1.00  0.00    -0.341 C  
BRANCH   5   6
HETATM    6  O   UNL     1     -11.037  13.204  68.980  1.00  0.00    -0.249 OA 
BRANCH   6   7
HETATM    7  C   UNL     1     -10.514  14.333  68.259  1.00  0.00    -0.247 C  
BRANCH   7   8
HETATM    8  C   UNL     1      -8.994  14.376  68.303  1.00  0.00    -0.187 A  
HETATM    9  C   UNL     1      -8.248  13.552  67.443  1.00  0.00    -0.187 A  
HETATM   10  C   UNL     1      -6.856  13.644  67.397  1.00  0.00    -0.051 A  
HETATM   11  C   UNL     1      -8.310  15.283  69.126  1.00  0.00    -0.233 A  
HETATM   12  C   UNL     1      -6.191  14.554  68.215  1.00  0.00    -0.120 A  
HETATM   13  C   UNL     1      -6.916  15.370  69.082  1.00  0.00    -0.154 A  
ENDBRANCH   7   8
BRANCH   7  14
HETATM   14  C   UNL     1     -11.097  14.354  66.852  1.00  0.00    -0.325 A  
HETATM   15  C   UNL     1     -11.557  15.591  64.804  1.00  0.00    -0.256 A  
HETATM   16  C   UNL     1     -12.375  13.335  65.049  1.00  0.00    -0.499 A  
HETATM   17  C   UNL     1     -10.972  15.516  66.068  1.00  0.00    -0.251 A  
HETATM   18  C   UNL     1     -11.795  13.260  66.318  1.00  0.00    -0.444 A  
HETATM   19  C   UNL     1     -12.263  14.503  64.297  1.00  0.00    -0.441 A  
ENDBRANCH   7  14
ENDBRANCH   6   7
ENDBRANCH   5   6
ENDBRANCH   4   5
ENDBRANCH   2   4
TORSDOF 6
ENDMDL
MODEL      102
REMARK 921   NORMALIZED FREE ENERGY PREDICTED BY IDOCK:   -3.99 KCAL/MOL
REMARK 922        TOTAL FREE ENERGY PREDICTED BY IDOCK:   -6.29 KCAL/MOL
REMARK 923 INTER-LIGAND FREE ENERGY PREDICTED BY IDOCK:   -5.40 KCAL/MOL
REMARK 924 INTRA-LIGAND FREE ENERGY PREDICTED BY IDOCK:   -0.89 KCAL/MOL
REMARK 927      BINDING AFFINITY PREDICTED BY RF-SCORE:    0.00 PKD
ROOT
HETATM    1  C   UNL     1     -13.247   8.400  71.599  1.00  0.00    -0.339 C  
HETATM    2  N   UNL     1     -12.604   9.643  71.160  1.00  0.00    -0.322 NA 
HETATM    3  C   UNL     1     -13.147  10.777  71.906  1.00  0.00    -0.451 C  
ENDROOT
BRANCH   2   4
HETATM    4  C   UNL     1     -11.144   9.525  71.314  1.00  0.00    -0.379 C  
BRANCH   4   5
HETATM    5  C   UNL     1     -10.331   9.607  70.007  1.00  0.00    -0.257 C  
BRANCH   5   6
HETATM    6  O   UNL     1     -10.899  10.491  69.033  1.00  0.00    -0.202 OA 
BRANCH   6   7
HETATM    7  C   UNL     1      -9.997  11.457  68.466  1.00  0.00    -0.201 C  
BRANCH   7   8
HETATM    8  C   UNL     1      -9.682  11.150  67.010  1.00  0.00    -0.210 A  
HETATM    9  C   UNL     1      -8.406  10.680  66.656  1.00  0.00    -0.136 A  
HETATM   10  C   UNL     1      -8.124  10.301  65.343  1.00  0.00    -0.147 A  
HETATM   11  C   UNL     1     -10.664  11.246  66.012  1.00  0.00    -0.301 A  
HETATM   12  C   UNL     1      -9.111  10.395  64.365  1.00  0.00    -0.267 A  
HETATM   13  C   UNL     1     -10.378  10.871  64.696  1.00  0.00    -0.407 A  
ENDBRANCH   7   8
BRANCH   7  14
HETATM   14  C   UNL     1     -10.538  12.861  68.704  1.00  0.00    -0.256 A  
HETATM   15  C   UNL     1     -10.316  15.265  68.373  1.00  0.00    -0.227 A  
HETATM   16  C   UNL     1     -12.079  14.407  69.779  1.00  0.00    -0.386 A  
HETATM   17  C   UNL     1      -9.887  13.962  68.117  1.00  0.00    -0.240 A  
HETATM   18  C   UNL     1     -11.648  13.102  69.528  1.00  0.00    -0.347 A  
HETATM   19  C   UNL     1     -11.408  15.487  69.208  1.00  0.00    -0.330 A  
ENDBRANCH   7  14
ENDBRANCH   6   7
ENDBRANCH   5   6
ENDBRANCH   4   5
ENDBRANCH   2   4
TORSDOF 6
ENDMDL
MODEL      103
REMARK 921   NORMALIZED FREE ENERGY PREDICTED BY IDOCK:   -3.98 KCAL/MOL
REMARK 922        TOTAL FREE ENERGY PREDICTED BY IDOCK:   -6.28 KCAL/MOL
REMARK 923 INTER-LIGAND FREE ENERGY PREDICTED BY IDOCK:   -5.37 KCAL/MOL
REMARK 924 INTRA-LIGAND FREE ENERGY PREDICTED BY IDOCK:   -0.91 KCAL/MOL
REMARK 927      BINDING AFFINITY PREDICTED BY RF-SCORE:    0.00 PKD
ROOT
HETATM    1  C   UNL     1      -8.769  10.706  67.856  1.00  0.00    -0.127 C  
HETATM    2  N   UNL     1      -7.441  11.248  68.162  1.00  0.00    -0.086 NA 
HETATM    3  C   UNL     1      -6.435  10.192  68.065  1.00  0.00    -0.058 C  
ENDROOT
BRANCH   2   4
HETATM    4  C   UNL     1      -7.149  12.378  67.263  1.00  0.00    -0.128 C  
BRANCH   4   5
HETATM    5  C   UNL     1      -7.231  13.776  67.907  1.00  0.00    -0.154 C  
BRANCH   5   6
HETATM    6  O   UNL     1      -8.554  14.326  67.918  1.00  0.00    -0.153 OA 
BRANCH   6   7
HETATM    7  C   UNL     1      -8.970  14.974  66.703  1.00  0.00    -0.281 C  
BRANCH   7   8
HETATM    8  C   UNL     1     -10.203  14.315  66.105  1.00  0.00    -0.317 A  
HETATM    9  C   UNL     1     -10.837  13.266  66.793  1.00  0.00    -0.289 A  
HETATM   10  C   UNL     1     -12.023  12.711  66.312  1.00  0.00    -0.439 A  
HETATM   11  C   UNL     1     -10.779  14.783  64.914  1.00  0.00    -0.438 A  
HETATM   12  C   UNL     1     -12.587  13.191  65.132  1.00  0.00    -0.525 A  
HETATM   13  C   UNL     1     -11.965  14.222  64.431  1.00  0.00    -0.476 A  
ENDBRANCH   7   8
BRANCH   7  14
HETATM   14  C   UNL     1      -9.121  16.469  66.950  1.00  0.00    -0.241 A  
HETATM   15  C   UNL     1     -10.347  18.298  67.994  1.00  0.00    -0.410 A  
HETATM   16  C   UNL     1      -8.504  18.783  66.515  1.00  0.00    -0.310 A  
HETATM   17  C   UNL     1     -10.139  16.931  67.804  1.00  0.00    -0.292 A  
HETATM   18  C   UNL     1      -8.298  17.415  66.319  1.00  0.00    -0.271 A  
HETATM   19  C   UNL     1      -9.533  19.223  67.346  1.00  0.00    -0.376 A  
ENDBRANCH   7  14
ENDBRANCH   6   7
ENDBRANCH   5   6
ENDBRANCH   4   5
ENDBRANCH   2   4
TORSDOF 6
ENDMDL
MODEL      104
REMARK 921   NORMALIZED FREE ENERGY PREDICTED BY IDOCK:   -3.98 KCAL/MOL
REMARK 922        TOTAL FREE ENERGY PREDICTED BY IDOCK:   -6.27 KCAL/MOL
REMARK 923 INTER-LIGAND FREE ENERGY PREDICTED BY IDOCK:   -5.39 KCAL/MOL
REMARK 924 INTRA-LIGAND FREE ENERGY PREDICTED BY IDOCK:   -0.88 KCAL/MOL
REMARK 927      BINDING AFFINITY PREDICTED BY RF-SCORE:    0.00 PKD
ROOT
HETATM    1  C   UNL     1     -13.611   7.219  71.346  1.00  0.00    -0.311 C  
HETATM    2  N   UNL     1     -12.743   8.401  71.335  1.00  0.00    -0.292 NA 
HETATM    3  C   UNL     1     -13.202   9.369  72.330  1.00  0.00    -0.446 C  
ENDROOT
BRANCH   2   4
HETATM    4  C   UNL     1     -11.347   7.990  71.562  1.00  0.00    -0.259 C  
BRANCH   4   5
HETATM    5  C   UNL     1     -10.307   8.621  70.615  1.00  0.00    -0.202 C  
BRANCH   5   6
HETATM    6  O   UNL     1     -10.871   9.123  69.397  1.00  0.00    -0.219 OA 
BRANCH   6   7
HETATM    7  C   UNL     1      -9.974   9.187  68.275  1.00  0.00    -0.175 C  
BRANCH   7   8
HETATM    8  C   UNL     1      -9.803   7.831  67.609  1.00  0.00    -0.208 A  
HETATM    9  C   UNL     1      -8.515   7.299  67.429  1.00  0.00    -0.119 A  
HETATM   10  C   UNL     1      -8.338   6.017  66.910  1.00  0.00    -0.105 A  
HETATM   11  C   UNL     1     -10.909   7.050  67.240  1.00  0.00    -0.403 A  
HETATM   12  C   UNL     1      -9.446   5.251  66.554  1.00  0.00    -0.155 A  
HETATM   13  C   UNL     1     -10.730   5.768  66.715  1.00  0.00    -0.369 A  
ENDBRANCH   7   8
BRANCH   7  14
HETATM   14  C   UNL     1     -10.422  10.294  67.328  1.00  0.00    -0.307 A  
HETATM   15  C   UNL     1     -11.760  12.293  66.941  1.00  0.00    -0.404 A  
HETATM   16  C   UNL     1     -10.519  11.311  65.120  1.00  0.00    -0.351 A  
HETATM   17  C   UNL     1     -11.277  11.306  67.801  1.00  0.00    -0.354 A  
HETATM   18  C   UNL     1     -10.039  10.319  65.978  1.00  0.00    -0.311 A  
HETATM   19  C   UNL     1     -11.386  12.292  65.600  1.00  0.00    -0.394 A  
ENDBRANCH   7  14
ENDBRANCH   6   7
ENDBRANCH   5   6
ENDBRANCH   4   5
ENDBRANCH   2   4
TORSDOF 6
ENDMDL
MODEL      105
REMARK 921   NORMALIZED FREE ENERGY PREDICTED BY IDOCK:   -3.97 KCAL/MOL
REMARK 922        TOTAL FREE ENERGY PREDICTED BY IDOCK:   -6.26 KCAL/MOL
REMARK 923 INTER-LIGAND FREE ENERGY PREDICTED BY IDOCK:   -5.63 KCAL/MOL
REMARK 924 INTRA-LIGAND FREE ENERGY PREDICTED BY IDOCK:   -0.63 KCAL/MOL
REMARK 927      BINDING AFFINITY PREDICTED BY RF-SCORE:    0.00 PKD
ROOT
HETATM    1  C   UNL     1     -10.341  12.384  63.473  1.00  0.00    -0.362 C  
HETATM    2  N   UNL     1     -11.533  12.631  64.291  1.00  0.00    -0.339 NA 
HETATM    3  C   UNL     1     -12.715  12.080  63.631  1.00  0.00    -0.431 C  
ENDROOT
BRANCH   2   4
HETATM    4  C   UNL     1     -11.333  12.066  65.637  1.00  0.00    -0.329 C  
BRANCH   4   5
HETATM    5  C   UNL     1      -9.904  12.185  66.201  1.00  0.00    -0.237 C  
BRANCH   5   6
HETATM    6  O   UNL     1      -9.550  11.123  67.095  1.00  0.00    -0.171 OA 
BRANCH   6   7
HETATM    7  C   UNL     1     -10.556  10.116  67.296  1.00  0.00    -0.261 C  
BRANCH   7   8
HETATM    8  C   UNL     1     -10.094   8.751  66.812  1.00  0.00    -0.359 A  
HETATM    9  C   UNL     1      -8.871   8.630  66.129  1.00  0.00    -0.204 A  
HETATM   10  C   UNL     1      -8.380   7.377  65.761  1.00  0.00    -0.141 A  
HETATM   11  C   UNL     1     -10.820   7.585  67.101  1.00  0.00    -0.298 A  
HETATM   12  C   UNL     1      -9.109   6.228  66.060  1.00  0.00    -0.126 A  
HETATM   13  C   UNL     1     -10.329   6.331  66.726  1.00  0.00    -0.285 A  
ENDBRANCH   7   8
BRANCH   7  14
HETATM   14  C   UNL     1     -11.017  10.138  68.748  1.00  0.00    -0.264 A  
HETATM   15  C   UNL     1     -12.426  11.126  70.473  1.00  0.00    -0.414 A  
HETATM   16  C   UNL     1     -10.835   9.411  71.063  1.00  0.00    -0.406 A  
HETATM   17  C   UNL     1     -12.031  11.032  69.138  1.00  0.00    -0.394 A  
HETATM   18  C   UNL     1     -10.435   9.320  69.728  1.00  0.00    -0.235 A  
HETATM   19  C   UNL     1     -11.824  10.319  71.436  1.00  0.00    -0.371 A  
ENDBRANCH   7  14
ENDBRANCH   6   7
ENDBRANCH   5   6
ENDBRANCH   4   5
ENDBRANCH   2   4
TORSDOF 6
ENDMDL
MODEL      106
REMARK 921   NORMALIZED FREE ENERGY PREDICTED BY IDOCK:   -3.96 KCAL/MOL
REMARK 922        TOTAL FREE ENERGY PREDICTED BY IDOCK:   -6.24 KCAL/MOL
REMARK 923 INTER-LIGAND FREE ENERGY PREDICTED BY IDOCK:   -5.54 KCAL/MOL
REMARK 924 INTRA-LIGAND FREE ENERGY PREDICTED BY IDOCK:   -0.70 KCAL/MOL
REMARK 927      BINDING AFFINITY PREDICTED BY RF-SCORE:    0.00 PKD
ROOT
HETATM    1  C   UNL     1     -11.062  16.063  70.023  1.00  0.00    -0.362 C  
HETATM    2  N   UNL     1     -11.516  16.231  68.638  1.00  0.00    -0.346 NA 
HETATM    3  C   UNL     1     -10.599  17.110  67.914  1.00  0.00    -0.376 C  
ENDROOT
BRANCH   2   4
HETATM    4  C   UNL     1     -11.644  14.911  67.997  1.00  0.00    -0.341 C  
BRANCH   4   5
HETATM    5  C   UNL     1     -10.317  14.188  67.696  1.00  0.00    -0.241 C  
BRANCH   5   6
HETATM    6  O   UNL     1     -10.075  13.058  68.542  1.00  0.00    -0.234 OA 
BRANCH   6   7
HETATM    7  C   UNL     1     -10.639  11.812  68.096  1.00  0.00    -0.203 C  
BRANCH   7   8
HETATM    8  C   UNL     1      -9.684  11.051  67.191  1.00  0.00    -0.198 A  
HETATM    9  C   UNL     1      -8.310  11.033  67.485  1.00  0.00    -0.118 A  
HETATM   10  C   UNL     1      -7.427  10.263  66.725  1.00  0.00    -0.107 A  
HETATM   11  C   UNL     1     -10.149  10.291  66.107  1.00  0.00    -0.307 A  
HETATM   12  C   UNL     1      -7.905   9.508  65.657  1.00  0.00    -0.101 A  
HETATM   13  C   UNL     1      -9.263   9.524  65.344  1.00  0.00    -0.306 A  
ENDBRANCH   7   8
BRANCH   7  14
HETATM   14  C   UNL     1     -11.128  11.014  69.298  1.00  0.00    -0.312 A  
HETATM   15  C   UNL     1     -12.828  10.644  71.004  1.00  0.00    -0.496 A  
HETATM   16  C   UNL     1     -10.796   9.344  71.037  1.00  0.00    -0.406 A  
HETATM   17  C   UNL     1     -12.383  11.309  69.860  1.00  0.00    -0.301 A  
HETATM   18  C   UNL     1     -10.347  10.013  69.895  1.00  0.00    -0.315 A  
HETATM   19  C   UNL     1     -12.032   9.666  71.595  1.00  0.00    -0.470 A  
ENDBRANCH   7  14
ENDBRANCH   6   7
ENDBRANCH   5   6
ENDBRANCH   4   5
ENDBRANCH   2   4
TORSDOF 6
ENDMDL
MODEL      107
REMARK 921   NORMALIZED FREE ENERGY PREDICTED BY IDOCK:   -3.96 KCAL/MOL
REMARK 922        TOTAL FREE ENERGY PREDICTED BY IDOCK:   -6.24 KCAL/MOL
REMARK 923 INTER-LIGAND FREE ENERGY PREDICTED BY IDOCK:   -5.45 KCAL/MOL
REMARK 924 INTRA-LIGAND FREE ENERGY PREDICTED BY IDOCK:   -0.79 KCAL/MOL
REMARK 927      BINDING AFFINITY PREDICTED BY RF-SCORE:    0.00 PKD
ROOT
HETATM    1  C   UNL     1     -11.320  16.062  69.788  1.00  0.00    -0.331 C  
HETATM    2  N   UNL     1     -11.611  14.709  70.275  1.00  0.00    -0.278 NA 
HETATM    3  C   UNL     1     -12.943  14.669  70.875  1.00  0.00    -0.365 C  
ENDROOT
BRANCH   2   4
HETATM    4  C   UNL     1     -11.470  13.746  69.170  1.00  0.00    -0.298 C  
BRANCH   4   5
HETATM    5  C   UNL     1     -12.134  14.158  67.842  1.00  0.00    -0.274 C  
BRANCH   5   6
HETATM    6  O   UNL     1     -11.209  14.293  66.756  1.00  0.00    -0.313 OA 
BRANCH   6   7
HETATM    7  C   UNL     1      -9.972  13.573  66.897  1.00  0.00    -0.256 C  
BRANCH   7   8
HETATM    8  C   UNL     1      -9.823  12.492  65.837  1.00  0.00    -0.257 A  
HETATM    9  C   UNL     1      -8.883  11.463  66.018  1.00  0.00    -0.177 A  
HETATM   10  C   UNL     1      -8.795  10.409  65.109  1.00  0.00    -0.207 A  
HETATM   11  C   UNL     1     -10.661  12.447  64.713  1.00  0.00    -0.331 A  
HETATM   12  C   UNL     1      -9.638  10.374  64.001  1.00  0.00    -0.376 A  
HETATM   13  C   UNL     1     -10.568  11.393  63.800  1.00  0.00    -0.464 A  
ENDBRANCH   7   8
BRANCH   7  14
HETATM   14  C   UNL     1      -8.812  14.558  66.949  1.00  0.00    -0.257 A  
HETATM   15  C   UNL     1      -7.895  16.734  66.346  1.00  0.00    -0.353 A  
HETATM   16  C   UNL     1      -6.509  15.126  67.492  1.00  0.00    -0.138 A  
HETATM   17  C   UNL     1      -8.962  15.835  66.376  1.00  0.00    -0.366 A  
HETATM   18  C   UNL     1      -7.574  14.223  67.518  1.00  0.00    -0.202 A  
HETATM   19  C   UNL     1      -6.667  16.377  66.899  1.00  0.00    -0.205 A  
ENDBRANCH   7  14
ENDBRANCH   6   7
ENDBRANCH   5   6
ENDBRANCH   4   5
ENDBRANCH   2   4
TORSDOF 6
ENDMDL
MODEL      108
REMARK 921   NORMALIZED FREE ENERGY PREDICTED BY IDOCK:   -3.93 KCAL/MOL
REMARK 922        TOTAL FREE ENERGY PREDICTED BY IDOCK:   -6.21 KCAL/MOL
REMARK 923 INTER-LIGAND FREE ENERGY PREDICTED BY IDOCK:   -5.37 KCAL/MOL
REMARK 924 INTRA-LIGAND FREE ENERGY PREDICTED BY IDOCK:   -0.84 KCAL/MOL
REMARK 927      BINDING AFFINITY PREDICTED BY RF-SCORE:    0.00 PKD
ROOT
HETATM    1  C   UNL     1      -8.868  19.108  68.575  1.00  0.00    -0.367 C  
HETATM    2  N   UNL     1      -9.410  18.179  67.578  1.00  0.00    -0.256 NA 
HETATM    3  C   UNL     1      -8.500  18.083  66.438  1.00  0.00    -0.235 C  
ENDROOT
BRANCH   2   4
HETATM    4  C   UNL     1      -9.654  16.869  68.206  1.00  0.00    -0.258 C  
BRANCH   4   5
HETATM    5  C   UNL     1     -10.971  16.177  67.806  1.00  0.00    -0.293 C  
BRANCH   5   6
HETATM    6  O   UNL     1     -10.900  14.746  67.837  1.00  0.00    -0.258 OA 
BRANCH   6   7
HETATM    7  C   UNL     1     -10.000  14.145  66.889  1.00  0.00    -0.261 C  
BRANCH   7   8
HETATM    8  C   UNL     1      -9.003  13.218  67.566  1.00  0.00    -0.208 A  
HETATM    9  C   UNL     1      -7.717  13.689  67.884  1.00  0.00    -0.157 A  
HETATM   10  C   UNL     1      -6.819  12.888  68.590  1.00  0.00    -0.099 A  
HETATM   11  C   UNL     1      -9.359  11.920  67.960  1.00  0.00    -0.193 A  
HETATM   12  C   UNL     1      -7.189  11.603  68.980  1.00  0.00    -0.094 A  
HETATM   13  C   UNL     1      -8.456  11.117  68.662  1.00  0.00    -0.153 A  
ENDBRANCH   7   8
BRANCH   7  14
HETATM   14  C   UNL     1     -10.800  13.490  65.771  1.00  0.00    -0.280 A  
HETATM   15  C   UNL     1     -10.840  12.454  63.566  1.00  0.00    -0.487 A  
HETATM   16  C   UNL     1     -12.910  12.849  64.741  1.00  0.00    -0.359 A  
HETATM   17  C   UNL     1     -10.129  12.996  64.638  1.00  0.00    -0.253 A  
HETATM   18  C   UNL     1     -12.200  13.396  65.812  1.00  0.00    -0.507 A  
HETATM   19  C   UNL     1     -12.230  12.386  63.616  1.00  0.00    -0.653 A  
ENDBRANCH   7  14
ENDBRANCH   6   7
ENDBRANCH   5   6
ENDBRANCH   4   5
ENDBRANCH   2   4
TORSDOF 6
ENDMDL
MODEL      109
REMARK 921   NORMALIZED FREE ENERGY PREDICTED BY IDOCK:   -3.90 KCAL/MOL
REMARK 922        TOTAL FREE ENERGY PREDICTED BY IDOCK:   -6.17 KCAL/MOL
REMARK 923 INTER-LIGAND FREE ENERGY PREDICTED BY IDOCK:   -5.25 KCAL/MOL
REMARK 924 INTRA-LIGAND FREE ENERGY PREDICTED BY IDOCK:   -0.92 KCAL/MOL
REMARK 927      BINDING AFFINITY PREDICTED BY RF-SCORE:    0.00 PKD
ROOT
HETATM    1  C   UNL     1     -10.877   9.088  71.843  1.00  0.00    -0.343 C  
HETATM    2  N   UNL     1     -10.184   8.803  70.582  1.00  0.00    -0.193 NA 
HETATM    3  C   UNL     1     -10.013   7.360  70.420  1.00  0.00    -0.188 C  
ENDROOT
BRANCH   2   4
HETATM    4  C   UNL     1     -10.931   9.403  69.463  1.00  0.00    -0.173 C  
BRANCH   4   5
HETATM    5  C   UNL     1     -11.392  10.858  69.678  1.00  0.00    -0.292 C  
BRANCH   5   6
HETATM    6  O   UNL     1     -11.515  11.606  68.462  1.00  0.00    -0.245 OA 
BRANCH   6   7
HETATM    7  C   UNL     1     -10.432  11.459  67.527  1.00  0.00    -0.201 C  
BRANCH   7   8
HETATM    8  C   UNL     1     -10.876  11.731  66.099  1.00  0.00    -0.336 A  
HETATM    9  C   UNL     1     -12.034  12.492  65.862  1.00  0.00    -0.472 A  
HETATM   10  C   UNL     1     -12.408  12.837  64.562  1.00  0.00    -0.515 A  
HETATM   11  C   UNL     1     -10.112  11.311  65.000  1.00  0.00    -0.331 A  
HETATM   12  C   UNL     1     -11.635  12.417  63.482  1.00  0.00    -0.577 A  
HETATM   13  C   UNL     1     -10.491  11.652  63.699  1.00  0.00    -0.483 A  
ENDBRANCH   7   8
BRANCH   7  14
HETATM   14  C   UNL     1      -9.248  12.303  67.983  1.00  0.00    -0.195 A  
HETATM   15  C   UNL     1      -8.282  14.508  68.362  1.00  0.00    -0.150 A  
HETATM   16  C   UNL     1      -6.930  12.535  68.685  1.00  0.00    -0.091 A  
HETATM   17  C   UNL     1      -9.369  13.704  68.017  1.00  0.00    -0.208 A  
HETATM   18  C   UNL     1      -8.016  11.730  68.335  1.00  0.00    -0.147 A  
HETATM   19  C   UNL     1      -7.061  13.923  68.690  1.00  0.00    -0.110 A  
ENDBRANCH   7  14
ENDBRANCH   6   7
ENDBRANCH   5   6
ENDBRANCH   4   5
ENDBRANCH   2   4
TORSDOF 6
ENDMDL
MODEL      110
REMARK 921   NORMALIZED FREE ENERGY PREDICTED BY IDOCK:   -3.90 KCAL/MOL
REMARK 922        TOTAL FREE ENERGY PREDICTED BY IDOCK:   -6.16 KCAL/MOL
REMARK 923 INTER-LIGAND FREE ENERGY PREDICTED BY IDOCK:   -6.17 KCAL/MOL
REMARK 924 INTRA-LIGAND FREE ENERGY PREDICTED BY IDOCK:    0.01 KCAL/MOL
REMARK 927      BINDING AFFINITY PREDICTED BY RF-SCORE:    0.00 PKD
ROOT
HETATM    1  C   UNL     1     -11.424   8.123  72.492  1.00  0.00    -0.404 C  
HETATM    2  N   UNL     1     -12.269   8.800  71.503  1.00  0.00    -0.313 NA 
HETATM    3  C   UNL     1     -13.631   8.937  72.016  1.00  0.00    -0.441 C  
ENDROOT
BRANCH   2   4
HETATM    4  C   UNL     1     -11.673  10.102  71.154  1.00  0.00    -0.366 C  
BRANCH   4   5
HETATM    5  C   UNL     1     -11.321  10.293  69.666  1.00  0.00    -0.257 C  
BRANCH   5   6
HETATM    6  O   UNL     1     -12.329  10.989  68.923  1.00  0.00    -0.516 OA 
BRANCH   6   7
HETATM    7  C   UNL     1     -11.870  12.105  68.141  1.00  0.00    -0.299 C  
BRANCH   7   8
HETATM    8  C   UNL     1     -11.926  13.406  68.926  1.00  0.00    -0.362 A  
HETATM    9  C   UNL     1     -12.183  13.377  70.307  1.00  0.00    -0.405 A  
HETATM   10  C   UNL     1     -12.144  14.548  71.065  1.00  0.00    -0.409 A  
HETATM   11  C   UNL     1     -11.645  14.640  68.320  1.00  0.00    -0.353 A  
HETATM   12  C   UNL     1     -11.857  15.765  70.451  1.00  0.00    -0.391 A  
HETATM   13  C   UNL     1     -11.612  15.813  69.079  1.00  0.00    -0.406 A  
ENDBRANCH   7   8
BRANCH   7  14
HETATM   14  C   UNL     1     -10.499  11.788  67.558  1.00  0.00    -0.228 A  
HETATM   15  C   UNL     1      -9.162  10.619  65.889  1.00  0.00    -0.209 A  
HETATM   16  C   UNL     1      -8.068  11.877  67.633  1.00  0.00    -0.148 A  
HETATM   17  C   UNL     1     -10.406  10.985  66.406  1.00  0.00    -0.302 A  
HETATM   18  C   UNL     1      -9.312  12.240  68.155  1.00  0.00    -0.205 A  
HETATM   19  C   UNL     1      -7.994  11.061  66.505  1.00  0.00    -0.158 A  
ENDBRANCH   7  14
ENDBRANCH   6   7
ENDBRANCH   5   6
ENDBRANCH   4   5
ENDBRANCH   2   4
TORSDOF 6
ENDMDL
MODEL      111
REMARK 921   NORMALIZED FREE ENERGY PREDICTED BY IDOCK:   -3.89 KCAL/MOL
REMARK 922        TOTAL FREE ENERGY PREDICTED BY IDOCK:   -6.16 KCAL/MOL
REMARK 923 INTER-LIGAND FREE ENERGY PREDICTED BY IDOCK:   -5.18 KCAL/MOL
REMARK 924 INTRA-LIGAND FREE ENERGY PREDICTED BY IDOCK:   -0.98 KCAL/MOL
REMARK 927      BINDING AFFINITY PREDICTED BY RF-SCORE:    0.00 PKD
ROOT
HETATM    1  C   UNL     1     -12.908  13.993  65.219  1.00  0.00    -0.384 C  
HETATM    2  N   UNL     1     -12.565  12.570  65.137  1.00  0.00    -0.650 NA 
HETATM    3  C   UNL     1     -12.132  12.236  63.781  1.00  0.00    -0.532 C  
ENDROOT
BRANCH   2   4
HETATM    4  C   UNL     1     -11.536  12.252  66.143  1.00  0.00    -0.390 C  
BRANCH   4   5
HETATM    5  C   UNL     1     -11.831  12.747  67.572  1.00  0.00    -0.343 C  
BRANCH   5   6
HETATM    6  O   UNL     1     -10.696  13.333  68.221  1.00  0.00    -0.237 OA 
BRANCH   6   7
HETATM    7  C   UNL     1      -9.700  13.896  67.349  1.00  0.00    -0.234 C  
BRANCH   7   8
HETATM    8  C   UNL     1      -9.728  15.416  67.365  1.00  0.00    -0.215 A  
HETATM    9  C   UNL     1      -8.987  16.137  66.414  1.00  0.00    -0.353 A  
HETATM   10  C   UNL     1      -9.072  17.528  66.348  1.00  0.00    -0.264 A  
HETATM   11  C   UNL     1     -10.545  16.125  68.259  1.00  0.00    -0.288 A  
HETATM   12  C   UNL     1      -9.893  18.218  67.238  1.00  0.00    -0.327 A  
HETATM   13  C   UNL     1     -10.625  17.519  68.195  1.00  0.00    -0.366 A  
ENDBRANCH   7   8
BRANCH   7  14
HETATM   14  C   UNL     1      -8.339  13.294  67.675  1.00  0.00    -0.181 A  
HETATM   15  C   UNL     1      -6.643  11.605  67.218  1.00  0.00    -0.122 A  
HETATM   16  C   UNL     1      -6.348  13.131  69.064  1.00  0.00    -0.099 A  
HETATM   17  C   UNL     1      -7.853  12.223  66.902  1.00  0.00    -0.045 A  
HETATM   18  C   UNL     1      -7.562  13.747  68.752  1.00  0.00    -0.099 A  
HETATM   19  C   UNL     1      -5.894  12.055  68.303  1.00  0.00    -0.051 A  
ENDBRANCH   7  14
ENDBRANCH   6   7
ENDBRANCH   5   6
ENDBRANCH   4   5
ENDBRANCH   2   4
TORSDOF 6
ENDMDL
MODEL      112
REMARK 921   NORMALIZED FREE ENERGY PREDICTED BY IDOCK:   -3.89 KCAL/MOL
REMARK 922        TOTAL FREE ENERGY PREDICTED BY IDOCK:   -6.15 KCAL/MOL
REMARK 923 INTER-LIGAND FREE ENERGY PREDICTED BY IDOCK:   -5.55 KCAL/MOL
REMARK 924 INTRA-LIGAND FREE ENERGY PREDICTED BY IDOCK:   -0.61 KCAL/MOL
REMARK 927      BINDING AFFINITY PREDICTED BY RF-SCORE:    0.00 PKD
ROOT
HETATM    1  C   UNL     1      -8.800  15.750  69.288  1.00  0.00    -0.262 C  
HETATM    2  N   UNL     1      -7.627  15.545  68.432  1.00  0.00    -0.114 NA 
HETATM    3  C   UNL     1      -6.626  16.576  68.699  1.00  0.00    -0.145 C  
ENDROOT
BRANCH   2   4
HETATM    4  C   UNL     1      -7.096  14.186  68.641  1.00  0.00    -0.110 C  
BRANCH   4   5
HETATM    5  C   UNL     1      -8.148  13.060  68.668  1.00  0.00    -0.011 C  
BRANCH   5   6
HETATM    6  O   UNL     1      -8.796  12.851  67.407  1.00  0.00    -0.179 OA 
BRANCH   6   7
HETATM    7  C   UNL     1     -10.231  12.948  67.420  1.00  0.00    -0.230 C  
BRANCH   7   8
HETATM    8  C   UNL     1     -10.825  12.722  66.039  1.00  0.00    -0.301 A  
HETATM    9  C   UNL     1     -12.215  12.818  65.854  1.00  0.00    -0.422 A  
HETATM   10  C   UNL     1     -12.774  12.710  64.580  1.00  0.00    -0.458 A  
HETATM   11  C   UNL     1     -10.012  12.500  64.918  1.00  0.00    -0.190 A  
HETATM   12  C   UNL     1     -11.954  12.496  63.475  1.00  0.00    -0.629 A  
HETATM   13  C   UNL     1     -10.574  12.387  63.643  1.00  0.00    -0.481 A  
ENDBRANCH   7   8
BRANCH   7  14
HETATM   14  C   UNL     1     -10.794  12.032  68.499  1.00  0.00    -0.267 A  
HETATM   15  C   UNL     1     -12.198  11.749  70.471  1.00  0.00    -0.438 A  
HETATM   16  C   UNL     1     -10.879   9.897  69.663  1.00  0.00    -0.281 A  
HETATM   17  C   UNL     1     -11.717  12.544  69.429  1.00  0.00    -0.383 A  
HETATM   18  C   UNL     1     -10.394  10.693  68.623  1.00  0.00    -0.202 A  
HETATM   19  C   UNL     1     -11.774  10.428  70.591  1.00  0.00    -0.444 A  
ENDBRANCH   7  14
ENDBRANCH   6   7
ENDBRANCH   5   6
ENDBRANCH   4   5
ENDBRANCH   2   4
TORSDOF 6
ENDMDL
MODEL      113
REMARK 921   NORMALIZED FREE ENERGY PREDICTED BY IDOCK:   -3.88 KCAL/MOL
REMARK 922        TOTAL FREE ENERGY PREDICTED BY IDOCK:   -6.14 KCAL/MOL
REMARK 923 INTER-LIGAND FREE ENERGY PREDICTED BY IDOCK:   -5.46 KCAL/MOL
REMARK 924 INTRA-LIGAND FREE ENERGY PREDICTED BY IDOCK:   -0.68 KCAL/MOL
REMARK 927      BINDING AFFINITY PREDICTED BY RF-SCORE:    0.00 PKD
ROOT
HETATM    1  C   UNL     1      -6.212   9.072  69.464  1.00  0.00    -0.040 C  
HETATM    2  N   UNL     1      -6.878   8.583  68.252  1.00  0.00    -0.065 NA 
HETATM    3  C   UNL     1      -7.682   7.403  68.564  1.00  0.00    -0.120 C  
ENDROOT
BRANCH   2   4
HETATM    4  C   UNL     1      -7.685   9.665  67.662  1.00  0.00    -0.095 C  
BRANCH   4   5
HETATM    5  C   UNL     1      -8.585  10.435  68.648  1.00  0.00    -0.133 C  
BRANCH   5   6
HETATM    6  O   UNL     1      -9.889  10.725  68.128  1.00  0.00    -0.152 OA 
BRANCH   6   7
HETATM    7  C   UNL     1     -10.054  12.033  67.554  1.00  0.00    -0.195 C  
BRANCH   7   8
HETATM    8  C   UNL     1     -10.733  11.973  66.195  1.00  0.00    -0.312 A  
HETATM    9  C   UNL     1     -11.913  12.702  65.971  1.00  0.00    -0.478 A  
HETATM   10  C   UNL     1     -12.499  12.739  64.706  1.00  0.00    -0.539 A  
HETATM   11  C   UNL     1     -10.164  11.269  65.123  1.00  0.00    -0.344 A  
HETATM   12  C   UNL     1     -11.920  12.041  63.649  1.00  0.00    -0.612 A  
HETATM   13  C   UNL     1     -10.756  11.302  63.857  1.00  0.00    -0.451 A  
ENDBRANCH   7   8
BRANCH   7  14
HETATM   14  C   UNL     1     -10.750  12.945  68.557  1.00  0.00    -0.275 A  
HETATM   15  C   UNL     1     -12.330  13.203  70.395  1.00  0.00    -0.351 A  
HETATM   16  C   UNL     1     -11.282  15.152  69.433  1.00  0.00    -0.293 A  
HETATM   17  C   UNL     1     -11.624  12.388  69.509  1.00  0.00    -0.353 A  
HETATM   18  C   UNL     1     -10.579  14.338  68.542  1.00  0.00    -0.260 A  
HETATM   19  C   UNL     1     -12.163  14.586  70.353  1.00  0.00    -0.394 A  
ENDBRANCH   7  14
ENDBRANCH   6   7
ENDBRANCH   5   6
ENDBRANCH   4   5
ENDBRANCH   2   4
TORSDOF 6
ENDMDL
MODEL      114
REMARK 921   NORMALIZED FREE ENERGY PREDICTED BY IDOCK:   -3.87 KCAL/MOL
REMARK 922        TOTAL FREE ENERGY PREDICTED BY IDOCK:   -6.12 KCAL/MOL
REMARK 923 INTER-LIGAND FREE ENERGY PREDICTED BY IDOCK:   -5.19 KCAL/MOL
REMARK 924 INTRA-LIGAND FREE ENERGY PREDICTED BY IDOCK:   -0.94 KCAL/MOL
REMARK 927      BINDING AFFINITY PREDICTED BY RF-SCORE:    0.00 PKD
ROOT
HETATM    1  C   UNL     1      -8.322   5.891  70.435  1.00  0.00    -0.123 C  
HETATM    2  N   UNL     1      -8.389   7.340  70.220  1.00  0.00    -0.133 NA 
HETATM    3  C   UNL     1      -7.644   8.037  71.267  1.00  0.00    -0.081 C  
ENDROOT
BRANCH   2   4
HETATM    4  C   UNL     1      -7.889   7.663  68.873  1.00  0.00    -0.123 C  
BRANCH   4   5
HETATM    5  C   UNL     1      -8.444   8.960  68.253  1.00  0.00    -0.130 C  
BRANCH   5   6
HETATM    6  O   UNL     1      -9.801   9.237  68.621  1.00  0.00    -0.155 OA 
BRANCH   6   7
HETATM    7  C   UNL     1     -10.057  10.565  69.109  1.00  0.00    -0.224 C  
BRANCH   7   8
HETATM    8  C   UNL     1     -10.255  11.557  67.974  1.00  0.00    -0.205 A  
HETATM    9  C   UNL     1      -9.485  12.731  67.931  1.00  0.00    -0.208 A  
HETATM   10  C   UNL     1      -9.580  13.608  66.850  1.00  0.00    -0.262 A  
HETATM   11  C   UNL     1     -11.136  11.292  66.915  1.00  0.00    -0.339 A  
HETATM   12  C   UNL     1     -10.454  13.329  65.802  1.00  0.00    -0.289 A  
HETATM   13  C   UNL     1     -11.235  12.175  65.835  1.00  0.00    -0.384 A  
ENDBRANCH   7   8
BRANCH   7  14
HETATM   14  C   UNL     1     -11.203  10.527  70.112  1.00  0.00    -0.389 A  
HETATM   15  C   UNL     1     -12.908  11.725  71.376  1.00  0.00    -0.440 A  
HETATM   16  C   UNL     1     -12.581   9.363  71.745  1.00  0.00    -0.470 A  
HETATM   17  C   UNL     1     -11.900  11.713  70.411  1.00  0.00    -0.385 A  
HETATM   18  C   UNL     1     -11.568   9.351  70.783  1.00  0.00    -0.364 A  
HETATM   19  C   UNL     1     -13.244  10.552  72.047  1.00  0.00    -0.483 A  
ENDBRANCH   7  14
ENDBRANCH   6   7
ENDBRANCH   5   6
ENDBRANCH   4   5
ENDBRANCH   2   4
TORSDOF 6
ENDMDL
MODEL      115
REMARK 921   NORMALIZED FREE ENERGY PREDICTED BY IDOCK:   -3.86 KCAL/MOL
REMARK 922        TOTAL FREE ENERGY PREDICTED BY IDOCK:   -6.12 KCAL/MOL
REMARK 923 INTER-LIGAND FREE ENERGY PREDICTED BY IDOCK:   -5.40 KCAL/MOL
REMARK 924 INTRA-LIGAND FREE ENERGY PREDICTED BY IDOCK:   -0.72 KCAL/MOL
REMARK 927      BINDING AFFINITY PREDICTED BY RF-SCORE:    0.00 PKD
ROOT
HETATM    1  C   UNL     1      -9.287   5.281  65.995  1.00  0.00    -0.158 C  
HETATM    2  N   UNL     1     -10.349   5.228  67.005  1.00  0.00    -0.232 NA 
HETATM    3  C   UNL     1      -9.783   4.887  68.309  1.00  0.00    -0.145 C  
ENDROOT
BRANCH   2   4
HETATM    4  C   UNL     1     -11.071   6.511  67.031  1.00  0.00    -0.339 C  
BRANCH   4   5
HETATM    5  C   UNL     1     -10.197   7.759  67.261  1.00  0.00    -0.273 C  
BRANCH   5   6
HETATM    6  O   UNL     1     -10.952   8.964  67.438  1.00  0.00    -0.125 OA 
BRANCH   6   7
HETATM    7  C   UNL     1     -10.360   9.951  68.300  1.00  0.00    -0.201 C  
BRANCH   7   8
HETATM    8  C   UNL     1     -10.179  11.285  67.593  1.00  0.00    -0.206 A  
HETATM    9  C   UNL     1     -10.963  11.589  66.467  1.00  0.00    -0.346 A  
HETATM   10  C   UNL     1     -10.883  12.843  65.860  1.00  0.00    -0.294 A  
HETATM   11  C   UNL     1      -9.302  12.263  68.086  1.00  0.00    -0.205 A  
HETATM   12  C   UNL     1     -10.013  13.807  66.365  1.00  0.00    -0.301 A  
HETATM   13  C   UNL     1      -9.220  13.517  67.474  1.00  0.00    -0.219 A  
ENDBRANCH   7   8
BRANCH   7  14
HETATM   14  C   UNL     1     -11.154  10.036  69.598  1.00  0.00    -0.300 A  
HETATM   15  C   UNL     1     -11.721   9.072  71.763  1.00  0.00    -0.440 A  
HETATM   16  C   UNL     1     -12.869  11.050  70.994  1.00  0.00    -0.442 A  
HETATM   17  C   UNL     1     -10.959   9.062  70.594  1.00  0.00    -0.308 A  
HETATM   18  C   UNL     1     -12.111  11.038  69.821  1.00  0.00    -0.424 A  
HETATM   19  C   UNL     1     -12.680  10.063  71.960  1.00  0.00    -0.439 A  
ENDBRANCH   7  14
ENDBRANCH   6   7
ENDBRANCH   5   6
ENDBRANCH   4   5
ENDBRANCH   2   4
TORSDOF 6
ENDMDL
MODEL      116
REMARK 921   NORMALIZED FREE ENERGY PREDICTED BY IDOCK:   -3.86 KCAL/MOL
REMARK 922        TOTAL FREE ENERGY PREDICTED BY IDOCK:   -6.11 KCAL/MOL
REMARK 923 INTER-LIGAND FREE ENERGY PREDICTED BY IDOCK:   -5.16 KCAL/MOL
REMARK 924 INTRA-LIGAND FREE ENERGY PREDICTED BY IDOCK:   -0.95 KCAL/MOL
REMARK 927      BINDING AFFINITY PREDICTED BY RF-SCORE:    0.00 PKD
ROOT
HETATM    1  C   UNL     1     -10.240   8.473  72.147  1.00  0.00    -0.333 C  
HETATM    2  N   UNL     1     -11.400   8.495  71.250  1.00  0.00    -0.259 NA 
HETATM    3  C   UNL     1     -12.271   9.619  71.586  1.00  0.00    -0.402 C  
ENDROOT
BRANCH   2   4
HETATM    4  C   UNL     1     -10.941   8.545  69.851  1.00  0.00    -0.165 C  
BRANCH   4   5
HETATM    5  C   UNL     1      -9.671   9.380  69.599  1.00  0.00    -0.190 C  
BRANCH   5   6
HETATM    6  O   UNL     1      -9.923  10.619  68.924  1.00  0.00    -0.187 OA 
BRANCH   6   7
HETATM    7  C   UNL     1     -10.487  10.507  67.606  1.00  0.00    -0.234 C  
BRANCH   7   8
HETATM    8  C   UNL     1     -11.190  11.787  67.181  1.00  0.00    -0.375 A  
HETATM    9  C   UNL     1     -11.426  12.799  68.126  1.00  0.00    -0.357 A  
HETATM   10  C   UNL     1     -11.982  14.020  67.740  1.00  0.00    -0.392 A  
HETATM   11  C   UNL     1     -11.540  12.021  65.843  1.00  0.00    -0.364 A  
HETATM   12  C   UNL     1     -12.318  14.241  66.407  1.00  0.00    -0.378 A  
HETATM   13  C   UNL     1     -12.101  13.243  65.459  1.00  0.00    -0.480 A  
ENDBRANCH   7   8
BRANCH   7  14
HETATM   14  C   UNL     1      -9.415  10.032  66.632  1.00  0.00    -0.215 A  
HETATM   15  C   UNL     1      -8.625   8.346  65.061  1.00  0.00    -0.133 A  
HETATM   16  C   UNL     1      -7.217  10.227  65.608  1.00  0.00    -0.148 A  
HETATM   17  C   UNL     1      -9.617   8.844  65.907  1.00  0.00    -0.293 A  
HETATM   18  C   UNL     1      -8.206  10.723  66.459  1.00  0.00    -0.148 A  
HETATM   19  C   UNL     1      -7.423   9.035  64.916  1.00  0.00    -0.105 A  
ENDBRANCH   7  14
ENDBRANCH   6   7
ENDBRANCH   5   6
ENDBRANCH   4   5
ENDBRANCH   2   4
TORSDOF 6
ENDMDL
MODEL      117
REMARK 921   NORMALIZED FREE ENERGY PREDICTED BY IDOCK:   -3.84 KCAL/MOL
REMARK 922        TOTAL FREE ENERGY PREDICTED BY IDOCK:   -6.09 KCAL/MOL
REMARK 923 INTER-LIGAND FREE ENERGY PREDICTED BY IDOCK:   -5.26 KCAL/MOL
REMARK 924 INTRA-LIGAND FREE ENERGY PREDICTED BY IDOCK:   -0.84 KCAL/MOL
REMARK 927      BINDING AFFINITY PREDICTED BY RF-SCORE:    0.00 PKD
ROOT
HETATM    1  C   UNL     1      -7.321  10.180  66.323  1.00  0.00    -0.112 C  
HETATM    2  N   UNL     1      -7.804   9.716  67.627  1.00  0.00    -0.095 NA 
HETATM    3  C   UNL     1      -6.708   9.107  68.379  1.00  0.00    -0.059 C  
ENDROOT
BRANCH   2   4
HETATM    4  C   UNL     1      -8.420  10.840  68.354  1.00  0.00    -0.137 C  
BRANCH   4   5
HETATM    5  C   UNL     1      -9.960  10.862  68.359  1.00  0.00    -0.178 C  
BRANCH   5   6
HETATM    6  O   UNL     1     -10.515  12.182  68.303  1.00  0.00    -0.200 OA 
BRANCH   6   7
HETATM    7  C   UNL     1     -10.124  12.974  67.168  1.00  0.00    -0.244 C  
BRANCH   7   8
HETATM    8  C   UNL     1     -10.908  12.600  65.920  1.00  0.00    -0.300 A  
HETATM    9  C   UNL     1     -12.255  12.984  65.801  1.00  0.00    -0.511 A  
HETATM   10  C   UNL     1     -12.966  12.736  64.626  1.00  0.00    -0.231 A  
HETATM   11  C   UNL     1     -10.297  11.949  64.838  1.00  0.00    -0.328 A  
HETATM   12  C   UNL     1     -12.344  12.094  63.558  1.00  0.00    -0.682 A  
HETATM   13  C   UNL     1     -11.012  11.697  63.664  1.00  0.00    -0.507 A  
ENDBRANCH   7   8
BRANCH   7  14
HETATM   14  C   UNL     1     -10.198  14.453  67.530  1.00  0.00    -0.240 A  
HETATM   15  C   UNL     1      -9.217  16.680  67.409  1.00  0.00    -0.216 A  
HETATM   16  C   UNL     1     -11.195  16.313  68.740  1.00  0.00    -0.343 A  
HETATM   17  C   UNL     1      -9.217  15.335  67.038  1.00  0.00    -0.235 A  
HETATM   18  C   UNL     1     -11.194  14.965  68.375  1.00  0.00    -0.304 A  
HETATM   19  C   UNL     1     -10.202  17.168  68.264  1.00  0.00    -0.334 A  
ENDBRANCH   7  14
ENDBRANCH   6   7
ENDBRANCH   5   6
ENDBRANCH   4   5
ENDBRANCH   2   4
TORSDOF 6
ENDMDL
MODEL      118
REMARK 921   NORMALIZED FREE ENERGY PREDICTED BY IDOCK:   -3.84 KCAL/MOL
REMARK 922        TOTAL FREE ENERGY PREDICTED BY IDOCK:   -6.08 KCAL/MOL
REMARK 923 INTER-LIGAND FREE ENERGY PREDICTED BY IDOCK:   -5.37 KCAL/MOL
REMARK 924 INTRA-LIGAND FREE ENERGY PREDICTED BY IDOCK:   -0.71 KCAL/MOL
REMARK 927      BINDING AFFINITY PREDICTED BY RF-SCORE:    0.00 PKD
ROOT
HETATM    1  C   UNL     1      -7.021   8.759  70.137  1.00  0.00    -0.044 C  
HETATM    2  N   UNL     1      -8.341   8.228  69.781  1.00  0.00    -0.121 NA 
HETATM    3  C   UNL     1      -8.220   6.840  69.338  1.00  0.00    -0.128 C  
ENDROOT
BRANCH   2   4
HETATM    4  C   UNL     1      -9.255   8.368  70.928  1.00  0.00    -0.160 C  
BRANCH   4   5
HETATM    5  C   UNL     1     -10.687   8.822  70.583  1.00  0.00    -0.225 C  
BRANCH   5   6
HETATM    6  O   UNL     1     -10.957  10.184  70.937  1.00  0.00    -0.318 OA 
BRANCH   6   7
HETATM    7  C   UNL     1     -11.689  10.947  69.963  1.00  0.00    -0.345 C  
BRANCH   7   8
HETATM    8  C   UNL     1     -12.289  12.207  70.567  1.00  0.00    -0.358 A  
HETATM    9  C   UNL     1     -13.077  12.118  71.727  1.00  0.00    -0.457 A  
HETATM   10  C   UNL     1     -13.558  13.268  72.354  1.00  0.00    -0.694 A  
HETATM   11  C   UNL     1     -12.009  13.478  70.042  1.00  0.00    -0.410 A  
HETATM   12  C   UNL     1     -13.266  14.523  71.824  1.00  0.00    -0.429 A  
HETATM   13  C   UNL     1     -12.496  14.629  70.667  1.00  0.00    -0.408 A  
ENDBRANCH   7   8
BRANCH   7  14
HETATM   14  C   UNL     1     -10.809  11.199  68.745  1.00  0.00    -0.256 A  
HETATM   15  C   UNL     1     -10.563  11.233  66.321  1.00  0.00    -0.315 A  
HETATM   16  C   UNL     1      -8.651  11.670  67.725  1.00  0.00    -0.144 A  
HETATM   17  C   UNL     1     -11.360  11.079  67.456  1.00  0.00    -0.332 A  
HETATM   18  C   UNL     1      -9.446  11.510  68.862  1.00  0.00    -0.027 A  
HETATM   19  C   UNL     1      -9.208  11.523  66.456  1.00  0.00    -0.203 A  
ENDBRANCH   7  14
ENDBRANCH   6   7
ENDBRANCH   5   6
ENDBRANCH   4   5
ENDBRANCH   2   4
TORSDOF 6
ENDMDL
MODEL      119
REMARK 921   NORMALIZED FREE ENERGY PREDICTED BY IDOCK:   -3.82 KCAL/MOL
REMARK 922        TOTAL FREE ENERGY PREDICTED BY IDOCK:   -6.06 KCAL/MOL
REMARK 923 INTER-LIGAND FREE ENERGY PREDICTED BY IDOCK:   -5.25 KCAL/MOL
REMARK 924 INTRA-LIGAND FREE ENERGY PREDICTED BY IDOCK:   -0.81 KCAL/MOL
REMARK 927      BINDING AFFINITY PREDICTED BY RF-SCORE:    0.00 PKD
ROOT
HETATM    1  C   UNL     1     -10.904   6.194  70.186  1.00  0.00    -0.329 C  
HETATM    2  N   UNL     1     -11.257   7.063  71.314  1.00  0.00    -0.255 NA 
HETATM    3  C   UNL     1     -10.068   7.351  72.115  1.00  0.00    -0.190 C  
ENDROOT
BRANCH   2   4
HETATM    4  C   UNL     1     -11.899   8.290  70.810  1.00  0.00    -0.162 C  
BRANCH   4   5
HETATM    5  C   UNL     1     -11.250   9.612  71.263  1.00  0.00    -0.376 C  
BRANCH   5   6
HETATM    6  O   UNL     1     -10.423  10.217  70.262  1.00  0.00    -0.265 OA 
BRANCH   6   7
HETATM    7  C   UNL     1     -10.900  10.107  68.909  1.00  0.00    -0.223 C  
BRANCH   7   8
HETATM    8  C   UNL     1     -11.213  11.468  68.307  1.00  0.00    -0.322 A  
HETATM    9  C   UNL     1     -11.236  11.624  66.911  1.00  0.00    -0.376 A  
HETATM   10  C   UNL     1     -11.615  12.837  66.335  1.00  0.00    -0.435 A  
HETATM   11  C   UNL     1     -11.565  12.562  69.112  1.00  0.00    -0.375 A  
HETATM   12  C   UNL     1     -11.968  13.913  67.147  1.00  0.00    -0.455 A  
HETATM   13  C   UNL     1     -11.939  13.778  68.533  1.00  0.00    -0.402 A  
ENDBRANCH   7   8
BRANCH   7  14
HETATM   14  C   UNL     1      -9.921   9.274  68.091  1.00  0.00    -0.206 A  
HETATM   15  C   UNL     1      -7.616   8.706  67.543  1.00  0.00    -0.094 A  
HETATM   16  C   UNL     1      -9.424   7.705  66.299  1.00  0.00    -0.176 A  
HETATM   17  C   UNL     1      -8.540   9.402  68.324  1.00  0.00    -0.120 A  
HETATM   18  C   UNL     1     -10.349   8.405  67.076  1.00  0.00    -0.385 A  
HETATM   19  C   UNL     1      -8.058   7.862  66.528  1.00  0.00    -0.107 A  
ENDBRANCH   7  14
ENDBRANCH   6   7
ENDBRANCH   5   6
ENDBRANCH   4   5
ENDBRANCH   2   4
TORSDOF 6
ENDMDL
MODEL      120
REMARK 921   NORMALIZED FREE ENERGY PREDICTED BY IDOCK:   -3.82 KCAL/MOL
REMARK 922        TOTAL FREE ENERGY PREDICTED BY IDOCK:   -6.06 KCAL/MOL
REMARK 923 INTER-LIGAND FREE ENERGY PREDICTED BY IDOCK:   -5.43 KCAL/MOL
REMARK 924 INTRA-LIGAND FREE ENERGY PREDICTED BY IDOCK:   -0.63 KCAL/MOL
REMARK 927      BINDING AFFINITY PREDICTED BY RF-SCORE:    0.00 PKD
ROOT
HETATM    1  C   UNL     1      -7.633   6.382  72.178  1.00  0.00    -0.094 C  
HETATM    2  N   UNL     1      -7.946   7.792  72.431  1.00  0.00    -0.106 NA 
HETATM    3  C   UNL     1      -7.449   8.187  73.748  1.00  0.00    -0.164 C  
ENDROOT
BRANCH   2   4
HETATM    4  C   UNL     1      -7.383   8.623  71.352  1.00  0.00    -0.102 C  
BRANCH   4   5
HETATM    5  C   UNL     1      -8.406   9.447  70.547  1.00  0.00    -0.197 C  
BRANCH   5   6
HETATM    6  O   UNL     1      -9.725   8.886  70.550  1.00  0.00    -0.177 OA 
BRANCH   6   7
HETATM    7  C   UNL     1     -10.804   9.829  70.659  1.00  0.00    -0.329 C  
BRANCH   7   8
HETATM    8  C   UNL     1     -10.991  10.626  69.377  1.00  0.00    -0.304 A  
HETATM    9  C   UNL     1     -11.453  11.951  69.440  1.00  0.00    -0.366 A  
HETATM   10  C   UNL     1     -11.540  12.733  68.288  1.00  0.00    -0.375 A  
HETATM   11  C   UNL     1     -10.633  10.098  68.127  1.00  0.00    -0.262 A  
HETATM   12  C   UNL     1     -11.175  12.197  67.055  1.00  0.00    -0.370 A  
HETATM   13  C   UNL     1     -10.726  10.880  66.973  1.00  0.00    -0.323 A  
ENDBRANCH   7   8
BRANCH   7  14
HETATM   14  C   UNL     1     -12.061   9.113  71.135  1.00  0.00    -0.365 A  
HETATM   15  C   UNL     1     -14.151   9.178  72.387  1.00  0.00    -0.434 A  
HETATM   16  C   UNL     1     -13.410   7.105  71.399  1.00  0.00    -0.380 A  
HETATM   17  C   UNL     1     -13.024   9.822  71.877  1.00  0.00    -0.535 A  
HETATM   18  C   UNL     1     -12.279   7.748  70.893  1.00  0.00    -0.166 A  
HETATM   19  C   UNL     1     -14.341   7.818  72.153  1.00  0.00    -0.376 A  
ENDBRANCH   7  14
ENDBRANCH   6   7
ENDBRANCH   5   6
ENDBRANCH   4   5
ENDBRANCH   2   4
TORSDOF 6
ENDMDL
MODEL      121
REMARK 921   NORMALIZED FREE ENERGY PREDICTED BY IDOCK:   -3.81 KCAL/MOL
REMARK 922        TOTAL FREE ENERGY PREDICTED BY IDOCK:   -6.05 KCAL/MOL
REMARK 923 INTER-LIGAND FREE ENERGY PREDICTED BY IDOCK:   -5.71 KCAL/MOL
REMARK 924 INTRA-LIGAND FREE ENERGY PREDICTED BY IDOCK:   -0.34 KCAL/MOL
REMARK 927      BINDING AFFINITY PREDICTED BY RF-SCORE:    0.00 PKD
ROOT
HETATM    1  C   UNL     1      -7.685   8.131  68.500  1.00  0.00    -0.112 C  
HETATM    2  N   UNL     1      -8.727   8.951  69.128  1.00  0.00    -0.130 NA 
HETATM    3  C   UNL     1      -9.174   8.327  70.372  1.00  0.00    -0.151 C  
ENDROOT
BRANCH   2   4
HETATM    4  C   UNL     1      -8.217  10.317  69.343  1.00  0.00    -0.165 C  
BRANCH   4   5
HETATM    5  C   UNL     1      -8.992  11.435  68.620  1.00  0.00    -0.131 C  
BRANCH   5   6
HETATM    6  O   UNL     1      -9.697  10.985  67.457  1.00  0.00    -0.170 OA 
BRANCH   6   7
HETATM    7  C   UNL     1     -11.059  11.431  67.340  1.00  0.00    -0.289 C  
BRANCH   7   8
HETATM    8  C   UNL     1     -11.716  11.600  68.701  1.00  0.00    -0.386 A  
HETATM    9  C   UNL     1     -12.129  10.467  69.422  1.00  0.00    -0.175 A  
HETATM   10  C   UNL     1     -12.646  10.591  70.712  1.00  0.00    -0.474 A  
HETATM   11  C   UNL     1     -11.850  12.862  69.299  1.00  0.00    -0.363 A  
HETATM   12  C   UNL     1     -12.766  11.850  71.295  1.00  0.00    -0.401 A  
HETATM   13  C   UNL     1     -12.373  12.985  70.590  1.00  0.00    -0.391 A  
ENDBRANCH   7   8
BRANCH   7  14
HETATM   14  C   UNL     1     -11.115  12.675  66.463  1.00  0.00    -0.320 A  
HETATM   15  C   UNL     1     -12.341  14.045  64.863  1.00  0.00    -0.447 A  
HETATM   16  C   UNL     1     -10.080  14.638  65.463  1.00  0.00    -0.405 A  
HETATM   17  C   UNL     1     -12.283  12.953  65.730  1.00  0.00    -0.498 A  
HETATM   18  C   UNL     1     -10.019  13.542  66.327  1.00  0.00    -0.302 A  
HETATM   19  C   UNL     1     -11.237  14.884  64.726  1.00  0.00    -0.393 A  
ENDBRANCH   7  14
ENDBRANCH   6   7
ENDBRANCH   5   6
ENDBRANCH   4   5
ENDBRANCH   2   4
TORSDOF 6
ENDMDL
MODEL      122
REMARK 921   NORMALIZED FREE ENERGY PREDICTED BY IDOCK:   -3.80 KCAL/MOL
REMARK 922        TOTAL FREE ENERGY PREDICTED BY IDOCK:   -6.03 KCAL/MOL
REMARK 923 INTER-LIGAND FREE ENERGY PREDICTED BY IDOCK:   -5.29 KCAL/MOL
REMARK 924 INTRA-LIGAND FREE ENERGY PREDICTED BY IDOCK:   -0.73 KCAL/MOL
REMARK 927      BINDING AFFINITY PREDICTED BY RF-SCORE:    0.00 PKD
ROOT
HETATM    1  C   UNL     1      -9.501   8.988  65.868  1.00  0.00    -0.249 C  
HETATM    2  N   UNL     1      -9.463  10.382  65.414  1.00  0.00    -0.212 NA 
HETATM    3  C   UNL     1      -8.624  10.497  64.222  1.00  0.00    -0.152 C  
ENDROOT
BRANCH   2   4
HETATM    4  C   UNL     1     -10.835  10.861  65.176  1.00  0.00    -0.063 C  
BRANCH   4   5
HETATM    5  C   UNL     1     -11.231  12.142  65.936  1.00  0.00    -0.339 C  
BRANCH   5   6
HETATM    6  O   UNL     1     -11.691  11.898  67.271  1.00  0.00    -0.518 OA 
BRANCH   6   7
HETATM    7  C   UNL     1     -11.152  12.763  68.285  1.00  0.00    -0.257 C  
BRANCH   7   8
HETATM    8  C   UNL     1     -11.864  12.587  69.617  1.00  0.00    -0.382 A  
HETATM    9  C   UNL     1     -12.318  13.716  70.320  1.00  0.00    -0.392 A  
HETATM   10  C   UNL     1     -13.058  13.575  71.494  1.00  0.00    -0.427 A  
HETATM   11  C   UNL     1     -12.157  11.314  70.129  1.00  0.00    -0.448 A  
HETATM   12  C   UNL     1     -13.347  12.305  71.987  1.00  0.00    -0.491 A  
HETATM   13  C   UNL     1     -12.893  11.175  71.309  1.00  0.00    -0.515 A  
ENDBRANCH   7   8
BRANCH   7  14
HETATM   14  C   UNL     1      -9.641  12.583  68.358  1.00  0.00    -0.176 A  
HETATM   15  C   UNL     1      -7.412  13.516  68.039  1.00  0.00    -0.140 A  
HETATM   16  C   UNL     1      -7.663  11.203  68.680  1.00  0.00    -0.135 A  
HETATM   17  C   UNL     1      -8.799  13.668  68.050  1.00  0.00    -0.187 A  
HETATM   18  C   UNL     1      -9.052  11.353  68.686  1.00  0.00    -0.138 A  
HETATM   19  C   UNL     1      -6.845  12.282  68.349  1.00  0.00    -0.075 A  
ENDBRANCH   7  14
ENDBRANCH   6   7
ENDBRANCH   5   6
ENDBRANCH   4   5
ENDBRANCH   2   4
TORSDOF 6
ENDMDL
MODEL      123
REMARK 921   NORMALIZED FREE ENERGY PREDICTED BY IDOCK:   -3.79 KCAL/MOL
REMARK 922        TOTAL FREE ENERGY PREDICTED BY IDOCK:   -6.02 KCAL/MOL
REMARK 923 INTER-LIGAND FREE ENERGY PREDICTED BY IDOCK:   -5.50 KCAL/MOL
REMARK 924 INTRA-LIGAND FREE ENERGY PREDICTED BY IDOCK:   -0.52 KCAL/MOL
REMARK 927      BINDING AFFINITY PREDICTED BY RF-SCORE:    0.00 PKD
ROOT
HETATM    1  C   UNL     1      -6.897  11.067  68.957  1.00  0.00    -0.084 C  
HETATM    2  N   UNL     1      -8.142  10.765  68.243  1.00  0.00    -0.116 NA 
HETATM    3  C   UNL     1      -9.162  10.311  69.186  1.00  0.00    -0.194 C  
ENDROOT
BRANCH   2   4
HETATM    4  C   UNL     1      -8.575  11.951  67.484  1.00  0.00    -0.160 C  
BRANCH   4   5
HETATM    5  C   UNL     1      -9.621  12.841  68.184  1.00  0.00    -0.223 C  
BRANCH   5   6
HETATM    6  O   UNL     1      -9.200  14.201  68.345  1.00  0.00    -0.197 OA 
BRANCH   6   7
HETATM    7  C   UNL     1     -10.217  15.197  68.136  1.00  0.00    -0.227 C  
BRANCH   7   8
HETATM    8  C   UNL     1      -9.661  16.607  68.261  1.00  0.00    -0.244 A  
HETATM    9  C   UNL     1     -10.541  17.700  68.328  1.00  0.00    -0.342 A  
HETATM   10  C   UNL     1     -10.060  18.993  68.539  1.00  0.00    -0.467 A  
HETATM   11  C   UNL     1      -8.285  16.844  68.394  1.00  0.00    -0.232 A  
HETATM   12  C   UNL     1      -8.691  19.211  68.677  1.00  0.00    -0.394 A  
HETATM   13  C   UNL     1      -7.803  18.140  68.600  1.00  0.00    -0.307 A  
ENDBRANCH   7   8
BRANCH   7  14
HETATM   14  C   UNL     1     -10.935  14.925  66.821  1.00  0.00    -0.326 A  
HETATM   15  C   UNL     1     -12.785  13.872  65.635  1.00  0.00    -0.534 A  
HETATM   16  C   UNL     1     -11.064  15.020  64.393  1.00  0.00    -0.120 A  
HETATM   17  C   UNL     1     -12.140  14.198  66.828  1.00  0.00    -0.474 A  
HETATM   18  C   UNL     1     -10.415  15.342  65.587  1.00  0.00    -0.391 A  
HETATM   19  C   UNL     1     -12.244  14.278  64.417  1.00  0.00    -0.471 A  
ENDBRANCH   7  14
ENDBRANCH   6   7
ENDBRANCH   5   6
ENDBRANCH   4   5
ENDBRANCH   2   4
TORSDOF 6
ENDMDL
MODEL      124
REMARK 921   NORMALIZED FREE ENERGY PREDICTED BY IDOCK:   -3.79 KCAL/MOL
REMARK 922        TOTAL FREE ENERGY PREDICTED BY IDOCK:   -6.02 KCAL/MOL
REMARK 923 INTER-LIGAND FREE ENERGY PREDICTED BY IDOCK:   -5.10 KCAL/MOL
REMARK 924 INTRA-LIGAND FREE ENERGY PREDICTED BY IDOCK:   -0.91 KCAL/MOL
REMARK 927      BINDING AFFINITY PREDICTED BY RF-SCORE:    0.00 PKD
ROOT
HETATM    1  C   UNL     1     -10.143  12.813  66.110  1.00  0.00    -0.266 C  
HETATM    2  N   UNL     1     -10.599  13.593  67.265  1.00  0.00    -0.266 NA 
HETATM    3  C   UNL     1     -11.984  14.018  67.067  1.00  0.00    -0.438 C  
ENDROOT
BRANCH   2   4
HETATM    4  C   UNL     1     -10.431  12.799  68.494  1.00  0.00    -0.238 C  
BRANCH   4   5
HETATM    5  C   UNL     1     -11.672  12.004  68.944  1.00  0.00    -0.326 C  
BRANCH   5   6
HETATM    6  O   UNL     1     -11.602  10.607  68.632  1.00  0.00    -0.281 OA 
BRANCH   6   7
HETATM    7  C   UNL     1     -10.505   9.890  69.225  1.00  0.00    -0.221 C  
BRANCH   7   8
HETATM    8  C   UNL     1     -10.983   8.877  70.254  1.00  0.00    -0.266 A  
HETATM    9  C   UNL     1     -11.209   7.545  69.868  1.00  0.00    -0.124 A  
HETATM   10  C   UNL     1     -11.554   6.577  70.812  1.00  0.00    -0.437 A  
HETATM   11  C   UNL     1     -11.126   9.218  71.607  1.00  0.00    -0.438 A  
HETATM   12  C   UNL     1     -11.686   6.930  72.154  1.00  0.00    -0.327 A  
HETATM   13  C   UNL     1     -11.477   8.249  72.551  1.00  0.00    -0.454 A  
ENDBRANCH   7   8
BRANCH   7  14
HETATM   14  C   UNL     1      -9.630   9.298  68.127  1.00  0.00    -0.159 A  
HETATM   15  C   UNL     1      -9.396   8.564  65.815  1.00  0.00    -0.187 A  
HETATM   16  C   UNL     1      -7.576   8.240  67.365  1.00  0.00    -0.098 A  
HETATM   17  C   UNL     1     -10.148   9.167  66.825  1.00  0.00    -0.341 A  
HETATM   18  C   UNL     1      -8.329   8.837  68.378  1.00  0.00    -0.126 A  
HETATM   19  C   UNL     1      -8.113   8.096  66.087  1.00  0.00    -0.109 A  
ENDBRANCH   7  14
ENDBRANCH   6   7
ENDBRANCH   5   6
ENDBRANCH   4   5
ENDBRANCH   2   4
TORSDOF 6
ENDMDL
MODEL      125
REMARK 921   NORMALIZED FREE ENERGY PREDICTED BY IDOCK:   -3.76 KCAL/MOL
REMARK 922        TOTAL FREE ENERGY PREDICTED BY IDOCK:   -5.98 KCAL/MOL
REMARK 923 INTER-LIGAND FREE ENERGY PREDICTED BY IDOCK:   -5.86 KCAL/MOL
REMARK 924 INTRA-LIGAND FREE ENERGY PREDICTED BY IDOCK:   -0.12 KCAL/MOL
REMARK 927      BINDING AFFINITY PREDICTED BY RF-SCORE:    0.00 PKD
ROOT
HETATM    1  C   UNL     1     -10.448  15.766  70.453  1.00  0.00    -0.152 C  
HETATM    2  N   UNL     1     -11.757  15.471  69.862  1.00  0.00    -0.327 NA 
HETATM    3  C   UNL     1     -11.777  15.881  68.459  1.00  0.00    -0.292 C  
ENDROOT
BRANCH   2   4
HETATM    4  C   UNL     1     -12.063  14.040  70.028  1.00  0.00    -0.348 C  
BRANCH   4   5
HETATM    5  C   UNL     1     -11.929  13.182  68.755  1.00  0.00    -0.280 C  
BRANCH   5   6
HETATM    6  O   UNL     1     -10.823  12.272  68.790  1.00  0.00    -0.226 OA 
BRANCH   6   7
HETATM    7  C   UNL     1     -10.074  12.153  67.568  1.00  0.00    -0.196 C  
BRANCH   7   8
HETATM    8  C   UNL     1      -9.851  10.700  67.180  1.00  0.00    -0.208 A  
HETATM    9  C   UNL     1     -10.605   9.689  67.800  1.00  0.00    -0.320 A  
HETATM   10  C   UNL     1     -10.487   8.359  67.394  1.00  0.00    -0.354 A  
HETATM   11  C   UNL     1      -8.964  10.342  66.154  1.00  0.00    -0.175 A  
HETATM   12  C   UNL     1      -9.607   8.021  66.368  1.00  0.00    -0.267 A  
HETATM   13  C   UNL     1      -8.843   9.009  65.751  1.00  0.00    -0.216 A  
ENDBRANCH   7   8
BRANCH   7  14
HETATM   14  C   UNL     1     -10.735  12.993  66.482  1.00  0.00    -0.290 A  
HETATM   15  C   UNL     1     -12.608  13.337  64.961  1.00  0.00    -0.483 A  
HETATM   16  C   UNL     1     -10.702  14.813  64.868  1.00  0.00    -0.438 A  
HETATM   17  C   UNL     1     -12.007  12.630  66.004  1.00  0.00    -0.478 A  
HETATM   18  C   UNL     1     -10.097  14.103  65.907  1.00  0.00    -0.337 A  
HETATM   19  C   UNL     1     -11.952  14.425  64.390  1.00  0.00    -0.471 A  
ENDBRANCH   7  14
ENDBRANCH   6   7
ENDBRANCH   5   6
ENDBRANCH   4   5
ENDBRANCH   2   4
TORSDOF 6
ENDMDL
MODEL      126
REMARK 921   NORMALIZED FREE ENERGY PREDICTED BY IDOCK:   -3.75 KCAL/MOL
REMARK 922        TOTAL FREE ENERGY PREDICTED BY IDOCK:   -5.96 KCAL/MOL
REMARK 923 INTER-LIGAND FREE ENERGY PREDICTED BY IDOCK:   -6.00 KCAL/MOL
REMARK 924 INTRA-LIGAND FREE ENERGY PREDICTED BY IDOCK:    0.04 KCAL/MOL
REMARK 927      BINDING AFFINITY PREDICTED BY RF-SCORE:    0.00 PKD
ROOT
HETATM    1  C   UNL     1      -6.584   8.530  74.245  1.00  0.00    -0.128 C  
HETATM    2  N   UNL     1      -7.831   8.498  73.473  1.00  0.00    -0.394 NA 
HETATM    3  C   UNL     1      -7.538   8.274  72.059  1.00  0.00    -0.116 C  
ENDROOT
BRANCH   2   4
HETATM    4  C   UNL     1      -8.727   7.467  74.026  1.00  0.00    -0.223 C  
BRANCH   4   5
HETATM    5  C   UNL     1     -10.187   7.525  73.536  1.00  0.00    -0.324 C  
BRANCH   5   6
HETATM    6  O   UNL     1     -10.602   6.350  72.830  1.00  0.00    -0.209 OA 
BRANCH   6   7
HETATM    7  C   UNL     1     -11.461   6.572  71.698  1.00  0.00    -0.297 C  
BRANCH   7   8
HETATM    8  C   UNL     1     -11.861   8.034  71.570  1.00  0.00    -0.328 A  
HETATM    9  C   UNL     1     -10.990   8.944  70.948  1.00  0.00    -0.325 A  
HETATM   10  C   UNL     1     -11.375  10.268  70.733  1.00  0.00    -0.421 A  
HETATM   11  C   UNL     1     -13.122   8.488  71.987  1.00  0.00    -0.403 A  
HETATM   12  C   UNL     1     -12.632  10.702  71.146  1.00  0.00    -0.526 A  
HETATM   13  C   UNL     1     -13.504   9.816  71.776  1.00  0.00    -0.463 A  
ENDBRANCH   7   8
BRANCH   7  14
HETATM   14  C   UNL     1     -10.814   5.992  70.446  1.00  0.00    -0.386 A  
HETATM   15  C   UNL     1     -10.620   5.973  68.017  1.00  0.00    -0.330 A  
HETATM   16  C   UNL     1      -9.401   4.356  69.329  1.00  0.00    -0.223 A  
HETATM   17  C   UNL     1     -11.141   6.528  69.187  1.00  0.00    -0.387 A  
HETATM   18  C   UNL     1      -9.926   4.907  70.500  1.00  0.00    -0.311 A  
HETATM   19  C   UNL     1      -9.755   4.884  68.088  1.00  0.00    -0.202 A  
ENDBRANCH   7  14
ENDBRANCH   6   7
ENDBRANCH   5   6
ENDBRANCH   4   5
ENDBRANCH   2   4
TORSDOF 6
ENDMDL
MODEL      127
REMARK 921   NORMALIZED FREE ENERGY PREDICTED BY IDOCK:   -3.73 KCAL/MOL
REMARK 922        TOTAL FREE ENERGY PREDICTED BY IDOCK:   -5.93 KCAL/MOL
REMARK 923 INTER-LIGAND FREE ENERGY PREDICTED BY IDOCK:   -5.23 KCAL/MOL
REMARK 924 INTRA-LIGAND FREE ENERGY PREDICTED BY IDOCK:   -0.70 KCAL/MOL
REMARK 927      BINDING AFFINITY PREDICTED BY RF-SCORE:    0.00 PKD
ROOT
HETATM    1  C   UNL     1      -8.959  19.742  66.087  1.00  0.00    -0.336 C  
HETATM    2  N   UNL     1      -9.307  18.656  67.010  1.00  0.00    -0.287 NA 
HETATM    3  C   UNL     1      -9.012  19.055  68.385  1.00  0.00    -0.338 C  
ENDROOT
BRANCH   2   4
HETATM    4  C   UNL     1     -10.721  18.288  66.828  1.00  0.00    -0.218 C  
BRANCH   4   5
HETATM    5  C   UNL     1     -11.033  16.783  66.938  1.00  0.00     0.083 C  
BRANCH   5   6
HETATM    6  O   UNL     1     -11.704  16.423  68.153  1.00  0.00    -0.136 OA 
BRANCH   6   7
HETATM    7  C   UNL     1     -10.851  16.045  69.247  1.00  0.00    -0.300 C  
BRANCH   7   8
HETATM    8  C   UNL     1     -11.644  15.796  70.521  1.00  0.00    -0.396 A  
HETATM    9  C   UNL     1     -11.174  16.301  71.745  1.00  0.00     0.062 A  
HETATM   10  C   UNL     1     -11.931  16.168  72.910  1.00  0.00    -0.623 A  
HETATM   11  C   UNL     1     -12.883  15.139  70.496  1.00  0.00    -0.395 A  
HETATM   12  C   UNL     1     -13.163  15.520  72.869  1.00  0.00    -0.633 A  
HETATM   13  C   UNL     1     -13.638  15.002  71.665  1.00  0.00    -0.530 A  
ENDBRANCH   7   8
BRANCH   7  14
HETATM   14  C   UNL     1      -9.966  14.879  68.825  1.00  0.00    -0.228 A  
HETATM   15  C   UNL     1      -7.729  13.965  68.517  1.00  0.00    -0.139 A  
HETATM   16  C   UNL     1      -9.653  12.682  67.829  1.00  0.00    -0.197 A  
HETATM   17  C   UNL     1      -8.570  14.987  68.959  1.00  0.00    -0.205 A  
HETATM   18  C   UNL     1     -10.496  13.706  68.266  1.00  0.00    -0.253 A  
HETATM   19  C   UNL     1      -8.270  12.815  67.947  1.00  0.00    -0.168 A  
ENDBRANCH   7  14
ENDBRANCH   6   7
ENDBRANCH   5   6
ENDBRANCH   4   5
ENDBRANCH   2   4
TORSDOF 6
ENDMDL
MODEL      128
REMARK 921   NORMALIZED FREE ENERGY PREDICTED BY IDOCK:   -3.72 KCAL/MOL
REMARK 922        TOTAL FREE ENERGY PREDICTED BY IDOCK:   -5.92 KCAL/MOL
REMARK 923 INTER-LIGAND FREE ENERGY PREDICTED BY IDOCK:   -4.84 KCAL/MOL
REMARK 924 INTRA-LIGAND FREE ENERGY PREDICTED BY IDOCK:   -1.08 KCAL/MOL
REMARK 927      BINDING AFFINITY PREDICTED BY RF-SCORE:    0.00 PKD
ROOT
HETATM    1  C   UNL     1     -10.573   5.838  72.153  1.00  0.00    -0.219 C  
HETATM    2  N   UNL     1     -10.852   7.015  72.982  1.00  0.00    -0.292 NA 
HETATM    3  C   UNL     1      -9.610   7.733  73.265  1.00  0.00    -0.283 C  
ENDROOT
BRANCH   2   4
HETATM    4  C   UNL     1     -11.846   7.869  72.309  1.00  0.00    -0.352 C  
BRANCH   4   5
HETATM    5  C   UNL     1     -11.285   9.135  71.634  1.00  0.00    -0.377 C  
BRANCH   5   6
HETATM    6  O   UNL     1     -11.501   9.174  70.218  1.00  0.00    -0.240 OA 
BRANCH   6   7
HETATM    7  C   UNL     1     -10.315   9.163  69.405  1.00  0.00    -0.216 C  
BRANCH   7   8
HETATM    8  C   UNL     1      -9.899   7.749  69.030  1.00  0.00    -0.169 A  
HETATM    9  C   UNL     1     -10.816   6.900  68.388  1.00  0.00    -0.238 A  
HETATM   10  C   UNL     1     -10.429   5.634  67.948  1.00  0.00    -0.274 A  
HETATM   11  C   UNL     1      -8.589   7.292  69.234  1.00  0.00    -0.137 A  
HETATM   12  C   UNL     1      -9.123   5.196  68.151  1.00  0.00    -0.125 A  
HETATM   13  C   UNL     1      -8.204   6.021  68.797  1.00  0.00    -0.104 A  
ENDBRANCH   7   8
BRANCH   7  14
HETATM   14  C   UNL     1     -10.505  10.094  68.214  1.00  0.00    -0.244 A  
HETATM   15  C   UNL     1     -11.708  11.947  67.186  1.00  0.00    -0.311 A  
HETATM   16  C   UNL     1     -10.025  10.765  65.925  1.00  0.00    -0.304 A  
HETATM   17  C   UNL     1     -11.462  11.123  68.285  1.00  0.00    -0.373 A  
HETATM   18  C   UNL     1      -9.781   9.936  67.022  1.00  0.00    -0.230 A  
HETATM   19  C   UNL     1     -10.994  11.764  66.005  1.00  0.00    -0.355 A  
ENDBRANCH   7  14
ENDBRANCH   6   7
ENDBRANCH   5   6
ENDBRANCH   4   5
ENDBRANCH   2   4
TORSDOF 6
ENDMDL
MODEL      129
REMARK 921   NORMALIZED FREE ENERGY PREDICTED BY IDOCK:   -3.71 KCAL/MOL
REMARK 922        TOTAL FREE ENERGY PREDICTED BY IDOCK:   -5.90 KCAL/MOL
REMARK 923 INTER-LIGAND FREE ENERGY PREDICTED BY IDOCK:   -5.14 KCAL/MOL
REMARK 924 INTRA-LIGAND FREE ENERGY PREDICTED BY IDOCK:   -0.76 KCAL/MOL
REMARK 927      BINDING AFFINITY PREDICTED BY RF-SCORE:    0.00 PKD
ROOT
HETATM    1  C   UNL     1     -11.389   8.364  71.533  1.00  0.00    -0.276 C  
HETATM    2  N   UNL     1     -10.177   9.116  71.191  1.00  0.00    -0.289 NA 
HETATM    3  C   UNL     1      -8.990   8.333  71.530  1.00  0.00    -0.173 C  
ENDROOT
BRANCH   2   4
HETATM    4  C   UNL     1     -10.211   9.485  69.765  1.00  0.00    -0.228 C  
BRANCH   4   5
HETATM    5  C   UNL     1     -10.529  10.964  69.470  1.00  0.00    -0.138 C  
BRANCH   5   6
HETATM    6  O   UNL     1     -10.008  11.424  68.217  1.00  0.00    -0.185 OA 
BRANCH   6   7
HETATM    7  C   UNL     1     -10.550  12.665  67.734  1.00  0.00    -0.220 C  
BRANCH   7   8
HETATM    8  C   UNL     1      -9.596  13.826  67.962  1.00  0.00    -0.214 A  
HETATM    9  C   UNL     1      -8.211  13.594  67.999  1.00  0.00    -0.162 A  
HETATM   10  C   UNL     1      -7.312  14.655  68.111  1.00  0.00    -0.127 A  
HETATM   11  C   UNL     1     -10.058  15.147  68.056  1.00  0.00    -0.222 A  
HETATM   12  C   UNL     1      -7.785  15.962  68.197  1.00  0.00    -0.135 A  
HETATM   13  C   UNL     1      -9.157  16.209  68.173  1.00  0.00    -0.189 A  
ENDBRANCH   7   8
BRANCH   7  14
HETATM   14  C   UNL     1     -10.992  12.497  66.285  1.00  0.00    -0.311 A  
HETATM   15  C   UNL     1     -12.733  12.732  64.596  1.00  0.00    -0.439 A  
HETATM   16  C   UNL     1     -10.637  11.685  64.019  1.00  0.00    -0.426 A  
HETATM   17  C   UNL     1     -12.273  12.934  65.898  1.00  0.00    -0.469 A  
HETATM   18  C   UNL     1     -10.177  11.882  65.323  1.00  0.00    -0.309 A  
HETATM   19  C   UNL     1     -11.918  12.102  63.659  1.00  0.00    -0.628 A  
ENDBRANCH   7  14
ENDBRANCH   6   7
ENDBRANCH   5   6
ENDBRANCH   4   5
ENDBRANCH   2   4
TORSDOF 6
ENDMDL
MODEL      130
REMARK 921   NORMALIZED FREE ENERGY PREDICTED BY IDOCK:   -3.70 KCAL/MOL
REMARK 922        TOTAL FREE ENERGY PREDICTED BY IDOCK:   -5.89 KCAL/MOL
REMARK 923 INTER-LIGAND FREE ENERGY PREDICTED BY IDOCK:   -5.81 KCAL/MOL
REMARK 924 INTRA-LIGAND FREE ENERGY PREDICTED BY IDOCK:   -0.08 KCAL/MOL
REMARK 927      BINDING AFFINITY PREDICTED BY RF-SCORE:    0.00 PKD
ROOT
HETATM    1  C   UNL     1     -12.853  12.933  71.295  1.00  0.00    -0.270 C  
HETATM    2  N   UNL     1     -12.250  11.640  70.954  1.00  0.00    -0.346 NA 
HETATM    3  C   UNL     1     -12.946  10.563  71.655  1.00  0.00    -0.476 C  
ENDROOT
BRANCH   2   4
HETATM    4  C   UNL     1     -12.271  11.457  69.492  1.00  0.00    -0.235 C  
BRANCH   4   5
HETATM    5  C   UNL     1     -11.512  12.522  68.679  1.00  0.00    -0.306 C  
BRANCH   5   6
HETATM    6  O   UNL     1     -10.111  12.251  68.546  1.00  0.00    -0.216 OA 
BRANCH   6   7
HETATM    7  C   UNL     1      -9.626  12.122  67.198  1.00  0.00    -0.194 C  
BRANCH   7   8
HETATM    8  C   UNL     1      -9.431  10.666  66.804  1.00  0.00    -0.189 A  
HETATM    9  C   UNL     1     -10.062   9.653  67.546  1.00  0.00    -0.247 A  
HETATM   10  C   UNL     1      -9.977   8.318  67.147  1.00  0.00    -0.307 A  
HETATM   11  C   UNL     1      -8.700  10.307  65.663  1.00  0.00    -0.176 A  
HETATM   12  C   UNL     1      -9.252   7.978  66.007  1.00  0.00    -0.179 A  
HETATM   13  C   UNL     1      -8.610   8.969  65.268  1.00  0.00    -0.199 A  
ENDBRANCH   7   8
BRANCH   7  14
HETATM   14  C   UNL     1     -10.529  12.907  66.254  1.00  0.00    -0.282 A  
HETATM   15  C   UNL     1     -12.420  12.932  64.718  1.00  0.00    -0.517 A  
HETATM   16  C   UNL     1     -11.097  14.926  65.022  1.00  0.00    -0.422 A  
HETATM   17  C   UNL     1     -11.618  12.260  65.640  1.00  0.00    -0.433 A  
HETATM   18  C   UNL     1     -10.290  14.253  65.942  1.00  0.00    -0.325 A  
HETATM   19  C   UNL     1     -12.156  14.263  64.405  1.00  0.00    -0.490 A  
ENDBRANCH   7  14
ENDBRANCH   6   7
ENDBRANCH   5   6
ENDBRANCH   4   5
ENDBRANCH   2   4
TORSDOF 6
ENDMDL
MODEL      131
REMARK 921   NORMALIZED FREE ENERGY PREDICTED BY IDOCK:   -3.67 KCAL/MOL
REMARK 922        TOTAL FREE ENERGY PREDICTED BY IDOCK:   -5.85 KCAL/MOL
REMARK 923 INTER-LIGAND FREE ENERGY PREDICTED BY IDOCK:   -4.94 KCAL/MOL
REMARK 924 INTRA-LIGAND FREE ENERGY PREDICTED BY IDOCK:   -0.91 KCAL/MOL
REMARK 927      BINDING AFFINITY PREDICTED BY RF-SCORE:    0.00 PKD
ROOT
HETATM    1  C   UNL     1     -14.164   7.537  71.598  1.00  0.00    -0.458 C  
HETATM    2  N   UNL     1     -12.753   7.869  71.379  1.00  0.00    -0.315 NA 
HETATM    3  C   UNL     1     -12.211   8.553  72.552  1.00  0.00    -0.315 C  
ENDROOT
BRANCH   2   4
HETATM    4  C   UNL     1     -12.002   6.643  71.056  1.00  0.00    -0.359 C  
BRANCH   4   5
HETATM    5  C   UNL     1     -11.093   6.730  69.815  1.00  0.00    -0.316 C  
BRANCH   5   6
HETATM    6  O   UNL     1     -10.469   8.009  69.649  1.00  0.00    -0.218 OA 
BRANCH   6   7
HETATM    7  C   UNL     1     -10.493   8.546  68.316  1.00  0.00    -0.171 C  
BRANCH   7   8
HETATM    8  C   UNL     1     -10.912  10.008  68.302  1.00  0.00    -0.278 A  
HETATM    9  C   UNL     1     -10.823  10.748  67.111  1.00  0.00    -0.335 A  
HETATM   10  C   UNL     1     -11.292  12.061  67.050  1.00  0.00    -0.396 A  
HETATM   11  C   UNL     1     -11.468  10.621  69.435  1.00  0.00    -0.356 A  
HETATM   12  C   UNL     1     -11.848  12.655  68.181  1.00  0.00    -0.366 A  
HETATM   13  C   UNL     1     -11.933  11.938  69.373  1.00  0.00    -0.350 A  
ENDBRANCH   7   8
BRANCH   7  14
HETATM   14  C   UNL     1      -9.158   8.275  67.633  1.00  0.00    -0.139 A  
HETATM   15  C   UNL     1      -7.931   7.334  65.750  1.00  0.00    -0.122 A  
HETATM   16  C   UNL     1      -6.724   8.265  67.620  1.00  0.00    -0.062 A  
HETATM   17  C   UNL     1      -9.139   7.659  66.369  1.00  0.00    -0.214 A  
HETATM   18  C   UNL     1      -7.932   8.585  68.243  1.00  0.00    -0.114 A  
HETATM   19  C   UNL     1      -6.725   7.632  66.378  1.00  0.00    -0.058 A  
ENDBRANCH   7  14
ENDBRANCH   6   7
ENDBRANCH   5   6
ENDBRANCH   4   5
ENDBRANCH   2   4
TORSDOF 6
ENDMDL
MODEL      132
REMARK 921   NORMALIZED FREE ENERGY PREDICTED BY IDOCK:   -3.66 KCAL/MOL
REMARK 922        TOTAL FREE ENERGY PREDICTED BY IDOCK:   -5.84 KCAL/MOL
REMARK 923 INTER-LIGAND FREE ENERGY PREDICTED BY IDOCK:   -5.17 KCAL/MOL
REMARK 924 INTRA-LIGAND FREE ENERGY PREDICTED BY IDOCK:   -0.67 KCAL/MOL
REMARK 927      BINDING AFFINITY PREDICTED BY RF-SCORE:    0.00 PKD
ROOT
HETATM    1  C   UNL     1      -5.144  11.301  66.851  1.00  0.00    -0.084 C  
HETATM    2  N   UNL     1      -6.398  10.551  66.982  1.00  0.00    -0.071 NA 
HETATM    3  C   UNL     1      -6.307   9.292  66.244  1.00  0.00    -0.065 C  
ENDROOT
BRANCH   2   4
HETATM    4  C   UNL     1      -6.699  10.339  68.408  1.00  0.00    -0.057 C  
BRANCH   4   5
HETATM    5  C   UNL     1      -8.067   9.697  68.709  1.00  0.00    -0.097 C  
BRANCH   5   6
HETATM    6  O   UNL     1      -8.972  10.570  69.396  1.00  0.00    -0.170 OA 
BRANCH   6   7
HETATM    7  C   UNL     1     -10.340  10.523  68.956  1.00  0.00    -0.213 C  
BRANCH   7   8
HETATM    8  C   UNL     1     -11.299  10.289  70.112  1.00  0.00    -0.388 A  
HETATM    9  C   UNL     1     -12.076  11.353  70.600  1.00  0.00    -0.469 A  
HETATM   10  C   UNL     1     -13.031  11.142  71.595  1.00  0.00    -0.548 A  
HETATM   11  C   UNL     1     -11.492   9.011  70.658  1.00  0.00    -0.291 A  
HETATM   12  C   UNL     1     -13.216   9.866  72.122  1.00  0.00    -0.511 A  
HETATM   13  C   UNL     1     -12.445   8.802  71.658  1.00  0.00    -0.392 A  
ENDBRANCH   7   8
BRANCH   7  14
HETATM   14  C   UNL     1     -10.652  11.764  68.129  1.00  0.00    -0.230 A  
HETATM   15  C   UNL     1     -11.731  12.755  66.182  1.00  0.00    -0.458 A  
HETATM   16  C   UNL     1     -10.358  14.124  67.617  1.00  0.00    -0.241 A  
HETATM   17  C   UNL     1     -11.483  11.652  66.999  1.00  0.00    -0.336 A  
HETATM   18  C   UNL     1     -10.104  13.019  68.433  1.00  0.00    -0.225 A  
HETATM   19  C   UNL     1     -11.164  13.990  66.488  1.00  0.00    -0.326 A  
ENDBRANCH   7  14
ENDBRANCH   6   7
ENDBRANCH   5   6
ENDBRANCH   4   5
ENDBRANCH   2   4
TORSDOF 6
ENDMDL
MODEL      133
REMARK 921   NORMALIZED FREE ENERGY PREDICTED BY IDOCK:   -3.66 KCAL/MOL
REMARK 922        TOTAL FREE ENERGY PREDICTED BY IDOCK:   -5.84 KCAL/MOL
REMARK 923 INTER-LIGAND FREE ENERGY PREDICTED BY IDOCK:   -5.01 KCAL/MOL
REMARK 924 INTRA-LIGAND FREE ENERGY PREDICTED BY IDOCK:   -0.82 KCAL/MOL
REMARK 927      BINDING AFFINITY PREDICTED BY RF-SCORE:    0.00 PKD
ROOT
HETATM    1  C   UNL     1     -10.082   4.992  67.546  1.00  0.00    -0.154 C  
HETATM    2  N   UNL     1     -11.013   5.983  68.098  1.00  0.00    -0.294 NA 
HETATM    3  C   UNL     1     -10.687   6.251  69.497  1.00  0.00    -0.303 C  
ENDROOT
BRANCH   2   4
HETATM    4  C   UNL     1     -10.979   7.204  67.274  1.00  0.00    -0.263 C  
BRANCH   4   5
HETATM    5  C   UNL     1      -9.602   7.885  67.155  1.00  0.00    -0.171 C  
BRANCH   5   6
HETATM    6  O   UNL     1      -9.570   8.952  66.199  1.00  0.00    -0.234 OA 
BRANCH   6   7
HETATM    7  C   UNL     1      -9.761  10.274  66.733  1.00  0.00    -0.185 C  
BRANCH   7   8
HETATM    8  C   UNL     1      -8.444  10.915  67.139  1.00  0.00    -0.128 A  
HETATM    9  C   UNL     1      -7.325  10.804  66.295  1.00  0.00    -0.138 A  
HETATM   10  C   UNL     1      -6.134  11.465  66.599  1.00  0.00    -0.140 A  
HETATM   11  C   UNL     1      -8.334  11.692  68.302  1.00  0.00    -0.159 A  
HETATM   12  C   UNL     1      -6.042  12.238  67.754  1.00  0.00    -0.102 A  
HETATM   13  C   UNL     1      -7.138  12.349  68.607  1.00  0.00    -0.103 A  
ENDBRANCH   7   8
BRANCH   7  14
HETATM   14  C   UNL     1     -10.584  11.104  65.756  1.00  0.00    -0.289 A  
HETATM   15  C   UNL     1     -12.308  12.786  65.386  1.00  0.00    -0.528 A  
HETATM   16  C   UNL     1     -11.315  11.653  63.502  1.00  0.00    -0.447 A  
HETATM   17  C   UNL     1     -11.489  12.060  66.253  1.00  0.00    -0.408 A  
HETATM   18  C   UNL     1     -10.500  10.921  64.368  1.00  0.00    -0.403 A  
HETATM   19  C   UNL     1     -12.224  12.578  64.012  1.00  0.00    -0.566 A  
ENDBRANCH   7  14
ENDBRANCH   6   7
ENDBRANCH   5   6
ENDBRANCH   4   5
ENDBRANCH   2   4
TORSDOF 6
ENDMDL
MODEL      134
REMARK 921   NORMALIZED FREE ENERGY PREDICTED BY IDOCK:   -3.65 KCAL/MOL
REMARK 922        TOTAL FREE ENERGY PREDICTED BY IDOCK:   -5.83 KCAL/MOL
REMARK 923 INTER-LIGAND FREE ENERGY PREDICTED BY IDOCK:   -5.02 KCAL/MOL
REMARK 924 INTRA-LIGAND FREE ENERGY PREDICTED BY IDOCK:   -0.81 KCAL/MOL
REMARK 927      BINDING AFFINITY PREDICTED BY RF-SCORE:    0.00 PKD
ROOT
HETATM    1  C   UNL     1     -10.168   4.516  65.918  1.00  0.00    -0.263 C  
HETATM    2  N   UNL     1      -9.884   5.324  67.109  1.00  0.00    -0.150 NA 
HETATM    3  C   UNL     1      -9.718   4.456  68.274  1.00  0.00    -0.107 C  
ENDROOT
BRANCH   2   4
HETATM    4  C   UNL     1      -8.696   6.161  66.866  1.00  0.00    -0.109 C  
BRANCH   4   5
HETATM    5  C   UNL     1      -8.593   7.432  67.730  1.00  0.00    -0.120 C  
BRANCH   5   6
HETATM    6  O   UNL     1      -9.855   8.065  67.973  1.00  0.00    -0.156 OA 
BRANCH   6   7
HETATM    7  C   UNL     1      -9.864   9.063  69.008  1.00  0.00    -0.175 C  
BRANCH   7   8
HETATM    8  C   UNL     1     -10.635  10.305  68.590  1.00  0.00    -0.232 A  
HETATM    9  C   UNL     1     -11.214  11.129  69.569  1.00  0.00    -0.341 A  
HETATM   10  C   UNL     1     -11.843  12.324  69.216  1.00  0.00    -0.363 A  
HETATM   11  C   UNL     1     -10.714  10.700  67.246  1.00  0.00    -0.338 A  
HETATM   12  C   UNL     1     -11.908  12.707  67.879  1.00  0.00    -0.388 A  
HETATM   13  C   UNL     1     -11.349  11.895  66.893  1.00  0.00    -0.392 A  
ENDBRANCH   7   8
BRANCH   7  14
HETATM   14  C   UNL     1     -10.347   8.440  70.312  1.00  0.00    -0.212 A  
HETATM   15  C   UNL     1     -10.036   8.113  72.707  1.00  0.00    -0.367 A  
HETATM   16  C   UNL     1     -11.812   6.951  71.560  1.00  0.00    -0.366 A  
HETATM   17  C   UNL     1      -9.662   8.723  71.509  1.00  0.00    -0.361 A  
HETATM   18  C   UNL     1     -11.435   7.556  70.358  1.00  0.00    -0.219 A  
HETATM   19  C   UNL     1     -11.108   7.223  72.731  1.00  0.00    -0.362 A  
ENDBRANCH   7  14
ENDBRANCH   6   7
ENDBRANCH   5   6
ENDBRANCH   4   5
ENDBRANCH   2   4
TORSDOF 6
ENDMDL
MODEL      135
REMARK 921   NORMALIZED FREE ENERGY PREDICTED BY IDOCK:   -3.64 KCAL/MOL
REMARK 922        TOTAL FREE ENERGY PREDICTED BY IDOCK:   -5.82 KCAL/MOL
REMARK 923 INTER-LIGAND FREE ENERGY PREDICTED BY IDOCK:   -4.84 KCAL/MOL
REMARK 924 INTRA-LIGAND FREE ENERGY PREDICTED BY IDOCK:   -0.97 KCAL/MOL
REMARK 927      BINDING AFFINITY PREDICTED BY RF-SCORE:    0.00 PKD
ROOT
HETATM    1  C   UNL     1     -10.422   2.448  72.779  1.00  0.00    -0.148 C  
HETATM    2  N   UNL     1      -9.337   3.429  72.891  1.00  0.00    -0.095 NA 
HETATM    3  C   UNL     1      -8.821   3.758  71.564  1.00  0.00    -0.099 C  
ENDROOT
BRANCH   2   4
HETATM    4  C   UNL     1      -9.821   4.619  73.611  1.00  0.00    -0.142 C  
BRANCH   4   5
HETATM    5  C   UNL     1      -9.395   5.974  73.013  1.00  0.00    -0.139 C  
BRANCH   5   6
HETATM    6  O   UNL     1     -10.498   6.803  72.626  1.00  0.00    -0.197 OA 
BRANCH   6   7
HETATM    7  C   UNL     1     -10.215   7.789  71.619  1.00  0.00    -0.186 C  
BRANCH   7   8
HETATM    8  C   UNL     1      -9.977   7.155  70.258  1.00  0.00    -0.191 A  
HETATM    9  C   UNL     1      -8.686   7.159  69.703  1.00  0.00    -0.141 A  
HETATM   10  C   UNL     1      -8.424   6.500  68.501  1.00  0.00    -0.124 A  
HETATM   11  C   UNL     1     -11.002   6.487  69.571  1.00  0.00    -0.398 A  
HETATM   12  C   UNL     1      -9.450   5.836  67.833  1.00  0.00    -0.114 A  
HETATM   13  C   UNL     1     -10.738   5.832  68.364  1.00  0.00    -0.283 A  
ENDBRANCH   7   8
BRANCH   7  14
HETATM   14  C   UNL     1     -11.304   8.854  71.628  1.00  0.00    -0.407 A  
HETATM   15  C   UNL     1     -13.526   9.558  72.337  1.00  0.00    -0.475 A  
HETATM   16  C   UNL     1     -12.235  10.969  70.867  1.00  0.00    -0.471 A  
HETATM   17  C   UNL     1     -12.482   8.634  72.366  1.00  0.00    -0.428 A  
HETATM   18  C   UNL     1     -11.191  10.042  70.890  1.00  0.00    -0.415 A  
HETATM   19  C   UNL     1     -13.405  10.723  71.584  1.00  0.00    -0.390 A  
ENDBRANCH   7  14
ENDBRANCH   6   7
ENDBRANCH   5   6
ENDBRANCH   4   5
ENDBRANCH   2   4
TORSDOF 6
ENDMDL
MODEL      136
REMARK 921   NORMALIZED FREE ENERGY PREDICTED BY IDOCK:   -3.64 KCAL/MOL
REMARK 922        TOTAL FREE ENERGY PREDICTED BY IDOCK:   -5.81 KCAL/MOL
REMARK 923 INTER-LIGAND FREE ENERGY PREDICTED BY IDOCK:   -5.10 KCAL/MOL
REMARK 924 INTRA-LIGAND FREE ENERGY PREDICTED BY IDOCK:   -0.72 KCAL/MOL
REMARK 927      BINDING AFFINITY PREDICTED BY RF-SCORE:    0.00 PKD
ROOT
HETATM    1  C   UNL     1      -5.669  15.950  69.405  1.00  0.00    -0.123 C  
HETATM    2  N   UNL     1      -6.168  14.592  69.168  1.00  0.00    -0.092 NA 
HETATM    3  C   UNL     1      -6.016  13.784  70.377  1.00  0.00    -0.156 C  
ENDROOT
BRANCH   2   4
HETATM    4  C   UNL     1      -7.568  14.652  68.713  1.00  0.00    -0.138 C  
BRANCH   4   5
HETATM    5  C   UNL     1      -7.914  13.756  67.509  1.00  0.00    -0.181 C  
BRANCH   5   6
HETATM    6  O   UNL     1      -9.157  13.057  67.652  1.00  0.00    -0.179 OA 
BRANCH   6   7
HETATM    7  C   UNL     1      -9.263  11.819  66.929  1.00  0.00    -0.189 C  
BRANCH   7   8
HETATM    8  C   UNL     1      -9.481  10.637  67.861  1.00  0.00    -0.168 A  
HETATM    9  C   UNL     1      -9.006  10.694  69.182  1.00  0.00    -0.139 A  
HETATM   10  C   UNL     1      -9.277   9.663  70.083  1.00  0.00    -0.287 A  
HETATM   11  C   UNL     1     -10.221   9.514  67.461  1.00  0.00    -0.283 A  
HETATM   12  C   UNL     1     -10.019   8.558  69.674  1.00  0.00    -0.192 A  
HETATM   13  C   UNL     1     -10.487   8.480  68.363  1.00  0.00    -0.215 A  
ENDBRANCH   7   8
BRANCH   7  14
HETATM   14  C   UNL     1     -10.318  11.954  65.838  1.00  0.00    -0.277 A  
HETATM   15  C   UNL     1     -10.957  11.651  63.507  1.00  0.00    -0.485 A  
HETATM   16  C   UNL     1     -12.474  12.744  65.032  1.00  0.00    -0.572 A  
HETATM   17  C   UNL     1     -10.040  11.479  64.544  1.00  0.00    -0.324 A  
HETATM   18  C   UNL     1     -11.554  12.577  66.070  1.00  0.00    -0.456 A  
HETATM   19  C   UNL     1     -12.172  12.289  63.750  1.00  0.00    -0.642 A  
ENDBRANCH   7  14
ENDBRANCH   6   7
ENDBRANCH   5   6
ENDBRANCH   4   5
ENDBRANCH   2   4
TORSDOF 6
ENDMDL
MODEL      137
REMARK 921   NORMALIZED FREE ENERGY PREDICTED BY IDOCK:   -3.64 KCAL/MOL
REMARK 922        TOTAL FREE ENERGY PREDICTED BY IDOCK:   -5.81 KCAL/MOL
REMARK 923 INTER-LIGAND FREE ENERGY PREDICTED BY IDOCK:   -5.04 KCAL/MOL
REMARK 924 INTRA-LIGAND FREE ENERGY PREDICTED BY IDOCK:   -0.77 KCAL/MOL
REMARK 927      BINDING AFFINITY PREDICTED BY RF-SCORE:    0.00 PKD
ROOT
HETATM    1  C   UNL     1      -5.942   6.134  71.638  1.00  0.00    -0.035 C  
HETATM    2  N   UNL     1      -6.946   6.150  72.707  1.00  0.00    -0.075 NA 
HETATM    3  C   UNL     1      -6.370   6.717  73.925  1.00  0.00    -0.064 C  
ENDROOT
BRANCH   2   4
HETATM    4  C   UNL     1      -8.135   6.893  72.257  1.00  0.00    -0.093 C  
BRANCH   4   5
HETATM    5  C   UNL     1      -7.888   8.360  71.855  1.00  0.00    -0.125 C  
BRANCH   5   6
HETATM    6  O   UNL     1      -8.754   8.822  70.811  1.00  0.00    -0.153 OA 
BRANCH   6   7
HETATM    7  C   UNL     1     -10.028   8.162  70.719  1.00  0.00    -0.188 C  
BRANCH   7   8
HETATM    8  C   UNL     1     -11.167   9.068  71.160  1.00  0.00    -0.375 A  
HETATM    9  C   UNL     1     -11.329  10.328  70.559  1.00  0.00    -0.422 A  
HETATM   10  C   UNL     1     -12.421  11.136  70.877  1.00  0.00    -0.509 A  
HETATM   11  C   UNL     1     -12.119   8.645  72.100  1.00  0.00    -0.451 A  
HETATM   12  C   UNL     1     -13.362  10.700  71.807  1.00  0.00    -0.437 A  
HETATM   13  C   UNL     1     -13.210   9.458  72.421  1.00  0.00    -0.483 A  
ENDBRANCH   7   8
BRANCH   7  14
HETATM   14  C   UNL     1     -10.201   7.579  69.323  1.00  0.00    -0.201 A  
HETATM   15  C   UNL     1     -10.770   5.673  67.915  1.00  0.00    -0.241 A  
HETATM   16  C   UNL     1      -9.979   7.716  66.903  1.00  0.00    -0.325 A  
HETATM   17  C   UNL     1     -10.668   6.260  69.177  1.00  0.00    -0.362 A  
HETATM   18  C   UNL     1      -9.871   8.302  68.166  1.00  0.00    -0.198 A  
HETATM   19  C   UNL     1     -10.420   6.399  66.779  1.00  0.00    -0.304 A  
ENDBRANCH   7  14
ENDBRANCH   6   7
ENDBRANCH   5   6
ENDBRANCH   4   5
ENDBRANCH   2   4
TORSDOF 6
ENDMDL
MODEL      138
REMARK 921   NORMALIZED FREE ENERGY PREDICTED BY IDOCK:   -3.64 KCAL/MOL
REMARK 922        TOTAL FREE ENERGY PREDICTED BY IDOCK:   -5.81 KCAL/MOL
REMARK 923 INTER-LIGAND FREE ENERGY PREDICTED BY IDOCK:   -4.96 KCAL/MOL
REMARK 924 INTRA-LIGAND FREE ENERGY PREDICTED BY IDOCK:   -0.85 KCAL/MOL
REMARK 927      BINDING AFFINITY PREDICTED BY RF-SCORE:    0.00 PKD
ROOT
HETATM    1  C   UNL     1     -14.067   7.100  71.581  1.00  0.00    -0.336 C  
HETATM    2  N   UNL     1     -13.313   8.357  71.630  1.00  0.00    -0.344 NA 
HETATM    3  C   UNL     1     -14.026   9.336  72.449  1.00  0.00    -0.360 C  
ENDROOT
BRANCH   2   4
HETATM    4  C   UNL     1     -11.953   8.097  72.132  1.00  0.00    -0.359 C  
BRANCH   4   5
HETATM    5  C   UNL     1     -10.810   8.703  71.294  1.00  0.00    -0.260 C  
BRANCH   5   6
HETATM    6  O   UNL     1     -11.265   9.499  70.194  1.00  0.00    -0.240 OA 
BRANCH   6   7
HETATM    7  C   UNL     1     -10.264  10.308  69.553  1.00  0.00    -0.236 C  
BRANCH   7   8
HETATM    8  C   UNL     1      -9.680   9.620  68.328  1.00  0.00    -0.162 A  
HETATM    9  C   UNL     1      -8.287   9.572  68.153  1.00  0.00    -0.118 A  
HETATM   10  C   UNL     1      -7.725   8.865  67.090  1.00  0.00    -0.095 A  
HETATM   11  C   UNL     1     -10.497   8.954  67.403  1.00  0.00    -0.347 A  
HETATM   12  C   UNL     1      -8.549   8.202  66.182  1.00  0.00    -0.154 A  
HETATM   13  C   UNL     1      -9.933   8.250  66.335  1.00  0.00    -0.264 A  
ENDBRANCH   7   8
BRANCH   7  14
HETATM   14  C   UNL     1     -10.829  11.696  69.277  1.00  0.00    -0.203 A  
HETATM   15  C   UNL     1     -12.409  13.457  69.860  1.00  0.00    -0.259 A  
HETATM   16  C   UNL     1     -11.004  13.703  67.914  1.00  0.00    -0.277 A  
HETATM   17  C   UNL     1     -11.821  12.219  70.126  1.00  0.00    -0.352 A  
HETATM   18  C   UNL     1     -10.419  12.462  68.176  1.00  0.00    -0.228 A  
HETATM   19  C   UNL     1     -12.004  14.196  68.751  1.00  0.00    -0.367 A  
ENDBRANCH   7  14
ENDBRANCH   6   7
ENDBRANCH   5   6
ENDBRANCH   4   5
ENDBRANCH   2   4
TORSDOF 6
ENDMDL
MODEL      139
REMARK 921   NORMALIZED FREE ENERGY PREDICTED BY IDOCK:   -3.62 KCAL/MOL
REMARK 922        TOTAL FREE ENERGY PREDICTED BY IDOCK:   -5.79 KCAL/MOL
REMARK 923 INTER-LIGAND FREE ENERGY PREDICTED BY IDOCK:   -5.51 KCAL/MOL
REMARK 924 INTRA-LIGAND FREE ENERGY PREDICTED BY IDOCK:   -0.28 KCAL/MOL
REMARK 927      BINDING AFFINITY PREDICTED BY RF-SCORE:    0.00 PKD
ROOT
HETATM    1  C   UNL     1     -11.142  12.892  64.695  1.00  0.00    -0.324 C  
HETATM    2  N   UNL     1     -12.332  13.745  64.614  1.00  0.00    -0.550 NA 
HETATM    3  C   UNL     1     -12.899  13.940  65.947  1.00  0.00    -0.339 C  
ENDROOT
BRANCH   2   4
HETATM    4  C   UNL     1     -11.982  15.021  63.967  1.00  0.00    -0.058 C  
BRANCH   4   5
HETATM    5  C   UNL     1     -11.269  16.048  64.868  1.00  0.00    -0.312 C  
BRANCH   5   6
HETATM    6  O   UNL     1     -10.162  15.503  65.595  1.00  0.00    -0.319 OA 
BRANCH   6   7
HETATM    7  C   UNL     1     -10.014  15.968  66.948  1.00  0.00    -0.251 C  
BRANCH   7   8
HETATM    8  C   UNL     1      -8.891  15.245  67.675  1.00  0.00    -0.180 A  
HETATM    9  C   UNL     1      -8.358  14.062  67.134  1.00  0.00    -0.174 A  
HETATM   10  C   UNL     1      -7.265  13.434  67.731  1.00  0.00    -0.156 A  
HETATM   11  C   UNL     1      -8.312  15.772  68.839  1.00  0.00    -0.213 A  
HETATM   12  C   UNL     1      -6.695  13.973  68.883  1.00  0.00    -0.105 A  
HETATM   13  C   UNL     1      -7.220  15.139  69.439  1.00  0.00    -0.198 A  
ENDBRANCH   7   8
BRANCH   7  14
HETATM   14  C   UNL     1      -9.883  17.486  66.953  1.00  0.00    -0.302 A  
HETATM   15  C   UNL     1      -8.649  19.475  66.275  1.00  0.00    -0.382 A  
HETATM   16  C   UNL     1     -10.565  19.690  67.725  1.00  0.00    -0.530 A  
HETATM   17  C   UNL     1      -8.837  18.093  66.233  1.00  0.00    -0.196 A  
HETATM   18  C   UNL     1     -10.751  18.307  67.688  1.00  0.00    -0.373 A  
HETATM   19  C   UNL     1      -9.509  20.272  67.026  1.00  0.00    -0.546 A  
ENDBRANCH   7  14
ENDBRANCH   6   7
ENDBRANCH   5   6
ENDBRANCH   4   5
ENDBRANCH   2   4
TORSDOF 6
ENDMDL
MODEL      140
REMARK 921   NORMALIZED FREE ENERGY PREDICTED BY IDOCK:   -3.62 KCAL/MOL
REMARK 922        TOTAL FREE ENERGY PREDICTED BY IDOCK:   -5.78 KCAL/MOL
REMARK 923 INTER-LIGAND FREE ENERGY PREDICTED BY IDOCK:   -4.93 KCAL/MOL
REMARK 924 INTRA-LIGAND FREE ENERGY PREDICTED BY IDOCK:   -0.85 KCAL/MOL
REMARK 927      BINDING AFFINITY PREDICTED BY RF-SCORE:    0.00 PKD
ROOT
HETATM    1  C   UNL     1      -9.160  11.386  66.391  1.00  0.00    -0.193 C  
HETATM    2  N   UNL     1      -8.185  11.411  67.486  1.00  0.00    -0.126 NA 
HETATM    3  C   UNL     1      -8.460  12.539  68.375  1.00  0.00    -0.125 C  
ENDROOT
BRANCH   2   4
HETATM    4  C   UNL     1      -8.211  10.122  68.200  1.00  0.00    -0.113 C  
BRANCH   4   5
HETATM    5  C   UNL     1      -7.641  10.145  69.631  1.00  0.00    -0.156 C  
BRANCH   5   6
HETATM    6  O   UNL     1      -8.487   9.508  70.596  1.00  0.00    -0.200 OA 
BRANCH   6   7
HETATM    7  C   UNL     1      -9.647   8.843  70.065  1.00  0.00    -0.178 C  
BRANCH   7   8
HETATM    8  C   UNL     1      -9.498   7.331  70.100  1.00  0.00    -0.165 A  
HETATM    9  C   UNL     1      -8.508   6.746  70.908  1.00  0.00    -0.136 A  
HETATM   10  C   UNL     1      -8.414   5.359  71.030  1.00  0.00    -0.124 A  
HETATM   11  C   UNL     1     -10.381   6.491  69.405  1.00  0.00    -0.241 A  
HETATM   12  C   UNL     1      -9.302   4.538  70.340  1.00  0.00    -0.217 A  
HETATM   13  C   UNL     1     -10.282   5.101  69.524  1.00  0.00    -0.318 A  
ENDBRANCH   7   8
BRANCH   7  14
HETATM   14  C   UNL     1     -10.896   9.362  70.766  1.00  0.00    -0.372 A  
HETATM   15  C   UNL     1     -12.663   9.013  72.408  1.00  0.00    -0.433 A  
HETATM   16  C   UNL     1     -12.696  10.981  71.012  1.00  0.00    -0.485 A  
HETATM   17  C   UNL     1     -11.480   8.599  71.795  1.00  0.00    -0.394 A  
HETATM   18  C   UNL     1     -11.515  10.565  70.394  1.00  0.00    -0.427 A  
HETATM   19  C   UNL     1     -13.274  10.200  72.012  1.00  0.00    -0.534 A  
ENDBRANCH   7  14
ENDBRANCH   6   7
ENDBRANCH   5   6
ENDBRANCH   4   5
ENDBRANCH   2   4
TORSDOF 6
ENDMDL
MODEL      141
REMARK 921   NORMALIZED FREE ENERGY PREDICTED BY IDOCK:   -3.62 KCAL/MOL
REMARK 922        TOTAL FREE ENERGY PREDICTED BY IDOCK:   -5.78 KCAL/MOL
REMARK 923 INTER-LIGAND FREE ENERGY PREDICTED BY IDOCK:   -4.89 KCAL/MOL
REMARK 924 INTRA-LIGAND FREE ENERGY PREDICTED BY IDOCK:   -0.89 KCAL/MOL
REMARK 927      BINDING AFFINITY PREDICTED BY RF-SCORE:    0.00 PKD
ROOT
HETATM    1  C   UNL     1     -10.801  20.228  65.836  1.00  0.00     0.108 C  
HETATM    2  N   UNL     1      -9.891  19.579  66.786  1.00  0.00    -0.353 NA 
HETATM    3  C   UNL     1      -8.713  20.417  67.003  1.00  0.00    -0.287 C  
ENDROOT
BRANCH   2   4
HETATM    4  C   UNL     1     -10.609  19.293  68.040  1.00  0.00    -0.327 C  
BRANCH   4   5
HETATM    5  C   UNL     1     -10.487  17.848  68.559  1.00  0.00    -0.305 C  
BRANCH   5   6
HETATM    6  O   UNL     1     -10.604  16.857  67.531  1.00  0.00    -0.326 OA 
BRANCH   6   7
HETATM    7  C   UNL     1     -10.288  15.510  67.923  1.00  0.00    -0.250 C  
BRANCH   7   8
HETATM    8  C   UNL     1     -10.974  14.486  67.033  1.00  0.00    -0.312 A  
HETATM    9  C   UNL     1     -11.526  14.888  65.804  1.00  0.00    -0.281 A  
HETATM   10  C   UNL     1     -12.074  13.951  64.928  1.00  0.00    -0.434 A  
HETATM   11  C   UNL     1     -11.001  13.124  67.368  1.00  0.00    -0.283 A  
HETATM   12  C   UNL     1     -12.087  12.601  65.272  1.00  0.00    -0.519 A  
HETATM   13  C   UNL     1     -11.556  12.187  66.492  1.00  0.00    -0.425 A  
ENDBRANCH   7   8
BRANCH   7  14
HETATM   14  C   UNL     1      -8.776  15.346  68.010  1.00  0.00    -0.160 A  
HETATM   15  C   UNL     1      -6.814  14.765  69.333  1.00  0.00    -0.162 A  
HETATM   16  C   UNL     1      -6.539  15.602  67.087  1.00  0.00    -0.022 A  
HETATM   17  C   UNL     1      -8.200  14.860  69.198  1.00  0.00    -0.151 A  
HETATM   18  C   UNL     1      -7.925  15.703  66.952  1.00  0.00    -0.278 A  
HETATM   19  C   UNL     1      -5.984  15.142  68.280  1.00  0.00    -0.126 A  
ENDBRANCH   7  14
ENDBRANCH   6   7
ENDBRANCH   5   6
ENDBRANCH   4   5
ENDBRANCH   2   4
TORSDOF 6
ENDMDL
MODEL      142
REMARK 921   NORMALIZED FREE ENERGY PREDICTED BY IDOCK:   -3.59 KCAL/MOL
REMARK 922        TOTAL FREE ENERGY PREDICTED BY IDOCK:   -5.75 KCAL/MOL
REMARK 923 INTER-LIGAND FREE ENERGY PREDICTED BY IDOCK:   -5.49 KCAL/MOL
REMARK 924 INTRA-LIGAND FREE ENERGY PREDICTED BY IDOCK:   -0.26 KCAL/MOL
REMARK 927      BINDING AFFINITY PREDICTED BY RF-SCORE:    0.00 PKD
ROOT
HETATM    1  C   UNL     1      -6.429   8.962  64.097  1.00  0.00    -0.079 C  
HETATM    2  N   UNL     1      -6.750   9.181  65.512  1.00  0.00    -0.072 NA 
HETATM    3  C   UNL     1      -5.619   8.783  66.349  1.00  0.00    -0.042 C  
ENDROOT
BRANCH   2   4
HETATM    4  C   UNL     1      -7.126  10.590  65.720  1.00  0.00    -0.124 C  
BRANCH   4   5
HETATM    5  C   UNL     1      -7.711  10.923  67.107  1.00  0.00    -0.123 C  
BRANCH   5   6
HETATM    6  O   UNL     1      -9.137  10.803  67.170  1.00  0.00    -0.144 OA 
BRANCH   6   7
HETATM    7  C   UNL     1      -9.868  12.041  67.163  1.00  0.00    -0.196 C  
BRANCH   7   8
HETATM    8  C   UNL     1     -10.634  12.238  65.865  1.00  0.00    -0.290 A  
HETATM    9  C   UNL     1     -10.181  11.620  64.687  1.00  0.00    -0.327 A  
HETATM   10  C   UNL     1     -10.919  11.707  63.506  1.00  0.00    -0.485 A  
HETATM   11  C   UNL     1     -11.837  12.959  65.825  1.00  0.00    -0.469 A  
HETATM   12  C   UNL     1     -12.115  12.421  63.483  1.00  0.00    -0.651 A  
HETATM   13  C   UNL     1     -12.573  13.050  64.640  1.00  0.00    -0.425 A  
ENDBRANCH   7   8
BRANCH   7  14
HETATM   14  C   UNL     1     -10.732  12.131  68.415  1.00  0.00    -0.252 A  
HETATM   15  C   UNL     1     -11.865  10.999  70.252  1.00  0.00    -0.456 A  
HETATM   16  C   UNL     1     -12.128  13.381  69.968  1.00  0.00    -0.404 A  
HETATM   17  C   UNL     1     -11.020  10.961  69.142  1.00  0.00    -0.290 A  
HETATM   18  C   UNL     1     -11.287  13.343  68.853  1.00  0.00    -0.331 A  
HETATM   19  C   UNL     1     -12.423  12.208  70.661  1.00  0.00    -0.330 A  
ENDBRANCH   7  14
ENDBRANCH   6   7
ENDBRANCH   5   6
ENDBRANCH   4   5
ENDBRANCH   2   4
TORSDOF 6
ENDMDL
MODEL      143
REMARK 921   NORMALIZED FREE ENERGY PREDICTED BY IDOCK:   -3.59 KCAL/MOL
REMARK 922        TOTAL FREE ENERGY PREDICTED BY IDOCK:   -5.75 KCAL/MOL
REMARK 923 INTER-LIGAND FREE ENERGY PREDICTED BY IDOCK:   -5.07 KCAL/MOL
REMARK 924 INTRA-LIGAND FREE ENERGY PREDICTED BY IDOCK:   -0.67 KCAL/MOL
REMARK 927      BINDING AFFINITY PREDICTED BY RF-SCORE:    0.00 PKD
ROOT
HETATM    1  C   UNL     1     -12.503  12.108  63.376  1.00  0.00    -0.512 C  
HETATM    2  N   UNL     1     -11.058  12.357  63.397  1.00  0.00    -0.448 NA 
HETATM    3  C   UNL     1     -10.741  13.386  64.385  1.00  0.00    -0.408 C  
ENDROOT
BRANCH   2   4
HETATM    4  C   UNL     1     -10.343  11.095  63.659  1.00  0.00    -0.389 C  
BRANCH   4   5
HETATM    5  C   UNL     1      -9.604  11.020  65.009  1.00  0.00    -0.247 C  
BRANCH   5   6
HETATM    6  O   UNL     1      -9.858   9.812  65.735  1.00  0.00    -0.260 OA 
BRANCH   6   7
HETATM    7  C   UNL     1      -9.967   9.953  67.162  1.00  0.00    -0.200 C  
BRANCH   7   8
HETATM    8  C   UNL     1     -10.284   8.629  67.839  1.00  0.00    -0.273 A  
HETATM    9  C   UNL     1     -10.504   8.590  69.226  1.00  0.00    -0.224 A  
HETATM   10  C   UNL     1     -10.891   7.406  69.855  1.00  0.00    -0.259 A  
HETATM   11  C   UNL     1     -10.445   7.448  67.100  1.00  0.00    -0.403 A  
HETATM   12  C   UNL     1     -11.054   6.242  69.106  1.00  0.00    -0.457 A  
HETATM   13  C   UNL     1     -10.828   6.261  67.731  1.00  0.00    -0.424 A  
ENDBRANCH   7   8
BRANCH   7  14
HETATM   14  C   UNL     1      -8.722  10.646  67.702  1.00  0.00    -0.121 A  
HETATM   15  C   UNL     1      -7.695  12.636  68.663  1.00  0.00    -0.066 A  
HETATM   16  C   UNL     1      -6.324  10.732  68.104  1.00  0.00    -0.057 A  
HETATM   17  C   UNL     1      -8.827  11.948  68.226  1.00  0.00    -0.174 A  
HETATM   18  C   UNL     1      -7.456  10.044  67.661  1.00  0.00    -0.090 A  
HETATM   19  C   UNL     1      -6.443  12.030  68.596  1.00  0.00    -0.063 A  
ENDBRANCH   7  14
ENDBRANCH   6   7
ENDBRANCH   5   6
ENDBRANCH   4   5
ENDBRANCH   2   4
TORSDOF 6
ENDMDL
MODEL      144
REMARK 921   NORMALIZED FREE ENERGY PREDICTED BY IDOCK:   -3.59 KCAL/MOL
REMARK 922        TOTAL FREE ENERGY PREDICTED BY IDOCK:   -5.74 KCAL/MOL
REMARK 923 INTER-LIGAND FREE ENERGY PREDICTED BY IDOCK:   -6.34 KCAL/MOL
REMARK 924 INTRA-LIGAND FREE ENERGY PREDICTED BY IDOCK:    0.59 KCAL/MOL
REMARK 927      BINDING AFFINITY PREDICTED BY RF-SCORE:    0.00 PKD
ROOT
HETATM    1  C   UNL     1      -5.154  16.676  67.135  1.00  0.00    -0.108 C  
HETATM    2  N   UNL     1      -6.043  15.859  67.968  1.00  0.00    -0.122 NA 
HETATM    3  C   UNL     1      -6.089  16.396  69.327  1.00  0.00    -0.169 C  
ENDROOT
BRANCH   2   4
HETATM    4  C   UNL     1      -7.378  15.796  67.349  1.00  0.00    -0.197 C  
BRANCH   4   5
HETATM    5  C   UNL     1      -8.520  15.343  68.280  1.00  0.00    -0.159 C  
BRANCH   5   6
HETATM    6  O   UNL     1      -9.746  15.068  67.591  1.00  0.00    -0.214 OA 
BRANCH   6   7
HETATM    7  C   UNL     1     -10.886  15.833  68.018  1.00  0.00    -0.309 C  
BRANCH   7   8
HETATM    8  C   UNL     1     -11.393  15.382  69.379  1.00  0.00    -0.315 A  
HETATM    9  C   UNL     1     -11.207  16.207  70.501  1.00  0.00    -0.381 A  
HETATM   10  C   UNL     1     -11.747  15.860  71.740  1.00  0.00    -0.575 A  
HETATM   11  C   UNL     1     -12.121  14.193  69.533  1.00  0.00    -0.388 A  
HETATM   12  C   UNL     1     -12.473  14.679  71.876  1.00  0.00    -0.412 A  
HETATM   13  C   UNL     1     -12.657  13.843  70.775  1.00  0.00    -0.424 A  
ENDBRANCH   7   8
BRANCH   7  14
HETATM   14  C   UNL     1     -10.562  17.319  67.935  1.00  0.00    -0.384 A  
HETATM   15  C   UNL     1     -10.289  19.322  66.573  1.00  0.00    -0.538 A  
HETATM   16  C   UNL     1      -9.788  19.400  68.932  1.00  0.00    -0.523 A  
HETATM   17  C   UNL     1     -10.647  17.978  66.695  1.00  0.00    -0.268 A  
HETATM   18  C   UNL     1     -10.140  18.054  69.054  1.00  0.00    -0.301 A  
HETATM   19  C   UNL     1      -9.854  20.030  67.691  1.00  0.00    -0.548 A  
ENDBRANCH   7  14
ENDBRANCH   6   7
ENDBRANCH   5   6
ENDBRANCH   4   5
ENDBRANCH   2   4
TORSDOF 6
ENDMDL
MODEL      145
REMARK 921   NORMALIZED FREE ENERGY PREDICTED BY IDOCK:   -3.59 KCAL/MOL
REMARK 922        TOTAL FREE ENERGY PREDICTED BY IDOCK:   -5.74 KCAL/MOL
REMARK 923 INTER-LIGAND FREE ENERGY PREDICTED BY IDOCK:   -5.36 KCAL/MOL
REMARK 924 INTRA-LIGAND FREE ENERGY PREDICTED BY IDOCK:   -0.38 KCAL/MOL
REMARK 927      BINDING AFFINITY PREDICTED BY RF-SCORE:    0.00 PKD
ROOT
HETATM    1  C   UNL     1     -10.543  13.297  64.827  1.00  0.00    -0.386 C  
HETATM    2  N   UNL     1     -11.655  14.153  64.401  1.00  0.00    -0.383 NA 
HETATM    3  C   UNL     1     -12.841  13.872  65.209  1.00  0.00    -0.398 C  
ENDROOT
BRANCH   2   4
HETATM    4  C   UNL     1     -11.250  15.567  64.483  1.00  0.00    -0.315 C  
BRANCH   4   5
HETATM    5  C   UNL     1     -10.972  16.096  65.903  1.00  0.00    -0.072 C  
BRANCH   5   6
HETATM    6  O   UNL     1      -9.590  16.385  66.147  1.00  0.00    -0.290 OA 
BRANCH   6   7
HETATM    7  C   UNL     1      -9.056  15.880  67.383  1.00  0.00    -0.196 C  
BRANCH   7   8
HETATM    8  C   UNL     1      -8.070  16.852  68.012  1.00  0.00    -0.194 A  
HETATM    9  C   UNL     1      -8.141  18.220  67.697  1.00  0.00    -0.249 A  
HETATM   10  C   UNL     1      -7.311  19.143  68.334  1.00  0.00    -0.333 A  
HETATM   11  C   UNL     1      -7.134  16.431  68.969  1.00  0.00    -0.208 A  
HETATM   12  C   UNL     1      -6.391  18.710  69.287  1.00  0.00    -0.282 A  
HETATM   13  C   UNL     1      -6.299  17.356  69.601  1.00  0.00    -0.201 A  
ENDBRANCH   7   8
BRANCH   7  14
HETATM   14  C   UNL     1     -10.200  15.472  68.303  1.00  0.00    -0.222 A  
HETATM   15  C   UNL     1     -11.785  16.074  70.053  1.00  0.00    -0.284 A  
HETATM   16  C   UNL     1     -11.677  13.796  69.267  1.00  0.00    -0.376 A  
HETATM   17  C   UNL     1     -10.784  16.432  69.149  1.00  0.00    -0.317 A  
HETATM   18  C   UNL     1     -10.671  14.152  68.366  1.00  0.00    -0.264 A  
HETATM   19  C   UNL     1     -12.227  14.755  70.115  1.00  0.00    -0.391 A  
ENDBRANCH   7  14
ENDBRANCH   6   7
ENDBRANCH   5   6
ENDBRANCH   4   5
ENDBRANCH   2   4
TORSDOF 6
ENDMDL
MODEL      146
REMARK 921   NORMALIZED FREE ENERGY PREDICTED BY IDOCK:   -3.57 KCAL/MOL
REMARK 922        TOTAL FREE ENERGY PREDICTED BY IDOCK:   -5.73 KCAL/MOL
REMARK 923 INTER-LIGAND FREE ENERGY PREDICTED BY IDOCK:   -4.83 KCAL/MOL
REMARK 924 INTRA-LIGAND FREE ENERGY PREDICTED BY IDOCK:   -0.89 KCAL/MOL
REMARK 927      BINDING AFFINITY PREDICTED BY RF-SCORE:    0.00 PKD
ROOT
HETATM    1  C   UNL     1     -13.280   8.094  71.666  1.00  0.00    -0.332 C  
HETATM    2  N   UNL     1     -11.864   7.780  71.452  1.00  0.00    -0.290 NA 
HETATM    3  C   UNL     1     -11.136   7.865  72.717  1.00  0.00    -0.400 C  
ENDROOT
BRANCH   2   4
HETATM    4  C   UNL     1     -11.742   6.450  70.829  1.00  0.00    -0.312 C  
BRANCH   4   5
HETATM    5  C   UNL     1     -11.249   6.445  69.369  1.00  0.00    -0.394 C  
BRANCH   5   6
HETATM    6  O   UNL     1     -10.652   7.682  68.961  1.00  0.00    -0.216 OA 
BRANCH   6   7
HETATM    7  C   UNL     1     -10.408   7.821  67.551  1.00  0.00    -0.264 C  
BRANCH   7   8
HETATM    8  C   UNL     1     -10.490   9.272  67.103  1.00  0.00    -0.319 A  
HETATM    9  C   UNL     1     -10.044   9.632  65.820  1.00  0.00    -0.274 A  
HETATM   10  C   UNL     1     -10.198  10.938  65.352  1.00  0.00    -0.339 A  
HETATM   11  C   UNL     1     -11.080  10.256  67.911  1.00  0.00    -0.341 A  
HETATM   12  C   UNL     1     -10.791  11.903  66.163  1.00  0.00    -0.334 A  
HETATM   13  C   UNL     1     -11.228  11.565  67.443  1.00  0.00    -0.367 A  
ENDBRANCH   7   8
BRANCH   7  14
HETATM   14  C   UNL     1      -9.099   7.131  67.189  1.00  0.00    -0.141 A  
HETATM   15  C   UNL     1      -6.686   6.954  67.478  1.00  0.00    -0.067 A  
HETATM   16  C   UNL     1      -7.801   5.575  65.842  1.00  0.00    -0.104 A  
HETATM   17  C   UNL     1      -7.911   7.517  67.837  1.00  0.00    -0.117 A  
HETATM   18  C   UNL     1      -9.027   6.142  66.196  1.00  0.00    -0.164 A  
HETATM   19  C   UNL     1      -6.630   5.987  66.477  1.00  0.00    -0.058 A  
ENDBRANCH   7  14
ENDBRANCH   6   7
ENDBRANCH   5   6
ENDBRANCH   4   5
ENDBRANCH   2   4
TORSDOF 6
ENDMDL
MODEL      147
REMARK 921   NORMALIZED FREE ENERGY PREDICTED BY IDOCK:   -3.57 KCAL/MOL
REMARK 922        TOTAL FREE ENERGY PREDICTED BY IDOCK:   -5.72 KCAL/MOL
REMARK 923 INTER-LIGAND FREE ENERGY PREDICTED BY IDOCK:   -5.22 KCAL/MOL
REMARK 924 INTRA-LIGAND FREE ENERGY PREDICTED BY IDOCK:   -0.50 KCAL/MOL
REMARK 927      BINDING AFFINITY PREDICTED BY RF-SCORE:    0.00 PKD
ROOT
HETATM    1  C   UNL     1     -10.822   7.530  72.039  1.00  0.00    -0.233 C  
HETATM    2  N   UNL     1     -11.941   6.920  71.313  1.00  0.00    -0.337 NA 
HETATM    3  C   UNL     1     -13.185   7.621  71.630  1.00  0.00    -0.352 C  
ENDROOT
BRANCH   2   4
HETATM    4  C   UNL     1     -11.654   6.925  69.869  1.00  0.00    -0.202 C  
BRANCH   4   5
HETATM    5  C   UNL     1     -10.563   7.913  69.413  1.00  0.00    -0.205 C  
BRANCH   5   6
HETATM    6  O   UNL     1     -10.958   9.287  69.508  1.00  0.00    -0.227 OA 
BRANCH   6   7
HETATM    7  C   UNL     1     -11.145   9.971  68.258  1.00  0.00    -0.190 C  
BRANCH   7   8
HETATM    8  C   UNL     1     -11.562  11.419  68.461  1.00  0.00    -0.384 A  
HETATM    9  C   UNL     1     -11.832  11.892  69.757  1.00  0.00    -0.411 A  
HETATM   10  C   UNL     1     -12.122  13.238  69.980  1.00  0.00    -0.385 A  
HETATM   11  C   UNL     1     -11.606  12.327  67.393  1.00  0.00    -0.425 A  
HETATM   12  C   UNL     1     -12.156  14.129  68.910  1.00  0.00    -0.339 A  
HETATM   13  C   UNL     1     -11.903  13.675  67.617  1.00  0.00    -0.404 A  
ENDBRANCH   7   8
BRANCH   7  14
HETATM   14  C   UNL     1      -9.904   9.797  67.391  1.00  0.00    -0.219 A  
HETATM   15  C   UNL     1      -7.520  10.179  67.062  1.00  0.00    -0.092 A  
HETATM   16  C   UNL     1      -8.818   9.134  65.317  1.00  0.00    -0.240 A  
HETATM   17  C   UNL     1      -8.661  10.261  67.860  1.00  0.00    -0.122 A  
HETATM   18  C   UNL     1      -9.962   9.220  66.113  1.00  0.00    -0.348 A  
HETATM   19  C   UNL     1      -7.600   9.621  65.788  1.00  0.00    -0.103 A  
ENDBRANCH   7  14
ENDBRANCH   6   7
ENDBRANCH   5   6
ENDBRANCH   4   5
ENDBRANCH   2   4
TORSDOF 6
ENDMDL
MODEL      148
REMARK 921   NORMALIZED FREE ENERGY PREDICTED BY IDOCK:   -3.56 KCAL/MOL
REMARK 922        TOTAL FREE ENERGY PREDICTED BY IDOCK:   -5.71 KCAL/MOL
REMARK 923 INTER-LIGAND FREE ENERGY PREDICTED BY IDOCK:   -4.83 KCAL/MOL
REMARK 924 INTRA-LIGAND FREE ENERGY PREDICTED BY IDOCK:   -0.88 KCAL/MOL
REMARK 927      BINDING AFFINITY PREDICTED BY RF-SCORE:    0.00 PKD
ROOT
HETATM    1  C   UNL     1      -6.512  11.441  68.198  1.00  0.00    -0.056 C  
HETATM    2  N   UNL     1      -7.489  10.407  68.557  1.00  0.00    -0.086 NA 
HETATM    3  C   UNL     1      -7.173   9.159  67.865  1.00  0.00    -0.080 C  
ENDROOT
BRANCH   2   4
HETATM    4  C   UNL     1      -7.516  10.241  70.020  1.00  0.00    -0.132 C  
BRANCH   4   5
HETATM    5  C   UNL     1      -8.159   8.935  70.527  1.00  0.00    -0.135 C  
BRANCH   5   6
HETATM    6  O   UNL     1      -9.579   9.021  70.690  1.00  0.00    -0.198 OA 
BRANCH   6   7
HETATM    7  C   UNL     1     -10.280   7.766  70.723  1.00  0.00    -0.197 C  
BRANCH   7   8
HETATM    8  C   UNL     1     -11.712   7.930  71.208  1.00  0.00    -0.313 A  
HETATM    9  C   UNL     1     -12.181   9.201  71.581  1.00  0.00    -0.433 A  
HETATM   10  C   UNL     1     -13.516   9.393  71.937  1.00  0.00    -0.500 A  
HETATM   11  C   UNL     1     -12.611   6.853  71.216  1.00  0.00    -0.394 A  
HETATM   12  C   UNL     1     -14.399   8.316  71.934  1.00  0.00    -0.564 A  
HETATM   13  C   UNL     1     -13.948   7.046  71.578  1.00  0.00    -0.372 A  
ENDBRANCH   7   8
BRANCH   7  14
HETATM   14  C   UNL     1     -10.156   7.077  69.370  1.00  0.00    -0.175 A  
HETATM   15  C   UNL     1     -10.438   7.167  66.951  1.00  0.00    -0.364 A  
HETATM   16  C   UNL     1      -9.730   5.113  67.999  1.00  0.00    -0.188 A  
HETATM   17  C   UNL     1     -10.474   7.790  68.199  1.00  0.00    -0.230 A  
HETATM   18  C   UNL     1      -9.771   5.733  69.249  1.00  0.00    -0.188 A  
HETATM   19  C   UNL     1     -10.071   5.827  66.852  1.00  0.00    -0.231 A  
ENDBRANCH   7  14
ENDBRANCH   6   7
ENDBRANCH   5   6
ENDBRANCH   4   5
ENDBRANCH   2   4
TORSDOF 6
ENDMDL
MODEL      149
REMARK 921   NORMALIZED FREE ENERGY PREDICTED BY IDOCK:   -3.56 KCAL/MOL
REMARK 922        TOTAL FREE ENERGY PREDICTED BY IDOCK:   -5.71 KCAL/MOL
REMARK 923 INTER-LIGAND FREE ENERGY PREDICTED BY IDOCK:   -4.83 KCAL/MOL
REMARK 924 INTRA-LIGAND FREE ENERGY PREDICTED BY IDOCK:   -0.88 KCAL/MOL
REMARK 927      BINDING AFFINITY PREDICTED BY RF-SCORE:    0.00 PKD
ROOT
HETATM    1  C   UNL     1      -8.227  12.131  67.185  1.00  0.00    -0.182 C  
HETATM    2  N   UNL     1      -7.011  11.717  67.892  1.00  0.00    -0.075 NA 
HETATM    3  C   UNL     1      -6.773  12.596  69.035  1.00  0.00    -0.097 C  
ENDROOT
BRANCH   2   4
HETATM    4  C   UNL     1      -7.129  10.304  68.293  1.00  0.00    -0.079 C  
BRANCH   4   5
HETATM    5  C   UNL     1      -7.868  10.051  69.621  1.00  0.00    -0.167 C  
BRANCH   5   6
HETATM    6  O   UNL     1      -9.224   9.619  69.449  1.00  0.00    -0.165 OA 
BRANCH   6   7
HETATM    7  C   UNL     1      -9.751   8.789  70.498  1.00  0.00    -0.190 C  
BRANCH   7   8
HETATM    8  C   UNL     1     -11.099   9.290  70.993  1.00  0.00    -0.396 A  
HETATM    9  C   UNL     1     -11.852   8.504  71.881  1.00  0.00    -0.407 A  
HETATM   10  C   UNL     1     -13.045   8.984  72.423  1.00  0.00    -0.487 A  
HETATM   11  C   UNL     1     -11.578  10.563  70.650  1.00  0.00    -0.445 A  
HETATM   12  C   UNL     1     -13.505  10.252  72.079  1.00  0.00    -0.385 A  
HETATM   13  C   UNL     1     -12.776  11.041  71.191  1.00  0.00    -0.521 A  
ENDBRANCH   7   8
BRANCH   7  14
HETATM   14  C   UNL     1      -9.756   7.335  70.043  1.00  0.00    -0.175 A  
HETATM   15  C   UNL     1     -10.514   5.650  68.454  1.00  0.00    -0.263 A  
HETATM   16  C   UNL     1      -9.219   4.985  70.379  1.00  0.00    -0.198 A  
HETATM   17  C   UNL     1     -10.431   6.982  68.860  1.00  0.00    -0.217 A  
HETATM   18  C   UNL     1      -9.140   6.318  70.789  1.00  0.00    -0.150 A  
HETATM   19  C   UNL     1      -9.912   4.651  69.217  1.00  0.00    -0.231 A  
ENDBRANCH   7  14
ENDBRANCH   6   7
ENDBRANCH   5   6
ENDBRANCH   4   5
ENDBRANCH   2   4
TORSDOF 6
ENDMDL
MODEL      150
REMARK 921   NORMALIZED FREE ENERGY PREDICTED BY IDOCK:   -3.56 KCAL/MOL
REMARK 922        TOTAL FREE ENERGY PREDICTED BY IDOCK:   -5.70 KCAL/MOL
REMARK 923 INTER-LIGAND FREE ENERGY PREDICTED BY IDOCK:   -4.73 KCAL/MOL
REMARK 924 INTRA-LIGAND FREE ENERGY PREDICTED BY IDOCK:   -0.97 KCAL/MOL
REMARK 927      BINDING AFFINITY PREDICTED BY RF-SCORE:    0.00 PKD
ROOT
HETATM    1  C   UNL     1      -6.967   9.696  66.021  1.00  0.00    -0.093 C  
HETATM    2  N   UNL     1      -8.040  10.674  65.814  1.00  0.00    -0.162 NA 
HETATM    3  C   UNL     1      -9.121  10.074  65.035  1.00  0.00    -0.211 C  
ENDROOT
BRANCH   2   4
HETATM    4  C   UNL     1      -8.507  11.177  67.118  1.00  0.00    -0.137 C  
BRANCH   4   5
HETATM    5  C   UNL     1      -7.718  10.675  68.343  1.00  0.00    -0.106 C  
BRANCH   5   6
HETATM    6  O   UNL     1      -8.410   9.675  69.100  1.00  0.00    -0.115 OA 
BRANCH   6   7
HETATM    7  C   UNL     1      -9.713   9.312  68.611  1.00  0.00    -0.150 C  
BRANCH   7   8
HETATM    8  C   UNL     1      -9.752   7.875  68.117  1.00  0.00    -0.177 A  
HETATM    9  C   UNL     1      -8.952   6.901  68.740  1.00  0.00    -0.130 A  
HETATM   10  C   UNL     1      -9.042   5.560  68.368  1.00  0.00    -0.117 A  
HETATM   11  C   UNL     1     -10.633   7.472  67.102  1.00  0.00    -0.415 A  
HETATM   12  C   UNL     1      -9.926   5.173  67.363  1.00  0.00    -0.215 A  
HETATM   13  C   UNL     1     -10.718   6.128  66.727  1.00  0.00    -0.371 A  
ENDBRANCH   7   8
BRANCH   7  14
HETATM   14  C   UNL     1     -10.762   9.637  69.667  1.00  0.00    -0.260 A  
HETATM   15  C   UNL     1     -12.486  11.144  70.499  1.00  0.00    -0.414 A  
HETATM   16  C   UNL     1     -11.857   9.210  71.798  1.00  0.00    -0.453 A  
HETATM   17  C   UNL     1     -11.566  10.782  69.515  1.00  0.00    -0.375 A  
HETATM   18  C   UNL     1     -10.931   8.849  70.816  1.00  0.00    -0.305 A  
HETATM   19  C   UNL     1     -12.628  10.361  71.643  1.00  0.00    -0.521 A  
ENDBRANCH   7  14
ENDBRANCH   6   7
ENDBRANCH   5   6
ENDBRANCH   4   5
ENDBRANCH   2   4
TORSDOF 6
ENDMDL
MODEL      151
REMARK 921   NORMALIZED FREE ENERGY PREDICTED BY IDOCK:   -3.53 KCAL/MOL
REMARK 922        TOTAL FREE ENERGY PREDICTED BY IDOCK:   -5.67 KCAL/MOL
REMARK 923 INTER-LIGAND FREE ENERGY PREDICTED BY IDOCK:   -5.72 KCAL/MOL
REMARK 924 INTRA-LIGAND FREE ENERGY PREDICTED BY IDOCK:    0.05 KCAL/MOL
REMARK 927      BINDING AFFINITY PREDICTED BY RF-SCORE:    0.00 PKD
ROOT
HETATM    1  C   UNL     1     -12.890  13.944  66.179  1.00  0.00    -0.153 C  
HETATM    2  N   UNL     1     -12.674  13.676  64.753  1.00  0.00    -0.680 NA 
HETATM    3  C   UNL     1     -12.137  14.866  64.096  1.00  0.00    -0.267 C  
ENDROOT
BRANCH   2   4
HETATM    4  C   UNL     1     -11.790  12.509  64.599  1.00  0.00    -0.378 C  
BRANCH   4   5
HETATM    5  C   UNL     1     -11.168  11.971  65.902  1.00  0.00    -0.337 C  
BRANCH   5   6
HETATM    6  O   UNL     1      -9.779  12.290  66.049  1.00  0.00    -0.242 OA 
BRANCH   6   7
HETATM    7  C   UNL     1      -9.370  12.710  67.362  1.00  0.00    -0.189 C  
BRANCH   7   8
HETATM    8  C   UNL     1      -9.456  14.220  67.525  1.00  0.00    -0.209 A  
HETATM    9  C   UNL     1      -9.435  15.046  66.388  1.00  0.00    -0.325 A  
HETATM   10  C   UNL     1      -9.609  16.425  66.506  1.00  0.00    -0.291 A  
HETATM   11  C   UNL     1      -9.641  14.812  68.783  1.00  0.00    -0.215 A  
HETATM   12  C   UNL     1      -9.798  16.999  67.761  1.00  0.00    -0.271 A  
HETATM   13  C   UNL     1      -9.810  16.195  68.899  1.00  0.00    -0.239 A  
ENDBRANCH   7   8
BRANCH   7  14
HETATM   14  C   UNL     1     -10.145  11.925  68.412  1.00  0.00    -0.206 A  
HETATM   15  C   UNL     1     -11.997  11.822  69.993  1.00  0.00    -0.421 A  
HETATM   16  C   UNL     1     -10.416  10.003  69.880  1.00  0.00    -0.317 A  
HETATM   17  C   UNL     1     -11.305  12.485  68.979  1.00  0.00    -0.342 A  
HETATM   18  C   UNL     1      -9.719  10.668  68.868  1.00  0.00    -0.210 A  
HETATM   19  C   UNL     1     -11.549  10.584  70.447  1.00  0.00    -0.430 A  
ENDBRANCH   7  14
ENDBRANCH   6   7
ENDBRANCH   5   6
ENDBRANCH   4   5
ENDBRANCH   2   4
TORSDOF 6
ENDMDL
MODEL      152
REMARK 921   NORMALIZED FREE ENERGY PREDICTED BY IDOCK:   -3.53 KCAL/MOL
REMARK 922        TOTAL FREE ENERGY PREDICTED BY IDOCK:   -5.66 KCAL/MOL
REMARK 923 INTER-LIGAND FREE ENERGY PREDICTED BY IDOCK:   -5.88 KCAL/MOL
REMARK 924 INTRA-LIGAND FREE ENERGY PREDICTED BY IDOCK:    0.21 KCAL/MOL
REMARK 927      BINDING AFFINITY PREDICTED BY RF-SCORE:    0.00 PKD
ROOT
HETATM    1  C   UNL     1     -10.097  11.522  62.843  1.00  0.00    -0.179 C  
HETATM    2  N   UNL     1     -11.072  12.028  63.815  1.00  0.00    -0.399 NA 
HETATM    3  C   UNL     1     -12.429  11.855  63.299  1.00  0.00    -0.384 C  
ENDROOT
BRANCH   2   4
HETATM    4  C   UNL     1     -10.879  11.349  65.108  1.00  0.00    -0.238 C  
BRANCH   4   5
HETATM    5  C   UNL     1     -11.380  12.120  66.344  1.00  0.00    -0.356 C  
BRANCH   5   6
HETATM    6  O   UNL     1     -11.723  11.273  67.448  1.00  0.00    -0.580 OA 
BRANCH   6   7
HETATM    7  C   UNL     1     -10.933  11.447  68.636  1.00  0.00    -0.220 C  
BRANCH   7   8
HETATM    8  C   UNL     1     -11.776  11.910  69.814  1.00  0.00    -0.403 A  
HETATM    9  C   UNL     1     -11.975  13.283  70.033  1.00  0.00    -0.399 A  
HETATM   10  C   UNL     1     -12.822  13.729  71.048  1.00  0.00    -0.376 A  
HETATM   11  C   UNL     1     -12.436  10.994  70.648  1.00  0.00    -0.465 A  
HETATM   12  C   UNL     1     -13.475  12.809  71.863  1.00  0.00    -0.452 A  
HETATM   13  C   UNL     1     -13.280  11.443  71.668  1.00  0.00    -0.413 A  
ENDBRANCH   7   8
BRANCH   7  14
HETATM   14  C   UNL     1     -10.130  10.180  68.904  1.00  0.00    -0.211 A  
HETATM   15  C   UNL     1      -9.844   8.124  70.180  1.00  0.00    -0.184 A  
HETATM   16  C   UNL     1      -8.171   8.777  68.569  1.00  0.00    -0.117 A  
HETATM   17  C   UNL     1     -10.592   9.258  69.862  1.00  0.00    -0.246 A  
HETATM   18  C   UNL     1      -8.916   9.915  68.254  1.00  0.00    -0.119 A  
HETATM   19  C   UNL     1      -8.631   7.887  69.538  1.00  0.00    -0.137 A  
ENDBRANCH   7  14
ENDBRANCH   6   7
ENDBRANCH   5   6
ENDBRANCH   4   5
ENDBRANCH   2   4
TORSDOF 6
ENDMDL
MODEL      153
REMARK 921   NORMALIZED FREE ENERGY PREDICTED BY IDOCK:   -3.52 KCAL/MOL
REMARK 922        TOTAL FREE ENERGY PREDICTED BY IDOCK:   -5.65 KCAL/MOL
REMARK 923 INTER-LIGAND FREE ENERGY PREDICTED BY IDOCK:   -4.95 KCAL/MOL
REMARK 924 INTRA-LIGAND FREE ENERGY PREDICTED BY IDOCK:   -0.70 KCAL/MOL
REMARK 927      BINDING AFFINITY PREDICTED BY RF-SCORE:    0.00 PKD
ROOT
HETATM    1  C   UNL     1      -6.730   7.843  64.625  1.00  0.00    -0.059 C  
HETATM    2  N   UNL     1      -7.033   8.334  65.974  1.00  0.00    -0.064 NA 
HETATM    3  C   UNL     1      -6.082   7.776  66.934  1.00  0.00    -0.052 C  
ENDROOT
BRANCH   2   4
HETATM    4  C   UNL     1      -7.027   9.807  65.977  1.00  0.00    -0.099 C  
BRANCH   4   5
HETATM    5  C   UNL     1      -7.540  10.470  67.270  1.00  0.00    -0.096 C  
BRANCH   5   6
HETATM    6  O   UNL     1      -8.895  10.132  67.589  1.00  0.00    -0.125 OA 
BRANCH   6   7
HETATM    7  C   UNL     1      -9.587  11.063  68.438  1.00  0.00    -0.181 C  
BRANCH   7   8
HETATM    8  C   UNL     1     -10.570  11.920  67.655  1.00  0.00    -0.241 A  
HETATM    9  C   UNL     1     -10.941  13.183  68.148  1.00  0.00    -0.275 A  
HETATM   10  C   UNL     1     -11.764  14.026  67.401  1.00  0.00    -0.421 A  
HETATM   11  C   UNL     1     -11.058  11.517  66.403  1.00  0.00    -0.328 A  
HETATM   12  C   UNL     1     -12.236  13.615  66.157  1.00  0.00    -0.490 A  
HETATM   13  C   UNL     1     -11.887  12.361  65.659  1.00  0.00    -0.468 A  
ENDBRANCH   7   8
BRANCH   7  14
HETATM   14  C   UNL     1     -10.208  10.318  69.613  1.00  0.00    -0.268 A  
HETATM   15  C   UNL     1      -9.934   8.800  71.499  1.00  0.00    -0.370 A  
HETATM   16  C   UNL     1     -12.136   9.592  70.909  1.00  0.00    -0.383 A  
HETATM   17  C   UNL     1      -9.386   9.550  70.458  1.00  0.00    -0.296 A  
HETATM   18  C   UNL     1     -11.589  10.339  69.862  1.00  0.00    -0.326 A  
HETATM   19  C   UNL     1     -11.309   8.817  71.721  1.00  0.00    -0.409 A  
ENDBRANCH   7  14
ENDBRANCH   6   7
ENDBRANCH   5   6
ENDBRANCH   4   5
ENDBRANCH   2   4
TORSDOF 6
ENDMDL
MODEL      154
REMARK 921   NORMALIZED FREE ENERGY PREDICTED BY IDOCK:   -3.50 KCAL/MOL
REMARK 922        TOTAL FREE ENERGY PREDICTED BY IDOCK:   -5.63 KCAL/MOL
REMARK 923 INTER-LIGAND FREE ENERGY PREDICTED BY IDOCK:   -5.02 KCAL/MOL
REMARK 924 INTRA-LIGAND FREE ENERGY PREDICTED BY IDOCK:   -0.61 KCAL/MOL
REMARK 927      BINDING AFFINITY PREDICTED BY RF-SCORE:    0.00 PKD
ROOT
HETATM    1  C   UNL     1      -7.727  10.003  64.577  1.00  0.00    -0.145 C  
HETATM    2  N   UNL     1      -9.020  10.600  64.227  1.00  0.00    -0.200 NA 
HETATM    3  C   UNL     1      -9.369  10.265  62.847  1.00  0.00    -0.311 C  
ENDROOT
BRANCH   2   4
HETATM    4  C   UNL     1     -10.046  10.152  65.185  1.00  0.00    -0.259 C  
BRANCH   4   5
HETATM    5  C   UNL     1      -9.516   9.398  66.419  1.00  0.00    -0.201 C  
BRANCH   5   6
HETATM    6  O   UNL     1     -10.369   9.505  67.566  1.00  0.00    -0.215 OA 
BRANCH   6   7
HETATM    7  C   UNL     1      -9.865  10.312  68.644  1.00  0.00    -0.173 C  
BRANCH   7   8
HETATM    8  C   UNL     1     -10.308  11.761  68.521  1.00  0.00    -0.228 A  
HETATM    9  C   UNL     1      -9.366  12.793  68.665  1.00  0.00     0.017 A  
HETATM   10  C   UNL     1      -9.729  14.125  68.460  1.00  0.00    -0.219 A  
HETATM   11  C   UNL     1     -11.628  12.098  68.184  1.00  0.00    -0.397 A  
HETATM   12  C   UNL     1     -11.041  14.444  68.119  1.00  0.00    -0.279 A  
HETATM   13  C   UNL     1     -11.992  13.433  67.985  1.00  0.00    -0.357 A  
ENDBRANCH   7   8
BRANCH   7  14
HETATM   14  C   UNL     1     -10.221   9.663  69.976  1.00  0.00    -0.296 A  
HETATM   15  C   UNL     1      -9.639   8.108  71.760  1.00  0.00    -0.249 A  
HETATM   16  C   UNL     1     -11.774   9.231  71.799  1.00  0.00    -0.456 A  
HETATM   17  C   UNL     1      -9.312   8.772  70.577  1.00  0.00    -0.219 A  
HETATM   18  C   UNL     1     -11.451   9.892  70.612  1.00  0.00    -0.411 A  
HETATM   19  C   UNL     1     -10.871   8.333  72.368  1.00  0.00    -0.421 A  
ENDBRANCH   7  14
ENDBRANCH   6   7
ENDBRANCH   5   6
ENDBRANCH   4   5
ENDBRANCH   2   4
TORSDOF 6
ENDMDL
MODEL      155
REMARK 921   NORMALIZED FREE ENERGY PREDICTED BY IDOCK:   -3.46 KCAL/MOL
REMARK 922        TOTAL FREE ENERGY PREDICTED BY IDOCK:   -5.58 KCAL/MOL
REMARK 923 INTER-LIGAND FREE ENERGY PREDICTED BY IDOCK:   -4.83 KCAL/MOL
REMARK 924 INTRA-LIGAND FREE ENERGY PREDICTED BY IDOCK:   -0.75 KCAL/MOL
REMARK 927      BINDING AFFINITY PREDICTED BY RF-SCORE:    0.00 PKD
ROOT
HETATM    1  C   UNL     1      -7.876   9.444  64.730  1.00  0.00    -0.118 C  
HETATM    2  N   UNL     1      -8.762  10.553  64.363  1.00  0.00    -0.186 NA 
HETATM    3  C   UNL     1      -8.791  10.711  62.910  1.00  0.00    -0.245 C  
ENDROOT
BRANCH   2   4
HETATM    4  C   UNL     1     -10.104  10.320  64.923  1.00  0.00    -0.276 C  
BRANCH   4   5
HETATM    5  C   UNL     1     -10.145   9.494  66.224  1.00  0.00    -0.257 C  
BRANCH   5   6
HETATM    6  O   UNL     1     -10.715  10.200  67.333  1.00  0.00    -0.260 OA 
BRANCH   6   7
HETATM    7  C   UNL     1     -10.099   9.957  68.610  1.00  0.00    -0.175 C  
BRANCH   7   8
HETATM    8  C   UNL     1      -8.831  10.776  68.792  1.00  0.00    -0.163 A  
HETATM    9  C   UNL     1      -7.760  10.248  69.532  1.00  0.00    -0.167 A  
HETATM   10  C   UNL     1      -6.552  10.939  69.632  1.00  0.00    -0.123 A  
HETATM   11  C   UNL     1      -8.667  12.022  68.168  1.00  0.00    -0.177 A  
HETATM   12  C   UNL     1      -6.402  12.172  69.001  1.00  0.00    -0.087 A  
HETATM   13  C   UNL     1      -7.458  12.716  68.273  1.00  0.00    -0.123 A  
ENDBRANCH   7   8
BRANCH   7  14
HETATM   14  C   UNL     1     -11.129  10.148  69.716  1.00  0.00    -0.328 A  
HETATM   15  C   UNL     1     -12.686  11.613  70.886  1.00  0.00    -0.351 A  
HETATM   16  C   UNL     1     -12.317   9.369  71.692  1.00  0.00    -0.465 A  
HETATM   17  C   UNL     1     -11.790  11.384  69.840  1.00  0.00    -0.435 A  
HETATM   18  C   UNL     1     -11.416   9.140  70.650  1.00  0.00    -0.310 A  
HETATM   19  C   UNL     1     -12.945  10.608  71.814  1.00  0.00    -0.577 A  
ENDBRANCH   7  14
ENDBRANCH   6   7
ENDBRANCH   5   6
ENDBRANCH   4   5
ENDBRANCH   2   4
TORSDOF 6
ENDMDL
MODEL      156
REMARK 921   NORMALIZED FREE ENERGY PREDICTED BY IDOCK:   -3.45 KCAL/MOL
REMARK 922        TOTAL FREE ENERGY PREDICTED BY IDOCK:   -5.56 KCAL/MOL
REMARK 923 INTER-LIGAND FREE ENERGY PREDICTED BY IDOCK:   -4.75 KCAL/MOL
REMARK 924 INTRA-LIGAND FREE ENERGY PREDICTED BY IDOCK:   -0.81 KCAL/MOL
REMARK 927      BINDING AFFINITY PREDICTED BY RF-SCORE:    0.00 PKD
ROOT
HETATM    1  C   UNL     1      -6.651   5.167  72.185  1.00  0.00    -0.044 C  
HETATM    2  N   UNL     1      -7.385   5.117  73.454  1.00  0.00    -0.089 NA 
HETATM    3  C   UNL     1      -6.561   5.664  74.530  1.00  0.00    -0.072 C  
ENDROOT
BRANCH   2   4
HETATM    4  C   UNL     1      -8.664   5.835  73.313  1.00  0.00    -0.118 C  
BRANCH   4   5
HETATM    5  C   UNL     1      -8.705   6.907  72.207  1.00  0.00    -0.126 C  
BRANCH   5   6
HETATM    6  O   UNL     1      -9.944   6.943  71.489  1.00  0.00    -0.178 OA 
BRANCH   6   7
HETATM    7  C   UNL     1     -10.105   8.043  70.577  1.00  0.00    -0.192 C  
BRANCH   7   8
HETATM    8  C   UNL     1     -10.183   7.573  69.132  1.00  0.00    -0.202 A  
HETATM    9  C   UNL     1      -9.214   7.997  68.207  1.00  0.00    -0.134 A  
HETATM   10  C   UNL     1      -9.209   7.504  66.902  1.00  0.00    -0.181 A  
HETATM   11  C   UNL     1     -11.157   6.655  68.712  1.00  0.00    -0.297 A  
HETATM   12  C   UNL     1     -10.178   6.588  66.501  1.00  0.00    -0.134 A  
HETATM   13  C   UNL     1     -11.154   6.166  67.402  1.00  0.00    -0.326 A  
ENDBRANCH   7   8
BRANCH   7  14
HETATM   14  C   UNL     1     -11.283   8.902  71.017  1.00  0.00    -0.342 A  
HETATM   15  C   UNL     1     -12.403  11.066  71.011  1.00  0.00    -0.490 A  
HETATM   16  C   UNL     1     -13.301   9.256  72.329  1.00  0.00    -0.547 A  
HETATM   17  C   UNL     1     -11.375  10.233  70.569  1.00  0.00    -0.422 A  
HETATM   18  C   UNL     1     -12.269   8.423  71.893  1.00  0.00    -0.395 A  
HETATM   19  C   UNL     1     -13.363  10.579  71.895  1.00  0.00    -0.461 A  
ENDBRANCH   7  14
ENDBRANCH   6   7
ENDBRANCH   5   6
ENDBRANCH   4   5
ENDBRANCH   2   4
TORSDOF 6
ENDMDL
MODEL      157
REMARK 921   NORMALIZED FREE ENERGY PREDICTED BY IDOCK:   -3.44 KCAL/MOL
REMARK 922        TOTAL FREE ENERGY PREDICTED BY IDOCK:   -5.55 KCAL/MOL
REMARK 923 INTER-LIGAND FREE ENERGY PREDICTED BY IDOCK:   -4.65 KCAL/MOL
REMARK 924 INTRA-LIGAND FREE ENERGY PREDICTED BY IDOCK:   -0.90 KCAL/MOL
REMARK 927      BINDING AFFINITY PREDICTED BY RF-SCORE:    0.00 PKD
ROOT
HETATM    1  C   UNL     1      -7.482   9.882  64.773  1.00  0.00    -0.136 C  
HETATM    2  N   UNL     1      -8.314  10.231  63.616  1.00  0.00    -0.166 NA 
HETATM    3  C   UNL     1      -8.494   9.062  62.758  1.00  0.00    -0.206 C  
ENDROOT
BRANCH   2   4
HETATM    4  C   UNL     1      -9.598  10.783  64.081  1.00  0.00    -0.284 C  
BRANCH   4   5
HETATM    5  C   UNL     1     -10.184  10.126  65.345  1.00  0.00    -0.211 C  
BRANCH   5   6
HETATM    6  O   UNL     1     -10.308  11.024  66.454  1.00  0.00    -0.235 OA 
BRANCH   6   7
HETATM    7  C   UNL     1     -10.858  10.459  67.657  1.00  0.00    -0.306 C  
BRANCH   7   8
HETATM    8  C   UNL     1      -9.892   9.490  68.319  1.00  0.00    -0.174 A  
HETATM    9  C   UNL     1      -8.686   9.967  68.861  1.00  0.00    -0.146 A  
HETATM   10  C   UNL     1      -7.830   9.115  69.558  1.00  0.00    -0.082 A  
HETATM   11  C   UNL     1     -10.209   8.133  68.480  1.00  0.00    -0.233 A  
HETATM   12  C   UNL     1      -8.161   7.771  69.716  1.00  0.00    -0.129 A  
HETATM   13  C   UNL     1      -9.347   7.278  69.174  1.00  0.00    -0.146 A  
ENDBRANCH   7   8
BRANCH   7  14
HETATM   14  C   UNL     1     -11.343  11.577  68.570  1.00  0.00    -0.337 A  
HETATM   15  C   UNL     1     -11.428  13.957  69.089  1.00  0.00    -0.345 A  
HETATM   16  C   UNL     1     -12.409  12.363  70.611  1.00  0.00    -0.367 A  
HETATM   17  C   UNL     1     -11.059  12.915  68.237  1.00  0.00    -0.294 A  
HETATM   18  C   UNL     1     -12.035  11.319  69.763  1.00  0.00    -0.431 A  
HETATM   19  C   UNL     1     -12.098  13.680  70.278  1.00  0.00    -0.427 A  
ENDBRANCH   7  14
ENDBRANCH   6   7
ENDBRANCH   5   6
ENDBRANCH   4   5
ENDBRANCH   2   4
TORSDOF 6
ENDMDL
MODEL      158
REMARK 921   NORMALIZED FREE ENERGY PREDICTED BY IDOCK:   -3.43 KCAL/MOL
REMARK 922        TOTAL FREE ENERGY PREDICTED BY IDOCK:   -5.54 KCAL/MOL
REMARK 923 INTER-LIGAND FREE ENERGY PREDICTED BY IDOCK:   -5.08 KCAL/MOL
REMARK 924 INTRA-LIGAND FREE ENERGY PREDICTED BY IDOCK:   -0.45 KCAL/MOL
REMARK 927      BINDING AFFINITY PREDICTED BY RF-SCORE:    0.00 PKD
ROOT
HETATM    1  C   UNL     1      -9.685   4.722  67.240  1.00  0.00    -0.182 C  
HETATM    2  N   UNL     1     -10.766   5.554  67.778  1.00  0.00    -0.160 NA 
HETATM    3  C   UNL     1     -10.537   5.816  69.198  1.00  0.00    -0.294 C  
ENDROOT
BRANCH   2   4
HETATM    4  C   UNL     1     -10.869   6.797  66.993  1.00  0.00    -0.383 C  
BRANCH   4   5
HETATM    5  C   UNL     1      -9.832   7.885  67.334  1.00  0.00    -0.181 C  
BRANCH   5   6
HETATM    6  O   UNL     1     -10.304   9.218  67.105  1.00  0.00    -0.236 OA 
BRANCH   6   7
HETATM    7  C   UNL     1     -10.988   9.836  68.208  1.00  0.00    -0.164 C  
BRANCH   7   8
HETATM    8  C   UNL     1     -10.421   9.390  69.547  1.00  0.00    -0.229 A  
HETATM    9  C   UNL     1      -9.044   9.515  69.798  1.00  0.00    -0.219 A  
HETATM   10  C   UNL     1      -8.516   9.203  71.051  1.00  0.00    -0.221 A  
HETATM   11  C   UNL     1     -11.253   8.929  70.578  1.00  0.00    -0.287 A  
HETATM   12  C   UNL     1      -9.355   8.753  72.067  1.00  0.00    -0.322 A  
HETATM   13  C   UNL     1     -10.721   8.611  71.831  1.00  0.00    -0.414 A  
ENDBRANCH   7   8
BRANCH   7  14
HETATM   14  C   UNL     1     -11.009  11.347  68.013  1.00  0.00    -0.290 A  
HETATM   15  C   UNL     1     -10.081  13.323  66.930  1.00  0.00    -0.250 A  
HETATM   16  C   UNL     1     -11.797  13.571  68.608  1.00  0.00    -0.404 A  
HETATM   17  C   UNL     1     -10.135  11.937  67.081  1.00  0.00    -0.222 A  
HETATM   18  C   UNL     1     -11.849  12.184  68.764  1.00  0.00    -0.356 A  
HETATM   19  C   UNL     1     -10.908  14.140  67.698  1.00  0.00    -0.266 A  
ENDBRANCH   7  14
ENDBRANCH   6   7
ENDBRANCH   5   6
ENDBRANCH   4   5
ENDBRANCH   2   4
TORSDOF 6
ENDMDL
MODEL      159
REMARK 921   NORMALIZED FREE ENERGY PREDICTED BY IDOCK:   -3.42 KCAL/MOL
REMARK 922        TOTAL FREE ENERGY PREDICTED BY IDOCK:   -5.52 KCAL/MOL
REMARK 923 INTER-LIGAND FREE ENERGY PREDICTED BY IDOCK:   -4.57 KCAL/MOL
REMARK 924 INTRA-LIGAND FREE ENERGY PREDICTED BY IDOCK:   -0.94 KCAL/MOL
REMARK 927      BINDING AFFINITY PREDICTED BY RF-SCORE:    0.00 PKD
ROOT
HETATM    1  C   UNL     1     -11.798  12.009  65.024  1.00  0.00    -0.228 C  
HETATM    2  N   UNL     1     -12.140  13.399  64.704  1.00  0.00    -0.392 NA 
HETATM    3  C   UNL     1     -12.896  13.995  65.805  1.00  0.00    -0.377 C  
ENDROOT
BRANCH   2   4
HETATM    4  C   UNL     1     -10.910  14.153  64.403  1.00  0.00    -0.201 C  
BRANCH   4   5
HETATM    5  C   UNL     1     -10.374  15.032  65.550  1.00  0.00    -0.373 C  
BRANCH   5   6
HETATM    6  O   UNL     1      -9.347  14.400  66.324  1.00  0.00    -0.283 OA 
BRANCH   6   7
HETATM    7  C   UNL     1      -9.135  14.942  67.640  1.00  0.00    -0.183 C  
BRANCH   7   8
HETATM    8  C   UNL     1     -10.304  14.648  68.567  1.00  0.00    -0.238 A  
HETATM    9  C   UNL     1     -10.793  13.335  68.679  1.00  0.00    -0.285 A  
HETATM   10  C   UNL     1     -11.799  13.024  69.594  1.00  0.00    -0.385 A  
HETATM   11  C   UNL     1     -10.861  15.644  69.383  1.00  0.00    -0.264 A  
HETATM   12  C   UNL     1     -12.338  14.023  70.403  1.00  0.00    -0.429 A  
HETATM   13  C   UNL     1     -11.873  15.332  70.295  1.00  0.00    -0.353 A  
ENDBRANCH   7   8
BRANCH   7  14
HETATM   14  C   UNL     1      -7.786  14.476  68.172  1.00  0.00    -0.128 A  
HETATM   15  C   UNL     1      -6.208  14.343  70.024  1.00  0.00    -0.158 A  
HETATM   16  C   UNL     1      -5.576  13.511  67.849  1.00  0.00    -0.116 A  
HETATM   17  C   UNL     1      -7.462  14.694  69.523  1.00  0.00    -0.074 A  
HETATM   18  C   UNL     1      -6.829  13.867  67.346  1.00  0.00    -0.029 A  
HETATM   19  C   UNL     1      -5.263  13.756  69.185  1.00  0.00    -0.077 A  
ENDBRANCH   7  14
ENDBRANCH   6   7
ENDBRANCH   5   6
ENDBRANCH   4   5
ENDBRANCH   2   4
TORSDOF 6
ENDMDL
MODEL      160
REMARK 921   NORMALIZED FREE ENERGY PREDICTED BY IDOCK:   -3.41 KCAL/MOL
REMARK 922        TOTAL FREE ENERGY PREDICTED BY IDOCK:   -5.51 KCAL/MOL
REMARK 923 INTER-LIGAND FREE ENERGY PREDICTED BY IDOCK:   -4.69 KCAL/MOL
REMARK 924 INTRA-LIGAND FREE ENERGY PREDICTED BY IDOCK:   -0.81 KCAL/MOL
REMARK 927      BINDING AFFINITY PREDICTED BY RF-SCORE:    0.00 PKD
ROOT
HETATM    1  C   UNL     1      -9.847  10.857  63.677  1.00  0.00    -0.351 C  
HETATM    2  N   UNL     1     -10.377  11.915  64.544  1.00  0.00    -0.277 NA 
HETATM    3  C   UNL     1     -11.144  12.874  63.752  1.00  0.00    -0.379 C  
ENDROOT
BRANCH   2   4
HETATM    4  C   UNL     1     -11.182  11.313  65.621  1.00  0.00    -0.004 C  
BRANCH   4   5
HETATM    5  C   UNL     1     -10.424  11.017  66.930  1.00  0.00    -0.246 C  
BRANCH   5   6
HETATM    6  O   UNL     1      -9.680   9.792  66.897  1.00  0.00    -0.174 OA 
BRANCH   6   7
HETATM    7  C   UNL     1     -10.301   8.668  67.543  1.00  0.00    -0.269 C  
BRANCH   7   8
HETATM    8  C   UNL     1      -9.934   7.355  66.869  1.00  0.00    -0.307 A  
HETATM    9  C   UNL     1     -10.799   6.253  66.970  1.00  0.00    -0.458 A  
HETATM   10  C   UNL     1     -10.531   5.069  66.282  1.00  0.00    -0.352 A  
HETATM   11  C   UNL     1      -8.784   7.236  66.074  1.00  0.00    -0.168 A  
HETATM   12  C   UNL     1      -9.390   4.968  65.491  1.00  0.00    -0.149 A  
HETATM   13  C   UNL     1      -8.514   6.047  65.389  1.00  0.00    -0.145 A  
ENDBRANCH   7   8
BRANCH   7  14
HETATM   14  C   UNL     1     -10.000   8.707  69.036  1.00  0.00    -0.197 A  
HETATM   15  C   UNL     1      -8.356   8.657  70.834  1.00  0.00    -0.182 A  
HETATM   16  C   UNL     1     -10.710   8.690  71.363  1.00  0.00    -0.338 A  
HETATM   17  C   UNL     1      -8.663   8.692  69.473  1.00  0.00    -0.139 A  
HETATM   18  C   UNL     1     -11.018   8.719  70.001  1.00  0.00    -0.216 A  
HETATM   19  C   UNL     1      -9.380   8.650  71.778  1.00  0.00    -0.343 A  
ENDBRANCH   7  14
ENDBRANCH   6   7
ENDBRANCH   5   6
ENDBRANCH   4   5
ENDBRANCH   2   4
TORSDOF 6
ENDMDL
MODEL      161
REMARK 921   NORMALIZED FREE ENERGY PREDICTED BY IDOCK:   -3.38 KCAL/MOL
REMARK 922        TOTAL FREE ENERGY PREDICTED BY IDOCK:   -5.47 KCAL/MOL
REMARK 923 INTER-LIGAND FREE ENERGY PREDICTED BY IDOCK:   -4.55 KCAL/MOL
REMARK 924 INTRA-LIGAND FREE ENERGY PREDICTED BY IDOCK:   -0.92 KCAL/MOL
REMARK 927      BINDING AFFINITY PREDICTED BY RF-SCORE:    0.00 PKD
ROOT
HETATM    1  C   UNL     1      -5.979   9.667  63.698  1.00  0.00    -0.103 C  
HETATM    2  N   UNL     1      -6.667   9.249  64.923  1.00  0.00    -0.077 NA 
HETATM    3  C   UNL     1      -5.760   9.344  66.065  1.00  0.00    -0.049 C  
ENDROOT
BRANCH   2   4
HETATM    4  C   UNL     1      -7.882  10.062  65.108  1.00  0.00    -0.136 C  
BRANCH   4   5
HETATM    5  C   UNL     1      -9.216   9.303  64.968  1.00  0.00    -0.178 C  
BRANCH   5   6
HETATM    6  O   UNL     1     -10.195   9.679  65.944  1.00  0.00    -0.259 OA 
BRANCH   6   7
HETATM    7  C   UNL     1      -9.788  10.696  66.876  1.00  0.00    -0.188 C  
BRANCH   7   8
HETATM    8  C   UNL     1     -10.562  11.990  66.675  1.00  0.00    -0.266 A  
HETATM    9  C   UNL     1     -11.529  12.073  65.659  1.00  0.00    -0.372 A  
HETATM   10  C   UNL     1     -12.319  13.215  65.517  1.00  0.00    -0.529 A  
HETATM   11  C   UNL     1     -10.396  13.085  67.536  1.00  0.00    -0.224 A  
HETATM   12  C   UNL     1     -12.147  14.292  66.383  1.00  0.00    -0.442 A  
HETATM   13  C   UNL     1     -11.184  14.230  67.389  1.00  0.00    -0.330 A  
ENDBRANCH   7   8
BRANCH   7  14
HETATM   14  C   UNL     1      -9.855  10.144  68.294  1.00  0.00    -0.162 A  
HETATM   15  C   UNL     1     -11.206   9.427  70.191  1.00  0.00    -0.253 A  
HETATM   16  C   UNL     1      -8.802   9.491  70.388  1.00  0.00    -0.279 A  
HETATM   17  C   UNL     1     -11.108   9.867  68.870  1.00  0.00    -0.181 A  
HETATM   18  C   UNL     1      -8.703   9.936  69.068  1.00  0.00    -0.151 A  
HETATM   19  C   UNL     1     -10.053   9.245  70.951  1.00  0.00    -0.373 A  
ENDBRANCH   7  14
ENDBRANCH   6   7
ENDBRANCH   5   6
ENDBRANCH   4   5
ENDBRANCH   2   4
TORSDOF 6
ENDMDL
MODEL      162
REMARK 921   NORMALIZED FREE ENERGY PREDICTED BY IDOCK:   -3.37 KCAL/MOL
REMARK 922        TOTAL FREE ENERGY PREDICTED BY IDOCK:   -5.46 KCAL/MOL
REMARK 923 INTER-LIGAND FREE ENERGY PREDICTED BY IDOCK:   -4.68 KCAL/MOL
REMARK 924 INTRA-LIGAND FREE ENERGY PREDICTED BY IDOCK:   -0.78 KCAL/MOL
REMARK 927      BINDING AFFINITY PREDICTED BY RF-SCORE:    0.00 PKD
ROOT
HETATM    1  C   UNL     1      -8.683  10.234  65.081  1.00  0.00    -0.175 C  
HETATM    2  N   UNL     1      -9.594  11.383  65.081  1.00  0.00    -0.234 NA 
HETATM    3  C   UNL     1     -10.146  11.585  63.742  1.00  0.00    -0.366 C  
ENDROOT
BRANCH   2   4
HETATM    4  C   UNL     1     -10.647  11.178  66.091  1.00  0.00    -0.248 C  
BRANCH   4   5
HETATM    5  C   UNL     1     -10.407  10.014  67.071  1.00  0.00    -0.243 C  
BRANCH   5   6
HETATM    6  O   UNL     1     -10.232  10.434  68.430  1.00  0.00    -0.154 OA 
BRANCH   6   7
HETATM    7  C   UNL     1     -10.481   9.432  69.430  1.00  0.00    -0.220 C  
BRANCH   7   8
HETATM    8  C   UNL     1      -9.193   8.942  70.073  1.00  0.00    -0.183 A  
HETATM    9  C   UNL     1      -9.005   7.568  70.299  1.00  0.00    -0.147 A  
HETATM   10  C   UNL     1      -7.795   7.086  70.798  1.00  0.00    -0.096 A  
HETATM   11  C   UNL     1      -8.143   9.822  70.374  1.00  0.00    -0.134 A  
HETATM   12  C   UNL     1      -6.758   7.971  71.086  1.00  0.00    -0.042 A  
HETATM   13  C   UNL     1      -6.932   9.338  70.879  1.00  0.00    -0.107 A  
ENDBRANCH   7   8
BRANCH   7  14
HETATM   14  C   UNL     1     -11.515   9.948  70.423  1.00  0.00    -0.372 A  
HETATM   15  C   UNL     1     -13.248   9.469  72.068  1.00  0.00    -0.539 A  
HETATM   16  C   UNL     1     -12.797  11.752  71.434  1.00  0.00    -0.440 A  
HETATM   17  C   UNL     1     -12.245   9.031  71.201  1.00  0.00    -0.331 A  
HETATM   18  C   UNL     1     -11.797  11.316  70.562  1.00  0.00    -0.421 A  
HETATM   19  C   UNL     1     -13.527  10.829  72.179  1.00  0.00    -0.227 A  
ENDBRANCH   7  14
ENDBRANCH   6   7
ENDBRANCH   5   6
ENDBRANCH   4   5
ENDBRANCH   2   4
TORSDOF 6
ENDMDL
MODEL      163
REMARK 921   NORMALIZED FREE ENERGY PREDICTED BY IDOCK:   -3.36 KCAL/MOL
REMARK 922        TOTAL FREE ENERGY PREDICTED BY IDOCK:   -5.43 KCAL/MOL
REMARK 923 INTER-LIGAND FREE ENERGY PREDICTED BY IDOCK:   -4.53 KCAL/MOL
REMARK 924 INTRA-LIGAND FREE ENERGY PREDICTED BY IDOCK:   -0.90 KCAL/MOL
REMARK 927      BINDING AFFINITY PREDICTED BY RF-SCORE:    0.00 PKD
ROOT
HETATM    1  C   UNL     1     -12.112   8.526  72.382  1.00  0.00    -0.367 C  
HETATM    2  N   UNL     1     -11.007   7.626  72.036  1.00  0.00    -0.236 NA 
HETATM    3  C   UNL     1     -10.378   7.115  73.253  1.00  0.00    -0.327 C  
ENDROOT
BRANCH   2   4
HETATM    4  C   UNL     1     -11.506   6.542  71.171  1.00  0.00    -0.326 C  
BRANCH   4   5
HETATM    5  C   UNL     1     -11.048   6.604  69.701  1.00  0.00    -0.334 C  
BRANCH   5   6
HETATM    6  O   UNL     1     -10.940   7.938  69.190  1.00  0.00    -0.097 OA 
BRANCH   6   7
HETATM    7  C   UNL     1      -9.936   8.140  68.179  1.00  0.00    -0.186 C  
BRANCH   7   8
HETATM    8  C   UNL     1     -10.278   9.307  67.267  1.00  0.00    -0.315 A  
HETATM    9  C   UNL     1     -10.995  10.403  67.777  1.00  0.00    -0.369 A  
HETATM   10  C   UNL     1     -11.236  11.527  66.986  1.00  0.00    -0.365 A  
HETATM   11  C   UNL     1      -9.823   9.359  65.941  1.00  0.00    -0.362 A  
HETATM   12  C   UNL     1     -10.773  11.568  65.673  1.00  0.00    -0.323 A  
HETATM   13  C   UNL     1     -10.070  10.484  65.149  1.00  0.00    -0.383 A  
ENDBRANCH   7   8
BRANCH   7  14
HETATM   14  C   UNL     1      -8.565   8.242  68.836  1.00  0.00    -0.132 A  
HETATM   15  C   UNL     1      -7.103   9.335  70.450  1.00  0.00    -0.091 A  
HETATM   16  C   UNL     1      -6.215   7.633  68.990  1.00  0.00    -0.035 A  
HETATM   17  C   UNL     1      -8.364   9.168  69.876  1.00  0.00    -0.146 A  
HETATM   18  C   UNL     1      -7.475   7.468  68.411  1.00  0.00    -0.108 A  
HETATM   19  C   UNL     1      -6.028   8.572  70.002  1.00  0.00    -0.027 A  
ENDBRANCH   7  14
ENDBRANCH   6   7
ENDBRANCH   5   6
ENDBRANCH   4   5
ENDBRANCH   2   4
TORSDOF 6
ENDMDL
MODEL      164
REMARK 921   NORMALIZED FREE ENERGY PREDICTED BY IDOCK:   -3.35 KCAL/MOL
REMARK 922        TOTAL FREE ENERGY PREDICTED BY IDOCK:   -5.42 KCAL/MOL
REMARK 923 INTER-LIGAND FREE ENERGY PREDICTED BY IDOCK:   -4.79 KCAL/MOL
REMARK 924 INTRA-LIGAND FREE ENERGY PREDICTED BY IDOCK:   -0.63 KCAL/MOL
REMARK 927      BINDING AFFINITY PREDICTED BY RF-SCORE:    0.00 PKD
ROOT
HETATM    1  C   UNL     1      -6.518   7.644  73.425  1.00  0.00    -0.068 C  
HETATM    2  N   UNL     1      -6.430   8.913  72.696  1.00  0.00    -0.286 NA 
HETATM    3  C   UNL     1      -5.199   9.614  73.058  1.00  0.00    -0.024 C  
ENDROOT
BRANCH   2   4
HETATM    4  C   UNL     1      -6.520   8.658  71.248  1.00  0.00    -0.062 C  
BRANCH   4   5
HETATM    5  C   UNL     1      -7.626   9.432  70.506  1.00  0.00    -0.150 C  
BRANCH   5   6
HETATM    6  O   UNL     1      -8.895   9.398  71.170  1.00  0.00    -0.272 OA 
BRANCH   6   7
HETATM    7  C   UNL     1     -10.019   9.033  70.351  1.00  0.00    -0.203 C  
BRANCH   7   8
HETATM    8  C   UNL     1      -9.992   7.558  69.980  1.00  0.00    -0.186 A  
HETATM    9  C   UNL     1      -9.521   6.614  70.908  1.00  0.00    -0.169 A  
HETATM   10  C   UNL     1      -9.577   5.248  70.628  1.00  0.00    -0.235 A  
HETATM   11  C   UNL     1     -10.507   7.100  68.758  1.00  0.00    -0.217 A  
HETATM   12  C   UNL     1     -10.097   4.808  69.413  1.00  0.00    -0.241 A  
HETATM   13  C   UNL     1     -10.557   5.732  68.477  1.00  0.00    -0.299 A  
ENDBRANCH   7   8
BRANCH   7  14
HETATM   14  C   UNL     1     -11.309   9.483  71.025  1.00  0.00    -0.423 A  
HETATM   15  C   UNL     1     -13.211   8.951  72.452  1.00  0.00    -0.482 A  
HETATM   16  C   UNL     1     -13.085  11.108  71.377  1.00  0.00    -0.422 A  
HETATM   17  C   UNL     1     -11.991   8.594  71.876  1.00  0.00    -0.424 A  
HETATM   18  C   UNL     1     -11.867  10.750  70.796  1.00  0.00    -0.443 A  
HETATM   19  C   UNL     1     -13.760  10.206  72.198  1.00  0.00    -0.185 A  
ENDBRANCH   7  14
ENDBRANCH   6   7
ENDBRANCH   5   6
ENDBRANCH   4   5
ENDBRANCH   2   4
TORSDOF 6
ENDMDL
MODEL      165
REMARK 921   NORMALIZED FREE ENERGY PREDICTED BY IDOCK:   -3.30 KCAL/MOL
REMARK 922        TOTAL FREE ENERGY PREDICTED BY IDOCK:   -5.36 KCAL/MOL
REMARK 923 INTER-LIGAND FREE ENERGY PREDICTED BY IDOCK:   -4.43 KCAL/MOL
REMARK 924 INTRA-LIGAND FREE ENERGY PREDICTED BY IDOCK:   -0.93 KCAL/MOL
REMARK 927      BINDING AFFINITY PREDICTED BY RF-SCORE:    0.00 PKD
ROOT
HETATM    1  C   UNL     1     -11.328  13.296  69.863  1.00  0.00     0.003 C  
HETATM    2  N   UNL     1     -12.356  14.271  69.483  1.00  0.00    -0.291 NA 
HETATM    3  C   UNL     1     -12.297  15.432  70.370  1.00  0.00    -0.402 C  
ENDROOT
BRANCH   2   4
HETATM    4  C   UNL     1     -12.185  14.642  68.068  1.00  0.00    -0.054 C  
BRANCH   4   5
HETATM    5  C   UNL     1     -11.052  13.911  67.323  1.00  0.00    -0.299 C  
BRANCH   5   6
HETATM    6  O   UNL     1      -9.973  14.771  66.934  1.00  0.00    -0.237 OA 
BRANCH   6   7
HETATM    7  C   UNL     1      -9.358  15.519  67.997  1.00  0.00    -0.193 C  
BRANCH   7   8
HETATM    8  C   UNL     1      -7.911  15.107  68.215  1.00  0.00    -0.124 A  
HETATM    9  C   UNL     1      -7.385  14.008  67.514  1.00  0.00    -0.187 A  
HETATM   10  C   UNL     1      -6.036  13.670  67.624  1.00  0.00    -0.108 A  
HETATM   11  C   UNL     1      -7.054  15.849  69.041  1.00  0.00    -0.161 A  
HETATM   12  C   UNL     1      -5.196  14.420  68.443  1.00  0.00    -0.105 A  
HETATM   13  C   UNL     1      -5.703  15.506  69.155  1.00  0.00    -0.105 A  
ENDBRANCH   7   8
BRANCH   7  14
HETATM   14  C   UNL     1      -9.551  17.010  67.748  1.00  0.00    -0.244 A  
HETATM   15  C   UNL     1      -9.173  18.952  66.326  1.00  0.00    -0.278 A  
HETATM   16  C   UNL     1     -10.258  19.225  68.464  1.00  0.00    -0.471 A  
HETATM   17  C   UNL     1      -9.075  17.579  66.553  1.00  0.00    -0.284 A  
HETATM   18  C   UNL     1     -10.156  17.851  68.694  1.00  0.00    -0.394 A  
HETATM   19  C   UNL     1      -9.760  19.776  67.284  1.00  0.00    -0.496 A  
ENDBRANCH   7  14
ENDBRANCH   6   7
ENDBRANCH   5   6
ENDBRANCH   4   5
ENDBRANCH   2   4
TORSDOF 6
ENDMDL
MODEL      166
REMARK 921   NORMALIZED FREE ENERGY PREDICTED BY IDOCK:   -3.30 KCAL/MOL
REMARK 922        TOTAL FREE ENERGY PREDICTED BY IDOCK:   -5.36 KCAL/MOL
REMARK 923 INTER-LIGAND FREE ENERGY PREDICTED BY IDOCK:   -4.55 KCAL/MOL
REMARK 924 INTRA-LIGAND FREE ENERGY PREDICTED BY IDOCK:   -0.81 KCAL/MOL
REMARK 927      BINDING AFFINITY PREDICTED BY RF-SCORE:    0.00 PKD
ROOT
HETATM    1  C   UNL     1     -12.921   8.734  71.639  1.00  0.00    -0.349 C  
HETATM    2  N   UNL     1     -11.670   8.036  71.326  1.00  0.00    -0.279 NA 
HETATM    3  C   UNL     1     -10.843   7.928  72.527  1.00  0.00    -0.341 C  
ENDROOT
BRANCH   2   4
HETATM    4  C   UNL     1     -11.972   6.720  70.739  1.00  0.00    -0.378 C  
BRANCH   4   5
HETATM    5  C   UNL     1     -11.049   6.280  69.586  1.00  0.00    -0.412 C  
BRANCH   5   6
HETATM    6  O   UNL     1     -11.091   7.154  68.452  1.00  0.00    -0.072 OA 
BRANCH   6   7
HETATM    7  C   UNL     1      -9.919   7.961  68.242  1.00  0.00    -0.180 C  
BRANCH   7   8
HETATM    8  C   UNL     1      -8.901   7.259  67.357  1.00  0.00    -0.119 A  
HETATM    9  C   UNL     1      -9.340   6.430  66.311  1.00  0.00    -0.149 A  
HETATM   10  C   UNL     1      -8.428   5.854  65.426  1.00  0.00    -0.153 A  
HETATM   11  C   UNL     1      -7.524   7.483  67.505  1.00  0.00    -0.104 A  
HETATM   12  C   UNL     1      -7.064   6.090  65.581  1.00  0.00    -0.073 A  
HETATM   13  C   UNL     1      -6.611   6.900  66.621  1.00  0.00    -0.048 A  
ENDBRANCH   7   8
BRANCH   7  14
HETATM   14  C   UNL     1     -10.332   9.340  67.745  1.00  0.00    -0.292 A  
HETATM   15  C   UNL     1     -11.376  11.495  68.199  1.00  0.00    -0.367 A  
HETATM   16  C   UNL     1     -10.629  10.973  65.965  1.00  0.00    -0.275 A  
HETATM   17  C   UNL     1     -10.922  10.251  68.640  1.00  0.00    -0.289 A  
HETATM   18  C   UNL     1     -10.180   9.725  66.404  1.00  0.00    -0.288 A  
HETATM   19  C   UNL     1     -11.234  11.853  66.861  1.00  0.00    -0.382 A  
ENDBRANCH   7  14
ENDBRANCH   6   7
ENDBRANCH   5   6
ENDBRANCH   4   5
ENDBRANCH   2   4
TORSDOF 6
ENDMDL
MODEL      167
REMARK 921   NORMALIZED FREE ENERGY PREDICTED BY IDOCK:   -3.26 KCAL/MOL
REMARK 922        TOTAL FREE ENERGY PREDICTED BY IDOCK:   -5.30 KCAL/MOL
REMARK 923 INTER-LIGAND FREE ENERGY PREDICTED BY IDOCK:   -4.42 KCAL/MOL
REMARK 924 INTRA-LIGAND FREE ENERGY PREDICTED BY IDOCK:   -0.88 KCAL/MOL
REMARK 927      BINDING AFFINITY PREDICTED BY RF-SCORE:    0.00 PKD
ROOT
HETATM    1  C   UNL     1      -7.562   9.503  66.196  1.00  0.00    -0.100 C  
HETATM    2  N   UNL     1      -8.498  10.280  65.376  1.00  0.00    -0.155 NA 
HETATM    3  C   UNL     1      -8.176  10.118  63.959  1.00  0.00    -0.164 C  
ENDROOT
BRANCH   2   4
HETATM    4  C   UNL     1      -9.880   9.870  65.682  1.00  0.00    -0.298 C  
BRANCH   4   5
HETATM    5  C   UNL     1     -10.204   9.696  67.178  1.00  0.00    -0.243 C  
BRANCH   5   6
HETATM    6  O   UNL     1     -10.726   8.402  67.505  1.00  0.00    -0.240 OA 
BRANCH   6   7
HETATM    7  C   UNL     1     -10.033   7.695  68.548  1.00  0.00    -0.180 C  
BRANCH   7   8
HETATM    8  C   UNL     1     -10.708   7.874  69.898  1.00  0.00    -0.244 A  
HETATM    9  C   UNL     1     -11.834   7.099  70.224  1.00  0.00    -0.178 A  
HETATM   10  C   UNL     1     -12.412   7.176  71.492  1.00  0.00    -0.418 A  
HETATM   11  C   UNL     1     -10.185   8.741  70.870  1.00  0.00    -0.284 A  
HETATM   12  C   UNL     1     -11.878   8.036  72.448  1.00  0.00    -0.429 A  
HETATM   13  C   UNL     1     -10.769   8.821  72.138  1.00  0.00    -0.383 A  
ENDBRANCH   7   8
BRANCH   7  14
HETATM   14  C   UNL     1      -9.840   6.241  68.136  1.00  0.00    -0.133 A  
HETATM   15  C   UNL     1      -8.751   4.094  68.512  1.00  0.00    -0.124 A  
HETATM   16  C   UNL     1     -10.193   4.387  66.600  1.00  0.00    -0.127 A  
HETATM   17  C   UNL     1      -9.004   5.409  68.903  1.00  0.00    -0.130 A  
HETATM   18  C   UNL     1     -10.442   5.706  66.986  1.00  0.00    -0.344 A  
HETATM   19  C   UNL     1      -9.341   3.585  67.358  1.00  0.00    -0.246 A  
ENDBRANCH   7  14
ENDBRANCH   6   7
ENDBRANCH   5   6
ENDBRANCH   4   5
ENDBRANCH   2   4
TORSDOF 6
ENDMDL
MODEL      168
REMARK 921   NORMALIZED FREE ENERGY PREDICTED BY IDOCK:   -3.26 KCAL/MOL
REMARK 922        TOTAL FREE ENERGY PREDICTED BY IDOCK:   -5.30 KCAL/MOL
REMARK 923 INTER-LIGAND FREE ENERGY PREDICTED BY IDOCK:   -5.70 KCAL/MOL
REMARK 924 INTRA-LIGAND FREE ENERGY PREDICTED BY IDOCK:    0.40 KCAL/MOL
REMARK 927      BINDING AFFINITY PREDICTED BY RF-SCORE:    0.00 PKD
ROOT
HETATM    1  C   UNL     1      -5.697  13.088  67.477  1.00  0.00    -0.077 C  
HETATM    2  N   UNL     1      -6.942  13.462  68.155  1.00  0.00    -0.100 NA 
HETATM    3  C   UNL     1      -7.666  14.454  67.362  1.00  0.00    -0.185 C  
ENDROOT
BRANCH   2   4
HETATM    4  C   UNL     1      -7.748  12.256  68.408  1.00  0.00    -0.141 C  
BRANCH   4   5
HETATM    5  C   UNL     1      -8.564  11.740  67.207  1.00  0.00    -0.162 C  
BRANCH   5   6
HETATM    6  O   UNL     1      -9.436  10.651  67.532  1.00  0.00    -0.152 OA 
BRANCH   6   7
HETATM    7  C   UNL     1     -10.838  10.889  67.319  1.00  0.00    -0.287 C  
BRANCH   7   8
HETATM    8  C   UNL     1     -11.432  11.774  68.404  1.00  0.00    -0.354 A  
HETATM    9  C   UNL     1     -12.028  11.188  69.534  1.00  0.00    -0.425 A  
HETATM   10  C   UNL     1     -12.493  11.978  70.586  1.00  0.00    -0.335 A  
HETATM   11  C   UNL     1     -11.328  13.172  68.348  1.00  0.00    -0.324 A  
HETATM   12  C   UNL     1     -12.376  13.365  70.519  1.00  0.00    -0.401 A  
HETATM   13  C   UNL     1     -11.799  13.962  69.400  1.00  0.00    -0.384 A  
ENDBRANCH   7   8
BRANCH   7  14
HETATM   14  C   UNL     1     -11.059  11.406  65.903  1.00  0.00    -0.225 A  
HETATM   15  C   UNL     1     -10.347  11.474  63.574  1.00  0.00    -0.484 A  
HETATM   16  C   UNL     1     -12.191  12.848  64.303  1.00  0.00    -0.481 A  
HETATM   17  C   UNL     1     -10.215  10.966  64.867  1.00  0.00    -0.381 A  
HETATM   18  C   UNL     1     -12.057  12.344  65.599  1.00  0.00    -0.396 A  
HETATM   19  C   UNL     1     -11.331  12.419  63.294  1.00  0.00    -0.399 A  
ENDBRANCH   7  14
ENDBRANCH   6   7
ENDBRANCH   5   6
ENDBRANCH   4   5
ENDBRANCH   2   4
TORSDOF 6
ENDMDL
MODEL      169
REMARK 921   NORMALIZED FREE ENERGY PREDICTED BY IDOCK:   -3.25 KCAL/MOL
REMARK 922        TOTAL FREE ENERGY PREDICTED BY IDOCK:   -5.29 KCAL/MOL
REMARK 923 INTER-LIGAND FREE ENERGY PREDICTED BY IDOCK:   -4.69 KCAL/MOL
REMARK 924 INTRA-LIGAND FREE ENERGY PREDICTED BY IDOCK:   -0.60 KCAL/MOL
REMARK 927      BINDING AFFINITY PREDICTED BY RF-SCORE:    0.00 PKD
ROOT
HETATM    1  C   UNL     1      -8.734   6.156  65.751  1.00  0.00    -0.145 C  
HETATM    2  N   UNL     1      -9.564   7.001  66.616  1.00  0.00    -0.174 NA 
HETATM    3  C   UNL     1     -10.788   6.291  66.984  1.00  0.00    -0.383 C  
ENDROOT
BRANCH   2   4
HETATM    4  C   UNL     1      -8.785   7.414  67.796  1.00  0.00    -0.126 C  
BRANCH   4   5
HETATM    5  C   UNL     1      -9.108   6.661  69.101  1.00  0.00    -0.137 C  
BRANCH   5   6
HETATM    6  O   UNL     1      -9.900   7.421  70.021  1.00  0.00    -0.178 OA 
BRANCH   6   7
HETATM    7  C   UNL     1     -10.642   6.656  70.987  1.00  0.00    -0.226 C  
BRANCH   7   8
HETATM    8  C   UNL     1      -9.782   6.259  72.176  1.00  0.00    -0.164 A  
HETATM    9  C   UNL     1     -10.233   5.268  73.064  1.00  0.00    -0.213 A  
HETATM   10  C   UNL     1      -9.421   4.819  74.105  1.00  0.00    -0.131 A  
HETATM   11  C   UNL     1      -8.502   6.800  72.368  1.00  0.00    -0.121 A  
HETATM   12  C   UNL     1      -8.150   5.360  74.279  1.00  0.00    -0.105 A  
HETATM   13  C   UNL     1      -7.691   6.353  73.415  1.00  0.00    -0.093 A  
ENDBRANCH   7   8
BRANCH   7  14
HETATM   14  C   UNL     1     -11.915   7.405  71.361  1.00  0.00    -0.340 A  
HETATM   15  C   UNL     1     -12.964   9.356  72.376  1.00  0.00    -0.427 A  
HETATM   16  C   UNL     1     -14.335   7.536  71.581  1.00  0.00    -0.621 A  
HETATM   17  C   UNL     1     -11.820   8.676  71.958  1.00  0.00    -0.443 A  
HETATM   18  C   UNL     1     -13.190   6.852  71.167  1.00  0.00    -0.157 A  
HETATM   19  C   UNL     1     -14.221   8.784  72.193  1.00  0.00    -0.504 A  
ENDBRANCH   7  14
ENDBRANCH   6   7
ENDBRANCH   5   6
ENDBRANCH   4   5
ENDBRANCH   2   4
TORSDOF 6
ENDMDL
MODEL      170
REMARK 921   NORMALIZED FREE ENERGY PREDICTED BY IDOCK:   -3.23 KCAL/MOL
REMARK 922        TOTAL FREE ENERGY PREDICTED BY IDOCK:   -5.27 KCAL/MOL
REMARK 923 INTER-LIGAND FREE ENERGY PREDICTED BY IDOCK:   -5.15 KCAL/MOL
REMARK 924 INTRA-LIGAND FREE ENERGY PREDICTED BY IDOCK:   -0.12 KCAL/MOL
REMARK 927      BINDING AFFINITY PREDICTED BY RF-SCORE:    0.00 PKD
ROOT
HETATM    1  C   UNL     1     -10.493  11.499  63.476  1.00  0.00    -0.428 C  
HETATM    2  N   UNL     1      -9.809  10.252  63.832  1.00  0.00    -0.270 NA 
HETATM    3  C   UNL     1      -8.392  10.341  63.484  1.00  0.00    -0.169 C  
ENDROOT
BRANCH   2   4
HETATM    4  C   UNL     1     -10.014   9.967  65.263  1.00  0.00    -0.298 C  
BRANCH   4   5
HETATM    5  C   UNL     1     -10.267  11.198  66.154  1.00  0.00    -0.244 C  
BRANCH   5   6
HETATM    6  O   UNL     1      -9.068  11.856  66.578  1.00  0.00    -0.204 OA 
BRANCH   6   7
HETATM    7  C   UNL     1      -9.125  12.488  67.869  1.00  0.00    -0.199 C  
BRANCH   7   8
HETATM    8  C   UNL     1      -9.521  13.952  67.765  1.00  0.00    -0.214 A  
HETATM    9  C   UNL     1     -10.152  14.424  66.602  1.00  0.00    -0.276 A  
HETATM   10  C   UNL     1     -10.610  15.739  66.521  1.00  0.00    -0.306 A  
HETATM   11  C   UNL     1      -9.347  14.837  68.841  1.00  0.00    -0.184 A  
HETATM   12  C   UNL     1     -10.436  16.604  67.599  1.00  0.00    -0.320 A  
HETATM   13  C   UNL     1      -9.802  16.156  68.756  1.00  0.00    -0.230 A  
ENDBRANCH   7   8
BRANCH   7  14
HETATM   14  C   UNL     1     -10.011  11.667  68.798  1.00  0.00    -0.147 A  
HETATM   15  C   UNL     1     -10.374   9.614  70.059  1.00  0.00    -0.298 A  
HETATM   16  C   UNL     1     -12.106  11.291  69.978  1.00  0.00    -0.425 A  
HETATM   17  C   UNL     1      -9.557  10.420  69.265  1.00  0.00    -0.226 A  
HETATM   18  C   UNL     1     -11.292  12.097  69.178  1.00  0.00    -0.333 A  
HETATM   19  C   UNL     1     -11.650  10.048  70.411  1.00  0.00    -0.379 A  
ENDBRANCH   7  14
ENDBRANCH   6   7
ENDBRANCH   5   6
ENDBRANCH   4   5
ENDBRANCH   2   4
TORSDOF 6
ENDMDL
MODEL      171
REMARK 921   NORMALIZED FREE ENERGY PREDICTED BY IDOCK:   -3.22 KCAL/MOL
REMARK 922        TOTAL FREE ENERGY PREDICTED BY IDOCK:   -5.25 KCAL/MOL
REMARK 923 INTER-LIGAND FREE ENERGY PREDICTED BY IDOCK:   -4.48 KCAL/MOL
REMARK 924 INTRA-LIGAND FREE ENERGY PREDICTED BY IDOCK:   -0.77 KCAL/MOL
REMARK 927      BINDING AFFINITY PREDICTED BY RF-SCORE:    0.00 PKD
ROOT
HETATM    1  C   UNL     1     -13.370  10.852  71.852  1.00  0.00    -0.324 C  
HETATM    2  N   UNL     1     -13.095   9.458  72.215  1.00  0.00    -0.428 NA 
HETATM    3  C   UNL     1     -14.156   8.589  71.709  1.00  0.00    -0.444 C  
ENDROOT
BRANCH   2   4
HETATM    4  C   UNL     1     -11.768   9.068  71.708  1.00  0.00    -0.369 C  
BRANCH   4   5
HETATM    5  C   UNL     1     -11.123  10.053  70.714  1.00  0.00    -0.334 C  
BRANCH   5   6
HETATM    6  O   UNL     1      -9.895   9.576  70.150  1.00  0.00    -0.212 OA 
BRANCH   6   7
HETATM    7  C   UNL     1      -9.877   9.442  68.718  1.00  0.00    -0.163 C  
BRANCH   7   8
HETATM    8  C   UNL     1      -8.676  10.141  68.100  1.00  0.00    -0.122 A  
HETATM    9  C   UNL     1      -7.554   9.389  67.714  1.00  0.00    -0.088 A  
HETATM   10  C   UNL     1      -6.481   9.993  67.057  1.00  0.00    -0.069 A  
HETATM   11  C   UNL     1      -8.690  11.517  67.826  1.00  0.00    -0.142 A  
HETATM   12  C   UNL     1      -6.512  11.359  66.786  1.00  0.00    -0.140 A  
HETATM   13  C   UNL     1      -7.612  12.122  67.173  1.00  0.00    -0.132 A  
ENDBRANCH   7   8
BRANCH   7  14
HETATM   14  C   UNL     1     -10.003   7.971  68.342  1.00  0.00    -0.204 A  
HETATM   15  C   UNL     1     -10.804   6.278  66.783  1.00  0.00    -0.367 A  
HETATM   16  C   UNL     1      -9.755   5.604  68.849  1.00  0.00    -0.181 A  
HETATM   17  C   UNL     1     -10.611   7.618  67.124  1.00  0.00    -0.410 A  
HETATM   18  C   UNL     1      -9.566   6.944  69.193  1.00  0.00    -0.144 A  
HETATM   19  C   UNL     1     -10.382   5.272  67.648  1.00  0.00    -0.208 A  
ENDBRANCH   7  14
ENDBRANCH   6   7
ENDBRANCH   5   6
ENDBRANCH   4   5
ENDBRANCH   2   4
TORSDOF 6
ENDMDL
MODEL      172
REMARK 921   NORMALIZED FREE ENERGY PREDICTED BY IDOCK:   -3.22 KCAL/MOL
REMARK 922        TOTAL FREE ENERGY PREDICTED BY IDOCK:   -5.25 KCAL/MOL
REMARK 923 INTER-LIGAND FREE ENERGY PREDICTED BY IDOCK:   -4.79 KCAL/MOL
REMARK 924 INTRA-LIGAND FREE ENERGY PREDICTED BY IDOCK:   -0.46 KCAL/MOL
REMARK 927      BINDING AFFINITY PREDICTED BY RF-SCORE:    0.00 PKD
ROOT
HETATM    1  C   UNL     1      -5.675  12.827  67.490  1.00  0.00    -0.116 C  
HETATM    2  N   UNL     1      -6.834  12.802  68.388  1.00  0.00    -0.083 NA 
HETATM    3  C   UNL     1      -8.062  13.019  67.626  1.00  0.00    -0.172 C  
ENDROOT
BRANCH   2   4
HETATM    4  C   UNL     1      -6.857  11.529  69.129  1.00  0.00    -0.112 C  
BRANCH   4   5
HETATM    5  C   UNL     1      -7.960  10.537  68.710  1.00  0.00    -0.127 C  
BRANCH   5   6
HETATM    6  O   UNL     1      -8.686   9.987  69.815  1.00  0.00    -0.196 OA 
BRANCH   6   7
HETATM    7  C   UNL     1      -9.954   9.390  69.493  1.00  0.00    -0.191 C  
BRANCH   7   8
HETATM    8  C   UNL     1      -9.969   7.899  69.792  1.00  0.00    -0.186 A  
HETATM    9  C   UNL     1     -11.085   7.126  69.429  1.00  0.00    -0.141 A  
HETATM   10  C   UNL     1     -11.083   5.742  69.605  1.00  0.00    -0.306 A  
HETATM   11  C   UNL     1      -8.856   7.251  70.350  1.00  0.00    -0.150 A  
HETATM   12  C   UNL     1      -9.968   5.112  70.154  1.00  0.00    -0.324 A  
HETATM   13  C   UNL     1      -8.857   5.865  70.530  1.00  0.00    -0.147 A  
ENDBRANCH   7   8
BRANCH   7  14
HETATM   14  C   UNL     1     -11.072  10.172  70.170  1.00  0.00    -0.378 A  
HETATM   15  C   UNL     1     -12.256  12.280  70.471  1.00  0.00    -0.387 A  
HETATM   16  C   UNL     1     -12.853  10.369  71.816  1.00  0.00    -0.561 A  
HETATM   17  C   UNL     1     -11.286  11.517  69.819  1.00  0.00    -0.303 A  
HETATM   18  C   UNL     1     -11.879   9.606  71.169  1.00  0.00    -0.448 A  
HETATM   19  C   UNL     1     -13.035  11.708  71.473  1.00  0.00    -0.463 A  
ENDBRANCH   7  14
ENDBRANCH   6   7
ENDBRANCH   5   6
ENDBRANCH   4   5
ENDBRANCH   2   4
TORSDOF 6
ENDMDL
MODEL      173
REMARK 921   NORMALIZED FREE ENERGY PREDICTED BY IDOCK:   -3.18 KCAL/MOL
REMARK 922        TOTAL FREE ENERGY PREDICTED BY IDOCK:   -5.20 KCAL/MOL
REMARK 923 INTER-LIGAND FREE ENERGY PREDICTED BY IDOCK:   -4.46 KCAL/MOL
REMARK 924 INTRA-LIGAND FREE ENERGY PREDICTED BY IDOCK:   -0.74 KCAL/MOL
REMARK 927      BINDING AFFINITY PREDICTED BY RF-SCORE:    0.00 PKD
ROOT
HETATM    1  C   UNL     1      -6.350  11.218  68.795  1.00  0.00    -0.051 C  
HETATM    2  N   UNL     1      -7.570  10.438  68.562  1.00  0.00    -0.091 NA 
HETATM    3  C   UNL     1      -7.554   9.877  67.212  1.00  0.00    -0.088 C  
ENDROOT
BRANCH   2   4
HETATM    4  C   UNL     1      -7.695   9.397  69.596  1.00  0.00    -0.098 C  
BRANCH   4   5
HETATM    5  C   UNL     1      -9.059   8.681  69.655  1.00  0.00    -0.149 C  
BRANCH   5   6
HETATM    6  O   UNL     1      -9.499   8.396  70.989  1.00  0.00    -0.154 OA 
BRANCH   6   7
HETATM    7  C   UNL     1     -10.374   7.264  71.128  1.00  0.00    -0.198 C  
BRANCH   7   8
HETATM    8  C   UNL     1      -9.842   6.258  72.137  1.00  0.00    -0.171 A  
HETATM    9  C   UNL     1      -9.720   4.906  71.776  1.00  0.00    -0.223 A  
HETATM   10  C   UNL     1      -9.145   3.983  72.650  1.00  0.00    -0.131 A  
HETATM   11  C   UNL     1      -9.389   6.660  73.402  1.00  0.00    -0.155 A  
HETATM   12  C   UNL     1      -8.693   4.397  73.901  1.00  0.00    -0.104 A  
HETATM   13  C   UNL     1      -8.818   5.733  74.279  1.00  0.00    -0.122 A  
ENDBRANCH   7   8
BRANCH   7  14
HETATM   14  C   UNL     1     -11.790   7.746  71.416  1.00  0.00    -0.324 A  
HETATM   15  C   UNL     1     -13.283   9.559  72.066  1.00  0.00    -0.539 A  
HETATM   16  C   UNL     1     -14.164   7.335  71.754  1.00  0.00    -0.526 A  
HETATM   17  C   UNL     1     -12.009   9.101  71.728  1.00  0.00    -0.449 A  
HETATM   18  C   UNL     1     -12.889   6.874  71.421  1.00  0.00    -0.365 A  
HETATM   19  C   UNL     1     -14.359   8.675  72.084  1.00  0.00    -0.518 A  
ENDBRANCH   7  14
ENDBRANCH   6   7
ENDBRANCH   5   6
ENDBRANCH   4   5
ENDBRANCH   2   4
TORSDOF 6
ENDMDL
MODEL      174
REMARK 921   NORMALIZED FREE ENERGY PREDICTED BY IDOCK:   -3.18 KCAL/MOL
REMARK 922        TOTAL FREE ENERGY PREDICTED BY IDOCK:   -5.20 KCAL/MOL
REMARK 923 INTER-LIGAND FREE ENERGY PREDICTED BY IDOCK:   -4.38 KCAL/MOL
REMARK 924 INTRA-LIGAND FREE ENERGY PREDICTED BY IDOCK:   -0.82 KCAL/MOL
REMARK 927      BINDING AFFINITY PREDICTED BY RF-SCORE:    0.00 PKD
ROOT
HETATM    1  C   UNL     1     -10.336  11.833  63.442  1.00  0.00    -0.439 C  
HETATM    2  N   UNL     1     -11.088  12.406  64.563  1.00  0.00    -0.300 NA 
HETATM    3  C   UNL     1     -12.523  12.239  64.341  1.00  0.00    -0.392 C  
ENDROOT
BRANCH   2   4
HETATM    4  C   UNL     1     -10.645  11.784  65.823  1.00  0.00    -0.268 C  
BRANCH   4   5
HETATM    5  C   UNL     1     -10.035  10.376  65.689  1.00  0.00    -0.272 C  
BRANCH   5   6
HETATM    6  O   UNL     1      -9.703   9.773  66.946  1.00  0.00    -0.174 OA 
BRANCH   6   7
HETATM    7  C   UNL     1      -9.781   8.337  66.989  1.00  0.00    -0.211 C  
BRANCH   7   8
HETATM    8  C   UNL     1      -8.439   7.689  66.688  1.00  0.00    -0.130 A  
HETATM    9  C   UNL     1      -8.312   6.832  65.582  1.00  0.00    -0.147 A  
HETATM   10  C   UNL     1      -7.070   6.302  65.229  1.00  0.00    -0.064 A  
HETATM   11  C   UNL     1      -7.294   7.989  67.441  1.00  0.00    -0.089 A  
HETATM   12  C   UNL     1      -5.941   6.614  65.983  1.00  0.00    -0.030 A  
HETATM   13  C   UNL     1      -6.052   7.452  67.090  1.00  0.00    -0.046 A  
ENDBRANCH   7   8
BRANCH   7  14
HETATM   14  C   UNL     1     -10.402   7.900  68.310  1.00  0.00    -0.239 A  
HETATM   15  C   UNL     1     -10.885   8.386  70.649  1.00  0.00    -0.256 A  
HETATM   16  C   UNL     1     -11.459   6.230  69.729  1.00  0.00    -0.449 A  
HETATM   17  C   UNL     1     -10.388   8.782  69.406  1.00  0.00    -0.217 A  
HETATM   18  C   UNL     1     -10.957   6.624  68.487  1.00  0.00    -0.314 A  
HETATM   19  C   UNL     1     -11.415   7.108  70.811  1.00  0.00    -0.342 A  
ENDBRANCH   7  14
ENDBRANCH   6   7
ENDBRANCH   5   6
ENDBRANCH   4   5
ENDBRANCH   2   4
TORSDOF 6
ENDMDL
MODEL      175
REMARK 921   NORMALIZED FREE ENERGY PREDICTED BY IDOCK:   -3.16 KCAL/MOL
REMARK 922        TOTAL FREE ENERGY PREDICTED BY IDOCK:   -5.17 KCAL/MOL
REMARK 923 INTER-LIGAND FREE ENERGY PREDICTED BY IDOCK:   -4.41 KCAL/MOL
REMARK 924 INTRA-LIGAND FREE ENERGY PREDICTED BY IDOCK:   -0.76 KCAL/MOL
REMARK 927      BINDING AFFINITY PREDICTED BY RF-SCORE:    0.00 PKD
ROOT
HETATM    1  C   UNL     1     -13.281  10.405  71.564  1.00  0.00    -0.386 C  
HETATM    2  N   UNL     1     -13.076   9.186  72.353  1.00  0.00    -0.429 NA 
HETATM    3  C   UNL     1     -14.279   8.356  72.314  1.00  0.00    -0.353 C  
ENDROOT
BRANCH   2   4
HETATM    4  C   UNL     1     -11.890   8.469  71.853  1.00  0.00    -0.341 C  
BRANCH   4   5
HETATM    5  C   UNL     1     -11.320   8.981  70.516  1.00  0.00    -0.243 C  
BRANCH   5   6
HETATM    6  O   UNL     1     -10.070   8.379  70.157  1.00  0.00    -0.186 OA 
BRANCH   6   7
HETATM    7  C   UNL     1     -10.114   7.464  69.049  1.00  0.00    -0.193 C  
BRANCH   7   8
HETATM    8  C   UNL     1      -9.251   7.937  67.890  1.00  0.00    -0.139 A  
HETATM    9  C   UNL     1      -7.864   8.081  68.067  1.00  0.00    -0.126 A  
HETATM   10  C   UNL     1      -7.039   8.420  66.994  1.00  0.00    -0.079 A  
HETATM   11  C   UNL     1      -9.792   8.158  66.615  1.00  0.00    -0.331 A  
HETATM   12  C   UNL     1      -7.590   8.629  65.732  1.00  0.00    -0.089 A  
HETATM   13  C   UNL     1      -8.965   8.503  65.542  1.00  0.00    -0.182 A  
ENDBRANCH   7   8
BRANCH   7  14
HETATM   14  C   UNL     1      -9.788   6.058  69.535  1.00  0.00    -0.202 A  
HETATM   15  C   UNL     1      -9.312   3.727  69.007  1.00  0.00    -0.240 A  
HETATM   16  C   UNL     1      -9.522   4.415  71.310  1.00  0.00    -0.224 A  
HETATM   17  C   UNL     1      -9.544   5.040  68.595  1.00  0.00    -0.204 A  
HETATM   18  C   UNL     1      -9.760   5.728  70.899  1.00  0.00    -0.218 A  
HETATM   19  C   UNL     1      -9.307   3.414  70.365  1.00  0.00    -0.240 A  
ENDBRANCH   7  14
ENDBRANCH   6   7
ENDBRANCH   5   6
ENDBRANCH   4   5
ENDBRANCH   2   4
TORSDOF 6
ENDMDL
MODEL      176
REMARK 921   NORMALIZED FREE ENERGY PREDICTED BY IDOCK:   -3.15 KCAL/MOL
REMARK 922        TOTAL FREE ENERGY PREDICTED BY IDOCK:   -5.15 KCAL/MOL
REMARK 923 INTER-LIGAND FREE ENERGY PREDICTED BY IDOCK:   -4.48 KCAL/MOL
REMARK 924 INTRA-LIGAND FREE ENERGY PREDICTED BY IDOCK:   -0.67 KCAL/MOL
REMARK 927      BINDING AFFINITY PREDICTED BY RF-SCORE:    0.00 PKD
ROOT
HETATM    1  C   UNL     1      -5.285  13.816  67.985  1.00  0.00    -0.105 C  
HETATM    2  N   UNL     1      -6.541  13.190  68.410  1.00  0.00    -0.082 NA 
HETATM    3  C   UNL     1      -7.625  13.584  67.512  1.00  0.00    -0.167 C  
ENDROOT
BRANCH   2   4
HETATM    4  C   UNL     1      -6.370  11.728  68.467  1.00  0.00    -0.053 C  
BRANCH   4   5
HETATM    5  C   UNL     1      -7.214  10.922  67.461  1.00  0.00    -0.095 C  
BRANCH   5   6
HETATM    6  O   UNL     1      -7.850   9.774  68.037  1.00  0.00    -0.086 OA 
BRANCH   6   7
HETATM    7  C   UNL     1      -8.925   9.207  67.269  1.00  0.00    -0.123 C  
BRANCH   7   8
HETATM    8  C   UNL     1      -9.650   8.110  68.035  1.00  0.00    -0.174 A  
HETATM    9  C   UNL     1      -9.626   8.108  69.440  1.00  0.00    -0.167 A  
HETATM   10  C   UNL     1     -10.362   7.170  70.164  1.00  0.00    -0.218 A  
HETATM   11  C   UNL     1     -10.416   7.139  67.374  1.00  0.00    -0.354 A  
HETATM   12  C   UNL     1     -11.124   6.215  69.495  1.00  0.00    -0.490 A  
HETATM   13  C   UNL     1     -11.148   6.196  68.102  1.00  0.00    -0.328 A  
ENDBRANCH   7   8
BRANCH   7  14
HETATM   14  C   UNL     1      -9.835  10.320  66.765  1.00  0.00    -0.246 A  
HETATM   15  C   UNL     1     -11.482  12.049  67.253  1.00  0.00    -0.403 A  
HETATM   16  C   UNL     1     -10.874  11.585  64.965  1.00  0.00    -0.336 A  
HETATM   17  C   UNL     1     -10.587  11.070  67.688  1.00  0.00    -0.255 A  
HETATM   18  C   UNL     1      -9.982  10.601  65.399  1.00  0.00    -0.343 A  
HETATM   19  C   UNL     1     -11.629  12.302  65.892  1.00  0.00    -0.450 A  
ENDBRANCH   7  14
ENDBRANCH   6   7
ENDBRANCH   5   6
ENDBRANCH   4   5
ENDBRANCH   2   4
TORSDOF 6
ENDMDL
MODEL      177
REMARK 921   NORMALIZED FREE ENERGY PREDICTED BY IDOCK:   -3.14 KCAL/MOL
REMARK 922        TOTAL FREE ENERGY PREDICTED BY IDOCK:   -5.14 KCAL/MOL
REMARK 923 INTER-LIGAND FREE ENERGY PREDICTED BY IDOCK:   -5.04 KCAL/MOL
REMARK 924 INTRA-LIGAND FREE ENERGY PREDICTED BY IDOCK:   -0.10 KCAL/MOL
REMARK 927      BINDING AFFINITY PREDICTED BY RF-SCORE:    0.00 PKD
ROOT
HETATM    1  C   UNL     1      -6.459   8.221  74.070  1.00  0.00    -0.125 C  
HETATM    2  N   UNL     1      -6.512   8.900  72.771  1.00  0.00    -0.295 NA 
HETATM    3  C   UNL     1      -5.162   9.255  72.336  1.00  0.00    -0.076 C  
ENDROOT
BRANCH   2   4
HETATM    4  C   UNL     1      -7.202   8.042  71.793  1.00  0.00    -0.077 C  
BRANCH   4   5
HETATM    5  C   UNL     1      -8.269   8.744  70.930  1.00  0.00    -0.161 C  
BRANCH   5   6
HETATM    6  O   UNL     1      -9.433   9.140  71.666  1.00  0.00    -0.282 OA 
BRANCH   6   7
HETATM    7  C   UNL     1     -10.480   9.752  70.895  1.00  0.00    -0.228 C  
BRANCH   7   8
HETATM    8  C   UNL     1     -10.181   9.716  69.405  1.00  0.00    -0.220 A  
HETATM    9  C   UNL     1     -10.556   8.595  68.645  1.00  0.00    -0.165 A  
HETATM   10  C   UNL     1     -10.379   8.578  67.261  1.00  0.00    -0.372 A  
HETATM   11  C   UNL     1      -9.609  10.814  68.744  1.00  0.00    -0.194 A  
HETATM   12  C   UNL     1      -9.816   9.678  66.619  1.00  0.00    -0.285 A  
HETATM   13  C   UNL     1      -9.427  10.794  67.359  1.00  0.00    -0.171 A  
ENDBRANCH   7   8
BRANCH   7  14
HETATM   14  C   UNL     1     -11.821   9.137  71.276  1.00  0.00    -0.396 A  
HETATM   15  C   UNL     1     -13.158   7.141  71.685  1.00  0.00    -0.410 A  
HETATM   16  C   UNL     1     -14.200   9.316  71.751  1.00  0.00    -0.179 A  
HETATM   17  C   UNL     1     -11.929   7.740  71.406  1.00  0.00    -0.331 A  
HETATM   18  C   UNL     1     -12.972   9.917  71.466  1.00  0.00    -0.523 A  
HETATM   19  C   UNL     1     -14.294   7.929  71.852  1.00  0.00    -0.549 A  
ENDBRANCH   7  14
ENDBRANCH   6   7
ENDBRANCH   5   6
ENDBRANCH   4   5
ENDBRANCH   2   4
TORSDOF 6
ENDMDL
MODEL      178
REMARK 921   NORMALIZED FREE ENERGY PREDICTED BY IDOCK:   -3.14 KCAL/MOL
REMARK 922        TOTAL FREE ENERGY PREDICTED BY IDOCK:   -5.14 KCAL/MOL
REMARK 923 INTER-LIGAND FREE ENERGY PREDICTED BY IDOCK:   -4.52 KCAL/MOL
REMARK 924 INTRA-LIGAND FREE ENERGY PREDICTED BY IDOCK:   -0.62 KCAL/MOL
REMARK 927      BINDING AFFINITY PREDICTED BY RF-SCORE:    0.00 PKD
ROOT
HETATM    1  C   UNL     1      -6.526   6.531  71.991  1.00  0.00    -0.054 C  
HETATM    2  N   UNL     1      -6.724   6.969  70.606  1.00  0.00    -0.052 NA 
HETATM    3  C   UNL     1      -5.597   6.542  69.780  1.00  0.00    -0.014 C  
ENDROOT
BRANCH   2   4
HETATM    4  C   UNL     1      -8.009   6.452  70.104  1.00  0.00    -0.112 C  
BRANCH   4   5
HETATM    5  C   UNL     1      -8.774   7.390  69.149  1.00  0.00    -0.136 C  
BRANCH   5   6
HETATM    6  O   UNL     1      -9.259   8.580  69.781  1.00  0.00    -0.154 OA 
BRANCH   6   7
HETATM    7  C   UNL     1     -10.499   9.097  69.269  1.00  0.00    -0.221 C  
BRANCH   7   8
HETATM    8  C   UNL     1     -11.535   9.275  70.368  1.00  0.00    -0.255 A  
HETATM    9  C   UNL     1     -11.936  10.568  70.745  1.00  0.00    -0.472 A  
HETATM   10  C   UNL     1     -12.954  10.755  71.681  1.00  0.00    -0.581 A  
HETATM   11  C   UNL     1     -12.167   8.174  70.965  1.00  0.00    -0.191 A  
HETATM   12  C   UNL     1     -13.577   9.652  72.261  1.00  0.00    -0.449 A  
HETATM   13  C   UNL     1     -13.182   8.363  71.907  1.00  0.00    -0.381 A  
ENDBRANCH   7   8
BRANCH   7  14
HETATM   14  C   UNL     1     -10.229  10.358  68.457  1.00  0.00    -0.191 A  
HETATM   15  C   UNL     1     -10.958  11.932  66.746  1.00  0.00    -0.337 A  
HETATM   16  C   UNL     1      -8.774  12.173  67.743  1.00  0.00    -0.171 A  
HETATM   17  C   UNL     1     -11.204  10.822  67.554  1.00  0.00    -0.346 A  
HETATM   18  C   UNL     1      -9.017  11.059  68.549  1.00  0.00    -0.163 A  
HETATM   19  C   UNL     1      -9.741  12.604  66.836  1.00  0.00    -0.234 A  
ENDBRANCH   7  14
ENDBRANCH   6   7
ENDBRANCH   5   6
ENDBRANCH   4   5
ENDBRANCH   2   4
TORSDOF 6
ENDMDL
MODEL      179
REMARK 921   NORMALIZED FREE ENERGY PREDICTED BY IDOCK:   -3.13 KCAL/MOL
REMARK 922        TOTAL FREE ENERGY PREDICTED BY IDOCK:   -5.13 KCAL/MOL
REMARK 923 INTER-LIGAND FREE ENERGY PREDICTED BY IDOCK:   -4.56 KCAL/MOL
REMARK 924 INTRA-LIGAND FREE ENERGY PREDICTED BY IDOCK:   -0.57 KCAL/MOL
REMARK 927      BINDING AFFINITY PREDICTED BY RF-SCORE:    0.00 PKD
ROOT
HETATM    1  C   UNL     1     -13.909   9.198  72.432  1.00  0.00    -0.457 C  
HETATM    2  N   UNL     1     -13.108   9.530  71.249  1.00  0.00    -0.344 NA 
HETATM    3  C   UNL     1     -12.717  10.939  71.289  1.00  0.00    -0.437 C  
ENDROOT
BRANCH   2   4
HETATM    4  C   UNL     1     -11.943   8.632  71.174  1.00  0.00    -0.279 C  
BRANCH   4   5
HETATM    5  C   UNL     1     -11.497   8.010  72.512  1.00  0.00    -0.409 C  
BRANCH   5   6
HETATM    6  O   UNL     1     -11.540   6.578  72.520  1.00  0.00    -0.265 OA 
BRANCH   6   7
HETATM    7  C   UNL     1     -10.381   5.916  71.983  1.00  0.00    -0.207 C  
BRANCH   7   8
HETATM    8  C   UNL     1      -9.090   6.577  72.439  1.00  0.00    -0.133 A  
HETATM    9  C   UNL     1      -8.342   7.347  71.533  1.00  0.00    -0.109 A  
HETATM   10  C   UNL     1      -7.207   8.041  71.952  1.00  0.00    -0.085 A  
HETATM   11  C   UNL     1      -8.662   6.506  73.774  1.00  0.00    -0.137 A  
HETATM   12  C   UNL     1      -6.798   7.967  73.282  1.00  0.00    -0.118 A  
HETATM   13  C   UNL     1      -7.521   7.198  74.191  1.00  0.00    -0.121 A  
ENDBRANCH   7   8
BRANCH   7  14
HETATM   14  C   UNL     1     -10.459   4.425  72.287  1.00  0.00    -0.192 A  
HETATM   15  C   UNL     1     -11.175   2.636  73.778  1.00  0.00    -0.284 A  
HETATM   16  C   UNL     1      -9.868   2.112  71.818  1.00  0.00    -0.218 A  
HETATM   17  C   UNL     1     -11.145   3.988  73.435  1.00  0.00    -0.341 A  
HETATM   18  C   UNL     1      -9.833   3.466  71.477  1.00  0.00    -0.212 A  
HETATM   19  C   UNL     1     -10.531   1.699  72.973  1.00  0.00    -0.212 A  
ENDBRANCH   7  14
ENDBRANCH   6   7
ENDBRANCH   5   6
ENDBRANCH   4   5
ENDBRANCH   2   4
TORSDOF 6
ENDMDL
MODEL      180
REMARK 921   NORMALIZED FREE ENERGY PREDICTED BY IDOCK:   -3.13 KCAL/MOL
REMARK 922        TOTAL FREE ENERGY PREDICTED BY IDOCK:   -5.13 KCAL/MOL
REMARK 923 INTER-LIGAND FREE ENERGY PREDICTED BY IDOCK:   -4.49 KCAL/MOL
REMARK 924 INTRA-LIGAND FREE ENERGY PREDICTED BY IDOCK:   -0.64 KCAL/MOL
REMARK 927      BINDING AFFINITY PREDICTED BY RF-SCORE:    0.00 PKD
ROOT
HETATM    1  C   UNL     1      -6.745  18.783  68.803  1.00  0.00    -0.270 C  
HETATM    2  N   UNL     1      -7.653  18.218  67.799  1.00  0.00    -0.224 NA 
HETATM    3  C   UNL     1      -6.888  17.712  66.661  1.00  0.00    -0.217 C  
ENDROOT
BRANCH   2   4
HETATM    4  C   UNL     1      -8.485  17.173  68.419  1.00  0.00    -0.241 C  
BRANCH   4   5
HETATM    5  C   UNL     1      -8.419  15.787  67.747  1.00  0.00    -0.155 C  
BRANCH   5   6
HETATM    6  O   UNL     1      -8.899  14.723  68.578  1.00  0.00    -0.165 OA 
BRANCH   6   7
HETATM    7  C   UNL     1     -10.036  14.002  68.073  1.00  0.00    -0.235 C  
BRANCH   7   8
HETATM    8  C   UNL     1      -9.681  12.567  67.716  1.00  0.00    -0.202 A  
HETATM    9  C   UNL     1     -10.572  11.799  66.947  1.00  0.00    -0.270 A  
HETATM   10  C   UNL     1     -10.227  10.514  66.527  1.00  0.00    -0.288 A  
HETATM   11  C   UNL     1      -8.443  12.008  68.067  1.00  0.00    -0.168 A  
HETATM   12  C   UNL     1      -8.991   9.975  66.877  1.00  0.00    -0.150 A  
HETATM   13  C   UNL     1      -8.101  10.719  67.649  1.00  0.00    -0.114 A  
ENDBRANCH   7   8
BRANCH   7  14
HETATM   14  C   UNL     1     -11.198  14.132  69.049  1.00  0.00    -0.303 A  
HETATM   15  C   UNL     1     -12.820  15.555  70.181  1.00  0.00    -0.141 A  
HETATM   16  C   UNL     1     -12.692  13.210  70.734  1.00  0.00    -0.260 A  
HETATM   17  C   UNL     1     -11.801  15.389  69.243  1.00  0.00    -0.365 A  
HETATM   18  C   UNL     1     -11.668  13.043  69.799  1.00  0.00    -0.346 A  
HETATM   19  C   UNL     1     -13.261  14.467  70.930  1.00  0.00    -0.373 A  
ENDBRANCH   7  14
ENDBRANCH   6   7
ENDBRANCH   5   6
ENDBRANCH   4   5
ENDBRANCH   2   4
TORSDOF 6
ENDMDL
MODEL      181
REMARK 921   NORMALIZED FREE ENERGY PREDICTED BY IDOCK:   -3.12 KCAL/MOL
REMARK 922        TOTAL FREE ENERGY PREDICTED BY IDOCK:   -5.12 KCAL/MOL
REMARK 923 INTER-LIGAND FREE ENERGY PREDICTED BY IDOCK:   -4.20 KCAL/MOL
REMARK 924 INTRA-LIGAND FREE ENERGY PREDICTED BY IDOCK:   -0.92 KCAL/MOL
REMARK 927      BINDING AFFINITY PREDICTED BY RF-SCORE:    0.00 PKD
ROOT
HETATM    1  C   UNL     1     -10.419  11.372  64.885  1.00  0.00    -0.305 C  
HETATM    2  N   UNL     1     -10.721  12.237  66.031  1.00  0.00    -0.254 NA 
HETATM    3  C   UNL     1     -11.808  13.155  65.693  1.00  0.00    -0.387 C  
ENDROOT
BRANCH   2   4
HETATM    4  C   UNL     1     -11.040  11.407  67.205  1.00  0.00    -0.303 C  
BRANCH   4   5
HETATM    5  C   UNL     1     -10.500  11.927  68.552  1.00  0.00    -0.224 C  
BRANCH   5   6
HETATM    6  O   UNL     1      -9.652  10.992  69.229  1.00  0.00    -0.124 OA 
BRANCH   6   7
HETATM    7  C   UNL     1      -9.845   9.610  68.883  1.00  0.00    -0.174 C  
BRANCH   7   8
HETATM    8  C   UNL     1      -8.555   8.960  68.410  1.00  0.00    -0.134 A  
HETATM    9  C   UNL     1      -8.325   8.787  67.034  1.00  0.00    -0.103 A  
HETATM   10  C   UNL     1      -7.110   8.281  66.572  1.00  0.00    -0.072 A  
HETATM   11  C   UNL     1      -7.542   8.599  69.311  1.00  0.00    -0.094 A  
HETATM   12  C   UNL     1      -6.111   7.934  67.478  1.00  0.00    -0.050 A  
HETATM   13  C   UNL     1      -6.327   8.088  68.846  1.00  0.00    -0.040 A  
ENDBRANCH   7   8
BRANCH   7  14
HETATM   14  C   UNL     1     -10.520   8.885  70.040  1.00  0.00    -0.227 A  
HETATM   15  C   UNL     1     -11.680   6.909  70.870  1.00  0.00    -0.408 A  
HETATM   16  C   UNL     1     -11.403   8.827  72.307  1.00  0.00    -0.356 A  
HETATM   17  C   UNL     1     -10.995   7.574  69.852  1.00  0.00    -0.223 A  
HETATM   18  C   UNL     1     -10.723   9.496  71.287  1.00  0.00    -0.386 A  
HETATM   19  C   UNL     1     -11.889   7.538  72.095  1.00  0.00    -0.338 A  
ENDBRANCH   7  14
ENDBRANCH   6   7
ENDBRANCH   5   6
ENDBRANCH   4   5
ENDBRANCH   2   4
TORSDOF 6
ENDMDL
MODEL      182
REMARK 921   NORMALIZED FREE ENERGY PREDICTED BY IDOCK:   -3.11 KCAL/MOL
REMARK 922        TOTAL FREE ENERGY PREDICTED BY IDOCK:   -5.10 KCAL/MOL
REMARK 923 INTER-LIGAND FREE ENERGY PREDICTED BY IDOCK:   -4.25 KCAL/MOL
REMARK 924 INTRA-LIGAND FREE ENERGY PREDICTED BY IDOCK:   -0.85 KCAL/MOL
REMARK 927      BINDING AFFINITY PREDICTED BY RF-SCORE:    0.00 PKD
ROOT
HETATM    1  C   UNL     1     -10.868  12.781  64.619  1.00  0.00    -0.335 C  
HETATM    2  N   UNL     1     -12.069  13.604  64.791  1.00  0.00    -0.383 NA 
HETATM    3  C   UNL     1     -12.478  13.607  66.195  1.00  0.00    -0.395 C  
ENDROOT
BRANCH   2   4
HETATM    4  C   UNL     1     -11.813  14.963  64.284  1.00  0.00    -0.297 C  
BRANCH   4   5
HETATM    5  C   UNL     1     -11.482  16.020  65.355  1.00  0.00     0.217 C  
BRANCH   5   6
HETATM    6  O   UNL     1     -10.124  15.971  65.809  1.00  0.00    -0.325 OA 
BRANCH   6   7
HETATM    7  C   UNL     1      -9.940  16.037  67.234  1.00  0.00    -0.242 C  
BRANCH   7   8
HETATM    8  C   UNL     1      -8.880  15.059  67.713  1.00  0.00    -0.172 A  
HETATM    9  C   UNL     1      -7.540  15.473  67.807  1.00  0.00    -0.162 A  
HETATM   10  C   UNL     1      -6.566  14.625  68.335  1.00  0.00    -0.102 A  
HETATM   11  C   UNL     1      -9.215  13.767  68.147  1.00  0.00    -0.199 A  
HETATM   12  C   UNL     1      -6.916  13.348  68.767  1.00  0.00    -0.103 A  
HETATM   13  C   UNL     1      -8.237  12.917  68.670  1.00  0.00     0.015 A  
ENDBRANCH   7   8
BRANCH   7  14
HETATM   14  C   UNL     1      -9.689  17.481  67.649  1.00  0.00    -0.275 A  
HETATM   15  C   UNL     1      -9.951  19.252  69.303  1.00  0.00    -0.277 A  
HETATM   16  C   UNL     1      -8.931  19.744  67.172  1.00  0.00    -0.405 A  
HETATM   17  C   UNL     1     -10.103  17.918  68.921  1.00  0.00    -0.349 A  
HETATM   18  C   UNL     1      -9.088  18.411  66.786  1.00  0.00    -0.293 A  
HETATM   19  C   UNL     1      -9.370  20.165  68.427  1.00  0.00    -0.172 A  
ENDBRANCH   7  14
ENDBRANCH   6   7
ENDBRANCH   5   6
ENDBRANCH   4   5
ENDBRANCH   2   4
TORSDOF 6
ENDMDL
MODEL      183
REMARK 921   NORMALIZED FREE ENERGY PREDICTED BY IDOCK:   -3.11 KCAL/MOL
REMARK 922        TOTAL FREE ENERGY PREDICTED BY IDOCK:   -5.09 KCAL/MOL
REMARK 923 INTER-LIGAND FREE ENERGY PREDICTED BY IDOCK:   -4.12 KCAL/MOL
REMARK 924 INTRA-LIGAND FREE ENERGY PREDICTED BY IDOCK:   -0.97 KCAL/MOL
REMARK 927      BINDING AFFINITY PREDICTED BY RF-SCORE:    0.00 PKD
ROOT
HETATM    1  C   UNL     1     -14.107   9.169  72.071  1.00  0.00    -0.312 C  
HETATM    2  N   UNL     1     -12.838   9.543  71.437  1.00  0.00    -0.341 NA 
HETATM    3  C   UNL     1     -12.645  10.989  71.516  1.00  0.00    -0.356 C  
ENDROOT
BRANCH   2   4
HETATM    4  C   UNL     1     -11.733   8.799  72.067  1.00  0.00    -0.372 C  
BRANCH   4   5
HETATM    5  C   UNL     1     -11.887   7.266  72.078  1.00  0.00    -0.296 C  
BRANCH   5   6
HETATM    6  O   UNL     1     -11.377   6.630  70.900  1.00  0.00    -0.285 OA 
BRANCH   6   7
HETATM    7  C   UNL     1     -10.008   6.928  70.573  1.00  0.00    -0.183 C  
BRANCH   7   8
HETATM    8  C   UNL     1      -9.039   6.022  71.315  1.00  0.00    -0.149 A  
HETATM    9  C   UNL     1      -9.137   4.628  71.169  1.00  0.00    -0.180 A  
HETATM   10  C   UNL     1      -8.200   3.781  71.762  1.00  0.00    -0.075 A  
HETATM   11  C   UNL     1      -7.989   6.545  72.084  1.00  0.00    -0.102 A  
HETATM   12  C   UNL     1      -7.159   4.315  72.517  1.00  0.00    -0.062 A  
HETATM   13  C   UNL     1      -7.054   5.695  72.682  1.00  0.00    -0.089 A  
ENDBRANCH   7   8
BRANCH   7  14
HETATM   14  C   UNL     1      -9.833   6.922  69.059  1.00  0.00    -0.152 A  
HETATM   15  C   UNL     1     -10.661   6.253  66.867  1.00  0.00    -0.411 A  
HETATM   16  C   UNL     1      -8.529   7.366  67.054  1.00  0.00    -0.118 A  
HETATM   17  C   UNL     1     -10.825   6.338  68.250  1.00  0.00    -0.397 A  
HETATM   18  C   UNL     1      -8.689   7.447  68.439  1.00  0.00    -0.123 A  
HETATM   19  C   UNL     1      -9.510   6.762  66.270  1.00  0.00    -0.116 A  
ENDBRANCH   7  14
ENDBRANCH   6   7
ENDBRANCH   5   6
ENDBRANCH   4   5
ENDBRANCH   2   4
TORSDOF 6
ENDMDL
MODEL      184
REMARK 921   NORMALIZED FREE ENERGY PREDICTED BY IDOCK:   -3.10 KCAL/MOL
REMARK 922        TOTAL FREE ENERGY PREDICTED BY IDOCK:   -5.09 KCAL/MOL
REMARK 923 INTER-LIGAND FREE ENERGY PREDICTED BY IDOCK:   -4.30 KCAL/MOL
REMARK 924 INTRA-LIGAND FREE ENERGY PREDICTED BY IDOCK:   -0.79 KCAL/MOL
REMARK 927      BINDING AFFINITY PREDICTED BY RF-SCORE:    0.00 PKD
ROOT
HETATM    1  C   UNL     1      -8.276   4.591  66.144  1.00  0.00    -0.106 C  
HETATM    2  N   UNL     1      -9.360   5.577  66.116  1.00  0.00    -0.157 NA 
HETATM    3  C   UNL     1     -10.582   4.993  66.666  1.00  0.00    -0.195 C  
ENDROOT
BRANCH   2   4
HETATM    4  C   UNL     1      -8.945   6.788  66.846  1.00  0.00    -0.128 C  
BRANCH   4   5
HETATM    5  C   UNL     1     -10.093   7.679  67.359  1.00  0.00    -0.222 C  
BRANCH   5   6
HETATM    6  O   UNL     1      -9.689   8.608  68.373  1.00  0.00    -0.156 OA 
BRANCH   6   7
HETATM    7  C   UNL     1     -10.314   9.902  68.318  1.00  0.00    -0.201 C  
BRANCH   7   8
HETATM    8  C   UNL     1     -11.244  10.131  69.499  1.00  0.00    -0.288 A  
HETATM    9  C   UNL     1     -11.358   9.149  70.497  1.00  0.00    -0.300 A  
HETATM   10  C   UNL     1     -12.130   9.377  71.637  1.00  0.00    -0.462 A  
HETATM   11  C   UNL     1     -11.935  11.340  69.663  1.00  0.00    -0.423 A  
HETATM   12  C   UNL     1     -12.805  10.585  71.790  1.00  0.00    -0.559 A  
HETATM   13  C   UNL     1     -12.713  11.565  70.803  1.00  0.00    -0.318 A  
ENDBRANCH   7   8
BRANCH   7  14
HETATM   14  C   UNL     1      -9.247  10.976  68.148  1.00  0.00    -0.165 A  
HETATM   15  C   UNL     1      -8.328  12.812  66.835  1.00  0.00    -0.064 A  
HETATM   16  C   UNL     1      -7.161  12.044  68.803  1.00  0.00    -0.111 A  
HETATM   17  C   UNL     1      -9.326  11.863  67.058  1.00  0.00    -0.188 A  
HETATM   18  C   UNL     1      -8.157  11.090  69.024  1.00  0.00    -0.105 A  
HETATM   19  C   UNL     1      -7.243  12.898  67.704  1.00  0.00    -0.147 A  
ENDBRANCH   7  14
ENDBRANCH   6   7
ENDBRANCH   5   6
ENDBRANCH   4   5
ENDBRANCH   2   4
TORSDOF 6
ENDMDL
MODEL      185
REMARK 921   NORMALIZED FREE ENERGY PREDICTED BY IDOCK:   -3.10 KCAL/MOL
REMARK 922        TOTAL FREE ENERGY PREDICTED BY IDOCK:   -5.08 KCAL/MOL
REMARK 923 INTER-LIGAND FREE ENERGY PREDICTED BY IDOCK:   -4.13 KCAL/MOL
REMARK 924 INTRA-LIGAND FREE ENERGY PREDICTED BY IDOCK:   -0.95 KCAL/MOL
REMARK 927      BINDING AFFINITY PREDICTED BY RF-SCORE:    0.00 PKD
ROOT
HETATM    1  C   UNL     1     -12.601  14.649  66.003  1.00  0.00     0.055 C  
HETATM    2  N   UNL     1     -11.813  14.344  64.804  1.00  0.00    -0.411 NA 
HETATM    3  C   UNL     1     -10.433  14.791  64.984  1.00  0.00    -0.416 C  
ENDROOT
BRANCH   2   4
HETATM    4  C   UNL     1     -11.896  12.902  64.513  1.00  0.00    -0.375 C  
BRANCH   4   5
HETATM    5  C   UNL     1     -11.981  11.980  65.746  1.00  0.00    -0.063 C  
BRANCH   5   6
HETATM    6  O   UNL     1     -10.714  11.449  66.152  1.00  0.00    -0.262 OA 
BRANCH   6   7
HETATM    7  C   UNL     1     -10.452  11.471  67.565  1.00  0.00    -0.199 C  
BRANCH   7   8
HETATM    8  C   UNL     1     -10.544  10.084  68.180  1.00  0.00    -0.268 A  
HETATM    9  C   UNL     1     -10.438   8.948  67.359  1.00  0.00    -0.347 A  
HETATM   10  C   UNL     1     -10.424   7.667  67.911  1.00  0.00    -0.270 A  
HETATM   11  C   UNL     1     -10.651   9.902  69.567  1.00  0.00    -0.264 A  
HETATM   12  C   UNL     1     -10.524   7.503  69.291  1.00  0.00    -0.216 A  
HETATM   13  C   UNL     1     -10.642   8.617  70.118  1.00  0.00    -0.235 A  
ENDBRANCH   7   8
BRANCH   7  14
HETATM   14  C   UNL     1      -9.130  12.182  67.827  1.00  0.00    -0.189 A  
HETATM   15  C   UNL     1      -7.929  14.256  68.268  1.00  0.00    -0.140 A  
HETATM   16  C   UNL     1      -6.700  12.204  67.954  1.00  0.00    -0.085 A  
HETATM   17  C   UNL     1      -9.128  13.564  68.094  1.00  0.00    -0.199 A  
HETATM   18  C   UNL     1      -7.899  11.510  67.774  1.00  0.00    -0.126 A  
HETATM   19  C   UNL     1      -6.715  13.577  68.193  1.00  0.00    -0.120 A  
ENDBRANCH   7  14
ENDBRANCH   6   7
ENDBRANCH   5   6
ENDBRANCH   4   5
ENDBRANCH   2   4
TORSDOF 6
ENDMDL
MODEL      186
REMARK 921   NORMALIZED FREE ENERGY PREDICTED BY IDOCK:   -3.09 KCAL/MOL
REMARK 922        TOTAL FREE ENERGY PREDICTED BY IDOCK:   -5.07 KCAL/MOL
REMARK 923 INTER-LIGAND FREE ENERGY PREDICTED BY IDOCK:   -4.43 KCAL/MOL
REMARK 924 INTRA-LIGAND FREE ENERGY PREDICTED BY IDOCK:   -0.63 KCAL/MOL
REMARK 927      BINDING AFFINITY PREDICTED BY RF-SCORE:    0.00 PKD
ROOT
HETATM    1  C   UNL     1      -7.774  10.017  63.800  1.00  0.00    -0.148 C  
HETATM    2  N   UNL     1      -8.746  10.548  64.761  1.00  0.00    -0.186 NA 
HETATM    3  C   UNL     1      -9.752  11.348  64.064  1.00  0.00    -0.245 C  
ENDROOT
BRANCH   2   4
HETATM    4  C   UNL     1      -9.347   9.438  65.520  1.00  0.00    -0.251 C  
BRANCH   4   5
HETATM    5  C   UNL     1     -10.365   9.848  66.602  1.00  0.00    -0.205 C  
BRANCH   5   6
HETATM    6  O   UNL     1     -10.260   9.082  67.808  1.00  0.00    -0.202 OA 
BRANCH   6   7
HETATM    7  C   UNL     1      -9.919   9.826  68.991  1.00  0.00    -0.184 C  
BRANCH   7   8
HETATM    8  C   UNL     1     -11.055   9.831  70.002  1.00  0.00    -0.311 A  
HETATM    9  C   UNL     1     -11.084   8.865  71.023  1.00  0.00    -0.340 A  
HETATM   10  C   UNL     1     -12.061   8.908  72.018  1.00  0.00    -0.442 A  
HETATM   11  C   UNL     1     -12.038  10.831  69.995  1.00  0.00    -0.423 A  
HETATM   12  C   UNL     1     -13.027   9.910  72.002  1.00  0.00    -0.518 A  
HETATM   13  C   UNL     1     -13.020  10.869  70.990  1.00  0.00    -0.396 A  
ENDBRANCH   7   8
BRANCH   7  14
HETATM   14  C   UNL     1      -8.593   9.321  69.546  1.00  0.00    -0.147 A  
HETATM   15  C   UNL     1      -6.399   9.821  70.482  1.00  0.00    -0.100 A  
HETATM   16  C   UNL     1      -7.007   7.535  70.008  1.00  0.00    -0.059 A  
HETATM   17  C   UNL     1      -7.651  10.246  70.033  1.00  0.00    -0.116 A  
HETATM   18  C   UNL     1      -8.258   7.959  69.553  1.00  0.00    -0.130 A  
HETATM   19  C   UNL     1      -6.076   8.466  70.464  1.00  0.00    -0.032 A  
ENDBRANCH   7  14
ENDBRANCH   6   7
ENDBRANCH   5   6
ENDBRANCH   4   5
ENDBRANCH   2   4
TORSDOF 6
ENDMDL
MODEL      187
REMARK 921   NORMALIZED FREE ENERGY PREDICTED BY IDOCK:   -3.07 KCAL/MOL
REMARK 922        TOTAL FREE ENERGY PREDICTED BY IDOCK:   -5.05 KCAL/MOL
REMARK 923 INTER-LIGAND FREE ENERGY PREDICTED BY IDOCK:   -5.04 KCAL/MOL
REMARK 924 INTRA-LIGAND FREE ENERGY PREDICTED BY IDOCK:   -0.01 KCAL/MOL
REMARK 927      BINDING AFFINITY PREDICTED BY RF-SCORE:    0.00 PKD
ROOT
HETATM    1  C   UNL     1     -12.224  13.479  63.233  1.00  0.00    -0.146 C  
HETATM    2  N   UNL     1     -11.269  13.196  64.309  1.00  0.00    -0.371 NA 
HETATM    3  C   UNL     1     -11.311  14.262  65.309  1.00  0.00    -0.336 C  
ENDROOT
BRANCH   2   4
HETATM    4  C   UNL     1     -11.561  11.875  64.893  1.00  0.00    -0.226 C  
BRANCH   4   5
HETATM    5  C   UNL     1     -10.965  11.622  66.291  1.00  0.00    -0.289 C  
BRANCH   5   6
HETATM    6  O   UNL     1     -11.952  11.517  67.325  1.00  0.00    -0.605 OA 
BRANCH   6   7
HETATM    7  C   UNL     1     -11.480  11.747  68.663  1.00  0.00    -0.288 C  
BRANCH   7   8
HETATM    8  C   UNL     1     -11.190  10.444  69.392  1.00  0.00    -0.314 A  
HETATM    9  C   UNL     1     -11.454  10.342  70.769  1.00  0.00    -0.438 A  
HETATM   10  C   UNL     1     -11.288   9.129  71.439  1.00  0.00    -0.414 A  
HETATM   11  C   UNL     1     -10.740   9.305  68.708  1.00  0.00    -0.184 A  
HETATM   12  C   UNL     1     -10.846   8.005  70.745  1.00  0.00    -0.244 A  
HETATM   13  C   UNL     1     -10.568   8.093  69.382  1.00  0.00    -0.206 A  
ENDBRANCH   7   8
BRANCH   7  14
HETATM   14  C   UNL     1     -10.305  12.717  68.630  1.00  0.00    -0.192 A  
HETATM   15  C   UNL     1      -7.897  13.072  68.515  1.00  0.00    -0.105 A  
HETATM   16  C   UNL     1      -9.373  14.957  68.817  1.00  0.00    -0.203 A  
HETATM   17  C   UNL     1      -8.999  12.216  68.479  1.00  0.00    -0.082 A  
HETATM   18  C   UNL     1     -10.476  14.101  68.786  1.00  0.00    -0.249 A  
HETATM   19  C   UNL     1      -8.084  14.441  68.690  1.00  0.00    -0.146 A  
ENDBRANCH   7  14
ENDBRANCH   6   7
ENDBRANCH   5   6
ENDBRANCH   4   5
ENDBRANCH   2   4
TORSDOF 6
ENDMDL
MODEL      188
REMARK 921   NORMALIZED FREE ENERGY PREDICTED BY IDOCK:   -3.05 KCAL/MOL
REMARK 922        TOTAL FREE ENERGY PREDICTED BY IDOCK:   -5.02 KCAL/MOL
REMARK 923 INTER-LIGAND FREE ENERGY PREDICTED BY IDOCK:   -4.44 KCAL/MOL
REMARK 924 INTRA-LIGAND FREE ENERGY PREDICTED BY IDOCK:   -0.59 KCAL/MOL
REMARK 927      BINDING AFFINITY PREDICTED BY RF-SCORE:    0.00 PKD
ROOT
HETATM    1  C   UNL     1     -10.576  19.482  66.192  1.00  0.00    -0.487 C  
HETATM    2  N   UNL     1      -9.173  19.194  66.508  1.00  0.00    -0.334 NA 
HETATM    3  C   UNL     1      -8.557  20.353  67.151  1.00  0.00    -0.316 C  
ENDROOT
BRANCH   2   4
HETATM    4  C   UNL     1      -9.094  17.985  67.346  1.00  0.00    -0.250 C  
BRANCH   4   5
HETATM    5  C   UNL     1      -9.236  16.647  66.596  1.00  0.00    -0.253 C  
BRANCH   5   6
HETATM    6  O   UNL     1      -9.380  15.516  67.463  1.00  0.00    -0.204 OA 
BRANCH   6   7
HETATM    7  C   UNL     1      -8.685  14.325  67.056  1.00  0.00    -0.212 C  
BRANCH   7   8
HETATM    8  C   UNL     1      -7.415  14.107  67.864  1.00  0.00    -0.158 A  
HETATM    9  C   UNL     1      -6.396  15.074  67.836  1.00  0.00    -0.179 A  
HETATM   10  C   UNL     1      -5.265  14.942  68.642  1.00  0.00    -0.095 A  
HETATM   11  C   UNL     1      -7.266  12.997  68.710  1.00  0.00    -0.082 A  
HETATM   12  C   UNL     1      -5.134  13.839  69.482  1.00  0.00    -0.083 A  
HETATM   13  C   UNL     1      -6.130  12.865  69.513  1.00  0.00    -0.117 A  
ENDBRANCH   7   8
BRANCH   7  14
HETATM   14  C   UNL     1      -9.646  13.142  67.074  1.00  0.00    -0.241 A  
HETATM   15  C   UNL     1     -11.596  12.055  68.050  1.00  0.00    -0.407 A  
HETATM   16  C   UNL     1     -10.318  10.919  66.348  1.00  0.00    -0.306 A  
HETATM   17  C   UNL     1     -10.739  13.153  67.960  1.00  0.00    -0.248 A  
HETATM   18  C   UNL     1      -9.456  12.015  66.260  1.00  0.00    -0.237 A  
HETATM   19  C   UNL     1     -11.382  10.936  67.248  1.00  0.00    -0.230 A  
ENDBRANCH   7  14
ENDBRANCH   6   7
ENDBRANCH   5   6
ENDBRANCH   4   5
ENDBRANCH   2   4
TORSDOF 6
ENDMDL
MODEL      189
REMARK 921   NORMALIZED FREE ENERGY PREDICTED BY IDOCK:   -3.05 KCAL/MOL
REMARK 922        TOTAL FREE ENERGY PREDICTED BY IDOCK:   -5.02 KCAL/MOL
REMARK 923 INTER-LIGAND FREE ENERGY PREDICTED BY IDOCK:   -4.11 KCAL/MOL
REMARK 924 INTRA-LIGAND FREE ENERGY PREDICTED BY IDOCK:   -0.91 KCAL/MOL
REMARK 927      BINDING AFFINITY PREDICTED BY RF-SCORE:    0.00 PKD
ROOT
HETATM    1  C   UNL     1      -9.387   7.206  70.123  1.00  0.00    -0.158 C  
HETATM    2  N   UNL     1      -9.866   6.920  68.767  1.00  0.00    -0.147 NA 
HETATM    3  C   UNL     1     -10.997   5.996  68.820  1.00  0.00    -0.312 C  
ENDROOT
BRANCH   2   4
HETATM    4  C   UNL     1     -10.211   8.183  68.090  1.00  0.00    -0.209 C  
BRANCH   4   5
HETATM    5  C   UNL     1      -9.338   8.542  66.872  1.00  0.00    -0.172 C  
BRANCH   5   6
HETATM    6  O   UNL     1      -9.331   9.942  66.565  1.00  0.00    -0.153 OA 
BRANCH   6   7
HETATM    7  C   UNL     1      -9.353  10.829  67.697  1.00  0.00    -0.147 C  
BRANCH   7   8
HETATM    8  C   UNL     1      -7.954  11.269  68.098  1.00  0.00    -0.131 A  
HETATM    9  C   UNL     1      -7.226  12.130  67.258  1.00  0.00    -0.144 A  
HETATM   10  C   UNL     1      -5.981  12.624  67.649  1.00  0.00    -0.142 A  
HETATM   11  C   UNL     1      -7.396  10.904  69.332  1.00  0.00    -0.116 A  
HETATM   12  C   UNL     1      -5.443  12.258  68.881  1.00  0.00    -0.054 A  
HETATM   13  C   UNL     1      -6.146  11.396  69.720  1.00  0.00    -0.124 A  
ENDBRANCH   7   8
BRANCH   7  14
HETATM   14  C   UNL     1     -10.314  11.979  67.425  1.00  0.00    -0.226 A  
HETATM   15  C   UNL     1     -11.339  14.061  68.169  1.00  0.00    -0.320 A  
HETATM   16  C   UNL     1     -12.054  13.046  66.101  1.00  0.00    -0.473 A  
HETATM   17  C   UNL     1     -10.417  13.030  68.355  1.00  0.00    -0.261 A  
HETATM   18  C   UNL     1     -11.137  12.010  66.288  1.00  0.00    -0.363 A  
HETATM   19  C   UNL     1     -12.161  14.066  67.044  1.00  0.00    -0.455 A  
ENDBRANCH   7  14
ENDBRANCH   6   7
ENDBRANCH   5   6
ENDBRANCH   4   5
ENDBRANCH   2   4
TORSDOF 6
ENDMDL
MODEL      190
REMARK 921   NORMALIZED FREE ENERGY PREDICTED BY IDOCK:   -3.04 KCAL/MOL
REMARK 922        TOTAL FREE ENERGY PREDICTED BY IDOCK:   -5.01 KCAL/MOL
REMARK 923 INTER-LIGAND FREE ENERGY PREDICTED BY IDOCK:   -4.76 KCAL/MOL
REMARK 924 INTRA-LIGAND FREE ENERGY PREDICTED BY IDOCK:   -0.24 KCAL/MOL
REMARK 927      BINDING AFFINITY PREDICTED BY RF-SCORE:    0.00 PKD
ROOT
HETATM    1  C   UNL     1      -9.339   7.747  69.451  1.00  0.00    -0.152 C  
HETATM    2  N   UNL     1     -10.308   8.757  69.889  1.00  0.00    -0.200 NA 
HETATM    3  C   UNL     1     -10.708   8.500  71.272  1.00  0.00    -0.240 C  
ENDROOT
BRANCH   2   4
HETATM    4  C   UNL     1      -9.732  10.101  69.718  1.00  0.00    -0.196 C  
BRANCH   4   5
HETATM    5  C   UNL     1     -10.519  11.047  68.790  1.00  0.00    -0.198 C  
BRANCH   5   6
HETATM    6  O   UNL     1     -11.114  10.385  67.668  1.00  0.00    -0.310 OA 
BRANCH   6   7
HETATM    7  C   UNL     1     -11.088  11.114  66.428  1.00  0.00    -0.138 C  
BRANCH   7   8
HETATM    8  C   UNL     1     -10.836  12.597  66.649  1.00  0.00    -0.286 A  
HETATM    9  C   UNL     1     -11.923  13.482  66.750  1.00  0.00    -0.453 A  
HETATM   10  C   UNL     1     -11.720  14.830  67.048  1.00  0.00    -0.330 A  
HETATM   11  C   UNL     1      -9.540  13.100  66.839  1.00  0.00    -0.248 A  
HETATM   12  C   UNL     1     -10.428  15.314  67.241  1.00  0.00    -0.275 A  
HETATM   13  C   UNL     1      -9.338  14.452  67.132  1.00  0.00    -0.226 A  
ENDBRANCH   7   8
BRANCH   7  14
HETATM   14  C   UNL     1     -10.109  10.451  65.468  1.00  0.00    -0.352 A  
HETATM   15  C   UNL     1      -8.108   9.101  65.133  1.00  0.00    -0.130 A  
HETATM   16  C   UNL     1      -9.236  10.064  63.230  1.00  0.00    -0.317 A  
HETATM   17  C   UNL     1      -9.063   9.663  65.982  1.00  0.00    -0.212 A  
HETATM   18  C   UNL     1     -10.188  10.632  64.079  1.00  0.00    -0.334 A  
HETATM   19  C   UNL     1      -8.192   9.306  63.758  1.00  0.00    -0.166 A  
ENDBRANCH   7  14
ENDBRANCH   6   7
ENDBRANCH   5   6
ENDBRANCH   4   5
ENDBRANCH   2   4
TORSDOF 6
ENDMDL
MODEL      191
REMARK 921   NORMALIZED FREE ENERGY PREDICTED BY IDOCK:   -3.03 KCAL/MOL
REMARK 922        TOTAL FREE ENERGY PREDICTED BY IDOCK:   -4.99 KCAL/MOL
REMARK 923 INTER-LIGAND FREE ENERGY PREDICTED BY IDOCK:   -4.48 KCAL/MOL
REMARK 924 INTRA-LIGAND FREE ENERGY PREDICTED BY IDOCK:   -0.51 KCAL/MOL
REMARK 927      BINDING AFFINITY PREDICTED BY RF-SCORE:    0.00 PKD
ROOT
HETATM    1  C   UNL     1      -9.762  11.959  66.129  1.00  0.00    -0.232 C  
HETATM    2  N   UNL     1      -9.363  12.583  67.395  1.00  0.00    -0.181 NA 
HETATM    3  C   UNL     1     -10.169  13.777  67.641  1.00  0.00    -0.242 C  
ENDROOT
BRANCH   2   4
HETATM    4  C   UNL     1      -9.476  11.601  68.487  1.00  0.00    -0.173 C  
BRANCH   4   5
HETATM    5  C   UNL     1     -10.867  11.497  69.144  1.00  0.00    -0.195 C  
BRANCH   5   6
HETATM    6  O   UNL     1     -11.103  10.241  69.791  1.00  0.00    -0.249 OA 
BRANCH   6   7
HETATM    7  C   UNL     1     -10.007   9.310  69.765  1.00  0.00    -0.199 C  
BRANCH   7   8
HETATM    8  C   UNL     1      -9.701   8.758  71.148  1.00  0.00    -0.315 A  
HETATM    9  C   UNL     1      -8.366   8.569  71.544  1.00  0.00    -0.210 A  
HETATM   10  C   UNL     1      -8.058   8.155  72.840  1.00  0.00    -0.224 A  
HETATM   11  C   UNL     1     -10.720   8.506  72.079  1.00  0.00    -0.410 A  
HETATM   12  C   UNL     1      -9.080   7.915  73.756  1.00  0.00    -0.306 A  
HETATM   13  C   UNL     1     -10.410   8.086  73.376  1.00  0.00    -0.006 A  
ENDBRANCH   7   8
BRANCH   7  14
HETATM   14  C   UNL     1     -10.271   8.241  68.711  1.00  0.00    -0.226 A  
HETATM   15  C   UNL     1     -11.018   5.986  68.171  1.00  0.00    -0.340 A  
HETATM   16  C   UNL     1     -10.132   7.403  66.431  1.00  0.00    -0.068 A  
HETATM   17  C   UNL     1     -10.829   7.010  69.100  1.00  0.00    -0.223 A  
HETATM   18  C   UNL     1      -9.938   8.427  67.361  1.00  0.00    -0.274 A  
HETATM   19  C   UNL     1     -10.664   6.181  66.838  1.00  0.00    -0.413 A  
ENDBRANCH   7  14
ENDBRANCH   6   7
ENDBRANCH   5   6
ENDBRANCH   4   5
ENDBRANCH   2   4
TORSDOF 6
ENDMDL
MODEL      192
REMARK 921   NORMALIZED FREE ENERGY PREDICTED BY IDOCK:   -3.01 KCAL/MOL
REMARK 922        TOTAL FREE ENERGY PREDICTED BY IDOCK:   -4.97 KCAL/MOL
REMARK 923 INTER-LIGAND FREE ENERGY PREDICTED BY IDOCK:   -4.39 KCAL/MOL
REMARK 924 INTRA-LIGAND FREE ENERGY PREDICTED BY IDOCK:   -0.58 KCAL/MOL
REMARK 927      BINDING AFFINITY PREDICTED BY RF-SCORE:    0.00 PKD
ROOT
HETATM    1  C   UNL     1     -12.700  12.153  63.741  1.00  0.00    -0.411 C  
HETATM    2  N   UNL     1     -11.326  12.659  63.665  1.00  0.00    -0.457 NA 
HETATM    3  C   UNL     1     -11.196  13.877  64.463  1.00  0.00    -0.365 C  
ENDROOT
BRANCH   2   4
HETATM    4  C   UNL     1     -10.389  11.609  64.099  1.00  0.00    -0.337 C  
BRANCH   4   5
HETATM    5  C   UNL     1      -9.972  11.662  65.582  1.00  0.00    -0.240 C  
BRANCH   5   6
HETATM    6  O   UNL     1     -10.339  10.491  66.322  1.00  0.00    -0.234 OA 
BRANCH   6   7
HETATM    7  C   UNL     1      -9.325   9.961  67.193  1.00  0.00    -0.146 C  
BRANCH   7   8
HETATM    8  C   UNL     1      -9.697   8.586  67.724  1.00  0.00    -0.199 A  
HETATM    9  C   UNL     1     -10.657   7.814  67.047  1.00  0.00    -0.396 A  
HETATM   10  C   UNL     1     -10.944   6.512  67.459  1.00  0.00    -0.444 A  
HETATM   11  C   UNL     1      -9.045   8.027  68.833  1.00  0.00    -0.144 A  
HETATM   12  C   UNL     1     -10.284   5.967  68.558  1.00  0.00    -0.227 A  
HETATM   13  C   UNL     1      -9.339   6.724  69.248  1.00  0.00    -0.144 A  
ENDBRANCH   7   8
BRANCH   7  14
HETATM   14  C   UNL     1      -7.973  10.013  66.492  1.00  0.00    -0.115 A  
HETATM   15  C   UNL     1      -5.817  11.110  66.200  1.00  0.00    -0.120 A  
HETATM   16  C   UNL     1      -6.419   9.254  64.780  1.00  0.00    -0.076 A  
HETATM   17  C   UNL     1      -7.035  10.991  66.870  1.00  0.00    -0.125 A  
HETATM   18  C   UNL     1      -7.641   9.138  65.447  1.00  0.00    -0.097 A  
HETATM   19  C   UNL     1      -5.512  10.245  65.151  1.00  0.00    -0.111 A  
ENDBRANCH   7  14
ENDBRANCH   6   7
ENDBRANCH   5   6
ENDBRANCH   4   5
ENDBRANCH   2   4
TORSDOF 6
ENDMDL
MODEL      193
REMARK 921   NORMALIZED FREE ENERGY PREDICTED BY IDOCK:   -2.98 KCAL/MOL
REMARK 922        TOTAL FREE ENERGY PREDICTED BY IDOCK:   -4.93 KCAL/MOL
REMARK 923 INTER-LIGAND FREE ENERGY PREDICTED BY IDOCK:   -3.99 KCAL/MOL
REMARK 924 INTRA-LIGAND FREE ENERGY PREDICTED BY IDOCK:   -0.94 KCAL/MOL
REMARK 927      BINDING AFFINITY PREDICTED BY RF-SCORE:    0.00 PKD
ROOT
HETATM    1  C   UNL     1      -6.865   9.749  63.602  1.00  0.00    -0.118 C  
HETATM    2  N   UNL     1      -8.076   8.950  63.812  1.00  0.00    -0.156 NA 
HETATM    3  C   UNL     1      -7.772   7.790  64.649  1.00  0.00    -0.121 C  
ENDROOT
BRANCH   2   4
HETATM    4  C   UNL     1      -9.130   9.796  64.397  1.00  0.00    -0.248 C  
BRANCH   4   5
HETATM    5  C   UNL     1      -9.748   9.274  65.709  1.00  0.00    -0.269 C  
BRANCH   5   6
HETATM    6  O   UNL     1      -9.623  10.188  66.805  1.00  0.00    -0.166 OA 
BRANCH   6   7
HETATM    7  C   UNL     1      -9.077  11.478  66.482  1.00  0.00    -0.194 C  
BRANCH   7   8
HETATM    8  C   UNL     1     -10.167  12.519  66.278  1.00  0.00    -0.265 A  
HETATM    9  C   UNL     1     -11.057  12.811  67.325  1.00  0.00    -0.314 A  
HETATM   10  C   UNL     1     -12.003  13.828  67.194  1.00  0.00    -0.442 A  
HETATM   11  C   UNL     1     -10.258  13.261  65.091  1.00  0.00    -0.301 A  
HETATM   12  C   UNL     1     -12.078  14.562  66.012  1.00  0.00    -0.298 A  
HETATM   13  C   UNL     1     -11.210  14.277  64.960  1.00  0.00    -0.364 A  
ENDBRANCH   7   8
BRANCH   7  14
HETATM   14  C   UNL     1      -8.033  11.865  67.523  1.00  0.00    -0.155 A  
HETATM   15  C   UNL     1      -6.270  13.385  68.243  1.00  0.00    -0.102 A  
HETATM   16  C   UNL     1      -6.757  11.413  69.545  1.00  0.00    -0.119 A  
HETATM   17  C   UNL     1      -7.281  13.041  67.345  1.00  0.00    -0.123 A  
HETATM   18  C   UNL     1      -7.766  11.064  68.644  1.00  0.00    -0.132 A  
HETATM   19  C   UNL     1      -6.005  12.569  69.340  1.00  0.00    -0.101 A  
ENDBRANCH   7  14
ENDBRANCH   6   7
ENDBRANCH   5   6
ENDBRANCH   4   5
ENDBRANCH   2   4
TORSDOF 6
ENDMDL
MODEL      194
REMARK 921   NORMALIZED FREE ENERGY PREDICTED BY IDOCK:   -2.97 KCAL/MOL
REMARK 922        TOTAL FREE ENERGY PREDICTED BY IDOCK:   -4.91 KCAL/MOL
REMARK 923 INTER-LIGAND FREE ENERGY PREDICTED BY IDOCK:   -4.12 KCAL/MOL
REMARK 924 INTRA-LIGAND FREE ENERGY PREDICTED BY IDOCK:   -0.79 KCAL/MOL
REMARK 927      BINDING AFFINITY PREDICTED BY RF-SCORE:    0.00 PKD
ROOT
HETATM    1  C   UNL     1      -5.426  10.563  68.910  1.00  0.00    -0.041 C  
HETATM    2  N   UNL     1      -6.341   9.962  67.934  1.00  0.00    -0.055 NA 
HETATM    3  C   UNL     1      -7.347   9.154  68.621  1.00  0.00    -0.076 C  
ENDROOT
BRANCH   2   4
HETATM    4  C   UNL     1      -6.948  11.022  67.109  1.00  0.00    -0.103 C  
BRANCH   4   5
HETATM    5  C   UNL     1      -7.436  12.264  67.880  1.00  0.00    -0.121 C  
BRANCH   5   6
HETATM    6  O   UNL     1      -7.628  13.415  67.048  1.00  0.00    -0.025 OA 
BRANCH   6   7
HETATM    7  C   UNL     1      -8.849  14.143  67.264  1.00  0.00    -0.218 C  
BRANCH   7   8
HETATM    8  C   UNL     1      -8.648  15.643  67.111  1.00  0.00    -0.235 A  
HETATM    9  C   UNL     1      -9.574  16.533  67.681  1.00  0.00    -0.235 A  
HETATM   10  C   UNL     1      -9.360  17.911  67.637  1.00  0.00    -0.258 A  
HETATM   11  C   UNL     1      -7.510  16.170  66.482  1.00  0.00    -0.110 A  
HETATM   12  C   UNL     1      -8.222  18.419  67.015  1.00  0.00    -0.253 A  
HETATM   13  C   UNL     1      -7.300  17.551  66.434  1.00  0.00    -0.334 A  
ENDBRANCH   7   8
BRANCH   7  14
HETATM   14  C   UNL     1      -9.948  13.569  66.379  1.00  0.00    -0.296 A  
HETATM   15  C   UNL     1     -11.117  13.569  64.240  1.00  0.00    -0.371 A  
HETATM   16  C   UNL     1     -11.905  12.164  66.036  1.00  0.00    -0.328 A  
HETATM   17  C   UNL     1     -10.078  14.024  65.053  1.00  0.00    -0.323 A  
HETATM   18  C   UNL     1     -10.869  12.622  66.853  1.00  0.00    -0.282 A  
HETATM   19  C   UNL     1     -12.033  12.644  64.734  1.00  0.00    -0.458 A  
ENDBRANCH   7  14
ENDBRANCH   6   7
ENDBRANCH   5   6
ENDBRANCH   4   5
ENDBRANCH   2   4
TORSDOF 6
ENDMDL
MODEL      195
REMARK 921   NORMALIZED FREE ENERGY PREDICTED BY IDOCK:   -2.97 KCAL/MOL
REMARK 922        TOTAL FREE ENERGY PREDICTED BY IDOCK:   -4.91 KCAL/MOL
REMARK 923 INTER-LIGAND FREE ENERGY PREDICTED BY IDOCK:   -4.19 KCAL/MOL
REMARK 924 INTRA-LIGAND FREE ENERGY PREDICTED BY IDOCK:   -0.72 KCAL/MOL
REMARK 927      BINDING AFFINITY PREDICTED BY RF-SCORE:    0.00 PKD
ROOT
HETATM    1  C   UNL     1      -8.223   3.560  65.084  1.00  0.00    -0.097 C  
HETATM    2  N   UNL     1      -9.135   4.692  64.889  1.00  0.00    -0.155 NA 
HETATM    3  C   UNL     1     -10.522   4.244  65.007  1.00  0.00    -0.165 C  
ENDROOT
BRANCH   2   4
HETATM    4  C   UNL     1      -8.812   5.758  65.853  1.00  0.00    -0.150 C  
BRANCH   4   5
HETATM    5  C   UNL     1      -9.966   6.188  66.778  1.00  0.00    -0.172 C  
BRANCH   5   6
HETATM    6  O   UNL     1      -9.540   6.964  67.904  1.00  0.00    -0.120 OA 
BRANCH   6   7
HETATM    7  C   UNL     1     -10.493   7.919  68.401  1.00  0.00    -0.166 C  
BRANCH   7   8
HETATM    8  C   UNL     1     -10.770   7.724  69.883  1.00  0.00    -0.245 A  
HETATM    9  C   UNL     1     -10.610   6.454  70.461  1.00  0.00    -0.291 A  
HETATM   10  C   UNL     1     -10.764   6.270  71.836  1.00  0.00    -0.271 A  
HETATM   11  C   UNL     1     -11.103   8.804  70.715  1.00  0.00    -0.306 A  
HETATM   12  C   UNL     1     -11.088   7.353  72.650  1.00  0.00    -0.378 A  
HETATM   13  C   UNL     1     -11.262   8.618  72.091  1.00  0.00    -0.438 A  
ENDBRANCH   7   8
BRANCH   7  14
HETATM   14  C   UNL     1     -10.044   9.327  68.031  1.00  0.00    -0.234 A  
HETATM   15  C   UNL     1     -10.491  11.420  66.865  1.00  0.00    -0.278 A  
HETATM   16  C   UNL     1      -8.372  11.094  67.971  1.00  0.00    -0.134 A  
HETATM   17  C   UNL     1     -10.901  10.152  67.280  1.00  0.00    -0.295 A  
HETATM   18  C   UNL     1      -8.779   9.823  68.382  1.00  0.00    -0.120 A  
HETATM   19  C   UNL     1      -9.225  11.888  67.206  1.00  0.00    -0.179 A  
ENDBRANCH   7  14
ENDBRANCH   6   7
ENDBRANCH   5   6
ENDBRANCH   4   5
ENDBRANCH   2   4
TORSDOF 6
ENDMDL
MODEL      196
REMARK 921   NORMALIZED FREE ENERGY PREDICTED BY IDOCK:   -2.96 KCAL/MOL
REMARK 922        TOTAL FREE ENERGY PREDICTED BY IDOCK:   -4.89 KCAL/MOL
REMARK 923 INTER-LIGAND FREE ENERGY PREDICTED BY IDOCK:   -4.65 KCAL/MOL
REMARK 924 INTRA-LIGAND FREE ENERGY PREDICTED BY IDOCK:   -0.24 KCAL/MOL
REMARK 927      BINDING AFFINITY PREDICTED BY RF-SCORE:    0.00 PKD
ROOT
HETATM    1  C   UNL     1      -6.436   9.930  64.649  1.00  0.00    -0.119 C  
HETATM    2  N   UNL     1      -6.563  10.064  63.194  1.00  0.00    -0.128 NA 
HETATM    3  C   UNL     1      -5.939   8.920  62.529  1.00  0.00    -0.094 C  
ENDROOT
BRANCH   2   4
HETATM    4  C   UNL     1      -7.984  10.209  62.833  1.00  0.00    -0.147 C  
BRANCH   4   5
HETATM    5  C   UNL     1      -8.990   9.796  63.925  1.00  0.00    -0.243 C  
BRANCH   5   6
HETATM    6  O   UNL     1     -10.177  10.599  63.943  1.00  0.00    -0.337 OA 
BRANCH   6   7
HETATM    7  C   UNL     1     -10.806  10.752  65.227  1.00  0.00     0.006 C  
BRANCH   7   8
HETATM    8  C   UNL     1     -10.091   9.955  66.307  1.00  0.00    -0.311 A  
HETATM    9  C   UNL     1     -10.401   8.597  66.492  1.00  0.00    -0.237 A  
HETATM   10  C   UNL     1      -9.691   7.822  67.409  1.00  0.00    -0.211 A  
HETATM   11  C   UNL     1      -9.062  10.520  67.075  1.00  0.00    -0.156 A  
HETATM   12  C   UNL     1      -8.667   8.395  68.160  1.00  0.00    -0.143 A  
HETATM   13  C   UNL     1      -8.355   9.743  67.997  1.00  0.00    -0.110 A  
ENDBRANCH   7   8
BRANCH   7  14
HETATM   14  C   UNL     1     -10.960  12.234  65.546  1.00  0.00    -0.337 A  
HETATM   15  C   UNL     1     -11.937  13.977  66.942  1.00  0.00    -0.479 A  
HETATM   16  C   UNL     1     -10.613  14.584  65.018  1.00  0.00    -0.458 A  
HETATM   17  C   UNL     1     -11.719  12.627  66.664  1.00  0.00    -0.464 A  
HETATM   18  C   UNL     1     -10.399  13.233  64.736  1.00  0.00    -0.381 A  
HETATM   19  C   UNL     1     -11.388  14.955  66.115  1.00  0.00    -0.307 A  
ENDBRANCH   7  14
ENDBRANCH   6   7
ENDBRANCH   5   6
ENDBRANCH   4   5
ENDBRANCH   2   4
TORSDOF 6
ENDMDL
MODEL      197
REMARK 921   NORMALIZED FREE ENERGY PREDICTED BY IDOCK:   -2.94 KCAL/MOL
REMARK 922        TOTAL FREE ENERGY PREDICTED BY IDOCK:   -4.88 KCAL/MOL
REMARK 923 INTER-LIGAND FREE ENERGY PREDICTED BY IDOCK:   -4.62 KCAL/MOL
REMARK 924 INTRA-LIGAND FREE ENERGY PREDICTED BY IDOCK:   -0.25 KCAL/MOL
REMARK 927      BINDING AFFINITY PREDICTED BY RF-SCORE:    0.00 PKD
ROOT
HETATM    1  C   UNL     1      -6.138   8.351  74.531  1.00  0.00    -0.121 C  
HETATM    2  N   UNL     1      -6.521   9.047  73.298  1.00  0.00    -0.322 NA 
HETATM    3  C   UNL     1      -5.333   9.591  72.641  1.00  0.00    -0.021 C  
ENDROOT
BRANCH   2   4
HETATM    4  C   UNL     1      -7.267   8.127  72.423  1.00  0.00    -0.100 C  
BRANCH   4   5
HETATM    5  C   UNL     1      -8.453   8.751  71.662  1.00  0.00    -0.141 C  
BRANCH   5   6
HETATM    6  O   UNL     1      -8.434   8.486  70.254  1.00  0.00    -0.118 OA 
BRANCH   6   7
HETATM    7  C   UNL     1      -9.708   8.549  69.590  1.00  0.00    -0.179 C  
BRANCH   7   8
HETATM    8  C   UNL     1     -10.862   8.567  70.580  1.00  0.00    -0.255 A  
HETATM    9  C   UNL     1     -11.425   9.793  70.973  1.00  0.00    -0.458 A  
HETATM   10  C   UNL     1     -12.545   9.830  71.804  1.00  0.00    -0.506 A  
HETATM   11  C   UNL     1     -11.439   7.380  71.055  1.00  0.00    -0.307 A  
HETATM   12  C   UNL     1     -13.111   8.643  72.262  1.00  0.00    -0.415 A  
HETATM   13  C   UNL     1     -12.558   7.419  71.892  1.00  0.00    -0.322 A  
ENDBRANCH   7   8
BRANCH   7  14
HETATM   14  C   UNL     1      -9.713   9.713  68.607  1.00  0.00    -0.162 A  
HETATM   15  C   UNL     1      -8.891  11.921  67.986  1.00  0.00    -0.177 A  
HETATM   16  C   UNL     1     -10.600  10.861  66.654  1.00  0.00    -0.305 A  
HETATM   17  C   UNL     1      -8.859  10.809  68.828  1.00  0.00    -0.163 A  
HETATM   18  C   UNL     1     -10.574   9.750  67.500  1.00  0.00    -0.335 A  
HETATM   19  C   UNL     1      -9.765  11.949  66.902  1.00  0.00    -0.212 A  
ENDBRANCH   7  14
ENDBRANCH   6   7
ENDBRANCH   5   6
ENDBRANCH   4   5
ENDBRANCH   2   4
TORSDOF 6
ENDMDL
MODEL      198
REMARK 921   NORMALIZED FREE ENERGY PREDICTED BY IDOCK:   -2.94 KCAL/MOL
REMARK 922        TOTAL FREE ENERGY PREDICTED BY IDOCK:   -4.87 KCAL/MOL
REMARK 923 INTER-LIGAND FREE ENERGY PREDICTED BY IDOCK:   -3.89 KCAL/MOL
REMARK 924 INTRA-LIGAND FREE ENERGY PREDICTED BY IDOCK:   -0.99 KCAL/MOL
REMARK 927      BINDING AFFINITY PREDICTED BY RF-SCORE:    0.00 PKD
ROOT
HETATM    1  C   UNL     1     -13.686   9.681  72.433  1.00  0.00    -0.264 C  
HETATM    2  N   UNL     1     -12.837  10.283  71.400  1.00  0.00    -0.404 NA 
HETATM    3  C   UNL     1     -12.893  11.740  71.493  1.00  0.00    -0.345 C  
ENDROOT
BRANCH   2   4
HETATM    4  C   UNL     1     -11.463   9.769  71.530  1.00  0.00    -0.323 C  
BRANCH   4   5
HETATM    5  C   UNL     1     -11.039   8.732  70.473  1.00  0.00    -0.246 C  
BRANCH   5   6
HETATM    6  O   UNL     1     -10.564   9.316  69.254  1.00  0.00    -0.221 OA 
BRANCH   6   7
HETATM    7  C   UNL     1      -9.522  10.297  69.397  1.00  0.00    -0.206 C  
BRANCH   7   8
HETATM    8  C   UNL     1      -8.146   9.654  69.468  1.00  0.00    -0.129 A  
HETATM    9  C   UNL     1      -7.699   8.844  68.411  1.00  0.00    -0.099 A  
HETATM   10  C   UNL     1      -6.404   8.323  68.409  1.00  0.00    -0.054 A  
HETATM   11  C   UNL     1      -7.270   9.915  70.532  1.00  0.00    -0.099 A  
HETATM   12  C   UNL     1      -5.543   8.596  69.469  1.00  0.00    -0.030 A  
HETATM   13  C   UNL     1      -5.975   9.387  70.532  1.00  0.00    -0.055 A  
ENDBRANCH   7   8
BRANCH   7  14
HETATM   14  C   UNL     1      -9.662  11.351  68.305  1.00  0.00    -0.202 A  
HETATM   15  C   UNL     1     -10.567  12.002  66.139  1.00  0.00    -0.298 A  
HETATM   16  C   UNL     1      -9.069  13.489  67.307  1.00  0.00    -0.225 A  
HETATM   17  C   UNL     1     -10.475  11.087  67.188  1.00  0.00    -0.274 A  
HETATM   18  C   UNL     1      -8.971  12.571  68.355  1.00  0.00    -0.130 A  
HETATM   19  C   UNL     1      -9.860  13.201  66.196  1.00  0.00    -0.284 A  
ENDBRANCH   7  14
ENDBRANCH   6   7
ENDBRANCH   5   6
ENDBRANCH   4   5
ENDBRANCH   2   4
TORSDOF 6
ENDMDL
MODEL      199
REMARK 921   NORMALIZED FREE ENERGY PREDICTED BY IDOCK:   -2.93 KCAL/MOL
REMARK 922        TOTAL FREE ENERGY PREDICTED BY IDOCK:   -4.86 KCAL/MOL
REMARK 923 INTER-LIGAND FREE ENERGY PREDICTED BY IDOCK:   -4.02 KCAL/MOL
REMARK 924 INTRA-LIGAND FREE ENERGY PREDICTED BY IDOCK:   -0.84 KCAL/MOL
REMARK 927      BINDING AFFINITY PREDICTED BY RF-SCORE:    0.00 PKD
ROOT
HETATM    1  C   UNL     1     -12.123  14.756  72.671  1.00  0.00    -0.201 C  
HETATM    2  N   UNL     1     -13.201  14.251  71.814  1.00  0.00    -0.345 NA 
HETATM    3  C   UNL     1     -14.247  15.263  71.677  1.00  0.00    -0.552 C  
ENDROOT
BRANCH   2   4
HETATM    4  C   UNL     1     -12.646  13.846  70.511  1.00  0.00    -0.312 C  
BRANCH   4   5
HETATM    5  C   UNL     1     -11.200  14.303  70.234  1.00  0.00     0.004 C  
BRANCH   5   6
HETATM    6  O   UNL     1     -10.875  14.363  68.840  1.00  0.00    -0.242 OA 
BRANCH   6   7
HETATM    7  C   UNL     1      -9.474  14.283  68.523  1.00  0.00    -0.206 C  
BRANCH   7   8
HETATM    8  C   UNL     1      -9.124  12.975  67.832  1.00  0.00    -0.207 A  
HETATM    9  C   UNL     1     -10.147  12.079  67.476  1.00  0.00    -0.205 A  
HETATM   10  C   UNL     1      -9.860  10.918  66.756  1.00  0.00    -0.231 A  
HETATM   11  C   UNL     1      -7.806  12.671  67.461  1.00  0.00    -0.175 A  
HETATM   12  C   UNL     1      -8.547  10.633  66.390  1.00  0.00    -0.151 A  
HETATM   13  C   UNL     1      -7.520  11.505  66.745  1.00  0.00    -0.118 A  
ENDBRANCH   7   8
BRANCH   7  14
HETATM   14  C   UNL     1      -9.055  15.527  67.750  1.00  0.00    -0.178 A  
HETATM   15  C   UNL     1      -9.297  16.936  65.777  1.00  0.00     0.005 A  
HETATM   16  C   UNL     1      -7.605  17.453  67.417  1.00  0.00    -0.209 A  
HETATM   17  C   UNL     1      -9.705  15.844  66.543  1.00  0.00    -0.286 A  
HETATM   18  C   UNL     1      -8.009  16.356  68.182  1.00  0.00    -0.160 A  
HETATM   19  C   UNL     1      -8.244  17.737  66.211  1.00  0.00    -0.252 A  
ENDBRANCH   7  14
ENDBRANCH   6   7
ENDBRANCH   5   6
ENDBRANCH   4   5
ENDBRANCH   2   4
TORSDOF 6
ENDMDL
MODEL      200
REMARK 921   NORMALIZED FREE ENERGY PREDICTED BY IDOCK:   -2.93 KCAL/MOL
REMARK 922        TOTAL FREE ENERGY PREDICTED BY IDOCK:   -4.86 KCAL/MOL
REMARK 923 INTER-LIGAND FREE ENERGY PREDICTED BY IDOCK:   -4.53 KCAL/MOL
REMARK 924 INTRA-LIGAND FREE ENERGY PREDICTED BY IDOCK:   -0.33 KCAL/MOL
REMARK 927      BINDING AFFINITY PREDICTED BY RF-SCORE:    0.00 PKD
ROOT
HETATM    1  C   UNL     1      -8.567  15.693  69.192  1.00  0.00    -0.251 C  
HETATM    2  N   UNL     1      -8.550  16.263  67.841  1.00  0.00    -0.172 NA 
HETATM    3  C   UNL     1      -7.871  17.557  67.853  1.00  0.00    -0.218 C  
ENDROOT
BRANCH   2   4
HETATM    4  C   UNL     1      -7.917  15.311  66.912  1.00  0.00    -0.159 C  
BRANCH   4   5
HETATM    5  C   UNL     1      -7.379  14.017  67.552  1.00  0.00    -0.170 C  
BRANCH   5   6
HETATM    6  O   UNL     1      -8.369  12.991  67.690  1.00  0.00    -0.155 OA 
BRANCH   6   7
HETATM    7  C   UNL     1      -8.805  12.375  66.466  1.00  0.00    -0.106 C  
BRANCH   7   8
HETATM    8  C   UNL     1      -8.662  10.862  66.512  1.00  0.00    -0.165 A  
HETATM    9  C   UNL     1      -7.749  10.274  67.404  1.00  0.00    -0.095 A  
HETATM   10  C   UNL     1      -7.669   8.888  67.532  1.00  0.00    -0.100 A  
HETATM   11  C   UNL     1      -9.482  10.025  65.741  1.00  0.00    -0.270 A  
HETATM   12  C   UNL     1      -8.494   8.069  66.765  1.00  0.00    -0.128 A  
HETATM   13  C   UNL     1      -9.397   8.635  65.867  1.00  0.00    -0.262 A  
ENDBRANCH   7   8
BRANCH   7  14
HETATM   14  C   UNL     1     -10.209  12.858  66.124  1.00  0.00    -0.286 A  
HETATM   15  C   UNL     1     -11.900  13.324  64.432  1.00  0.00    -0.448 A  
HETATM   16  C   UNL     1     -12.332  13.874  66.741  1.00  0.00    -0.370 A  
HETATM   17  C   UNL     1     -10.646  12.823  64.787  1.00  0.00    -0.348 A  
HETATM   18  C   UNL     1     -11.076  13.378  67.097  1.00  0.00    -0.303 A  
HETATM   19  C   UNL     1     -12.740  13.854  65.408  1.00  0.00    -0.525 A  
ENDBRANCH   7  14
ENDBRANCH   6   7
ENDBRANCH   5   6
ENDBRANCH   4   5
ENDBRANCH   2   4
TORSDOF 6
ENDMDL
MODEL      201
REMARK 921   NORMALIZED FREE ENERGY PREDICTED BY IDOCK:   -2.91 KCAL/MOL
REMARK 922        TOTAL FREE ENERGY PREDICTED BY IDOCK:   -4.82 KCAL/MOL
REMARK 923 INTER-LIGAND FREE ENERGY PREDICTED BY IDOCK:   -4.62 KCAL/MOL
REMARK 924 INTRA-LIGAND FREE ENERGY PREDICTED BY IDOCK:   -0.20 KCAL/MOL
REMARK 927      BINDING AFFINITY PREDICTED BY RF-SCORE:    0.00 PKD
ROOT
HETATM    1  C   UNL     1      -9.450   8.343  68.751  1.00  0.00    -0.147 C  
HETATM    2  N   UNL     1     -10.288   9.464  69.190  1.00  0.00    -0.205 NA 
HETATM    3  C   UNL     1     -10.297   9.541  70.649  1.00  0.00    -0.302 C  
ENDROOT
BRANCH   2   4
HETATM    4  C   UNL     1      -9.807  10.712  68.570  1.00  0.00    -0.168 C  
BRANCH   4   5
HETATM    5  C   UNL     1     -10.651  11.235  67.392  1.00  0.00    -0.224 C  
BRANCH   5   6
HETATM    6  O   UNL     1     -10.800  10.287  66.328  1.00  0.00    -0.068 OA 
BRANCH   6   7
HETATM    7  C   UNL     1     -10.717  10.826  64.997  1.00  0.00    -0.090 C  
BRANCH   7   8
HETATM    8  C   UNL     1     -11.136  12.287  64.951  1.00  0.00    -0.356 A  
HETATM    9  C   UNL     1     -12.496  12.626  65.054  1.00  0.00    -0.556 A  
HETATM   10  C   UNL     1     -12.897  13.961  65.111  1.00  0.00    -0.383 A  
HETATM   11  C   UNL     1     -10.189  13.320  64.890  1.00  0.00    -0.313 A  
HETATM   12  C   UNL     1     -11.944  14.976  65.057  1.00  0.00    -0.191 A  
HETATM   13  C   UNL     1     -10.592  14.657  64.942  1.00  0.00    -0.446 A  
ENDBRANCH   7   8
BRANCH   7  14
HETATM   14  C   UNL     1      -9.332  10.557  64.423  1.00  0.00    -0.307 A  
HETATM   15  C   UNL     1      -7.899  10.287  62.470  1.00  0.00    -0.158 A  
HETATM   16  C   UNL     1      -6.996   9.924  64.678  1.00  0.00    -0.133 A  
HETATM   17  C   UNL     1      -9.139  10.598  63.030  1.00  0.00    -0.286 A  
HETATM   18  C   UNL     1      -8.238  10.229  65.239  1.00  0.00    -0.161 A  
HETATM   19  C   UNL     1      -6.830   9.945  63.294  1.00  0.00    -0.127 A  
ENDBRANCH   7  14
ENDBRANCH   6   7
ENDBRANCH   5   6
ENDBRANCH   4   5
ENDBRANCH   2   4
TORSDOF 6
ENDMDL
MODEL      202
REMARK 921   NORMALIZED FREE ENERGY PREDICTED BY IDOCK:   -2.85 KCAL/MOL
REMARK 922        TOTAL FREE ENERGY PREDICTED BY IDOCK:   -4.75 KCAL/MOL
REMARK 923 INTER-LIGAND FREE ENERGY PREDICTED BY IDOCK:   -4.86 KCAL/MOL
REMARK 924 INTRA-LIGAND FREE ENERGY PREDICTED BY IDOCK:    0.12 KCAL/MOL
REMARK 927      BINDING AFFINITY PREDICTED BY RF-SCORE:    0.00 PKD
ROOT
HETATM    1  C   UNL     1     -12.207  13.639  70.371  1.00  0.00    -0.363 C  
HETATM    2  N   UNL     1     -12.226  15.098  70.227  1.00  0.00    -0.327 NA 
HETATM    3  C   UNL     1     -11.369  15.712  71.240  1.00  0.00    -0.390 C  
ENDROOT
BRANCH   2   4
HETATM    4  C   UNL     1     -11.822  15.464  68.859  1.00  0.00    -0.329 C  
BRANCH   4   5
HETATM    5  C   UNL     1     -11.496  14.283  67.925  1.00  0.00    -0.315 C  
BRANCH   5   6
HETATM    6  O   UNL     1     -10.308  13.571  68.294  1.00  0.00    -0.239 OA 
BRANCH   6   7
HETATM    7  C   UNL     1      -9.302  13.465  67.272  1.00  0.00    -0.233 C  
BRANCH   7   8
HETATM    8  C   UNL     1      -8.051  12.765  67.780  1.00  0.00    -0.168 A  
HETATM    9  C   UNL     1      -8.172  11.642  68.616  1.00  0.00    -0.110 A  
HETATM   10  C   UNL     1      -7.043  10.926  69.016  1.00  0.00    -0.095 A  
HETATM   11  C   UNL     1      -6.770  13.161  67.367  1.00  0.00    -0.107 A  
HETATM   12  C   UNL     1      -5.778  11.327  68.593  1.00  0.00    -0.042 A  
HETATM   13  C   UNL     1      -5.640  12.446  67.773  1.00  0.00    -0.099 A  
ENDBRANCH   7   8
BRANCH   7  14
HETATM   14  C   UNL     1      -9.907  12.832  66.025  1.00  0.00    -0.258 A  
HETATM   15  C   UNL     1     -10.469  10.820  64.771  1.00  0.00    -0.335 A  
HETATM   16  C   UNL     1     -10.847  12.990  63.786  1.00  0.00    -0.266 A  
HETATM   17  C   UNL     1      -9.985  11.431  65.928  1.00  0.00    -0.274 A  
HETATM   18  C   UNL     1     -10.358  13.603  64.942  1.00  0.00    -0.408 A  
HETATM   19  C   UNL     1     -10.895  11.600  63.698  1.00  0.00    -0.503 A  
ENDBRANCH   7  14
ENDBRANCH   6   7
ENDBRANCH   5   6
ENDBRANCH   4   5
ENDBRANCH   2   4
TORSDOF 6
ENDMDL
MODEL      203
REMARK 921   NORMALIZED FREE ENERGY PREDICTED BY IDOCK:   -2.79 KCAL/MOL
REMARK 922        TOTAL FREE ENERGY PREDICTED BY IDOCK:   -4.67 KCAL/MOL
REMARK 923 INTER-LIGAND FREE ENERGY PREDICTED BY IDOCK:   -3.85 KCAL/MOL
REMARK 924 INTRA-LIGAND FREE ENERGY PREDICTED BY IDOCK:   -0.81 KCAL/MOL
REMARK 927      BINDING AFFINITY PREDICTED BY RF-SCORE:    0.00 PKD
ROOT
HETATM    1  C   UNL     1      -8.722   5.045  65.741  1.00  0.00    -0.135 C  
HETATM    2  N   UNL     1      -9.964   5.811  65.885  1.00  0.00     0.059 NA 
HETATM    3  C   UNL     1     -11.115   4.909  65.863  1.00  0.00     0.243 C  
ENDROOT
BRANCH   2   4
HETATM    4  C   UNL     1      -9.910   6.613  67.120  1.00  0.00    -0.151 C  
BRANCH   4   5
HETATM    5  C   UNL     1     -10.534   5.955  68.365  1.00  0.00    -0.237 C  
BRANCH   5   6
HETATM    6  O   UNL     1     -10.238   6.644  69.586  1.00  0.00    -0.177 OA 
BRANCH   6   7
HETATM    7  C   UNL     1     -11.247   6.563  70.608  1.00  0.00    -0.329 C  
BRANCH   7   8
HETATM    8  C   UNL     1     -10.766   5.774  71.816  1.00  0.00    -0.305 A  
HETATM    9  C   UNL     1      -9.524   6.078  72.398  1.00  0.00    -0.153 A  
HETATM   10  C   UNL     1      -9.105   5.434  73.563  1.00  0.00    -0.128 A  
HETATM   11  C   UNL     1     -11.571   4.798  72.422  1.00  0.00     0.280 A  
HETATM   12  C   UNL     1      -9.918   4.472  74.158  1.00  0.00    -0.205 A  
HETATM   13  C   UNL     1     -11.148   4.151  73.587  1.00  0.00    -0.337 A  
ENDBRANCH   7   8
BRANCH   7  14
HETATM   14  C   UNL     1     -11.752   7.962  70.938  1.00  0.00    -0.271 A  
HETATM   15  C   UNL     1     -11.633  10.365  70.556  1.00  0.00    -0.433 A  
HETATM   16  C   UNL     1     -13.079   9.496  72.281  1.00  0.00    -0.492 A  
HETATM   17  C   UNL     1     -11.244   9.066  70.230  1.00  0.00    -0.232 A  
HETATM   18  C   UNL     1     -12.685   8.196  71.959  1.00  0.00    -0.355 A  
HETATM   19  C   UNL     1     -12.547  10.580  71.585  1.00  0.00    -0.498 A  
ENDBRANCH   7  14
ENDBRANCH   6   7
ENDBRANCH   5   6
ENDBRANCH   4   5
ENDBRANCH   2   4
TORSDOF 6
ENDMDL
MODEL      204
REMARK 921   NORMALIZED FREE ENERGY PREDICTED BY IDOCK:   -2.78 KCAL/MOL
REMARK 922        TOTAL FREE ENERGY PREDICTED BY IDOCK:   -4.65 KCAL/MOL
REMARK 923 INTER-LIGAND FREE ENERGY PREDICTED BY IDOCK:   -3.92 KCAL/MOL
REMARK 924 INTRA-LIGAND FREE ENERGY PREDICTED BY IDOCK:   -0.73 KCAL/MOL
REMARK 927      BINDING AFFINITY PREDICTED BY RF-SCORE:    0.00 PKD
ROOT
HETATM    1  C   UNL     1     -12.781  13.916  65.813  1.00  0.00    -0.461 C  
HETATM    2  N   UNL     1     -12.647  13.138  64.577  1.00  0.00    -0.647 NA 
HETATM    3  C   UNL     1     -12.213  14.006  63.484  1.00  0.00     0.029 C  
ENDROOT
BRANCH   2   4
HETATM    4  C   UNL     1     -11.718  12.016  64.798  1.00  0.00    -0.275 C  
BRANCH   4   5
HETATM    5  C   UNL     1     -11.392  11.706  66.272  1.00  0.00    -0.227 C  
BRANCH   5   6
HETATM    6  O   UNL     1     -10.016  11.375  66.497  1.00  0.00    -0.202 OA 
BRANCH   6   7
HETATM    7  C   UNL     1      -9.535  11.585  67.836  1.00  0.00    -0.178 C  
BRANCH   7   8
HETATM    8  C   UNL     1      -8.046  11.303  67.953  1.00  0.00    -0.121 A  
HETATM    9  C   UNL     1      -7.253  11.249  66.794  1.00  0.00    -0.142 A  
HETATM   10  C   UNL     1      -5.870  11.088  66.882  1.00  0.00    -0.083 A  
HETATM   11  C   UNL     1      -7.420  11.175  69.202  1.00  0.00    -0.109 A  
HETATM   12  C   UNL     1      -5.261  10.969  68.130  1.00  0.00    -0.039 A  
HETATM   13  C   UNL     1      -6.035  11.008  69.289  1.00  0.00    -0.046 A  
ENDBRANCH   7   8
BRANCH   7  14
HETATM   14  C   UNL     1      -9.946  12.973  68.313  1.00  0.00    -0.235 A  
HETATM   15  C   UNL     1     -11.474  14.368  69.600  1.00  0.00    -0.331 A  
HETATM   16  C   UNL     1      -9.743  15.397  68.270  1.00  0.00    -0.209 A  
HETATM   17  C   UNL     1     -11.029  13.107  69.200  1.00  0.00    -0.194 A  
HETATM   18  C   UNL     1      -9.301  14.136  67.865  1.00  0.00    -0.204 A  
HETATM   19  C   UNL     1     -10.834  15.513  69.130  1.00  0.00    -0.251 A  
ENDBRANCH   7  14
ENDBRANCH   6   7
ENDBRANCH   5   6
ENDBRANCH   4   5
ENDBRANCH   2   4
TORSDOF 6
ENDMDL
MODEL      205
REMARK 921   NORMALIZED FREE ENERGY PREDICTED BY IDOCK:   -2.78 KCAL/MOL
REMARK 922        TOTAL FREE ENERGY PREDICTED BY IDOCK:   -4.65 KCAL/MOL
REMARK 923 INTER-LIGAND FREE ENERGY PREDICTED BY IDOCK:   -4.44 KCAL/MOL
REMARK 924 INTRA-LIGAND FREE ENERGY PREDICTED BY IDOCK:   -0.21 KCAL/MOL
REMARK 927      BINDING AFFINITY PREDICTED BY RF-SCORE:    0.00 PKD
ROOT
HETATM    1  C   UNL     1     -12.428   7.682  71.371  1.00  0.00    -0.333 C  
HETATM    2  N   UNL     1     -11.515   8.828  71.295  1.00  0.00    -0.274 NA 
HETATM    3  C   UNL     1     -10.343   8.591  72.135  1.00  0.00    -0.339 C  
ENDROOT
BRANCH   2   4
HETATM    4  C   UNL     1     -11.151   9.076  69.889  1.00  0.00    -0.142 C  
BRANCH   4   5
HETATM    5  C   UNL     1     -10.558  10.467  69.593  1.00  0.00    -0.242 C  
BRANCH   5   6
HETATM    6  O   UNL     1      -9.188  10.430  69.174  1.00  0.00    -0.180 OA 
BRANCH   6   7
HETATM    7  C   UNL     1      -8.890  11.128  67.953  1.00  0.00    -0.136 C  
BRANCH   7   8
HETATM    8  C   UNL     1      -8.696  10.171  66.787  1.00  0.00    -0.133 A  
HETATM    9  C   UNL     1      -8.114  10.633  65.595  1.00  0.00    -0.146 A  
HETATM   10  C   UNL     1      -7.837   9.753  64.548  1.00  0.00    -0.137 A  
HETATM   11  C   UNL     1      -9.009   8.808  66.898  1.00  0.00    -0.155 A  
HETATM   12  C   UNL     1      -8.148   8.401  64.674  1.00  0.00    -0.156 A  
HETATM   13  C   UNL     1      -8.737   7.929  65.846  1.00  0.00    -0.180 A  
ENDBRANCH   7   8
BRANCH   7  14
HETATM   14  C   UNL     1      -9.943  12.201  67.709  1.00  0.00    -0.198 A  
HETATM   15  C   UNL     1     -10.869  14.382  68.279  1.00  0.00    -0.250 A  
HETATM   16  C   UNL     1     -11.993  12.989  66.661  1.00  0.00    -0.453 A  
HETATM   17  C   UNL     1      -9.880  13.409  68.428  1.00  0.00    -0.216 A  
HETATM   18  C   UNL     1     -11.007  12.012  66.814  1.00  0.00    -0.329 A  
HETATM   19  C   UNL     1     -11.928  14.169  67.400  1.00  0.00    -0.439 A  
ENDBRANCH   7  14
ENDBRANCH   6   7
ENDBRANCH   5   6
ENDBRANCH   4   5
ENDBRANCH   2   4
TORSDOF 6
ENDMDL
MODEL      206
REMARK 921   NORMALIZED FREE ENERGY PREDICTED BY IDOCK:   -2.74 KCAL/MOL
REMARK 922        TOTAL FREE ENERGY PREDICTED BY IDOCK:   -4.60 KCAL/MOL
REMARK 923 INTER-LIGAND FREE ENERGY PREDICTED BY IDOCK:   -3.97 KCAL/MOL
REMARK 924 INTRA-LIGAND FREE ENERGY PREDICTED BY IDOCK:   -0.63 KCAL/MOL
REMARK 927      BINDING AFFINITY PREDICTED BY RF-SCORE:    0.00 PKD
ROOT
HETATM    1  C   UNL     1      -8.479   9.987  65.323  1.00  0.00    -0.154 C  
HETATM    2  N   UNL     1      -8.965  11.163  66.052  1.00  0.00    -0.197 NA 
HETATM    3  C   UNL     1     -10.050  11.800  65.308  1.00  0.00    -0.262 C  
ENDROOT
BRANCH   2   4
HETATM    4  C   UNL     1      -9.380  10.765  67.409  1.00  0.00    -0.150 C  
BRANCH   4   5
HETATM    5  C   UNL     1      -9.118   9.292  67.778  1.00  0.00    -0.126 C  
BRANCH   5   6
HETATM    6  O   UNL     1      -9.535   8.951  69.105  1.00  0.00    -0.154 OA 
BRANCH   6   7
HETATM    7  C   UNL     1     -10.262   7.717  69.233  1.00  0.00    -0.210 C  
BRANCH   7   8
HETATM    8  C   UNL     1      -9.654   6.611  68.385  1.00  0.00    -0.123 A  
HETATM    9  C   UNL     1      -8.352   6.158  68.659  1.00  0.00    -0.114 A  
HETATM   10  C   UNL     1      -7.809   5.081  67.958  1.00  0.00    -0.087 A  
HETATM   11  C   UNL     1     -10.391   5.968  67.380  1.00  0.00    -0.268 A  
HETATM   12  C   UNL     1      -8.555   4.447  66.968  1.00  0.00    -0.104 A  
HETATM   13  C   UNL     1      -9.843   4.892  66.675  1.00  0.00    -0.223 A  
ENDBRANCH   7   8
BRANCH   7  14
HETATM   14  C   UNL     1     -10.409   7.362  70.707  1.00  0.00    -0.208 A  
HETATM   15  C   UNL     1     -11.489   6.020  72.431  1.00  0.00    -0.357 A  
HETATM   16  C   UNL     1      -9.939   7.758  73.061  1.00  0.00    -0.356 A  
HETATM   17  C   UNL     1     -11.279   6.322  71.085  1.00  0.00    -0.365 A  
HETATM   18  C   UNL     1      -9.732   8.065  71.714  1.00  0.00    -0.233 A  
HETATM   19  C   UNL     1     -10.823   6.742  73.419  1.00  0.00    -0.282 A  
ENDBRANCH   7  14
ENDBRANCH   6   7
ENDBRANCH   5   6
ENDBRANCH   4   5
ENDBRANCH   2   4
TORSDOF 6
ENDMDL
MODEL      207
REMARK 921   NORMALIZED FREE ENERGY PREDICTED BY IDOCK:   -2.73 KCAL/MOL
REMARK 922        TOTAL FREE ENERGY PREDICTED BY IDOCK:   -4.59 KCAL/MOL
REMARK 923 INTER-LIGAND FREE ENERGY PREDICTED BY IDOCK:   -3.96 KCAL/MOL
REMARK 924 INTRA-LIGAND FREE ENERGY PREDICTED BY IDOCK:   -0.63 KCAL/MOL
REMARK 927      BINDING AFFINITY PREDICTED BY RF-SCORE:    0.00 PKD
ROOT
HETATM    1  C   UNL     1      -6.143   9.654  64.030  1.00  0.00    -0.102 C  
HETATM    2  N   UNL     1      -6.375   8.299  64.541  1.00  0.00    -0.064 NA 
HETATM    3  C   UNL     1      -5.129   7.743  65.066  1.00  0.00    -0.029 C  
ENDROOT
BRANCH   2   4
HETATM    4  C   UNL     1      -7.441   8.331  65.557  1.00  0.00    -0.077 C  
BRANCH   4   5
HETATM    5  C   UNL     1      -8.852   7.975  65.048  1.00  0.00     0.170 C  
BRANCH   5   6
HETATM    6  O   UNL     1      -9.899   8.688  65.718  1.00  0.00    -0.130 OA 
BRANCH   6   7
HETATM    7  C   UNL     1      -9.524   9.950  66.296  1.00  0.00    -0.193 C  
BRANCH   7   8
HETATM    8  C   UNL     1     -10.251  11.112  65.636  1.00  0.00    -0.310 A  
HETATM    9  C   UNL     1     -10.573  12.252  66.392  1.00  0.00    -0.272 A  
HETATM   10  C   UNL     1     -11.152  13.368  65.788  1.00  0.00    -0.295 A  
HETATM   11  C   UNL     1     -10.538  11.113  64.263  1.00  0.00    -0.425 A  
HETATM   12  C   UNL     1     -11.426  13.357  64.422  1.00  0.00    -0.417 A  
HETATM   13  C   UNL     1     -11.123  12.230  63.660  1.00  0.00    -0.537 A  
ENDBRANCH   7   8
BRANCH   7  14
HETATM   14  C   UNL     1      -9.692   9.888  67.808  1.00  0.00    -0.175 A  
HETATM   15  C   UNL     1      -8.669   9.837  70.020  1.00  0.00    -0.237 A  
HETATM   16  C   UNL     1     -11.060   9.601  69.800  1.00  0.00    -0.247 A  
HETATM   17  C   UNL     1      -8.555   9.961  68.634  1.00  0.00    -0.119 A  
HETATM   18  C   UNL     1     -10.947   9.720  68.413  1.00  0.00    -0.200 A  
HETATM   19  C   UNL     1      -9.921   9.651  70.601  1.00  0.00    -0.299 A  
ENDBRANCH   7  14
ENDBRANCH   6   7
ENDBRANCH   5   6
ENDBRANCH   4   5
ENDBRANCH   2   4
TORSDOF 6
ENDMDL
MODEL      208
REMARK 921   NORMALIZED FREE ENERGY PREDICTED BY IDOCK:   -2.73 KCAL/MOL
REMARK 922        TOTAL FREE ENERGY PREDICTED BY IDOCK:   -4.58 KCAL/MOL
REMARK 923 INTER-LIGAND FREE ENERGY PREDICTED BY IDOCK:   -5.05 KCAL/MOL
REMARK 924 INTRA-LIGAND FREE ENERGY PREDICTED BY IDOCK:    0.47 KCAL/MOL
REMARK 927      BINDING AFFINITY PREDICTED BY RF-SCORE:    0.00 PKD
ROOT
HETATM    1  C   UNL     1      -6.200  13.130  67.462  1.00  0.00    -0.122 C  
HETATM    2  N   UNL     1      -7.093  13.185  68.623  1.00  0.00    -0.100 NA 
HETATM    3  C   UNL     1      -7.921  14.388  68.562  1.00  0.00    -0.144 C  
ENDROOT
BRANCH   2   4
HETATM    4  C   UNL     1      -7.903  11.956  68.681  1.00  0.00    -0.104 C  
BRANCH   4   5
HETATM    5  C   UNL     1      -8.657  11.596  67.387  1.00  0.00    -0.149 C  
BRANCH   5   6
HETATM    6  O   UNL     1     -10.041  11.287  67.596  1.00  0.00    -0.176 OA 
BRANCH   6   7
HETATM    7  C   UNL     1     -10.777  10.898  66.423  1.00  0.00    -0.194 C  
BRANCH   7   8
HETATM    8  C   UNL     1     -11.325  12.101  65.673  1.00  0.00    -0.395 A  
HETATM    9  C   UNL     1     -11.544  13.309  66.358  1.00  0.00    -0.387 A  
HETATM   10  C   UNL     1     -11.954  14.453  65.673  1.00  0.00    -0.356 A  
HETATM   11  C   UNL     1     -11.543  12.065  64.288  1.00  0.00    -0.435 A  
HETATM   12  C   UNL     1     -12.160  14.404  64.296  1.00  0.00    -0.461 A  
HETATM   13  C   UNL     1     -11.959  13.211  63.604  1.00  0.00    -0.580 A  
ENDBRANCH   7   8
BRANCH   7  14
HETATM   14  C   UNL     1      -9.922   9.969  65.571  1.00  0.00    -0.367 A  
HETATM   15  C   UNL     1      -8.675   7.885  65.365  1.00  0.00    -0.078 A  
HETATM   16  C   UNL     1      -8.651   9.479  63.554  1.00  0.00    -0.221 A  
HETATM   17  C   UNL     1      -9.515   8.727  66.094  1.00  0.00    -0.315 A  
HETATM   18  C   UNL     1      -9.488  10.325  64.285  1.00  0.00    -0.365 A  
HETATM   19  C   UNL     1      -8.238   8.264  64.098  1.00  0.00    -0.107 A  
ENDBRANCH   7  14
ENDBRANCH   6   7
ENDBRANCH   5   6
ENDBRANCH   4   5
ENDBRANCH   2   4
TORSDOF 6
ENDMDL
MODEL      209
REMARK 921   NORMALIZED FREE ENERGY PREDICTED BY IDOCK:   -2.73 KCAL/MOL
REMARK 922        TOTAL FREE ENERGY PREDICTED BY IDOCK:   -4.58 KCAL/MOL
REMARK 923 INTER-LIGAND FREE ENERGY PREDICTED BY IDOCK:   -3.74 KCAL/MOL
REMARK 924 INTRA-LIGAND FREE ENERGY PREDICTED BY IDOCK:   -0.85 KCAL/MOL
REMARK 927      BINDING AFFINITY PREDICTED BY RF-SCORE:    0.00 PKD
ROOT
HETATM    1  C   UNL     1     -13.759   9.347  72.204  1.00  0.00    -0.420 C  
HETATM    2  N   UNL     1     -12.743   9.492  71.157  1.00  0.00    -0.311 NA 
HETATM    3  C   UNL     1     -12.554  10.906  70.835  1.00  0.00    -0.397 C  
ENDROOT
BRANCH   2   4
HETATM    4  C   UNL     1     -11.491   8.849  71.591  1.00  0.00    -0.339 C  
BRANCH   4   5
HETATM    5  C   UNL     1     -11.182   7.489  70.936  1.00  0.00    -0.269 C  
BRANCH   5   6
HETATM    6  O   UNL     1     -10.306   7.582  69.806  1.00  0.00    -0.210 OA 
BRANCH   6   7
HETATM    7  C   UNL     1      -9.064   6.868  69.918  1.00  0.00    -0.144 C  
BRANCH   7   8
HETATM    8  C   UNL     1      -9.211   5.410  69.512  1.00  0.00    -0.152 A  
HETATM    9  C   UNL     1      -9.299   5.070  68.151  1.00  0.00    -0.156 A  
HETATM   10  C   UNL     1      -9.338   3.735  67.750  1.00  0.00    -0.237 A  
HETATM   11  C   UNL     1      -9.178   4.377  70.461  1.00  0.00    -0.192 A  
HETATM   12  C   UNL     1      -9.298   2.720  68.704  1.00  0.00    -0.240 A  
HETATM   13  C   UNL     1      -9.223   3.039  70.058  1.00  0.00    -0.216 A  
ENDBRANCH   7   8
BRANCH   7  14
HETATM   14  C   UNL     1      -7.974   7.618  69.163  1.00  0.00    -0.120 A  
HETATM   15  C   UNL     1      -7.364   9.281  67.489  1.00  0.00    -0.087 A  
HETATM   16  C   UNL     1      -5.643   7.973  68.562  1.00  0.00    -0.032 A  
HETATM   17  C   UNL     1      -8.334   8.625  68.248  1.00  0.00    -0.127 A  
HETATM   18  C   UNL     1      -6.613   7.312  69.318  1.00  0.00    -0.041 A  
HETATM   19  C   UNL     1      -6.019   8.951  67.643  1.00  0.00    -0.047 A  
ENDBRANCH   7  14
ENDBRANCH   6   7
ENDBRANCH   5   6
ENDBRANCH   4   5
ENDBRANCH   2   4
TORSDOF 6
ENDMDL
MODEL      210
REMARK 921   NORMALIZED FREE ENERGY PREDICTED BY IDOCK:   -2.71 KCAL/MOL
REMARK 922        TOTAL FREE ENERGY PREDICTED BY IDOCK:   -4.56 KCAL/MOL
REMARK 923 INTER-LIGAND FREE ENERGY PREDICTED BY IDOCK:   -4.68 KCAL/MOL
REMARK 924 INTRA-LIGAND FREE ENERGY PREDICTED BY IDOCK:    0.12 KCAL/MOL
REMARK 927      BINDING AFFINITY PREDICTED BY RF-SCORE:    0.00 PKD
ROOT
HETATM    1  C   UNL     1      -6.206   8.548  74.434  1.00  0.00    -0.129 C  
HETATM    2  N   UNL     1      -6.793   8.857  73.126  1.00  0.00    -0.329 NA 
HETATM    3  C   UNL     1      -5.739   8.999  72.124  1.00  0.00    -0.072 C  
ENDROOT
BRANCH   2   4
HETATM    4  C   UNL     1      -7.768   7.814  72.764  1.00  0.00    -0.106 C  
BRANCH   4   5
HETATM    5  C   UNL     1      -8.822   8.224  71.717  1.00  0.00    -0.173 C  
BRANCH   5   6
HETATM    6  O   UNL     1      -9.048   7.230  70.710  1.00  0.00    -0.151 OA 
BRANCH   6   7
HETATM    7  C   UNL     1     -10.204   7.435  69.880  1.00  0.00    -0.211 C  
BRANCH   7   8
HETATM    8  C   UNL     1     -11.227   8.340  70.548  1.00  0.00    -0.247 A  
HETATM    9  C   UNL     1     -12.315   7.775  71.235  1.00  0.00    -0.314 A  
HETATM   10  C   UNL     1     -13.212   8.581  71.936  1.00  0.00    -0.398 A  
HETATM   11  C   UNL     1     -11.070   9.734  70.568  1.00  0.00    -0.384 A  
HETATM   12  C   UNL     1     -13.039   9.963  71.953  1.00  0.00    -0.559 A  
HETATM   13  C   UNL     1     -11.973  10.541  71.267  1.00  0.00    -0.386 A  
ENDBRANCH   7   8
BRANCH   7  14
HETATM   14  C   UNL     1      -9.763   7.905  68.500  1.00  0.00    -0.167 A  
HETATM   15  C   UNL     1      -7.997   8.114  66.833  1.00  0.00    -0.104 A  
HETATM   16  C   UNL     1     -10.155   9.111  66.423  1.00  0.00    -0.345 A  
HETATM   17  C   UNL     1      -8.453   7.635  68.063  1.00  0.00    -0.123 A  
HETATM   18  C   UNL     1     -10.611   8.638  67.656  1.00  0.00    -0.272 A  
HETATM   19  C   UNL     1      -8.847   8.856  66.017  1.00  0.00    -0.206 A  
ENDBRANCH   7  14
ENDBRANCH   6   7
ENDBRANCH   5   6
ENDBRANCH   4   5
ENDBRANCH   2   4
TORSDOF 6
ENDMDL
MODEL      211
REMARK 921   NORMALIZED FREE ENERGY PREDICTED BY IDOCK:   -2.68 KCAL/MOL
REMARK 922        TOTAL FREE ENERGY PREDICTED BY IDOCK:   -4.51 KCAL/MOL
REMARK 923 INTER-LIGAND FREE ENERGY PREDICTED BY IDOCK:   -4.29 KCAL/MOL
REMARK 924 INTRA-LIGAND FREE ENERGY PREDICTED BY IDOCK:   -0.22 KCAL/MOL
REMARK 927      BINDING AFFINITY PREDICTED BY RF-SCORE:    0.00 PKD
ROOT
HETATM    1  C   UNL     1      -6.775   9.585  64.919  1.00  0.00    -0.094 C  
HETATM    2  N   UNL     1      -7.578   9.363  63.711  1.00  0.00    -0.113 NA 
HETATM    3  C   UNL     1      -7.243   8.069  63.118  1.00  0.00    -0.091 C  
ENDROOT
BRANCH   2   4
HETATM    4  C   UNL     1      -9.009   9.469  64.044  1.00  0.00    -0.188 C  
BRANCH   4   5
HETATM    5  C   UNL     1      -9.368   9.214  65.521  1.00  0.00    -0.221 C  
BRANCH   5   6
HETATM    6  O   UNL     1     -10.678   9.669  65.879  1.00  0.00     0.098 OA 
BRANCH   6   7
HETATM    7  C   UNL     1     -10.727  10.864  66.678  1.00  0.00    -0.230 C  
BRANCH   7   8
HETATM    8  C   UNL     1      -9.370  11.200  67.276  1.00  0.00    -0.170 A  
HETATM    9  C   UNL     1      -8.855  10.416  68.322  1.00  0.00    -0.135 A  
HETATM   10  C   UNL     1      -7.573  10.645  68.821  1.00  0.00    -0.109 A  
HETATM   11  C   UNL     1      -8.573  12.231  66.754  1.00  0.00    -0.149 A  
HETATM   12  C   UNL     1      -6.790  11.667  68.288  1.00  0.00    -0.067 A  
HETATM   13  C   UNL     1      -7.290  12.462  67.259  1.00  0.00    -0.127 A  
ENDBRANCH   7   8
BRANCH   7  14
HETATM   14  C   UNL     1     -11.347  11.995  65.866  1.00  0.00    -0.391 A  
HETATM   15  C   UNL     1     -11.914  12.931  63.689  1.00  0.00    -0.613 A  
HETATM   16  C   UNL     1     -12.324  14.216  65.689  1.00  0.00    -0.473 A  
HETATM   17  C   UNL     1     -11.416  11.884  64.465  1.00  0.00    -0.363 A  
HETATM   18  C   UNL     1     -11.821  13.171  66.467  1.00  0.00    -0.456 A  
HETATM   19  C   UNL     1     -12.362  14.099  64.301  1.00  0.00    -0.398 A  
ENDBRANCH   7  14
ENDBRANCH   6   7
ENDBRANCH   5   6
ENDBRANCH   4   5
ENDBRANCH   2   4
TORSDOF 6
ENDMDL
MODEL      212
REMARK 921   NORMALIZED FREE ENERGY PREDICTED BY IDOCK:   -2.62 KCAL/MOL
REMARK 922        TOTAL FREE ENERGY PREDICTED BY IDOCK:   -4.44 KCAL/MOL
REMARK 923 INTER-LIGAND FREE ENERGY PREDICTED BY IDOCK:   -3.27 KCAL/MOL
REMARK 924 INTRA-LIGAND FREE ENERGY PREDICTED BY IDOCK:   -1.17 KCAL/MOL
REMARK 927      BINDING AFFINITY PREDICTED BY RF-SCORE:    0.00 PKD
ROOT
HETATM    1  C   UNL     1     -12.410   9.140  71.960  1.00  0.00    -0.377 C  
HETATM    2  N   UNL     1     -11.468   8.081  71.583  1.00  0.00    -0.257 NA 
HETATM    3  C   UNL     1     -10.778   7.580  72.770  1.00  0.00    -0.330 C  
ENDROOT
BRANCH   2   4
HETATM    4  C   UNL     1     -12.187   7.014  70.866  1.00  0.00    -0.342 C  
BRANCH   4   5
HETATM    5  C   UNL     1     -11.447   6.413  69.655  1.00  0.00    -0.378 C  
BRANCH   5   6
HETATM    6  O   UNL     1     -10.543   7.329  69.024  1.00  0.00    -0.212 OA 
BRANCH   6   7
HETATM    7  C   UNL     1      -9.235   6.810  68.729  1.00  0.00    -0.130 C  
BRANCH   7   8
HETATM    8  C   UNL     1      -8.636   7.456  67.490  1.00  0.00    -0.122 A  
HETATM    9  C   UNL     1      -9.186   8.649  66.991  1.00  0.00    -0.186 A  
HETATM   10  C   UNL     1      -8.595   9.311  65.914  1.00  0.00    -0.163 A  
HETATM   11  C   UNL     1      -7.488   6.936  66.873  1.00  0.00    -0.083 A  
HETATM   12  C   UNL     1      -7.452   8.786  65.316  1.00  0.00    -0.086 A  
HETATM   13  C   UNL     1      -6.901   7.598  65.791  1.00  0.00    -0.053 A  
ENDBRANCH   7   8
BRANCH   7  14
HETATM   14  C   UNL     1      -8.356   6.909  69.970  1.00  0.00    -0.139 A  
HETATM   15  C   UNL     1      -7.000   8.280  71.460  1.00  0.00    -0.068 A  
HETATM   16  C   UNL     1      -7.124   5.895  71.807  1.00  0.00    -0.085 A  
HETATM   17  C   UNL     1      -7.864   8.165  70.370  1.00  0.00    -0.090 A  
HETATM   18  C   UNL     1      -7.984   5.778  70.712  1.00  0.00    -0.113 A  
HETATM   19  C   UNL     1      -6.626   7.144  72.174  1.00  0.00    -0.055 A  
ENDBRANCH   7  14
ENDBRANCH   6   7
ENDBRANCH   5   6
ENDBRANCH   4   5
ENDBRANCH   2   4
TORSDOF 6
ENDMDL
MODEL      213
REMARK 921   NORMALIZED FREE ENERGY PREDICTED BY IDOCK:   -2.62 KCAL/MOL
REMARK 922        TOTAL FREE ENERGY PREDICTED BY IDOCK:   -4.44 KCAL/MOL
REMARK 923 INTER-LIGAND FREE ENERGY PREDICTED BY IDOCK:   -5.52 KCAL/MOL
REMARK 924 INTRA-LIGAND FREE ENERGY PREDICTED BY IDOCK:    1.09 KCAL/MOL
REMARK 927      BINDING AFFINITY PREDICTED BY RF-SCORE:    0.00 PKD
ROOT
HETATM    1  C   UNL     1     -10.740  19.388  66.283  1.00  0.00    -0.411 C  
HETATM    2  N   UNL     1      -9.602  18.647  66.836  1.00  0.00    -0.298 NA 
HETATM    3  C   UNL     1      -9.349  19.072  68.212  1.00  0.00    -0.343 C  
ENDROOT
BRANCH   2   4
HETATM    4  C   UNL     1      -9.861  17.200  66.740  1.00  0.00    -0.285 C  
BRANCH   4   5
HETATM    5  C   UNL     1      -8.627  16.293  66.904  1.00  0.00    -0.215 C  
BRANCH   5   6
HETATM    6  O   UNL     1      -8.687  15.094  66.121  1.00  0.00    -0.198 OA 
BRANCH   6   7
HETATM    7  C   UNL     1      -9.320  13.968  66.753  1.00  0.00    -0.277 C  
BRANCH   7   8
HETATM    8  C   UNL     1     -10.276  14.399  67.853  1.00  0.00    -0.232 A  
HETATM    9  C   UNL     1      -9.767  14.846  69.084  1.00  0.00    -0.184 A  
HETATM   10  C   UNL     1     -10.619  15.337  70.073  1.00  0.00    -0.288 A  
HETATM   11  C   UNL     1     -11.663  14.443  67.644  1.00  0.00    -0.421 A  
HETATM   12  C   UNL     1     -11.993  15.381  69.849  1.00  0.00    -0.384 A  
HETATM   13  C   UNL     1     -12.516  14.931  68.638  1.00  0.00     0.179 A  
ENDBRANCH   7   8
BRANCH   7  14
HETATM   14  C   UNL     1      -9.953  13.077  65.691  1.00  0.00    -0.239 A  
HETATM   15  C   UNL     1     -11.568  12.810  63.886  1.00  0.00    -0.518 A  
HETATM   16  C   UNL     1     -10.279  10.912  64.631  1.00  0.00    -0.411 A  
HETATM   17  C   UNL     1     -10.919  13.617  64.822  1.00  0.00    -0.384 A  
HETATM   18  C   UNL     1      -9.633  11.716  65.572  1.00  0.00    -0.241 A  
HETATM   19  C   UNL     1     -11.252  11.457  63.795  1.00  0.00    -0.375 A  
ENDBRANCH   7  14
ENDBRANCH   6   7
ENDBRANCH   5   6
ENDBRANCH   4   5
ENDBRANCH   2   4
TORSDOF 6
ENDMDL
MODEL      214
REMARK 921   NORMALIZED FREE ENERGY PREDICTED BY IDOCK:   -2.62 KCAL/MOL
REMARK 922        TOTAL FREE ENERGY PREDICTED BY IDOCK:   -4.43 KCAL/MOL
REMARK 923 INTER-LIGAND FREE ENERGY PREDICTED BY IDOCK:   -4.19 KCAL/MOL
REMARK 924 INTRA-LIGAND FREE ENERGY PREDICTED BY IDOCK:   -0.24 KCAL/MOL
REMARK 927      BINDING AFFINITY PREDICTED BY RF-SCORE:    0.00 PKD
ROOT
HETATM    1  C   UNL     1      -7.159   9.637  68.791  1.00  0.00    -0.067 C  
HETATM    2  N   UNL     1      -6.181   8.941  69.635  1.00  0.00    -0.039 NA 
HETATM    3  C   UNL     1      -6.168   9.529  70.973  1.00  0.00    -0.079 C  
ENDROOT
BRANCH   2   4
HETATM    4  C   UNL     1      -6.489   7.501  69.662  1.00  0.00    -0.035 C  
BRANCH   4   5
HETATM    5  C   UNL     1      -7.679   7.094  70.553  1.00  0.00    -0.094 C  
BRANCH   5   6
HETATM    6  O   UNL     1      -8.885   7.810  70.262  1.00  0.00    -0.142 OA 
BRANCH   6   7
HETATM    7  C   UNL     1     -10.096   7.035  70.301  1.00  0.00    -0.187 C  
BRANCH   7   8
HETATM    8  C   UNL     1     -11.311   7.899  70.597  1.00  0.00    -0.267 A  
HETATM    9  C   UNL     1     -12.522   7.294  70.976  1.00  0.00    -0.323 A  
HETATM   10  C   UNL     1     -13.622   8.069  71.345  1.00  0.00    -0.279 A  
HETATM   11  C   UNL     1     -11.236   9.300  70.582  1.00  0.00    -0.333 A  
HETATM   12  C   UNL     1     -13.530   9.459  71.332  1.00  0.00    -0.403 A  
HETATM   13  C   UNL     1     -12.341  10.075  70.948  1.00  0.00    -0.438 A  
ENDBRANCH   7   8
BRANCH   7  14
HETATM   14  C   UNL     1     -10.214   6.209  69.027  1.00  0.00    -0.237 A  
HETATM   15  C   UNL     1      -9.752   4.133  67.836  1.00  0.00    -0.161 A  
HETATM   16  C   UNL     1     -10.800   5.971  66.677  1.00  0.00    -0.289 A  
HETATM   17  C   UNL     1      -9.722   4.891  69.008  1.00  0.00    -0.245 A  
HETATM   18  C   UNL     1     -10.765   6.733  67.847  1.00  0.00    -0.320 A  
HETATM   19  C   UNL     1     -10.286   4.676  66.670  1.00  0.00    -0.250 A  
ENDBRANCH   7  14
ENDBRANCH   6   7
ENDBRANCH   5   6
ENDBRANCH   4   5
ENDBRANCH   2   4
TORSDOF 6
ENDMDL
MODEL      215
REMARK 921   NORMALIZED FREE ENERGY PREDICTED BY IDOCK:   -2.55 KCAL/MOL
REMARK 922        TOTAL FREE ENERGY PREDICTED BY IDOCK:   -4.35 KCAL/MOL
REMARK 923 INTER-LIGAND FREE ENERGY PREDICTED BY IDOCK:   -3.43 KCAL/MOL
REMARK 924 INTRA-LIGAND FREE ENERGY PREDICTED BY IDOCK:   -0.92 KCAL/MOL
REMARK 927      BINDING AFFINITY PREDICTED BY RF-SCORE:    0.00 PKD
ROOT
HETATM    1  C   UNL     1     -14.109   7.495  71.654  1.00  0.00    -0.440 C  
HETATM    2  N   UNL     1     -12.798   8.074  71.344  1.00  0.00    -0.301 NA 
HETATM    3  C   UNL     1     -12.032   8.266  72.574  1.00  0.00    -0.356 C  
ENDROOT
BRANCH   2   4
HETATM    4  C   UNL     1     -12.093   7.211  70.379  1.00  0.00    -0.094 C  
BRANCH   4   5
HETATM    5  C   UNL     1     -11.189   6.126  70.997  1.00  0.00    -0.296 C  
BRANCH   5   6
HETATM    6  O   UNL     1     -10.112   5.724  70.142  1.00  0.00    -0.184 OA 
BRANCH   6   7
HETATM    7  C   UNL     1      -9.731   6.672  69.130  1.00  0.00    -0.145 C  
BRANCH   7   8
HETATM    8  C   UNL     1      -8.627   7.601  69.612  1.00  0.00    -0.136 A  
HETATM    9  C   UNL     1      -8.811   8.992  69.550  1.00  0.00    -0.146 A  
HETATM   10  C   UNL     1      -7.854   9.862  70.074  1.00  0.00    -0.192 A  
HETATM   11  C   UNL     1      -7.454   7.103  70.198  1.00  0.00    -0.089 A  
HETATM   12  C   UNL     1      -6.697   9.354  70.658  1.00  0.00    -0.097 A  
HETATM   13  C   UNL     1      -6.493   7.976  70.717  1.00  0.00    -0.037 A  
ENDBRANCH   7   8
BRANCH   7  14
HETATM   14  C   UNL     1      -9.404   5.933  67.838  1.00  0.00    -0.107 A  
HETATM   15  C   UNL     1      -9.339   3.841  66.591  1.00  0.00    -0.207 A  
HETATM   16  C   UNL     1      -8.439   5.851  65.606  1.00  0.00    -0.153 A  
HETATM   17  C   UNL     1      -9.691   4.560  67.734  1.00  0.00    -0.199 A  
HETATM   18  C   UNL     1      -8.785   6.571  66.751  1.00  0.00    -0.123 A  
HETATM   19  C   UNL     1      -8.709   4.485  65.530  1.00  0.00    -0.127 A  
ENDBRANCH   7  14
ENDBRANCH   6   7
ENDBRANCH   5   6
ENDBRANCH   4   5
ENDBRANCH   2   4
TORSDOF 6
ENDMDL
MODEL      216
REMARK 921   NORMALIZED FREE ENERGY PREDICTED BY IDOCK:   -2.50 KCAL/MOL
REMARK 922        TOTAL FREE ENERGY PREDICTED BY IDOCK:   -4.28 KCAL/MOL
REMARK 923 INTER-LIGAND FREE ENERGY PREDICTED BY IDOCK:   -4.36 KCAL/MOL
REMARK 924 INTRA-LIGAND FREE ENERGY PREDICTED BY IDOCK:    0.08 KCAL/MOL
REMARK 927      BINDING AFFINITY PREDICTED BY RF-SCORE:    0.00 PKD
ROOT
HETATM    1  C   UNL     1      -6.878  16.677  68.973  1.00  0.00    -0.207 C  
HETATM    2  N   UNL     1      -6.909  15.399  68.253  1.00  0.00    -0.111 NA 
HETATM    3  C   UNL     1      -5.650  14.683  68.449  1.00  0.00    -0.107 C  
ENDROOT
BRANCH   2   4
HETATM    4  C   UNL     1      -8.072  14.611  68.697  1.00  0.00    -0.150 C  
BRANCH   4   5
HETATM    5  C   UNL     1      -8.478  13.449  67.771  1.00  0.00    -0.181 C  
BRANCH   5   6
HETATM    6  O   UNL     1      -9.205  12.410  68.439  1.00  0.00    -0.197 OA 
BRANCH   6   7
HETATM    7  C   UNL     1     -10.197  11.735  67.646  1.00  0.00    -0.199 C  
BRANCH   7   8
HETATM    8  C   UNL     1     -10.662  12.587  66.475  1.00  0.00    -0.266 A  
HETATM    9  C   UNL     1     -11.181  13.871  66.710  1.00  0.00    -0.328 A  
HETATM   10  C   UNL     1     -11.524  14.707  65.647  1.00  0.00    -0.340 A  
HETATM   11  C   UNL     1     -10.509  12.155  65.149  1.00  0.00    -0.317 A  
HETATM   12  C   UNL     1     -11.361  14.268  64.336  1.00  0.00    -0.284 A  
HETATM   13  C   UNL     1     -10.858  12.993  64.085  1.00  0.00    -0.433 A  
ENDBRANCH   7   8
BRANCH   7  14
HETATM   14  C   UNL     1      -9.680  10.358  67.248  1.00  0.00    -0.195 A  
HETATM   15  C   UNL     1     -10.059   7.956  67.083  1.00  0.00    -0.328 A  
HETATM   16  C   UNL     1      -7.904   8.872  66.501  1.00  0.00    -0.100 A  
HETATM   17  C   UNL     1     -10.525   9.239  67.373  1.00  0.00    -0.340 A  
HETATM   18  C   UNL     1      -8.367  10.157  66.795  1.00  0.00    -0.122 A  
HETATM   19  C   UNL     1      -8.747   7.773  66.653  1.00  0.00    -0.151 A  
ENDBRANCH   7  14
ENDBRANCH   6   7
ENDBRANCH   5   6
ENDBRANCH   4   5
ENDBRANCH   2   4
TORSDOF 6
ENDMDL
MODEL      217
REMARK 921   NORMALIZED FREE ENERGY PREDICTED BY IDOCK:   -2.48 KCAL/MOL
REMARK 922        TOTAL FREE ENERGY PREDICTED BY IDOCK:   -4.25 KCAL/MOL
REMARK 923 INTER-LIGAND FREE ENERGY PREDICTED BY IDOCK:   -5.37 KCAL/MOL
REMARK 924 INTRA-LIGAND FREE ENERGY PREDICTED BY IDOCK:    1.12 KCAL/MOL
REMARK 927      BINDING AFFINITY PREDICTED BY RF-SCORE:    0.00 PKD
ROOT
HETATM    1  C   UNL     1      -6.295  13.594  68.036  1.00  0.00    -0.139 C  
HETATM    2  N   UNL     1      -7.334  14.134  68.919  1.00  0.00    -0.124 NA 
HETATM    3  C   UNL     1      -7.203  15.587  69.015  1.00  0.00    -0.156 C  
ENDROOT
BRANCH   2   4
HETATM    4  C   UNL     1      -8.661  13.726  68.427  1.00  0.00    -0.156 C  
BRANCH   4   5
HETATM    5  C   UNL     1      -9.090  12.291  68.788  1.00  0.00     0.138 C  
BRANCH   5   6
HETATM    6  O   UNL     1     -10.252  11.844  68.078  1.00  0.00    -0.182 OA 
BRANCH   6   7
HETATM    7  C   UNL     1     -11.462  11.763  68.852  1.00  0.00    -0.297 C  
BRANCH   7   8
HETATM    8  C   UNL     1     -11.374  10.692  69.928  1.00  0.00    -0.386 A  
HETATM    9  C   UNL     1     -10.144  10.065  70.189  1.00  0.00    -0.266 A  
HETATM   10  C   UNL     1     -10.018   9.150  71.235  1.00  0.00    -0.373 A  
HETATM   11  C   UNL     1     -12.478  10.368  70.731  1.00  0.00    -0.461 A  
HETATM   12  C   UNL     1     -11.120   8.843  72.028  1.00  0.00    -0.421 A  
HETATM   13  C   UNL     1     -12.351   9.447  71.775  1.00  0.00    -0.471 A  
ENDBRANCH   7   8
BRANCH   7  14
HETATM   14  C   UNL     1     -11.825  13.146  69.377  1.00  0.00    -0.383 A  
HETATM   15  C   UNL     1     -12.662  14.531  71.199  1.00  0.00    -0.408 A  
HETATM   16  C   UNL     1     -12.185  15.531  69.056  1.00  0.00    -0.147 A  
HETATM   17  C   UNL     1     -12.255  13.289  70.709  1.00  0.00    -0.390 A  
HETATM   18  C   UNL     1     -11.783  14.288  68.562  1.00  0.00    -0.376 A  
HETATM   19  C   UNL     1     -12.632  15.650  70.370  1.00  0.00    -0.376 A  
ENDBRANCH   7  14
ENDBRANCH   6   7
ENDBRANCH   5   6
ENDBRANCH   4   5
ENDBRANCH   2   4
TORSDOF 6
ENDMDL
MODEL      218
REMARK 921   NORMALIZED FREE ENERGY PREDICTED BY IDOCK:   -2.46 KCAL/MOL
REMARK 922        TOTAL FREE ENERGY PREDICTED BY IDOCK:   -4.22 KCAL/MOL
REMARK 923 INTER-LIGAND FREE ENERGY PREDICTED BY IDOCK:   -4.26 KCAL/MOL
REMARK 924 INTRA-LIGAND FREE ENERGY PREDICTED BY IDOCK:    0.04 KCAL/MOL
REMARK 927      BINDING AFFINITY PREDICTED BY RF-SCORE:    0.00 PKD
ROOT
HETATM    1  C   UNL     1     -11.725   7.847  72.883  1.00  0.00    -0.181 C  
HETATM    2  N   UNL     1     -10.824   7.996  71.735  1.00  0.00    -0.232 NA 
HETATM    3  C   UNL     1      -9.462   8.256  72.198  1.00  0.00    -0.258 C  
ENDROOT
BRANCH   2   4
HETATM    4  C   UNL     1     -10.903   6.794  70.886  1.00  0.00    -0.249 C  
BRANCH   4   5
HETATM    5  C   UNL     1     -10.490   6.993  69.415  1.00  0.00    -0.214 C  
BRANCH   5   6
HETATM    6  O   UNL     1     -11.309   6.271  68.487  1.00  0.00    -0.324 OA 
BRANCH   6   7
HETATM    7  C   UNL     1     -10.920   6.368  67.106  1.00  0.00    -0.399 C  
BRANCH   7   8
HETATM    8  C   UNL     1     -10.092   7.615  66.837  1.00  0.00    -0.348 A  
HETATM    9  C   UNL     1      -8.793   7.491  66.316  1.00  0.00    -0.184 A  
HETATM   10  C   UNL     1      -8.052   8.621  65.971  1.00  0.00    -0.109 A  
HETATM   11  C   UNL     1     -10.624   8.900  67.018  1.00  0.00    -0.279 A  
HETATM   12  C   UNL     1      -8.595   9.891  66.151  1.00  0.00    -0.138 A  
HETATM   13  C   UNL     1      -9.877  10.032  66.677  1.00  0.00    -0.259 A  
ENDBRANCH   7   8
BRANCH   7  14
HETATM   14  C   UNL     1     -10.249   5.070  66.674  1.00  0.00    -0.299 A  
HETATM   15  C   UNL     1      -8.983   3.076  67.275  1.00  0.00    -0.184 A  
HETATM   16  C   UNL     1      -9.478   3.528  64.957  1.00  0.00    -0.159 A  
HETATM   17  C   UNL     1      -9.666   4.236  67.645  1.00  0.00    -0.186 A  
HETATM   18  C   UNL     1     -10.157   4.691  65.326  1.00  0.00    -0.124 A  
HETATM   19  C   UNL     1      -8.885   2.726  65.930  1.00  0.00    -0.135 A  
ENDBRANCH   7  14
ENDBRANCH   6   7
ENDBRANCH   5   6
ENDBRANCH   4   5
ENDBRANCH   2   4
TORSDOF 6
ENDMDL
MODEL      219
REMARK 921   NORMALIZED FREE ENERGY PREDICTED BY IDOCK:   -2.42 KCAL/MOL
REMARK 922        TOTAL FREE ENERGY PREDICTED BY IDOCK:   -4.17 KCAL/MOL
REMARK 923 INTER-LIGAND FREE ENERGY PREDICTED BY IDOCK:   -3.63 KCAL/MOL
REMARK 924 INTRA-LIGAND FREE ENERGY PREDICTED BY IDOCK:   -0.54 KCAL/MOL
REMARK 927      BINDING AFFINITY PREDICTED BY RF-SCORE:    0.00 PKD
ROOT
HETATM    1  C   UNL     1      -8.065   7.790  73.856  1.00  0.00    -0.199 C  
HETATM    2  N   UNL     1      -9.057   7.516  72.810  1.00  0.00    -0.141 NA 
HETATM    3  C   UNL     1     -10.364   7.265  73.414  1.00  0.00    -0.363 C  
ENDROOT
BRANCH   2   4
HETATM    4  C   UNL     1      -9.091   8.638  71.856  1.00  0.00    -0.256 C  
BRANCH   4   5
HETATM    5  C   UNL     1     -10.422   8.828  71.103  1.00  0.00    -0.245 C  
BRANCH   5   6
HETATM    6  O   UNL     1     -10.550   7.991  69.946  1.00  0.00    -0.236 OA 
BRANCH   6   7
HETATM    7  C   UNL     1      -9.442   8.019  69.030  1.00  0.00    -0.151 C  
BRANCH   7   8
HETATM    8  C   UNL     1      -9.569   6.950  67.956  1.00  0.00    -0.125 A  
HETATM    9  C   UNL     1      -8.426   6.518  67.263  1.00  0.00    -0.112 A  
HETATM   10  C   UNL     1      -8.501   5.472  66.343  1.00  0.00    -0.119 A  
HETATM   11  C   UNL     1     -10.794   6.319  67.692  1.00  0.00    -0.433 A  
HETATM   12  C   UNL     1      -9.723   4.850  66.095  1.00  0.00    -0.200 A  
HETATM   13  C   UNL     1     -10.869   5.275  66.765  1.00  0.00    -0.124 A  
ENDBRANCH   7   8
BRANCH   7  14
HETATM   14  C   UNL     1      -9.266   9.431  68.486  1.00  0.00    -0.131 A  
HETATM   15  C   UNL     1      -7.777  11.265  67.888  1.00  0.00    -0.110 A  
HETATM   16  C   UNL     1     -10.166  11.567  67.746  1.00  0.00    -0.200 A  
HETATM   17  C   UNL     1      -7.970   9.951  68.317  1.00  0.00    -0.100 A  
HETATM   18  C   UNL     1     -10.361  10.254  68.181  1.00  0.00    -0.208 A  
HETATM   19  C   UNL     1      -8.875  12.074  67.608  1.00  0.00    -0.172 A  
ENDBRANCH   7  14
ENDBRANCH   6   7
ENDBRANCH   5   6
ENDBRANCH   4   5
ENDBRANCH   2   4
TORSDOF 6
ENDMDL
MODEL      220
REMARK 921   NORMALIZED FREE ENERGY PREDICTED BY IDOCK:   -2.42 KCAL/MOL
REMARK 922        TOTAL FREE ENERGY PREDICTED BY IDOCK:   -4.16 KCAL/MOL
REMARK 923 INTER-LIGAND FREE ENERGY PREDICTED BY IDOCK:   -4.07 KCAL/MOL
REMARK 924 INTRA-LIGAND FREE ENERGY PREDICTED BY IDOCK:   -0.09 KCAL/MOL
REMARK 927      BINDING AFFINITY PREDICTED BY RF-SCORE:    0.00 PKD
ROOT
HETATM    1  C   UNL     1      -5.357  13.457  67.720  1.00  0.00    -0.073 C  
HETATM    2  N   UNL     1      -6.744  13.146  68.082  1.00  0.00    -0.096 NA 
HETATM    3  C   UNL     1      -7.594  14.314  67.856  1.00  0.00    -0.153 C  
ENDROOT
BRANCH   2   4
HETATM    4  C   UNL     1      -7.201  11.970  67.321  1.00  0.00    -0.150 C  
BRANCH   4   5
HETATM    5  C   UNL     1      -8.022  10.940  68.121  1.00  0.00    -0.117 C  
BRANCH   5   6
HETATM    6  O   UNL     1      -8.206   9.696  67.435  1.00  0.00    -0.113 OA 
BRANCH   6   7
HETATM    7  C   UNL     1      -9.565   9.237  67.329  1.00  0.00    -0.155 C  
BRANCH   7   8
HETATM    8  C   UNL     1      -9.651   7.719  67.337  1.00  0.00    -0.192 A  
HETATM    9  C   UNL     1      -8.802   6.976  68.174  1.00  0.00    -0.129 A  
HETATM   10  C   UNL     1      -8.928   5.590  68.270  1.00  0.00    -0.109 A  
HETATM   11  C   UNL     1     -10.619   7.036  66.585  1.00  0.00    -0.184 A  
HETATM   12  C   UNL     1      -9.898   4.926  67.523  1.00  0.00    -0.207 A  
HETATM   13  C   UNL     1     -10.740   5.647  66.678  1.00  0.00    -0.339 A  
ENDBRANCH   7   8
BRANCH   7  14
HETATM   14  C   UNL     1     -10.416   9.914  68.396  1.00  0.00    -0.239 A  
HETATM   15  C   UNL     1     -11.347   9.888  70.648  1.00  0.00    -0.413 A  
HETATM   16  C   UNL     1     -11.960  11.650  69.118  1.00  0.00    -0.378 A  
HETATM   17  C   UNL     1     -10.520   9.330  69.672  1.00  0.00    -0.234 A  
HETATM   18  C   UNL     1     -11.137  11.090  68.139  1.00  0.00    -0.329 A  
HETATM   19  C   UNL     1     -12.071  11.045  70.369  1.00  0.00    -0.463 A  
ENDBRANCH   7  14
ENDBRANCH   6   7
ENDBRANCH   5   6
ENDBRANCH   4   5
ENDBRANCH   2   4
TORSDOF 6
ENDMDL
MODEL      221
REMARK 921   NORMALIZED FREE ENERGY PREDICTED BY IDOCK:   -2.40 KCAL/MOL
REMARK 922        TOTAL FREE ENERGY PREDICTED BY IDOCK:   -4.13 KCAL/MOL
REMARK 923 INTER-LIGAND FREE ENERGY PREDICTED BY IDOCK:   -4.55 KCAL/MOL
REMARK 924 INTRA-LIGAND FREE ENERGY PREDICTED BY IDOCK:    0.41 KCAL/MOL
REMARK 927      BINDING AFFINITY PREDICTED BY RF-SCORE:    0.00 PKD
ROOT
HETATM    1  C   UNL     1      -7.492  13.466  67.282  1.00  0.00    -0.046 C  
HETATM    2  N   UNL     1      -8.438  14.488  67.744  1.00  0.00    -0.163 NA 
HETATM    3  C   UNL     1      -8.350  15.673  66.892  1.00  0.00    -0.252 C  
ENDROOT
BRANCH   2   4
HETATM    4  C   UNL     1      -9.798  13.924  67.774  1.00  0.00    -0.237 C  
BRANCH   4   5
HETATM    5  C   UNL     1      -9.951  12.601  68.548  1.00  0.00    -0.162 C  
BRANCH   5   6
HETATM    6  O   UNL     1     -11.223  11.969  68.358  1.00  0.00    -0.221 OA 
BRANCH   6   7
HETATM    7  C   UNL     1     -11.191  10.682  67.717  1.00  0.00    -0.313 C  
BRANCH   7   8
HETATM    8  C   UNL     1     -10.579  10.759  66.327  1.00  0.00    -0.257 A  
HETATM    9  C   UNL     1      -9.525   9.896  65.980  1.00  0.00    -0.258 A  
HETATM   10  C   UNL     1      -9.013   9.881  64.683  1.00  0.00    -0.260 A  
HETATM   11  C   UNL     1     -11.096  11.617  65.344  1.00  0.00    -0.299 A  
HETATM   12  C   UNL     1      -9.541  10.733  63.716  1.00  0.00    -0.339 A  
HETATM   13  C   UNL     1     -10.578  11.604  64.046  1.00  0.00    -0.426 A  
ENDBRANCH   7   8
BRANCH   7  14
HETATM   14  C   UNL     1     -10.521   9.670  68.637  1.00  0.00    -0.235 A  
HETATM   15  C   UNL     1     -10.095   7.342  69.219  1.00  0.00    -0.186 A  
HETATM   16  C   UNL     1      -9.272   9.104  70.647  1.00  0.00    -0.310 A  
HETATM   17  C   UNL     1     -10.637   8.296  68.356  1.00  0.00    -0.148 A  
HETATM   18  C   UNL     1      -9.819  10.060  69.788  1.00  0.00    -0.270 A  
HETATM   19  C   UNL     1      -9.418   7.746  70.367  1.00  0.00    -0.164 A  
ENDBRANCH   7  14
ENDBRANCH   6   7
ENDBRANCH   5   6
ENDBRANCH   4   5
ENDBRANCH   2   4
TORSDOF 6
ENDMDL
MODEL      222
REMARK 921   NORMALIZED FREE ENERGY PREDICTED BY IDOCK:   -2.37 KCAL/MOL
REMARK 922        TOTAL FREE ENERGY PREDICTED BY IDOCK:   -4.10 KCAL/MOL
REMARK 923 INTER-LIGAND FREE ENERGY PREDICTED BY IDOCK:   -3.43 KCAL/MOL
REMARK 924 INTRA-LIGAND FREE ENERGY PREDICTED BY IDOCK:   -0.67 KCAL/MOL
REMARK 927      BINDING AFFINITY PREDICTED BY RF-SCORE:    0.00 PKD
ROOT
HETATM    1  C   UNL     1     -10.284   5.234  73.577  1.00  0.00    -0.202 C  
HETATM    2  N   UNL     1     -10.790   5.834  72.338  1.00  0.00    -0.234 NA 
HETATM    3  C   UNL     1     -12.141   6.351  72.548  1.00  0.00    -0.028 C  
ENDROOT
BRANCH   2   4
HETATM    4  C   UNL     1      -9.859   6.880  71.880  1.00  0.00    -0.164 C  
BRANCH   4   5
HETATM    5  C   UNL     1      -9.078   6.554  70.592  1.00  0.00    -0.148 C  
BRANCH   5   6
HETATM    6  O   UNL     1      -9.545   7.268  69.441  1.00  0.00    -0.154 OA 
BRANCH   6   7
HETATM    7  C   UNL     1      -8.931   8.548  69.211  1.00  0.00    -0.146 C  
BRANCH   7   8
HETATM    8  C   UNL     1      -7.896   8.488  68.099  1.00  0.00    -0.103 A  
HETATM    9  C   UNL     1      -7.764   7.317  67.332  1.00  0.00    -0.110 A  
HETATM   10  C   UNL     1      -6.890   7.271  66.246  1.00  0.00    -0.058 A  
HETATM   11  C   UNL     1      -7.119   9.605  67.759  1.00  0.00    -0.081 A  
HETATM   12  C   UNL     1      -6.129   8.390  65.916  1.00  0.00    -0.048 A  
HETATM   13  C   UNL     1      -6.239   9.555  66.673  1.00  0.00    -0.065 A  
ENDBRANCH   7   8
BRANCH   7  14
HETATM   14  C   UNL     1     -10.012   9.601  68.999  1.00  0.00    -0.189 A  
HETATM   15  C   UNL     1     -11.355  10.931  67.460  1.00  0.00    -0.309 A  
HETATM   16  C   UNL     1     -11.538  11.301  69.837  1.00  0.00    -0.413 A  
HETATM   17  C   UNL     1     -10.418   9.922  67.690  1.00  0.00    -0.296 A  
HETATM   18  C   UNL     1     -10.596  10.296  70.069  1.00  0.00    -0.321 A  
HETATM   19  C   UNL     1     -11.910  11.624  68.533  1.00  0.00    -0.357 A  
ENDBRANCH   7  14
ENDBRANCH   6   7
ENDBRANCH   5   6
ENDBRANCH   4   5
ENDBRANCH   2   4
TORSDOF 6
ENDMDL
MODEL      223
REMARK 921   NORMALIZED FREE ENERGY PREDICTED BY IDOCK:   -2.30 KCAL/MOL
REMARK 922        TOTAL FREE ENERGY PREDICTED BY IDOCK:   -4.00 KCAL/MOL
REMARK 923 INTER-LIGAND FREE ENERGY PREDICTED BY IDOCK:   -3.90 KCAL/MOL
REMARK 924 INTRA-LIGAND FREE ENERGY PREDICTED BY IDOCK:   -0.11 KCAL/MOL
REMARK 927      BINDING AFFINITY PREDICTED BY RF-SCORE:    0.00 PKD
ROOT
HETATM    1  C   UNL     1     -13.673   9.000  72.434  1.00  0.00    -0.479 C  
HETATM    2  N   UNL     1     -13.051   9.030  71.106  1.00  0.00    -0.196 NA 
HETATM    3  C   UNL     1     -12.239  10.237  70.960  1.00  0.00    -0.384 C  
ENDROOT
BRANCH   2   4
HETATM    4  C   UNL     1     -12.262   7.802  70.903  1.00  0.00    -0.145 C  
BRANCH   4   5
HETATM    5  C   UNL     1     -10.830   7.831  71.472  1.00  0.00    -0.227 C  
BRANCH   5   6
HETATM    6  O   UNL     1      -9.831   7.421  70.532  1.00  0.00    -0.180 OA 
BRANCH   6   7
HETATM    7  C   UNL     1      -9.182   6.169  70.817  1.00  0.00    -0.154 C  
BRANCH   7   8
HETATM    8  C   UNL     1      -9.686   5.554  72.114  1.00  0.00    -0.186 A  
HETATM    9  C   UNL     1      -9.106   5.934  73.337  1.00  0.00    -0.132 A  
HETATM   10  C   UNL     1      -9.615   5.457  74.545  1.00  0.00    -0.173 A  
HETATM   11  C   UNL     1     -10.777   4.673  72.132  1.00  0.00    -0.111 A  
HETATM   12  C   UNL     1     -10.703   4.587  74.548  1.00  0.00    -0.125 A  
HETATM   13  C   UNL     1     -11.281   4.191  73.343  1.00  0.00    -0.339 A  
ENDBRANCH   7   8
BRANCH   7  14
HETATM   14  C   UNL     1      -9.293   5.250  69.607  1.00  0.00    -0.174 A  
HETATM   15  C   UNL     1     -10.100   4.878  67.338  1.00  0.00    -0.196 A  
HETATM   16  C   UNL     1      -9.000   3.090  68.527  1.00  0.00    -0.190 A  
HETATM   17  C   UNL     1      -9.920   5.718  68.438  1.00  0.00    -0.193 A  
HETATM   18  C   UNL     1      -8.824   3.928  69.630  1.00  0.00    -0.144 A  
HETATM   19  C   UNL     1      -9.645   3.562  67.385  1.00  0.00    -0.172 A  
ENDBRANCH   7  14
ENDBRANCH   6   7
ENDBRANCH   5   6
ENDBRANCH   4   5
ENDBRANCH   2   4
TORSDOF 6
ENDMDL
MODEL      224
REMARK 921   NORMALIZED FREE ENERGY PREDICTED BY IDOCK:   -2.26 KCAL/MOL
REMARK 922        TOTAL FREE ENERGY PREDICTED BY IDOCK:   -3.95 KCAL/MOL
REMARK 923 INTER-LIGAND FREE ENERGY PREDICTED BY IDOCK:   -4.38 KCAL/MOL
REMARK 924 INTRA-LIGAND FREE ENERGY PREDICTED BY IDOCK:    0.43 KCAL/MOL
REMARK 927      BINDING AFFINITY PREDICTED BY RF-SCORE:    0.00 PKD
ROOT
HETATM    1  C   UNL     1     -12.679  10.488  71.451  1.00  0.00    -0.442 C  
HETATM    2  N   UNL     1     -12.146   9.123  71.383  1.00  0.00    -0.318 NA 
HETATM    3  C   UNL     1     -13.243   8.161  71.294  1.00  0.00    -0.128 C  
ENDROOT
BRANCH   2   4
HETATM    4  C   UNL     1     -11.216   9.012  70.246  1.00  0.00    -0.205 C  
BRANCH   4   5
HETATM    5  C   UNL     1     -10.810  10.346  69.590  1.00  0.00    -0.277 C  
BRANCH   5   6
HETATM    6  O   UNL     1     -11.560  10.656  68.409  1.00  0.00    -0.349 OA 
BRANCH   6   7
HETATM    7  C   UNL     1     -10.823  11.289  67.350  1.00  0.00    -0.262 C  
BRANCH   7   8
HETATM    8  C   UNL     1     -10.352  12.681  67.741  1.00  0.00    -0.221 A  
HETATM    9  C   UNL     1     -11.226  13.547  68.421  1.00  0.00    -0.309 A  
HETATM   10  C   UNL     1     -10.787  14.791  68.876  1.00  0.00    -0.259 A  
HETATM   11  C   UNL     1      -9.033  13.101  67.513  1.00  0.00    -0.197 A  
HETATM   12  C   UNL     1      -9.472  15.191  68.648  1.00  0.00    -0.206 A  
HETATM   13  C   UNL     1      -8.596  14.350  67.964  1.00  0.00    -0.166 A  
ENDBRANCH   7   8
BRANCH   7  14
HETATM   14  C   UNL     1      -9.707  10.364  66.881  1.00  0.00    -0.223 A  
HETATM   15  C   UNL     1      -8.998   8.483  65.503  1.00  0.00    -0.182 A  
HETATM   16  C   UNL     1      -7.431   9.514  67.021  1.00  0.00    -0.091 A  
HETATM   17  C   UNL     1      -9.980   9.391  65.902  1.00  0.00    -0.327 A  
HETATM   18  C   UNL     1      -8.414  10.420  67.425  1.00  0.00    -0.121 A  
HETATM   19  C   UNL     1      -7.726   8.541  66.067  1.00  0.00    -0.093 A  
ENDBRANCH   7  14
ENDBRANCH   6   7
ENDBRANCH   5   6
ENDBRANCH   4   5
ENDBRANCH   2   4
TORSDOF 6
ENDMDL
MODEL      225
REMARK 921   NORMALIZED FREE ENERGY PREDICTED BY IDOCK:   -2.21 KCAL/MOL
REMARK 922        TOTAL FREE ENERGY PREDICTED BY IDOCK:   -3.89 KCAL/MOL
REMARK 923 INTER-LIGAND FREE ENERGY PREDICTED BY IDOCK:   -3.09 KCAL/MOL
REMARK 924 INTRA-LIGAND FREE ENERGY PREDICTED BY IDOCK:   -0.80 KCAL/MOL
REMARK 927      BINDING AFFINITY PREDICTED BY RF-SCORE:    0.00 PKD
ROOT
HETATM    1  C   UNL     1     -10.319   5.250  73.457  1.00  0.00    -0.220 C  
HETATM    2  N   UNL     1     -10.776   5.558  72.098  1.00  0.00    -0.225 NA 
HETATM    3  C   UNL     1     -12.036   6.299  72.150  1.00  0.00    -0.287 C  
ENDROOT
BRANCH   2   4
HETATM    4  C   UNL     1      -9.725   6.299  71.380  1.00  0.00    -0.173 C  
BRANCH   4   5
HETATM    5  C   UNL     1      -9.034   5.529  70.237  1.00  0.00    -0.137 C  
BRANCH   5   6
HETATM    6  O   UNL     1      -9.517   5.882  68.935  1.00  0.00    -0.124 OA 
BRANCH   6   7
HETATM    7  C   UNL     1      -8.687   6.787  68.186  1.00  0.00    -0.122 C  
BRANCH   7   8
HETATM    8  C   UNL     1      -8.594   6.388  66.722  1.00  0.00    -0.113 A  
HETATM    9  C   UNL     1      -8.134   7.318  65.774  1.00  0.00    -0.129 A  
HETATM   10  C   UNL     1      -7.949   6.947  64.442  1.00  0.00    -0.093 A  
HETATM   11  C   UNL     1      -8.879   5.082  66.298  1.00  0.00    -0.118 A  
HETATM   12  C   UNL     1      -8.229   5.644  64.037  1.00  0.00    -0.102 A  
HETATM   13  C   UNL     1      -8.698   4.713  64.962  1.00  0.00    -0.143 A  
ENDBRANCH   7   8
BRANCH   7  14
HETATM   14  C   UNL     1      -9.158   8.218  68.414  1.00  0.00    -0.136 A  
HETATM   15  C   UNL     1     -10.921   9.889  68.218  1.00  0.00    -0.248 A  
HETATM   16  C   UNL     1      -8.746  10.532  69.042  1.00  0.00    -0.160 A  
HETATM   17  C   UNL     1     -10.480   8.571  68.087  1.00  0.00    -0.236 A  
HETATM   18  C   UNL     1      -8.302   9.215  68.906  1.00  0.00    -0.124 A  
HETATM   19  C   UNL     1     -10.052  10.870  68.690  1.00  0.00    -0.200 A  
ENDBRANCH   7  14
ENDBRANCH   6   7
ENDBRANCH   5   6
ENDBRANCH   4   5
ENDBRANCH   2   4
TORSDOF 6
ENDMDL
MODEL      226
REMARK 921   NORMALIZED FREE ENERGY PREDICTED BY IDOCK:   -2.11 KCAL/MOL
REMARK 922        TOTAL FREE ENERGY PREDICTED BY IDOCK:   -3.75 KCAL/MOL
REMARK 923 INTER-LIGAND FREE ENERGY PREDICTED BY IDOCK:   -4.20 KCAL/MOL
REMARK 924 INTRA-LIGAND FREE ENERGY PREDICTED BY IDOCK:    0.45 KCAL/MOL
REMARK 927      BINDING AFFINITY PREDICTED BY RF-SCORE:    0.00 PKD
ROOT
HETATM    1  C   UNL     1     -10.842   7.569  73.286  1.00  0.00    -0.355 C  
HETATM    2  N   UNL     1      -9.743   8.367  72.732  1.00  0.00    -0.262 NA 
HETATM    3  C   UNL     1      -8.502   8.073  73.446  1.00  0.00    -0.235 C  
ENDROOT
BRANCH   2   4
HETATM    4  C   UNL     1      -9.627   8.109  71.286  1.00  0.00    -0.162 C  
BRANCH   4   5
HETATM    5  C   UNL     1      -9.114   9.291  70.441  1.00  0.00    -0.247 C  
BRANCH   5   6
HETATM    6  O   UNL     1      -8.115   8.920  69.483  1.00  0.00    -0.096 OA 
BRANCH   6   7
HETATM    7  C   UNL     1      -8.476   9.103  68.103  1.00  0.00    -0.125 C  
BRANCH   7   8
HETATM    8  C   UNL     1      -9.024   7.826  67.487  1.00  0.00    -0.126 A  
HETATM    9  C   UNL     1     -10.323   7.398  67.809  1.00  0.00    -0.273 A  
HETATM   10  C   UNL     1     -10.883   6.284  67.184  1.00  0.00    -0.460 A  
HETATM   11  C   UNL     1      -8.294   7.099  66.534  1.00  0.00    -0.117 A  
HETATM   12  C   UNL     1     -10.149   5.576  66.234  1.00  0.00    -0.185 A  
HETATM   13  C   UNL     1      -8.855   5.980  65.912  1.00  0.00    -0.155 A  
ENDBRANCH   7   8
BRANCH   7  14
HETATM   14  C   UNL     1      -9.403  10.305  67.974  1.00  0.00    -0.145 A  
HETATM   15  C   UNL     1     -11.508  11.239  67.176  1.00  0.00    -0.217 A  
HETATM   16  C   UNL     1      -9.873  12.681  68.211  1.00  0.00    -0.227 A  
HETATM   17  C   UNL     1     -10.665  10.144  67.372  1.00  0.00    -0.336 A  
HETATM   18  C   UNL     1      -9.026  11.587  68.402  1.00  0.00    -0.173 A  
HETATM   19  C   UNL     1     -11.109  12.508  67.590  1.00  0.00    -0.301 A  
ENDBRANCH   7  14
ENDBRANCH   6   7
ENDBRANCH   5   6
ENDBRANCH   4   5
ENDBRANCH   2   4
TORSDOF 6
ENDMDL
MODEL      227
REMARK 921   NORMALIZED FREE ENERGY PREDICTED BY IDOCK:   -1.59 KCAL/MOL
REMARK 922        TOTAL FREE ENERGY PREDICTED BY IDOCK:   -3.05 KCAL/MOL
REMARK 923 INTER-LIGAND FREE ENERGY PREDICTED BY IDOCK:   -2.30 KCAL/MOL
REMARK 924 INTRA-LIGAND FREE ENERGY PREDICTED BY IDOCK:   -0.75 KCAL/MOL
REMARK 927      BINDING AFFINITY PREDICTED BY RF-SCORE:    0.00 PKD
ROOT
HETATM    1  C   UNL     1     -10.268   5.247  73.592  1.00  0.00    -0.210 C  
HETATM    2  N   UNL     1     -10.646   5.979  72.379  1.00  0.00    -0.208 NA 
HETATM    3  C   UNL     1     -11.962   6.592  72.554  1.00  0.00    -0.054 C  
ENDROOT
BRANCH   2   4
HETATM    4  C   UNL     1      -9.608   6.974  72.059  1.00  0.00    -0.138 C  
BRANCH   4   5
HETATM    5  C   UNL     1      -8.784   6.687  70.789  1.00  0.00    -0.143 C  
BRANCH   5   6
HETATM    6  O   UNL     1      -9.045   7.602  69.717  1.00  0.00    -0.147 OA 
BRANCH   6   7
HETATM    7  C   UNL     1      -7.921   7.915  68.876  1.00  0.00    -0.123 C  
BRANCH   7   8
HETATM    8  C   UNL     1      -7.984   7.174  67.550  1.00  0.00    -0.113 A  
HETATM    9  C   UNL     1      -9.131   6.433  67.218  1.00  0.00    -0.117 A  
HETATM   10  C   UNL     1      -9.251   5.825  65.968  1.00  0.00    -0.155 A  
HETATM   11  C   UNL     1      -6.954   7.277  66.603  1.00  0.00    -0.073 A  
HETATM   12  C   UNL     1      -8.223   5.941  65.036  1.00  0.00    -0.138 A  
HETATM   13  C   UNL     1      -7.074   6.662  65.353  1.00  0.00    -0.064 A  
ENDBRANCH   7   8
BRANCH   7  14
HETATM   14  C   UNL     1      -7.792   9.426  68.740  1.00  0.00    -0.084 A  
HETATM   15  C   UNL     1      -6.742  11.503  69.464  1.00  0.00    -0.106 A  
HETATM   16  C   UNL     1      -8.524  11.564  67.838  1.00  0.00    -0.142 A  
HETATM   17  C   UNL     1      -6.838  10.112  69.514  1.00  0.00    -0.079 A  
HETATM   18  C   UNL     1      -8.624  10.172  67.891  1.00  0.00    -0.118 A  
HETATM   19  C   UNL     1      -7.590  12.229  68.630  1.00  0.00    -0.089 A  
ENDBRANCH   7  14
ENDBRANCH   6   7
ENDBRANCH   5   6
ENDBRANCH   4   5
ENDBRANCH   2   4
TORSDOF 6
ENDMDL
MODEL      228
REMARK 921   NORMALIZED FREE ENERGY PREDICTED BY IDOCK:    0.75 KCAL/MOL
REMARK 922        TOTAL FREE ENERGY PREDICTED BY IDOCK:    0.12 KCAL/MOL
REMARK 923 INTER-LIGAND FREE ENERGY PREDICTED BY IDOCK:   -1.48 KCAL/MOL
REMARK 924 INTRA-LIGAND FREE ENERGY PREDICTED BY IDOCK:    1.60 KCAL/MOL
REMARK 927      BINDING AFFINITY PREDICTED BY RF-SCORE:    0.00 PKD
ROOT
HETATM    1  C   UNL     1     -11.563  11.923  69.298  1.00  0.00    -0.315 C  
HETATM    2  N   UNL     1     -12.270  13.192  69.505  1.00  0.00    -0.217 NA 
HETATM    3  C   UNL     1     -11.332  14.221  69.947  1.00  0.00    -0.198 C  
ENDROOT
BRANCH   2   4
HETATM    4  C   UNL     1     -12.972  13.573  68.267  1.00  0.00     2.072 C  
BRANCH   4   5
HETATM    5  C   UNL     1     -12.080  13.728  67.020  1.00  0.00    -0.397 C  
BRANCH   5   6
HETATM    6  O   UNL     1     -11.095  14.761  67.144  1.00  0.00    -0.314 OA 
BRANCH   6   7
HETATM    7  C   UNL     1     -10.137  14.842  66.075  1.00  0.00    -0.308 C  
BRANCH   7   8
HETATM    8  C   UNL     1      -8.708  14.761  66.588  1.00  0.00    -0.229 A  
HETATM    9  C   UNL     1      -7.995  15.943  66.854  1.00  0.00    -0.287 A  
HETATM   10  C   UNL     1      -6.719  15.895  67.416  1.00  0.00    -0.229 A  
HETATM   11  C   UNL     1      -8.103  13.530  66.883  1.00  0.00     0.107 A  
HETATM   12  C   UNL     1      -6.134  14.665  67.710  1.00  0.00    -0.136 A  
HETATM   13  C   UNL     1      -6.822  13.484  67.440  1.00  0.00    -0.067 A  
ENDBRANCH   7   8
BRANCH   7  14
HETATM   14  C   UNL     1     -10.476  13.807  65.009  1.00  0.00    -0.418 A  
HETATM   15  C   UNL     1      -9.722  12.071  63.475  1.00  0.00    -0.226 A  
HETATM   16  C   UNL     1     -12.033  12.762  63.458  1.00  0.00    -0.633 A  
HETATM   17  C   UNL     1      -9.458  12.979  64.501  1.00  0.00     0.595 A  
HETATM   18  C   UNL     1     -11.770  13.676  64.482  1.00  0.00    -0.429 A  
HETATM   19  C   UNL     1     -11.008  11.967  62.950  1.00  0.00     0.144 A  
ENDBRANCH   7  14
ENDBRANCH   6   7
ENDBRANCH   5   6
ENDBRANCH   4   5
ENDBRANCH   2   4
TORSDOF 6
ENDMDL
MODEL      229
REMARK 921   NORMALIZED FREE ENERGY PREDICTED BY IDOCK:    1.57 KCAL/MOL
REMARK 922        TOTAL FREE ENERGY PREDICTED BY IDOCK:    1.23 KCAL/MOL
REMARK 923 INTER-LIGAND FREE ENERGY PREDICTED BY IDOCK:    0.38 KCAL/MOL
REMARK 924 INTRA-LIGAND FREE ENERGY PREDICTED BY IDOCK:    0.85 KCAL/MOL
REMARK 927      BINDING AFFINITY PREDICTED BY RF-SCORE:    0.00 PKD
ROOT
HETATM    1  C   UNL     1      -5.274  16.640  70.366  1.00  0.00    -0.213 C  
HETATM    2  N   UNL     1      -6.005  15.510  70.947  1.00  0.00     0.127 NA 
HETATM    3  C   UNL     1      -5.749  15.433  72.384  1.00  0.00     0.803 C  
ENDROOT
BRANCH   2   4
HETATM    4  C   UNL     1      -7.441  15.643  70.644  1.00  0.00     1.495 C  
BRANCH   4   5
HETATM    5  C   UNL     1      -7.905  14.989  69.328  1.00  0.00    -0.190 C  
BRANCH   5   6
HETATM    6  O   UNL     1      -8.438  13.671  69.500  1.00  0.00     0.674 OA 
BRANCH   6   7
HETATM    7  C   UNL     1      -8.274  12.781  68.382  1.00  0.00    -0.128 C  
BRANCH   7   8
HETATM    8  C   UNL     1      -7.951  11.364  68.830  1.00  0.00    -0.122 A  
HETATM    9  C   UNL     1      -7.140  11.157  69.958  1.00  0.00     0.213 A  
HETATM   10  C   UNL     1      -6.909   9.870  70.445  1.00  0.00    -0.141 A  
HETATM   11  C   UNL     1      -8.511  10.248  68.191  1.00  0.00    -0.123 A  
HETATM   12  C   UNL     1      -7.477   8.772  69.804  1.00  0.00    -0.056 A  
HETATM   13  C   UNL     1      -8.275   8.959  68.676  1.00  0.00    -0.116 A  
ENDBRANCH   7   8
BRANCH   7  14
HETATM   14  C   UNL     1      -9.487  12.884  67.466  1.00  0.00    -0.198 A  
HETATM   15  C   UNL     1     -11.240  14.254  66.473  1.00  0.00    -0.333 A  
HETATM   16  C   UNL     1     -11.208  11.875  66.073  1.00  0.00    -0.377 A  
HETATM   17  C   UNL     1     -10.086  14.138  67.250  1.00  0.00    -0.256 A  
HETATM   18  C   UNL     1     -10.057  11.757  66.855  1.00  0.00    -0.231 A  
HETATM   19  C   UNL     1     -11.803  13.122  65.890  1.00  0.00    -0.453 A  
ENDBRANCH   7  14
ENDBRANCH   6   7
ENDBRANCH   5   6
ENDBRANCH   4   5
ENDBRANCH   2   4
TORSDOF 6
ENDMDL
MODEL      230
REMARK 921   NORMALIZED FREE ENERGY PREDICTED BY IDOCK:    2.34 KCAL/MOL
REMARK 922        TOTAL FREE ENERGY PREDICTED BY IDOCK:    2.26 KCAL/MOL
REMARK 923 INTER-LIGAND FREE ENERGY PREDICTED BY IDOCK:   -1.12 KCAL/MOL
REMARK 924 INTRA-LIGAND FREE ENERGY PREDICTED BY IDOCK:    3.38 KCAL/MOL
REMARK 927      BINDING AFFINITY PREDICTED BY RF-SCORE:    0.00 PKD
ROOT
HETATM    1  C   UNL     1      -7.763  10.130  64.384  1.00  0.00    -0.134 C  
HETATM    2  N   UNL     1      -8.660  11.197  64.841  1.00  0.00     0.058 NA 
HETATM    3  C   UNL     1      -8.948  12.114  63.740  1.00  0.00     0.935 C  
ENDROOT
BRANCH   2   4
HETATM    4  C   UNL     1      -9.884  10.604  65.406  1.00  0.00    -0.267 C  
BRANCH   4   5
HETATM    5  C   UNL     1     -11.205  11.261  64.961  1.00  0.00    -0.012 C  
BRANCH   5   6
HETATM    6  O   UNL     1     -11.585  12.386  65.764  1.00  0.00    -0.361 OA 
BRANCH   6   7
HETATM    7  C   UNL     1     -10.852  12.552  66.990  1.00  0.00    -0.254 C  
BRANCH   7   8
HETATM    8  C   UNL     1     -11.515  13.563  67.913  1.00  0.00    -0.353 A  
HETATM    9  C   UNL     1     -11.850  13.193  69.227  1.00  0.00    -0.377 A  
HETATM   10  C   UNL     1     -12.370  14.129  70.121  1.00  0.00    -0.413 A  
HETATM   11  C   UNL     1     -11.729  14.890  67.513  1.00  0.00    -0.328 A  
HETATM   12  C   UNL     1     -12.571  15.446  69.712  1.00  0.00    -0.138 A  
HETATM   13  C   UNL     1     -12.255  15.826  68.409  1.00  0.00     0.326 A  
ENDBRANCH   7   8
BRANCH   7  14
HETATM   14  C   UNL     1     -10.611  11.190  67.629  1.00  0.00    -0.250 A  
HETATM   15  C   UNL     1     -11.527   9.142  68.581  1.00  0.00     0.624 A  
HETATM   16  C   UNL     1      -9.143   9.515  68.609  1.00  0.00    -0.132 A  
HETATM   17  C   UNL     1     -11.709  10.364  67.932  1.00  0.00     0.323 A  
HETATM   18  C   UNL     1      -9.325  10.741  67.965  1.00  0.00    -0.152 A  
HETATM   19  C   UNL     1     -10.244   8.721  68.924  1.00  0.00    -0.221 A  
ENDBRANCH   7  14
ENDBRANCH   6   7
ENDBRANCH   5   6
ENDBRANCH   4   5
ENDBRANCH   2   4
TORSDOF 6
ENDMDL
MODEL      231
REMARK 921   NORMALIZED FREE ENERGY PREDICTED BY IDOCK:    7.56 KCAL/MOL
REMARK 922        TOTAL FREE ENERGY PREDICTED BY IDOCK:    9.32 KCAL/MOL
REMARK 923 INTER-LIGAND FREE ENERGY PREDICTED BY IDOCK:   -1.12 KCAL/MOL
REMARK 924 INTRA-LIGAND FREE ENERGY PREDICTED BY IDOCK:   10.44 KCAL/MOL
REMARK 927      BINDING AFFINITY PREDICTED BY RF-SCORE:    0.00 PKD
ROOT
HETATM    1  C   UNL     1      -9.608  16.978  68.629  1.00  0.00    -0.275 C  
HETATM    2  N   UNL     1     -10.160  18.319  68.848  1.00  0.00    -0.386 NA 
HETATM    3  C   UNL     1      -9.157  19.332  68.524  1.00  0.00    -0.377 C  
ENDROOT
BRANCH   2   4
HETATM    4  C   UNL     1     -11.391  18.482  68.054  1.00  0.00     0.800 C  
BRANCH   4   5
HETATM    5  C   UNL     1     -11.464  17.642  66.764  1.00  0.00     1.278 C  
BRANCH   5   6
HETATM    6  O   UNL     1     -10.556  16.534  66.749  1.00  0.00    -0.295 OA 
BRANCH   6   7
HETATM    7  C   UNL     1     -11.064  15.302  67.291  1.00  0.00    -0.325 C  
BRANCH   7   8
HETATM    8  C   UNL     1     -10.155  14.126  66.972  1.00  0.00    -0.261 A  
HETATM    9  C   UNL     1      -9.441  13.497  68.005  1.00  0.00    -0.220 A  
HETATM   10  C   UNL     1      -8.677  12.357  67.754  1.00  0.00    -0.176 A  
HETATM   11  C   UNL     1     -10.072  13.594  65.677  1.00  0.00    -0.299 A  
HETATM   12  C   UNL     1      -8.609  11.836  66.464  1.00  0.00    -0.148 A  
HETATM   13  C   UNL     1      -9.301  12.455  65.425  1.00  0.00     0.161 A  
ENDBRANCH   7   8
BRANCH   7  14
HETATM   14  C   UNL     1     -11.355  15.481  68.775  1.00  0.00    -0.339 A  
HETATM   15  C   UNL     1     -12.990  15.748  70.563  1.00  0.00    -0.090 A  
HETATM   16  C   UNL     1     -10.634  15.878  71.065  1.00  0.00     0.325 A  
HETATM   17  C   UNL     1     -12.690  15.516  69.220  1.00  0.00     0.353 A  
HETATM   18  C   UNL     1     -10.332  15.652  69.720  1.00  0.00    -0.309 A  
HETATM   19  C   UNL     1     -11.962  15.935  71.484  1.00  0.00    -0.537 A  
ENDBRANCH   7  14
ENDBRANCH   6   7
ENDBRANCH   5   6
ENDBRANCH   4   5
ENDBRANCH   2   4
TORSDOF 6
ENDMDL
