MODEL        1
REMARK 921   NORMALIZED FREE ENERGY PREDICTED BY IDOCK:   -6.92 KCAL/MOL
REMARK 922        TOTAL FREE ENERGY PREDICTED BY IDOCK:   -9.61 KCAL/MOL
REMARK 923 INTER-LIGAND FREE ENERGY PREDICTED BY IDOCK:   -8.54 KCAL/MOL
REMARK 924 INTRA-LIGAND FREE ENERGY PREDICTED BY IDOCK:   -1.07 KCAL/MOL
REMARK 927      BINDING AFFINITY PREDICTED BY RF-SCORE:    0.00 PKD
ROOT
HETATM    1  C   UNL     1      -7.536  19.632  67.574  1.00  0.00    -0.256 C  
HETATM    2  N   UNL     1      -8.347  18.997  68.600  1.00  0.00    -0.362 NA 
HETATM    3  C   UNL     1      -9.723  19.483  68.667  1.00  0.00    -0.433 C  
HETATM    4  C   UNL     1     -10.733  18.790  67.742  1.00  0.00    -0.406 C  
HETATM    5  C   UNL     1     -10.631  17.258  67.748  1.00  0.00    -0.367 C  
HETATM    6  C   UNL     1      -8.270  17.533  68.551  1.00  0.00    -0.278 C  
HETATM    7  C   UNL     1      -9.165  16.905  67.472  1.00  0.00    -0.223 C  
ENDROOT
BRANCH   5   8
HETATM    8  O   UNL     1     -10.957  16.530  68.930  1.00  0.00    -0.319 OA 
BRANCH   8   9
HETATM    9  C   UNL     1     -12.055  15.626  68.975  1.00  0.00    -0.205 C  
BRANCH   9  10
HETATM   10  C   UNL     1     -12.438  15.561  70.459  1.00  0.00    -0.472 A  
HETATM   11  C   UNL     1     -11.573  16.037  71.463  1.00  0.00    -0.529 A  
HETATM   12  C   UNL     1     -13.720  15.138  70.847  1.00  0.00    -0.352 A  
HETATM   13  C   UNL     1     -11.979  16.114  72.798  1.00  0.00    -0.638 A  
HETATM   14  C   UNL     1     -14.131  15.228  72.184  1.00  0.00    -0.658 A  
HETATM   15  C   UNL     1     -13.265  15.723  73.155  1.00  0.00    -0.694 A  
ENDBRANCH   9  10
BRANCH   9  16
HETATM   16  C   UNL     1     -11.761  14.277  68.326  1.00  0.00    -0.377 A  
HETATM   17  C   UNL     1     -11.142  11.915  68.439  1.00  0.00    -0.292 A  
HETATM   18  C   UNL     1     -11.311  13.162  69.054  1.00  0.00    -0.332 A  
HETATM   19  C   UNL     1     -11.792  12.867  66.330  1.00  0.00    -0.478 A  
HETATM   20  C   UNL     1     -11.974  14.108  66.948  1.00  0.00    -0.479 A  
HETATM   21  C   UNL     1     -11.391  11.764  67.079  1.00  0.00    -0.387 A  
ENDBRANCH   9  16
ENDBRANCH   8   9
ENDBRANCH   5   8
TORSDOF 4
ENDMDL
MODEL        2
REMARK 921   NORMALIZED FREE ENERGY PREDICTED BY IDOCK:   -6.80 KCAL/MOL
REMARK 922        TOTAL FREE ENERGY PREDICTED BY IDOCK:   -9.47 KCAL/MOL
REMARK 923 INTER-LIGAND FREE ENERGY PREDICTED BY IDOCK:   -8.32 KCAL/MOL
REMARK 924 INTRA-LIGAND FREE ENERGY PREDICTED BY IDOCK:   -1.14 KCAL/MOL
REMARK 927      BINDING AFFINITY PREDICTED BY RF-SCORE:    0.00 PKD
ROOT
HETATM    1  C   UNL     1      -8.149  19.542  65.998  1.00  0.00    -0.291 C  
HETATM    2  N   UNL     1      -8.886  18.301  66.168  1.00  0.00    -0.494 NA 
HETATM    3  C   UNL     1      -8.280  17.366  67.113  1.00  0.00    -0.210 C  
HETATM    4  C   UNL     1      -8.666  17.546  68.589  1.00  0.00    -0.258 C  
HETATM    5  C   UNL     1     -10.170  17.750  68.817  1.00  0.00    -0.373 C  
HETATM    6  C   UNL     1     -10.311  18.526  66.435  1.00  0.00    -0.423 C  
HETATM    7  C   UNL     1     -10.614  18.892  67.896  1.00  0.00    -0.425 C  
ENDROOT
BRANCH   5   8
HETATM    8  O   UNL     1     -11.080  16.689  68.534  1.00  0.00    -0.349 OA 
BRANCH   8   9
HETATM    9  C   UNL     1     -11.118  15.504  69.321  1.00  0.00    -0.285 C  
BRANCH   9  10
HETATM   10  C   UNL     1     -11.475  14.393  68.324  1.00  0.00    -0.333 A  
HETATM   11  C   UNL     1     -11.850  14.688  66.999  1.00  0.00    -0.358 A  
HETATM   12  C   UNL     1     -11.318  13.043  68.675  1.00  0.00    -0.329 A  
HETATM   13  C   UNL     1     -12.032  13.676  66.052  1.00  0.00    -0.447 A  
HETATM   14  C   UNL     1     -11.488  12.029  67.722  1.00  0.00    -0.394 A  
HETATM   15  C   UNL     1     -11.836  12.347  66.412  1.00  0.00    -0.421 A  
ENDBRANCH   9  10
BRANCH   9  16
HETATM   16  C   UNL     1     -12.040  15.604  70.532  1.00  0.00    -0.430 A  
HETATM   17  C   UNL     1     -14.212  15.335  71.621  1.00  0.00    -0.654 A  
HETATM   18  C   UNL     1     -13.416  15.323  70.469  1.00  0.00    -0.128 A  
HETATM   19  C   UNL     1     -12.305  15.988  72.931  1.00  0.00    -0.609 A  
HETATM   20  C   UNL     1     -11.508  15.961  71.782  1.00  0.00    -0.457 A  
HETATM   21  C   UNL     1     -13.655  15.659  72.854  1.00  0.00    -0.658 A  
ENDBRANCH   9  16
ENDBRANCH   8   9
ENDBRANCH   5   8
TORSDOF 4
ENDMDL
MODEL        3
REMARK 921   NORMALIZED FREE ENERGY PREDICTED BY IDOCK:   -6.72 KCAL/MOL
REMARK 922        TOTAL FREE ENERGY PREDICTED BY IDOCK:   -9.36 KCAL/MOL
REMARK 923 INTER-LIGAND FREE ENERGY PREDICTED BY IDOCK:   -8.28 KCAL/MOL
REMARK 924 INTRA-LIGAND FREE ENERGY PREDICTED BY IDOCK:   -1.09 KCAL/MOL
REMARK 927      BINDING AFFINITY PREDICTED BY RF-SCORE:    0.00 PKD
ROOT
HETATM    1  C   UNL     1     -10.166  13.194  64.386  1.00  0.00    -0.297 C  
HETATM    2  N   UNL     1     -10.542  12.660  65.685  1.00  0.00    -0.268 NA 
HETATM    3  C   UNL     1      -9.785  13.212  66.806  1.00  0.00    -0.246 C  
HETATM    4  C   UNL     1     -10.332  14.509  67.420  1.00  0.00    -0.252 C  
HETATM    5  C   UNL     1     -11.848  14.491  67.663  1.00  0.00    -0.364 C  
HETATM    6  C   UNL     1     -11.991  12.701  65.911  1.00  0.00    -0.438 C  
HETATM    7  C   UNL     1     -12.508  14.081  66.342  1.00  0.00    -0.395 C  
ENDROOT
BRANCH   5   8
HETATM    8  O   UNL     1     -12.400  13.600  68.629  1.00  0.00    -0.258 OA 
BRANCH   8   9
HETATM    9  C   UNL     1     -11.811  13.429  69.914  1.00  0.00    -0.315 C  
BRANCH   9  10
HETATM   10  C   UNL     1     -11.959  11.930  70.207  1.00  0.00    -0.416 A  
HETATM   11  C   UNL     1     -11.194  10.968  69.520  1.00  0.00    -0.343 A  
HETATM   12  C   UNL     1     -12.777  11.487  71.259  1.00  0.00    -0.469 A  
HETATM   13  C   UNL     1     -11.221   9.620  69.887  1.00  0.00    -0.244 A  
HETATM   14  C   UNL     1     -12.793  10.137  71.635  1.00  0.00    -0.559 A  
HETATM   15  C   UNL     1     -12.010   9.208  70.956  1.00  0.00    -0.344 A  
ENDBRANCH   9  10
BRANCH   9  16
HETATM   16  C   UNL     1     -12.391  14.354  70.979  1.00  0.00    -0.427 A  
HETATM   17  C   UNL     1     -14.270  15.372  72.166  1.00  0.00    -0.660 A  
HETATM   18  C   UNL     1     -13.770  14.590  71.117  1.00  0.00    -0.333 A  
HETATM   19  C   UNL     1     -12.028  15.776  72.934  1.00  0.00    -0.599 A  
HETATM   20  C   UNL     1     -11.531  14.983  71.894  1.00  0.00    -0.368 A  
HETATM   21  C   UNL     1     -13.401  15.957  73.081  1.00  0.00    -0.681 A  
ENDBRANCH   9  16
ENDBRANCH   8   9
ENDBRANCH   5   8
TORSDOF 4
ENDMDL
MODEL        4
REMARK 921   NORMALIZED FREE ENERGY PREDICTED BY IDOCK:   -6.71 KCAL/MOL
REMARK 922        TOTAL FREE ENERGY PREDICTED BY IDOCK:   -9.36 KCAL/MOL
REMARK 923 INTER-LIGAND FREE ENERGY PREDICTED BY IDOCK:   -8.25 KCAL/MOL
REMARK 924 INTRA-LIGAND FREE ENERGY PREDICTED BY IDOCK:   -1.11 KCAL/MOL
REMARK 927      BINDING AFFINITY PREDICTED BY RF-SCORE:    0.00 PKD
ROOT
HETATM    1  C   UNL     1     -12.310  12.404  63.467  1.00  0.00    -0.546 C  
HETATM    2  N   UNL     1     -12.562  13.082  64.728  1.00  0.00    -0.650 NA 
HETATM    3  C   UNL     1     -11.907  12.471  65.882  1.00  0.00    -0.430 C  
HETATM    4  C   UNL     1     -10.471  12.931  66.169  1.00  0.00    -0.283 C  
HETATM    5  C   UNL     1     -10.280  14.453  66.100  1.00  0.00    -0.306 C  
HETATM    6  C   UNL     1     -12.324  14.527  64.646  1.00  0.00    -0.403 C  
HETATM    7  C   UNL     1     -10.841  14.914  64.749  1.00  0.00    -0.382 C  
ENDROOT
BRANCH   5   8
HETATM    8  O   UNL     1     -10.921  15.292  67.057  1.00  0.00    -0.322 OA 
BRANCH   8   9
HETATM    9  C   UNL     1     -10.231  15.787  68.200  1.00  0.00    -0.230 C  
BRANCH   9  10
HETATM   10  C   UNL     1     -11.136  15.417  69.383  1.00  0.00    -0.283 A  
HETATM   11  C   UNL     1     -11.797  14.175  69.443  1.00  0.00    -0.378 A  
HETATM   12  C   UNL     1     -11.231  16.264  70.500  1.00  0.00    -0.327 A  
HETATM   13  C   UNL     1     -12.500  13.779  70.584  1.00  0.00    -0.429 A  
HETATM   14  C   UNL     1     -11.926  15.860  71.648  1.00  0.00    -0.553 A  
HETATM   15  C   UNL     1     -12.551  14.617  71.693  1.00  0.00    -0.403 A  
ENDBRANCH   9  10
BRANCH   9  16
HETATM   16  C   UNL     1      -9.871  17.266  68.103  1.00  0.00    -0.290 A  
HETATM   17  C   UNL     1      -8.325  19.137  68.395  1.00  0.00    -0.384 A  
HETATM   18  C   UNL     1      -8.660  17.791  68.586  1.00  0.00    -0.264 A  
HETATM   19  C   UNL     1     -10.432  19.505  67.298  1.00  0.00    -0.590 A  
HETATM   20  C   UNL     1     -10.760  18.157  67.477  1.00  0.00    -0.365 A  
HETATM   21  C   UNL     1      -9.207  19.993  67.743  1.00  0.00    -0.435 A  
ENDBRANCH   9  16
ENDBRANCH   8   9
ENDBRANCH   5   8
TORSDOF 4
ENDMDL
MODEL        5
REMARK 921   NORMALIZED FREE ENERGY PREDICTED BY IDOCK:   -6.67 KCAL/MOL
REMARK 922        TOTAL FREE ENERGY PREDICTED BY IDOCK:   -9.31 KCAL/MOL
REMARK 923 INTER-LIGAND FREE ENERGY PREDICTED BY IDOCK:   -8.14 KCAL/MOL
REMARK 924 INTRA-LIGAND FREE ENERGY PREDICTED BY IDOCK:   -1.17 KCAL/MOL
REMARK 927      BINDING AFFINITY PREDICTED BY RF-SCORE:    0.00 PKD
ROOT
HETATM    1  C   UNL     1     -10.679  13.387  64.462  1.00  0.00    -0.419 C  
HETATM    2  N   UNL     1     -10.357  13.050  65.839  1.00  0.00    -0.283 NA 
HETATM    3  C   UNL     1      -9.566  14.061  66.538  1.00  0.00    -0.293 C  
HETATM    4  C   UNL     1     -10.355  15.186  67.223  1.00  0.00    -0.261 C  
HETATM    5  C   UNL     1     -11.561  14.693  68.035  1.00  0.00    -0.340 C  
HETATM    6  C   UNL     1     -11.536  12.631  66.605  1.00  0.00    -0.381 C  
HETATM    7  C   UNL     1     -12.394  13.803  67.105  1.00  0.00    -0.244 C  
ENDROOT
BRANCH   5   8
HETATM    8  O   UNL     1     -11.355  13.897  69.200  1.00  0.00    -0.259 OA 
BRANCH   8   9
HETATM    9  C   UNL     1     -12.444  13.381  69.957  1.00  0.00    -0.137 C  
BRANCH   9  10
HETATM   10  C   UNL     1     -12.653  14.410  71.077  1.00  0.00    -0.419 A  
HETATM   11  C   UNL     1     -13.943  14.809  71.478  1.00  0.00    -0.548 A  
HETATM   12  C   UNL     1     -11.560  14.891  71.816  1.00  0.00    -0.344 A  
HETATM   13  C   UNL     1     -14.137  15.631  72.591  1.00  0.00    -0.527 A  
HETATM   14  C   UNL     1     -11.756  15.704  72.940  1.00  0.00    -0.512 A  
HETATM   15  C   UNL     1     -13.042  16.066  73.331  1.00  0.00    -0.677 A  
ENDBRANCH   9  10
BRANCH   9  16
HETATM   16  C   UNL     1     -12.233  11.948  70.432  1.00  0.00    -0.399 A  
HETATM   17  C   UNL     1     -11.025   9.823  70.418  1.00  0.00    -0.371 A  
HETATM   18  C   UNL     1     -11.249  11.101  69.892  1.00  0.00    -0.293 A  
HETATM   19  C   UNL     1     -12.810  10.157  71.992  1.00  0.00    -0.472 A  
HETATM   20  C   UNL     1     -13.024  11.439  71.475  1.00  0.00    -0.505 A  
HETATM   21  C   UNL     1     -11.799   9.353  71.474  1.00  0.00    -0.456 A  
ENDBRANCH   9  16
ENDBRANCH   8   9
ENDBRANCH   5   8
TORSDOF 4
ENDMDL
MODEL        6
REMARK 921   NORMALIZED FREE ENERGY PREDICTED BY IDOCK:   -6.62 KCAL/MOL
REMARK 922        TOTAL FREE ENERGY PREDICTED BY IDOCK:   -9.24 KCAL/MOL
REMARK 923 INTER-LIGAND FREE ENERGY PREDICTED BY IDOCK:   -7.98 KCAL/MOL
REMARK 924 INTRA-LIGAND FREE ENERGY PREDICTED BY IDOCK:   -1.26 KCAL/MOL
REMARK 927      BINDING AFFINITY PREDICTED BY RF-SCORE:    0.00 PKD
ROOT
HETATM    1  C   UNL     1     -10.466  12.631  63.995  1.00  0.00    -0.416 C  
HETATM    2  N   UNL     1     -10.191  13.438  65.173  1.00  0.00    -0.315 NA 
HETATM    3  C   UNL     1     -11.188  14.471  65.441  1.00  0.00    -0.342 C  
HETATM    4  C   UNL     1     -12.400  14.043  66.282  1.00  0.00    -0.482 C  
HETATM    5  C   UNL     1     -12.034  13.217  67.524  1.00  0.00    -0.324 C  
HETATM    6  C   UNL     1      -9.894  12.623  66.355  1.00  0.00    -0.259 C  
HETATM    7  C   UNL     1     -11.145  12.062  67.047  1.00  0.00    -0.351 C  
ENDROOT
BRANCH   5   8
HETATM    8  O   UNL     1     -11.296  13.820  68.584  1.00  0.00    -0.252 OA 
BRANCH   8   9
HETATM    9  C   UNL     1     -11.646  15.097  69.108  1.00  0.00    -0.323 C  
BRANCH   9  10
HETATM   10  C   UNL     1     -10.429  15.982  68.803  1.00  0.00    -0.248 A  
HETATM   11  C   UNL     1     -10.579  17.297  68.323  1.00  0.00    -0.383 A  
HETATM   12  C   UNL     1      -9.132  15.542  69.115  1.00  0.00    -0.248 A  
HETATM   13  C   UNL     1      -9.482  18.151  68.186  1.00  0.00    -0.301 A  
HETATM   14  C   UNL     1      -8.034  16.403  68.989  1.00  0.00    -0.227 A  
HETATM   15  C   UNL     1      -8.210  17.707  68.534  1.00  0.00    -0.292 A  
ENDBRANCH   9  10
BRANCH   9  16
HETATM   16  C   UNL     1     -12.065  15.061  70.574  1.00  0.00    -0.379 A  
HETATM   17  C   UNL     1     -12.188  16.041  72.810  1.00  0.00    -0.617 A  
HETATM   18  C   UNL     1     -11.706  16.060  71.495  1.00  0.00    -0.554 A  
HETATM   19  C   UNL     1     -13.342  13.981  72.356  1.00  0.00    -0.617 A  
HETATM   20  C   UNL     1     -12.872  14.009  71.039  1.00  0.00    -0.410 A  
HETATM   21  C   UNL     1     -13.014  15.006  73.239  1.00  0.00    -0.642 A  
ENDBRANCH   9  16
ENDBRANCH   8   9
ENDBRANCH   5   8
TORSDOF 4
ENDMDL
MODEL        7
REMARK 921   NORMALIZED FREE ENERGY PREDICTED BY IDOCK:   -6.55 KCAL/MOL
REMARK 922        TOTAL FREE ENERGY PREDICTED BY IDOCK:   -9.15 KCAL/MOL
REMARK 923 INTER-LIGAND FREE ENERGY PREDICTED BY IDOCK:   -7.98 KCAL/MOL
REMARK 924 INTRA-LIGAND FREE ENERGY PREDICTED BY IDOCK:   -1.17 KCAL/MOL
REMARK 927      BINDING AFFINITY PREDICTED BY RF-SCORE:    0.00 PKD
ROOT
HETATM    1  C   UNL     1     -10.568  12.681  63.942  1.00  0.00    -0.428 C  
HETATM    2  N   UNL     1     -10.316  13.574  65.061  1.00  0.00    -0.360 NA 
HETATM    3  C   UNL     1     -11.414  14.492  65.357  1.00  0.00    -0.348 C  
HETATM    4  C   UNL     1     -12.504  13.964  66.302  1.00  0.00    -0.454 C  
HETATM    5  C   UNL     1     -11.955  13.253  67.547  1.00  0.00    -0.324 C  
HETATM    6  C   UNL     1      -9.841  12.863  66.252  1.00  0.00    -0.273 C  
HETATM    7  C   UNL     1     -10.964  12.191  67.056  1.00  0.00    -0.319 C  
ENDROOT
BRANCH   5   8
HETATM    8  O   UNL     1     -11.228  13.994  68.524  1.00  0.00    -0.241 OA 
BRANCH   8   9
HETATM    9  C   UNL     1     -11.703  15.240  69.024  1.00  0.00    -0.347 C  
BRANCH   9  10
HETATM   10  C   UNL     1     -10.552  16.221  68.760  1.00  0.00    -0.298 A  
HETATM   11  C   UNL     1      -9.226  15.912  69.118  1.00  0.00    -0.253 A  
HETATM   12  C   UNL     1     -10.777  17.406  68.040  1.00  0.00    -0.359 A  
HETATM   13  C   UNL     1      -8.161  16.737  68.747  1.00  0.00    -0.252 A  
HETATM   14  C   UNL     1      -9.708  18.226  67.658  1.00  0.00    -0.306 A  
HETATM   15  C   UNL     1      -8.402  17.888  68.002  1.00  0.00    -0.258 A  
ENDBRANCH   9  10
BRANCH   9  16
HETATM   16  C   UNL     1     -12.175  15.176  70.473  1.00  0.00    -0.389 A  
HETATM   17  C   UNL     1     -13.283  14.047  72.336  1.00  0.00    -0.585 A  
HETATM   18  C   UNL     1     -12.948  14.116  70.979  1.00  0.00    -0.399 A  
HETATM   19  C   UNL     1     -12.154  16.134  72.721  1.00  0.00    -0.653 A  
HETATM   20  C   UNL     1     -11.807  16.195  71.368  1.00  0.00    -0.490 A  
HETATM   21  C   UNL     1     -12.879  15.051  73.211  1.00  0.00    -0.647 A  
ENDBRANCH   9  16
ENDBRANCH   8   9
ENDBRANCH   5   8
TORSDOF 4
ENDMDL
MODEL        8
REMARK 921   NORMALIZED FREE ENERGY PREDICTED BY IDOCK:   -6.53 KCAL/MOL
REMARK 922        TOTAL FREE ENERGY PREDICTED BY IDOCK:   -9.13 KCAL/MOL
REMARK 923 INTER-LIGAND FREE ENERGY PREDICTED BY IDOCK:   -7.99 KCAL/MOL
REMARK 924 INTRA-LIGAND FREE ENERGY PREDICTED BY IDOCK:   -1.13 KCAL/MOL
REMARK 927      BINDING AFFINITY PREDICTED BY RF-SCORE:    0.00 PKD
ROOT
HETATM    1  C   UNL     1      -8.146  18.821  66.002  1.00  0.00    -0.112 C  
HETATM    2  N   UNL     1      -9.043  17.679  66.084  1.00  0.00    -0.496 NA 
HETATM    3  C   UNL     1      -8.501  16.540  66.820  1.00  0.00    -0.238 C  
HETATM    4  C   UNL     1      -8.718  16.548  68.340  1.00  0.00    -0.218 C  
HETATM    5  C   UNL     1     -10.149  16.916  68.761  1.00  0.00    -0.295 C  
HETATM    6  C   UNL     1     -10.387  18.052  66.536  1.00  0.00    -0.373 C  
HETATM    7  C   UNL     1     -10.497  18.233  68.057  1.00  0.00    -0.387 C  
ENDROOT
BRANCH   5   8
HETATM    8  O   UNL     1     -11.229  16.043  68.440  1.00  0.00    -0.339 OA 
BRANCH   8   9
HETATM    9  C   UNL     1     -11.247  14.686  68.867  1.00  0.00    -0.267 C  
BRANCH   9  10
HETATM   10  C   UNL     1     -11.583  13.890  67.598  1.00  0.00    -0.381 A  
HETATM   11  C   UNL     1     -12.154  14.511  66.470  1.00  0.00    -0.330 A  
HETATM   12  C   UNL     1     -11.213  12.540  67.485  1.00  0.00    -0.342 A  
HETATM   13  C   UNL     1     -12.323  13.821  65.267  1.00  0.00    -0.491 A  
HETATM   14  C   UNL     1     -11.371  11.852  66.274  1.00  0.00    -0.394 A  
HETATM   15  C   UNL     1     -11.916  12.494  65.166  1.00  0.00    -0.484 A  
ENDBRANCH   9  10
BRANCH   9  16
HETATM   16  C   UNL     1     -12.174  14.430  70.051  1.00  0.00    -0.408 A  
HETATM   17  C   UNL     1     -12.991  13.052  71.897  1.00  0.00    -0.414 A  
HETATM   18  C   UNL     1     -12.193  13.216  70.758  1.00  0.00    -0.375 A  
HETATM   19  C   UNL     1     -13.841  15.284  71.621  1.00  0.00    -0.615 A  
HETATM   20  C   UNL     1     -13.033  15.451  70.492  1.00  0.00    -0.379 A  
HETATM   21  C   UNL     1     -13.809  14.089  72.335  1.00  0.00    -0.653 A  
ENDBRANCH   9  16
ENDBRANCH   8   9
ENDBRANCH   5   8
TORSDOF 4
ENDMDL
MODEL        9
REMARK 921   NORMALIZED FREE ENERGY PREDICTED BY IDOCK:   -6.51 KCAL/MOL
REMARK 922        TOTAL FREE ENERGY PREDICTED BY IDOCK:   -9.11 KCAL/MOL
REMARK 923 INTER-LIGAND FREE ENERGY PREDICTED BY IDOCK:   -7.95 KCAL/MOL
REMARK 924 INTRA-LIGAND FREE ENERGY PREDICTED BY IDOCK:   -1.16 KCAL/MOL
REMARK 927      BINDING AFFINITY PREDICTED BY RF-SCORE:    0.00 PKD
ROOT
HETATM    1  C   UNL     1      -8.108  18.994  66.185  1.00  0.00    -0.244 C  
HETATM    2  N   UNL     1      -8.890  17.771  66.268  1.00  0.00    -0.446 NA 
HETATM    3  C   UNL     1      -8.405  16.812  67.257  1.00  0.00    -0.177 C  
HETATM    4  C   UNL     1      -8.929  16.990  68.690  1.00  0.00    -0.267 C  
HETATM    5  C   UNL     1     -10.443  17.232  68.771  1.00  0.00    -0.340 C  
HETATM    6  C   UNL     1     -10.328  18.032  66.396  1.00  0.00    -0.379 C  
HETATM    7  C   UNL     1     -10.764  18.394  67.823  1.00  0.00    -0.371 C  
ENDROOT
BRANCH   5   8
HETATM    8  O   UNL     1     -11.348  16.199  68.387  1.00  0.00    -0.366 OA 
BRANCH   8   9
HETATM    9  C   UNL     1     -11.194  14.860  68.846  1.00  0.00    -0.269 C  
BRANCH   9  10
HETATM   10  C   UNL     1     -11.298  14.005  67.576  1.00  0.00    -0.343 A  
HETATM   11  C   UNL     1     -10.550  12.822  67.422  1.00  0.00    -0.241 A  
HETATM   12  C   UNL     1     -12.239  14.318  66.581  1.00  0.00    -0.411 A  
HETATM   13  C   UNL     1     -10.753  11.969  66.334  1.00  0.00    -0.294 A  
HETATM   14  C   UNL     1     -12.451  13.456  65.497  1.00  0.00    -0.534 A  
HETATM   15  C   UNL     1     -11.716  12.279  65.380  1.00  0.00    -0.424 A  
ENDBRANCH   9  10
BRANCH   9  16
HETATM   16  C   UNL     1     -12.165  14.480  69.959  1.00  0.00    -0.396 A  
HETATM   17  C   UNL     1     -13.074  12.901  71.588  1.00  0.00    -0.430 A  
HETATM   18  C   UNL     1     -12.235  13.187  70.504  1.00  0.00    -0.405 A  
HETATM   19  C   UNL     1     -13.866  15.170  71.574  1.00  0.00    -0.597 A  
HETATM   20  C   UNL     1     -13.016  15.459  70.500  1.00  0.00    -0.379 A  
HETATM   21  C   UNL     1     -13.883  13.895  72.130  1.00  0.00    -0.636 A  
ENDBRANCH   9  16
ENDBRANCH   8   9
ENDBRANCH   5   8
TORSDOF 4
ENDMDL
MODEL       10
REMARK 921   NORMALIZED FREE ENERGY PREDICTED BY IDOCK:   -6.45 KCAL/MOL
REMARK 922        TOTAL FREE ENERGY PREDICTED BY IDOCK:   -9.03 KCAL/MOL
REMARK 923 INTER-LIGAND FREE ENERGY PREDICTED BY IDOCK:   -8.16 KCAL/MOL
REMARK 924 INTRA-LIGAND FREE ENERGY PREDICTED BY IDOCK:   -0.87 KCAL/MOL
REMARK 927      BINDING AFFINITY PREDICTED BY RF-SCORE:    0.00 PKD
ROOT
HETATM    1  C   UNL     1     -10.361  14.981  65.192  1.00  0.00    -0.392 C  
HETATM    2  N   UNL     1     -10.822  14.814  66.561  1.00  0.00    -0.313 NA 
HETATM    3  C   UNL     1     -12.057  14.044  66.691  1.00  0.00    -0.456 C  
HETATM    4  C   UNL     1     -11.899  12.520  66.785  1.00  0.00    -0.416 C  
HETATM    5  C   UNL     1     -10.799  12.068  67.756  1.00  0.00    -0.215 C  
HETATM    6  C   UNL     1      -9.764  14.334  67.456  1.00  0.00    -0.223 C  
HETATM    7  C   UNL     1      -9.521  12.820  67.366  1.00  0.00    -0.190 C  
ENDROOT
BRANCH   5   8
HETATM    8  O   UNL     1     -10.943  12.311  69.154  1.00  0.00    -0.228 OA 
BRANCH   8   9
HETATM    9  C   UNL     1     -12.127  11.952  69.858  1.00  0.00    -0.272 C  
BRANCH   9  10
HETATM   10  C   UNL     1     -12.457  13.188  70.706  1.00  0.00    -0.389 A  
HETATM   11  C   UNL     1     -13.282  13.100  71.843  1.00  0.00    -0.526 A  
HETATM   12  C   UNL     1     -11.841  14.422  70.437  1.00  0.00    -0.381 A  
HETATM   13  C   UNL     1     -13.464  14.192  72.697  1.00  0.00    -0.634 A  
HETATM   14  C   UNL     1     -12.013  15.512  71.300  1.00  0.00    -0.443 A  
HETATM   15  C   UNL     1     -12.815  15.394  72.432  1.00  0.00    -0.475 A  
ENDBRANCH   9  10
BRANCH   9  16
HETATM   16  C   UNL     1     -12.001  10.649  70.641  1.00  0.00    -0.466 A  
HETATM   17  C   UNL     1     -10.689   8.822  71.597  1.00  0.00    -0.397 A  
HETATM   18  C   UNL     1     -10.783   9.965  70.793  1.00  0.00    -0.350 A  
HETATM   19  C   UNL     1     -13.043   8.958  72.064  1.00  0.00    -0.454 A  
HETATM   20  C   UNL     1     -13.132  10.108  71.273  1.00  0.00    -0.490 A  
HETATM   21  C   UNL     1     -11.817   8.323  72.241  1.00  0.00    -0.451 A  
ENDBRANCH   9  16
ENDBRANCH   8   9
ENDBRANCH   5   8
TORSDOF 4
ENDMDL
MODEL       11
REMARK 921   NORMALIZED FREE ENERGY PREDICTED BY IDOCK:   -6.32 KCAL/MOL
REMARK 922        TOTAL FREE ENERGY PREDICTED BY IDOCK:   -8.87 KCAL/MOL
REMARK 923 INTER-LIGAND FREE ENERGY PREDICTED BY IDOCK:   -7.85 KCAL/MOL
REMARK 924 INTRA-LIGAND FREE ENERGY PREDICTED BY IDOCK:   -1.02 KCAL/MOL
REMARK 927      BINDING AFFINITY PREDICTED BY RF-SCORE:    0.00 PKD
ROOT
HETATM    1  C   UNL     1     -13.481  13.414  72.503  1.00  0.00    -0.536 C  
HETATM    2  N   UNL     1     -13.565  14.252  71.318  1.00  0.00    -0.326 NA 
HETATM    3  C   UNL     1     -13.187  15.647  71.539  1.00  0.00    -0.475 C  
HETATM    4  C   UNL     1     -11.694  15.975  71.403  1.00  0.00    -0.536 C  
HETATM    5  C   UNL     1     -11.032  15.358  70.163  1.00  0.00    -0.310 C  
HETATM    6  C   UNL     1     -12.881  13.662  70.162  1.00  0.00     0.086 C  
HETATM    7  C   UNL     1     -11.358  13.859  70.180  1.00  0.00    -0.063 C  
ENDROOT
BRANCH   5   8
HETATM    8  O   UNL     1     -11.420  15.792  68.862  1.00  0.00    -0.334 OA 
BRANCH   8   9
HETATM    9  C   UNL     1     -10.502  15.808  67.773  1.00  0.00    -0.283 C  
BRANCH   9  10
HETATM   10  C   UNL     1     -10.319  17.297  67.449  1.00  0.00    -0.338 A  
HETATM   11  C   UNL     1     -10.439  17.784  66.133  1.00  0.00    -0.301 A  
HETATM   12  C   UNL     1     -10.147  18.235  68.481  1.00  0.00    -0.419 A  
HETATM   13  C   UNL     1     -10.417  19.153  65.859  1.00  0.00    -0.500 A  
HETATM   14  C   UNL     1     -10.139  19.609  68.206  1.00  0.00    -0.560 A  
HETATM   15  C   UNL     1     -10.283  20.067  66.899  1.00  0.00    -0.595 A  
ENDBRANCH   9  10
BRANCH   9  16
HETATM   16  C   UNL     1     -10.937  14.942  66.596  1.00  0.00    -0.325 A  
HETATM   17  C   UNL     1     -10.462  13.602  64.608  1.00  0.00    -0.442 A  
HETATM   18  C   UNL     1     -10.040  14.471  65.621  1.00  0.00    -0.384 A  
HETATM   19  C   UNL     1     -12.708  13.701  65.456  1.00  0.00    -0.514 A  
HETATM   20  C   UNL     1     -12.284  14.558  66.477  1.00  0.00    -0.268 A  
HETATM   21  C   UNL     1     -11.794  13.209  64.530  1.00  0.00    -0.427 A  
ENDBRANCH   9  16
ENDBRANCH   8   9
ENDBRANCH   5   8
TORSDOF 4
ENDMDL
MODEL       12
REMARK 921   NORMALIZED FREE ENERGY PREDICTED BY IDOCK:   -6.27 KCAL/MOL
REMARK 922        TOTAL FREE ENERGY PREDICTED BY IDOCK:   -8.81 KCAL/MOL
REMARK 923 INTER-LIGAND FREE ENERGY PREDICTED BY IDOCK:   -7.67 KCAL/MOL
REMARK 924 INTRA-LIGAND FREE ENERGY PREDICTED BY IDOCK:   -1.14 KCAL/MOL
REMARK 927      BINDING AFFINITY PREDICTED BY RF-SCORE:    0.00 PKD
ROOT
HETATM    1  C   UNL     1     -12.794  16.142  74.013  1.00  0.00    -0.422 C  
HETATM    2  N   UNL     1     -12.390  14.978  73.241  1.00  0.00    -0.411 NA 
HETATM    3  C   UNL     1     -13.496  14.259  72.612  1.00  0.00    -0.525 C  
HETATM    4  C   UNL     1     -13.932  14.760  71.228  1.00  0.00    -0.444 C  
HETATM    5  C   UNL     1     -12.763  15.031  70.269  1.00  0.00    -0.275 C  
HETATM    6  C   UNL     1     -11.307  15.277  72.298  1.00  0.00    -0.300 C  
HETATM    7  C   UNL     1     -11.785  15.955  71.005  1.00  0.00    -0.473 C  
ENDROOT
BRANCH   5   8
HETATM    8  O   UNL     1     -11.956  13.949  69.812  1.00  0.00    -0.298 OA 
BRANCH   8   9
HETATM    9  C   UNL     1     -12.280  13.218  68.634  1.00  0.00    -0.080 C  
BRANCH   9  10
HETATM   10  C   UNL     1     -11.835  11.781  68.941  1.00  0.00    -0.381 A  
HETATM   11  C   UNL     1     -11.267  10.960  67.948  1.00  0.00    -0.387 A  
HETATM   12  C   UNL     1     -11.871  11.289  70.255  1.00  0.00    -0.446 A  
HETATM   13  C   UNL     1     -10.728   9.709  68.259  1.00  0.00    -0.262 A  
HETATM   14  C   UNL     1     -11.320  10.040  70.569  1.00  0.00    -0.409 A  
HETATM   15  C   UNL     1     -10.742   9.256  69.574  1.00  0.00    -0.236 A  
ENDBRANCH   9  10
BRANCH   9  16
HETATM   16  C   UNL     1     -11.690  13.817  67.362  1.00  0.00    -0.417 A  
HETATM   17  C   UNL     1     -11.856  14.519  65.026  1.00  0.00    -0.399 A  
HETATM   18  C   UNL     1     -12.396  13.878  66.148  1.00  0.00    -0.504 A  
HETATM   19  C   UNL     1      -9.852  14.996  66.265  1.00  0.00    -0.307 A  
HETATM   20  C   UNL     1     -10.398  14.368  67.389  1.00  0.00    -0.252 A  
HETATM   21  C   UNL     1     -10.587  15.087  65.087  1.00  0.00    -0.440 A  
ENDBRANCH   9  16
ENDBRANCH   8   9
ENDBRANCH   5   8
TORSDOF 4
ENDMDL
MODEL       13
REMARK 921   NORMALIZED FREE ENERGY PREDICTED BY IDOCK:   -6.25 KCAL/MOL
REMARK 922        TOTAL FREE ENERGY PREDICTED BY IDOCK:   -8.78 KCAL/MOL
REMARK 923 INTER-LIGAND FREE ENERGY PREDICTED BY IDOCK:   -7.66 KCAL/MOL
REMARK 924 INTRA-LIGAND FREE ENERGY PREDICTED BY IDOCK:   -1.13 KCAL/MOL
REMARK 927      BINDING AFFINITY PREDICTED BY RF-SCORE:    0.00 PKD
ROOT
HETATM    1  C   UNL     1      -8.805  19.646  68.571  1.00  0.00    -0.297 C  
HETATM    2  N   UNL     1      -9.938  18.736  68.527  1.00  0.00    -0.385 NA 
HETATM    3  C   UNL     1     -10.758  18.854  67.323  1.00  0.00    -0.449 C  
HETATM    4  C   UNL     1     -10.314  18.017  66.115  1.00  0.00    -0.368 C  
HETATM    5  C   UNL     1      -9.954  16.565  66.464  1.00  0.00    -0.285 C  
HETATM    6  C   UNL     1      -9.557  17.350  68.814  1.00  0.00    -0.267 C  
HETATM    7  C   UNL     1      -8.940  16.619  67.613  1.00  0.00    -0.206 C  
ENDROOT
BRANCH   5   8
HETATM    8  O   UNL     1     -10.967  15.674  66.924  1.00  0.00    -0.315 OA 
BRANCH   8   9
HETATM    9  C   UNL     1     -10.723  14.281  67.085  1.00  0.00    -0.282 C  
BRANCH   9  10
HETATM   10  C   UNL     1     -11.207  13.654  65.770  1.00  0.00    -0.302 A  
HETATM   11  C   UNL     1     -10.299  13.231  64.779  1.00  0.00    -0.381 A  
HETATM   12  C   UNL     1     -12.568  13.372  65.574  1.00  0.00    -0.520 A  
HETATM   13  C   UNL     1     -10.729  12.529  63.650  1.00  0.00    -0.469 A  
HETATM   14  C   UNL     1     -12.997  12.656  64.447  1.00  0.00    -0.232 A  
HETATM   15  C   UNL     1     -12.078  12.228  63.493  1.00  0.00    -0.649 A  
ENDBRANCH   9  10
BRANCH   9  16
HETATM   16  C   UNL     1     -11.346  13.693  68.346  1.00  0.00    -0.329 A  
HETATM   17  C   UNL     1     -11.917  11.812  69.799  1.00  0.00    -0.392 A  
HETATM   18  C   UNL     1     -11.423  12.310  68.587  1.00  0.00    -0.355 A  
HETATM   19  C   UNL     1     -12.352  14.055  70.544  1.00  0.00    -0.437 A  
HETATM   20  C   UNL     1     -11.844  14.553  69.339  1.00  0.00    -0.367 A  
HETATM   21  C   UNL     1     -12.374  12.684  70.782  1.00  0.00    -0.372 A  
ENDBRANCH   9  16
ENDBRANCH   8   9
ENDBRANCH   5   8
TORSDOF 4
ENDMDL
MODEL       14
REMARK 921   NORMALIZED FREE ENERGY PREDICTED BY IDOCK:   -6.25 KCAL/MOL
REMARK 922        TOTAL FREE ENERGY PREDICTED BY IDOCK:   -8.78 KCAL/MOL
REMARK 923 INTER-LIGAND FREE ENERGY PREDICTED BY IDOCK:   -7.56 KCAL/MOL
REMARK 924 INTRA-LIGAND FREE ENERGY PREDICTED BY IDOCK:   -1.22 KCAL/MOL
REMARK 927      BINDING AFFINITY PREDICTED BY RF-SCORE:    0.00 PKD
ROOT
HETATM    1  C   UNL     1     -11.039  11.975  64.093  1.00  0.00    -0.368 C  
HETATM    2  N   UNL     1     -10.779  12.213  65.504  1.00  0.00    -0.273 NA 
HETATM    3  C   UNL     1      -9.657  13.110  65.766  1.00  0.00    -0.059 C  
HETATM    4  C   UNL     1      -9.979  14.611  65.793  1.00  0.00    -0.365 C  
HETATM    5  C   UNL     1     -11.237  14.961  66.601  1.00  0.00    -0.340 C  
HETATM    6  C   UNL     1     -11.988  12.594  66.241  1.00  0.00    -0.374 C  
HETATM    7  C   UNL     1     -12.370  14.073  66.074  1.00  0.00    -0.504 C  
ENDROOT
BRANCH   5   8
HETATM    8  O   UNL     1     -11.252  14.759  68.012  1.00  0.00    -0.274 OA 
BRANCH   8   9
HETATM    9  C   UNL     1     -11.424  15.841  68.922  1.00  0.00    -0.378 C  
BRANCH   9  10
HETATM   10  C   UNL     1     -10.071  16.566  68.915  1.00  0.00    -0.266 A  
HETATM   11  C   UNL     1      -8.868  15.879  69.164  1.00  0.00    -0.253 A  
HETATM   12  C   UNL     1      -9.988  17.915  68.535  1.00  0.00    -0.379 A  
HETATM   13  C   UNL     1      -7.627  16.504  69.013  1.00  0.00    -0.233 A  
HETATM   14  C   UNL     1      -8.744  18.539  68.372  1.00  0.00    -0.351 A  
HETATM   15  C   UNL     1      -7.566  17.832  68.601  1.00  0.00    -0.276 A  
ENDBRANCH   9  10
BRANCH   9  16
HETATM   16  C   UNL     1     -11.915  15.408  70.299  1.00  0.00    -0.386 A  
HETATM   17  C   UNL     1     -12.300  15.808  72.680  1.00  0.00    -0.559 A  
HETATM   18  C   UNL     1     -11.753  16.197  71.451  1.00  0.00    -0.506 A  
HETATM   19  C   UNL     1     -13.125  13.788  71.672  1.00  0.00    -0.456 A  
HETATM   20  C   UNL     1     -12.591  14.185  70.442  1.00  0.00    -0.397 A  
HETATM   21  C   UNL     1     -12.994  14.608  72.790  1.00  0.00    -0.564 A  
ENDBRANCH   9  16
ENDBRANCH   8   9
ENDBRANCH   5   8
TORSDOF 4
ENDMDL
MODEL       15
REMARK 921   NORMALIZED FREE ENERGY PREDICTED BY IDOCK:   -6.22 KCAL/MOL
REMARK 922        TOTAL FREE ENERGY PREDICTED BY IDOCK:   -8.75 KCAL/MOL
REMARK 923 INTER-LIGAND FREE ENERGY PREDICTED BY IDOCK:   -7.86 KCAL/MOL
REMARK 924 INTRA-LIGAND FREE ENERGY PREDICTED BY IDOCK:   -0.89 KCAL/MOL
REMARK 927      BINDING AFFINITY PREDICTED BY RF-SCORE:    0.00 PKD
ROOT
HETATM    1  C   UNL     1      -9.052  20.715  66.976  1.00  0.00    -0.222 C  
HETATM    2  N   UNL     1     -10.155  19.869  67.401  1.00  0.00    -0.402 NA 
HETATM    3  C   UNL     1     -10.491  18.800  66.464  1.00  0.00    -0.427 C  
HETATM    4  C   UNL     1      -9.707  17.489  66.621  1.00  0.00    -0.303 C  
HETATM    5  C   UNL     1      -9.589  17.006  68.074  1.00  0.00    -0.260 C  
HETATM    6  C   UNL     1      -9.992  19.382  68.775  1.00  0.00    -0.444 C  
HETATM    7  C   UNL     1      -9.042  18.181  68.893  1.00  0.00    -0.149 C  
ENDROOT
BRANCH   5   8
HETATM    8  O   UNL     1     -10.756  16.592  68.780  1.00  0.00    -0.296 OA 
BRANCH   8   9
HETATM    9  C   UNL     1     -10.777  15.400  69.558  1.00  0.00    -0.267 C  
BRANCH   9  10
HETATM   10  C   UNL     1     -11.018  14.280  68.537  1.00  0.00    -0.267 A  
HETATM   11  C   UNL     1     -10.678  12.943  68.819  1.00  0.00    -0.249 A  
HETATM   12  C   UNL     1     -11.701  14.543  67.339  1.00  0.00    -0.425 A  
HETATM   13  C   UNL     1     -11.030  11.904  67.953  1.00  0.00    -0.270 A  
HETATM   14  C   UNL     1     -12.066  13.500  66.477  1.00  0.00    -0.460 A  
HETATM   15  C   UNL     1     -11.739  12.183  66.789  1.00  0.00    -0.377 A  
ENDBRANCH   9  10
BRANCH   9  16
HETATM   16  C   UNL     1     -11.771  15.443  70.714  1.00  0.00    -0.385 A  
HETATM   17  C   UNL     1     -12.404  16.042  72.998  1.00  0.00    -0.625 A  
HETATM   18  C   UNL     1     -11.438  15.932  71.990  1.00  0.00    -0.422 A  
HETATM   19  C   UNL     1     -14.053  15.106  71.521  1.00  0.00    -0.636 A  
HETATM   20  C   UNL     1     -13.091  15.010  70.510  1.00  0.00    -0.305 A  
HETATM   21  C   UNL     1     -13.714  15.638  72.762  1.00  0.00    -0.662 A  
ENDBRANCH   9  16
ENDBRANCH   8   9
ENDBRANCH   5   8
TORSDOF 4
ENDMDL
MODEL       16
REMARK 921   NORMALIZED FREE ENERGY PREDICTED BY IDOCK:   -6.19 KCAL/MOL
REMARK 922        TOTAL FREE ENERGY PREDICTED BY IDOCK:   -8.71 KCAL/MOL
REMARK 923 INTER-LIGAND FREE ENERGY PREDICTED BY IDOCK:   -7.61 KCAL/MOL
REMARK 924 INTRA-LIGAND FREE ENERGY PREDICTED BY IDOCK:   -1.11 KCAL/MOL
REMARK 927      BINDING AFFINITY PREDICTED BY RF-SCORE:    0.00 PKD
ROOT
HETATM    1  C   UNL     1      -7.486  20.267  67.986  1.00  0.00    -0.230 C  
HETATM    2  N   UNL     1      -8.224  19.244  68.709  1.00  0.00    -0.367 NA 
HETATM    3  C   UNL     1      -9.672  19.439  68.718  1.00  0.00    -0.449 C  
HETATM    4  C   UNL     1     -10.444  18.850  67.528  1.00  0.00    -0.522 C  
HETATM    5  C   UNL     1     -10.027  17.418  67.166  1.00  0.00    -0.291 C  
HETATM    6  C   UNL     1      -7.842  17.886  68.307  1.00  0.00    -0.285 C  
HETATM    7  C   UNL     1      -8.503  17.422  67.001  1.00  0.00    -0.245 C  
ENDROOT
BRANCH   5   8
HETATM    8  O   UNL     1     -10.284  16.353  68.078  1.00  0.00    -0.248 OA 
BRANCH   8   9
HETATM    9  C   UNL     1     -11.487  15.593  68.023  1.00  0.00    -0.291 C  
BRANCH   9  10
HETATM   10  C   UNL     1     -11.841  15.330  69.493  1.00  0.00    -0.368 A  
HETATM   11  C   UNL     1     -12.400  14.106  69.907  1.00  0.00    -0.382 A  
HETATM   12  C   UNL     1     -11.499  16.262  70.486  1.00  0.00    -0.282 A  
HETATM   13  C   UNL     1     -12.586  13.810  71.260  1.00  0.00    -0.444 A  
HETATM   14  C   UNL     1     -11.674  15.961  71.844  1.00  0.00    -0.590 A  
HETATM   15  C   UNL     1     -12.207  14.734  72.229  1.00  0.00    -0.382 A  
ENDBRANCH   9  10
BRANCH   9  16
HETATM   16  C   UNL     1     -11.382  14.345  67.153  1.00  0.00    -0.356 A  
HETATM   17  C   UNL     1     -10.312  12.244  66.509  1.00  0.00    -0.250 A  
HETATM   18  C   UNL     1     -10.324  13.426  67.260  1.00  0.00    -0.244 A  
HETATM   19  C   UNL     1     -12.373  12.892  65.456  1.00  0.00    -0.517 A  
HETATM   20  C   UNL     1     -12.392  14.065  66.218  1.00  0.00    -0.482 A  
HETATM   21  C   UNL     1     -11.341  11.972  65.613  1.00  0.00    -0.381 A  
ENDBRANCH   9  16
ENDBRANCH   8   9
ENDBRANCH   5   8
TORSDOF 4
ENDMDL
MODEL       17
REMARK 921   NORMALIZED FREE ENERGY PREDICTED BY IDOCK:   -6.15 KCAL/MOL
REMARK 922        TOTAL FREE ENERGY PREDICTED BY IDOCK:   -8.67 KCAL/MOL
REMARK 923 INTER-LIGAND FREE ENERGY PREDICTED BY IDOCK:   -7.57 KCAL/MOL
REMARK 924 INTRA-LIGAND FREE ENERGY PREDICTED BY IDOCK:   -1.09 KCAL/MOL
REMARK 927      BINDING AFFINITY PREDICTED BY RF-SCORE:    0.00 PKD
ROOT
HETATM    1  C   UNL     1      -7.756  18.775  66.830  1.00  0.00    -0.241 C  
HETATM    2  N   UNL     1      -7.979  17.409  67.273  1.00  0.00    -0.196 NA 
HETATM    3  C   UNL     1      -8.644  17.297  68.569  1.00  0.00    -0.270 C  
HETATM    4  C   UNL     1     -10.179  17.313  68.549  1.00  0.00    -0.358 C  
HETATM    5  C   UNL     1     -10.795  16.409  67.472  1.00  0.00    -0.249 C  
HETATM    6  C   UNL     1      -8.614  16.581  66.243  1.00  0.00    -0.332 C  
HETATM    7  C   UNL     1     -10.133  16.783  66.140  1.00  0.00    -0.360 C  
ENDROOT
BRANCH   5   8
HETATM    8  O   UNL     1     -10.642  14.994  67.561  1.00  0.00    -0.257 OA 
BRANCH   8   9
HETATM    9  C   UNL     1     -11.708  14.104  67.250  1.00  0.00    -0.392 C  
BRANCH   9  10
HETATM   10  C   UNL     1     -11.778  13.155  68.453  1.00  0.00    -0.386 A  
HETATM   11  C   UNL     1     -12.152  13.614  69.731  1.00  0.00    -0.396 A  
HETATM   12  C   UNL     1     -11.591  11.773  68.283  1.00  0.00    -0.373 A  
HETATM   13  C   UNL     1     -12.358  12.728  70.792  1.00  0.00    -0.375 A  
HETATM   14  C   UNL     1     -11.810  10.884  69.344  1.00  0.00    -0.400 A  
HETATM   15  C   UNL     1     -12.202  11.360  70.592  1.00  0.00    -0.484 A  
ENDBRANCH   9  10
BRANCH   9  16
HETATM   16  C   UNL     1     -11.555  13.418  65.896  1.00  0.00    -0.370 A  
HETATM   17  C   UNL     1     -10.200  12.479  64.091  1.00  0.00    -0.376 A  
HETATM   18  C   UNL     1     -10.306  13.195  65.290  1.00  0.00    -0.319 A  
HETATM   19  C   UNL     1     -12.591  12.247  64.018  1.00  0.00    -0.521 A  
HETATM   20  C   UNL     1     -12.695  12.951  65.222  1.00  0.00    -0.389 A  
HETATM   21  C   UNL     1     -11.341  11.996  63.459  1.00  0.00    -0.528 A  
ENDBRANCH   9  16
ENDBRANCH   8   9
ENDBRANCH   5   8
TORSDOF 4
ENDMDL
MODEL       18
REMARK 921   NORMALIZED FREE ENERGY PREDICTED BY IDOCK:   -6.15 KCAL/MOL
REMARK 922        TOTAL FREE ENERGY PREDICTED BY IDOCK:   -8.66 KCAL/MOL
REMARK 923 INTER-LIGAND FREE ENERGY PREDICTED BY IDOCK:   -7.52 KCAL/MOL
REMARK 924 INTRA-LIGAND FREE ENERGY PREDICTED BY IDOCK:   -1.14 KCAL/MOL
REMARK 927      BINDING AFFINITY PREDICTED BY RF-SCORE:    0.00 PKD
ROOT
HETATM    1  C   UNL     1      -9.995  10.361  65.537  1.00  0.00    -0.282 C  
HETATM    2  N   UNL     1      -9.651  11.448  66.439  1.00  0.00    -0.200 NA 
HETATM    3  C   UNL     1     -10.031  12.774  65.955  1.00  0.00    -0.271 C  
HETATM    4  C   UNL     1     -11.457  13.235  66.288  1.00  0.00    -0.358 C  
HETATM    5  C   UNL     1     -11.868  12.981  67.746  1.00  0.00    -0.347 C  
HETATM    6  C   UNL     1     -10.099  11.202  67.813  1.00  0.00    -0.178 C  
HETATM    7  C   UNL     1     -11.589  11.502  68.039  1.00  0.00    -0.370 C  
ENDROOT
BRANCH   5   8
HETATM    8  O   UNL     1     -11.212  13.683  68.800  1.00  0.00    -0.252 OA 
BRANCH   8   9
HETATM    9  C   UNL     1     -11.640  14.974  69.219  1.00  0.00    -0.315 C  
BRANCH   9  10
HETATM   10  C   UNL     1     -10.481  15.904  68.836  1.00  0.00    -0.233 A  
HETATM   11  C   UNL     1     -10.713  17.178  68.281  1.00  0.00    -0.363 A  
HETATM   12  C   UNL     1      -9.156  15.557  69.145  1.00  0.00    -0.248 A  
HETATM   13  C   UNL     1      -9.668  18.081  68.068  1.00  0.00    -0.309 A  
HETATM   14  C   UNL     1      -8.110  16.468  68.944  1.00  0.00    -0.240 A  
HETATM   15  C   UNL     1      -8.367  17.730  68.416  1.00  0.00    -0.295 A  
ENDBRANCH   9  10
BRANCH   9  16
HETATM   16  C   UNL     1     -12.055  15.034  70.685  1.00  0.00    -0.375 A  
HETATM   17  C   UNL     1     -12.192  16.165  72.848  1.00  0.00    -0.640 A  
HETATM   18  C   UNL     1     -11.713  16.101  71.533  1.00  0.00    -0.533 A  
HETATM   19  C   UNL     1     -13.310  14.059  72.543  1.00  0.00    -0.639 A  
HETATM   20  C   UNL     1     -12.843  14.003  71.225  1.00  0.00    -0.430 A  
HETATM   21  C   UNL     1     -12.998  15.148  73.350  1.00  0.00    -0.642 A  
ENDBRANCH   9  16
ENDBRANCH   8   9
ENDBRANCH   5   8
TORSDOF 4
ENDMDL
MODEL       19
REMARK 921   NORMALIZED FREE ENERGY PREDICTED BY IDOCK:   -6.06 KCAL/MOL
REMARK 922        TOTAL FREE ENERGY PREDICTED BY IDOCK:   -8.55 KCAL/MOL
REMARK 923 INTER-LIGAND FREE ENERGY PREDICTED BY IDOCK:   -7.44 KCAL/MOL
REMARK 924 INTRA-LIGAND FREE ENERGY PREDICTED BY IDOCK:   -1.11 KCAL/MOL
REMARK 927      BINDING AFFINITY PREDICTED BY RF-SCORE:    0.00 PKD
ROOT
HETATM    1  C   UNL     1     -12.102   7.719  72.016  1.00  0.00    -0.311 C  
HETATM    2  N   UNL     1     -11.528   9.054  72.047  1.00  0.00    -0.367 NA 
HETATM    3  C   UNL     1     -10.400   9.246  71.137  1.00  0.00    -0.322 C  
HETATM    4  C   UNL     1     -10.750   9.662  69.701  1.00  0.00    -0.260 C  
HETATM    5  C   UNL     1     -11.794  10.785  69.617  1.00  0.00    -0.320 C  
HETATM    6  C   UNL     1     -12.542  10.105  71.914  1.00  0.00    -0.343 C  
HETATM    7  C   UNL     1     -12.993  10.346  70.466  1.00  0.00    -0.280 C  
ENDROOT
BRANCH   5   8
HETATM    8  O   UNL     1     -11.474  12.088  70.098  1.00  0.00    -0.192 OA 
BRANCH   8   9
HETATM    9  C   UNL     1     -12.187  13.242  69.666  1.00  0.00    -0.199 C  
BRANCH   9  10
HETATM   10  C   UNL     1     -11.310  13.842  68.559  1.00  0.00    -0.318 A  
HETATM   11  C   UNL     1      -9.941  13.528  68.455  1.00  0.00    -0.232 A  
HETATM   12  C   UNL     1     -11.880  14.626  67.543  1.00  0.00    -0.375 A  
HETATM   13  C   UNL     1      -9.177  13.955  67.366  1.00  0.00    -0.224 A  
HETATM   14  C   UNL     1     -11.117  15.043  66.445  1.00  0.00    -0.329 A  
HETATM   15  C   UNL     1      -9.771  14.700  66.352  1.00  0.00    -0.315 A  
ENDBRANCH   9  10
BRANCH   9  16
HETATM   16  C   UNL     1     -12.541  14.201  70.798  1.00  0.00    -0.432 A  
HETATM   17  C   UNL     1     -14.023  14.997  72.572  1.00  0.00    -0.551 A  
HETATM   18  C   UNL     1     -13.771  14.161  71.476  1.00  0.00    -0.394 A  
HETATM   19  C   UNL     1     -11.854  15.999  72.305  1.00  0.00    -0.628 A  
HETATM   20  C   UNL     1     -11.599  15.153  71.220  1.00  0.00    -0.406 A  
HETATM   21  C   UNL     1     -13.061  15.910  72.992  1.00  0.00    -0.639 A  
ENDBRANCH   9  16
ENDBRANCH   8   9
ENDBRANCH   5   8
TORSDOF 4
ENDMDL
MODEL       20
REMARK 921   NORMALIZED FREE ENERGY PREDICTED BY IDOCK:   -5.96 KCAL/MOL
REMARK 922        TOTAL FREE ENERGY PREDICTED BY IDOCK:   -8.43 KCAL/MOL
REMARK 923 INTER-LIGAND FREE ENERGY PREDICTED BY IDOCK:   -7.45 KCAL/MOL
REMARK 924 INTRA-LIGAND FREE ENERGY PREDICTED BY IDOCK:   -0.97 KCAL/MOL
REMARK 927      BINDING AFFINITY PREDICTED BY RF-SCORE:    0.00 PKD
ROOT
HETATM    1  C   UNL     1     -10.247  12.656  64.203  1.00  0.00    -0.340 C  
HETATM    2  N   UNL     1     -10.512  13.928  64.855  1.00  0.00    -0.410 NA 
HETATM    3  C   UNL     1     -11.931  14.239  65.014  1.00  0.00    -0.410 C  
HETATM    4  C   UNL     1     -12.608  13.693  66.280  1.00  0.00    -0.346 C  
HETATM    5  C   UNL     1     -11.793  13.910  67.563  1.00  0.00    -0.396 C  
HETATM    6  C   UNL     1      -9.759  14.088  66.103  1.00  0.00    -0.280 C  
HETATM    7  C   UNL     1     -10.387  13.357  67.299  1.00  0.00    -0.244 C  
ENDROOT
BRANCH   5   8
HETATM    8  O   UNL     1     -11.571  15.233  68.046  1.00  0.00    -0.339 OA 
BRANCH   8   9
HETATM    9  C   UNL     1     -10.692  15.495  69.135  1.00  0.00    -0.250 C  
BRANCH   9  10
HETATM   10  C   UNL     1     -11.612  15.559  70.362  1.00  0.00    -0.359 A  
HETATM   11  C   UNL     1     -13.014  15.540  70.231  1.00  0.00    -0.141 A  
HETATM   12  C   UNL     1     -11.074  15.515  71.659  1.00  0.00    -0.266 A  
HETATM   13  C   UNL     1     -13.848  15.450  71.349  1.00  0.00    -0.577 A  
HETATM   14  C   UNL     1     -11.911  15.412  72.778  1.00  0.00    -0.563 A  
HETATM   15  C   UNL     1     -13.293  15.370  72.623  1.00  0.00    -0.602 A  
ENDBRANCH   9  10
BRANCH   9  16
HETATM   16  C   UNL     1      -9.810  16.721  68.926  1.00  0.00    -0.264 A  
HETATM   17  C   UNL     1      -7.629  17.794  68.662  1.00  0.00    -0.276 A  
HETATM   18  C   UNL     1      -8.405  16.665  68.951  1.00  0.00    -0.230 A  
HETATM   19  C   UNL     1      -9.630  19.099  68.391  1.00  0.00    -0.437 A  
HETATM   20  C   UNL     1     -10.404  17.967  68.665  1.00  0.00    -0.342 A  
HETATM   21  C   UNL     1      -8.241  19.010  68.373  1.00  0.00    -0.382 A  
ENDBRANCH   9  16
ENDBRANCH   8   9
ENDBRANCH   5   8
TORSDOF 4
ENDMDL
MODEL       21
REMARK 921   NORMALIZED FREE ENERGY PREDICTED BY IDOCK:   -5.92 KCAL/MOL
REMARK 922        TOTAL FREE ENERGY PREDICTED BY IDOCK:   -8.38 KCAL/MOL
REMARK 923 INTER-LIGAND FREE ENERGY PREDICTED BY IDOCK:   -7.32 KCAL/MOL
REMARK 924 INTRA-LIGAND FREE ENERGY PREDICTED BY IDOCK:   -1.06 KCAL/MOL
REMARK 927      BINDING AFFINITY PREDICTED BY RF-SCORE:    0.00 PKD
ROOT
HETATM    1  C   UNL     1     -11.077   7.975  70.360  1.00  0.00    -0.238 C  
HETATM    2  N   UNL     1     -10.571   9.332  70.491  1.00  0.00    -0.231 NA 
HETATM    3  C   UNL     1      -9.982   9.876  69.269  1.00  0.00    -0.207 C  
HETATM    4  C   UNL     1     -10.952  10.562  68.296  1.00  0.00    -0.314 C  
HETATM    5  C   UNL     1     -11.937  11.524  68.976  1.00  0.00    -0.311 C  
HETATM    6  C   UNL     1     -11.550  10.240  71.097  1.00  0.00    -0.300 C  
HETATM    7  C   UNL     1     -12.613  10.746  70.111  1.00  0.00    -0.309 C  
ENDROOT
BRANCH   5   8
HETATM    8  O   UNL     1     -11.453  12.712  69.597  1.00  0.00    -0.250 OA 
BRANCH   8   9
HETATM    9  C   UNL     1     -12.136  13.955  69.472  1.00  0.00    -0.342 C  
BRANCH   9  10
HETATM   10  C   UNL     1     -11.216  14.811  68.591  1.00  0.00    -0.288 A  
HETATM   11  C   UNL     1     -11.409  16.199  68.458  1.00  0.00    -0.359 A  
HETATM   12  C   UNL     1     -10.077  14.248  67.992  1.00  0.00    -0.227 A  
HETATM   13  C   UNL     1     -10.488  17.000  67.777  1.00  0.00    -0.349 A  
HETATM   14  C   UNL     1      -9.148  15.053  67.320  1.00  0.00    -0.213 A  
HETATM   15  C   UNL     1      -9.349  16.427  67.222  1.00  0.00    -0.227 A  
ENDBRANCH   9  10
BRANCH   9  16
HETATM   16  C   UNL     1     -12.512  14.582  70.810  1.00  0.00    -0.420 A  
HETATM   17  C   UNL     1     -11.938  15.638  72.939  1.00  0.00    -0.588 A  
HETATM   18  C   UNL     1     -11.558  14.981  71.762  1.00  0.00    -0.425 A  
HETATM   19  C   UNL     1     -14.247  15.454  72.295  1.00  0.00    -0.639 A  
HETATM   20  C   UNL     1     -13.865  14.810  71.114  1.00  0.00    -0.388 A  
HETATM   21  C   UNL     1     -13.282  15.883  73.202  1.00  0.00    -0.692 A  
ENDBRANCH   9  16
ENDBRANCH   8   9
ENDBRANCH   5   8
TORSDOF 4
ENDMDL
MODEL       22
REMARK 921   NORMALIZED FREE ENERGY PREDICTED BY IDOCK:   -5.91 KCAL/MOL
REMARK 922        TOTAL FREE ENERGY PREDICTED BY IDOCK:   -8.36 KCAL/MOL
REMARK 923 INTER-LIGAND FREE ENERGY PREDICTED BY IDOCK:   -7.30 KCAL/MOL
REMARK 924 INTRA-LIGAND FREE ENERGY PREDICTED BY IDOCK:   -1.06 KCAL/MOL
REMARK 927      BINDING AFFINITY PREDICTED BY RF-SCORE:    0.00 PKD
ROOT
HETATM    1  C   UNL     1      -7.395  18.984  66.276  1.00  0.00    -0.260 C  
HETATM    2  N   UNL     1      -7.720  17.759  66.988  1.00  0.00    -0.203 NA 
HETATM    3  C   UNL     1      -8.106  17.959  68.383  1.00  0.00    -0.299 C  
HETATM    4  C   UNL     1      -9.592  18.249  68.641  1.00  0.00    -0.351 C  
HETATM    5  C   UNL     1     -10.548  17.325  67.874  1.00  0.00    -0.384 C  
HETATM    6  C   UNL     1      -8.674  16.919  66.256  1.00  0.00    -0.286 C  
HETATM    7  C   UNL     1     -10.133  17.376  66.398  1.00  0.00    -0.330 C  
ENDROOT
BRANCH   5   8
HETATM    8  O   UNL     1     -10.591  15.934  68.184  1.00  0.00    -0.261 OA 
BRANCH   8   9
HETATM    9  C   UNL     1     -11.770  15.160  67.992  1.00  0.00    -0.285 C  
BRANCH   9  10
HETATM   10  C   UNL     1     -12.119  14.640  69.393  1.00  0.00    -0.317 A  
HETATM   11  C   UNL     1     -12.610  15.499  70.396  1.00  0.00    -0.421 A  
HETATM   12  C   UNL     1     -12.074  13.264  69.674  1.00  0.00    -0.331 A  
HETATM   13  C   UNL     1     -13.065  15.003  71.620  1.00  0.00    -0.447 A  
HETATM   14  C   UNL     1     -12.543  12.767  70.898  1.00  0.00    -0.342 A  
HETATM   15  C   UNL     1     -13.045  13.634  71.864  1.00  0.00    -0.476 A  
ENDBRANCH   9  10
BRANCH   9  16
HETATM   16  C   UNL     1     -11.626  14.083  66.923  1.00  0.00    -0.407 A  
HETATM   17  C   UNL     1     -12.465  12.808  65.013  1.00  0.00    -0.572 A  
HETATM   18  C   UNL     1     -12.665  13.737  66.042  1.00  0.00    -0.407 A  
HETATM   19  C   UNL     1     -10.202  12.477  65.753  1.00  0.00    -0.289 A  
HETATM   20  C   UNL     1     -10.399  13.416  66.771  1.00  0.00    -0.263 A  
HETATM   21  C   UNL     1     -11.230  12.185  64.862  1.00  0.00    -0.374 A  
ENDBRANCH   9  16
ENDBRANCH   8   9
ENDBRANCH   5   8
TORSDOF 4
ENDMDL
MODEL       23
REMARK 921   NORMALIZED FREE ENERGY PREDICTED BY IDOCK:   -5.88 KCAL/MOL
REMARK 922        TOTAL FREE ENERGY PREDICTED BY IDOCK:   -8.33 KCAL/MOL
REMARK 923 INTER-LIGAND FREE ENERGY PREDICTED BY IDOCK:   -8.17 KCAL/MOL
REMARK 924 INTRA-LIGAND FREE ENERGY PREDICTED BY IDOCK:   -0.16 KCAL/MOL
REMARK 927      BINDING AFFINITY PREDICTED BY RF-SCORE:    0.00 PKD
ROOT
HETATM    1  C   UNL     1     -11.812   6.114  72.017  1.00  0.00    -0.280 C  
HETATM    2  N   UNL     1     -12.352   7.088  71.082  1.00  0.00    -0.376 NA 
HETATM    3  C   UNL     1     -13.617   7.688  71.500  1.00  0.00    -0.353 C  
HETATM    4  C   UNL     1     -13.515   8.928  72.399  1.00  0.00    -0.499 C  
HETATM    5  C   UNL     1     -12.484   9.960  71.920  1.00  0.00    -0.347 C  
HETATM    6  C   UNL     1     -11.360   8.090  70.680  1.00  0.00    -0.252 C  
HETATM    7  C   UNL     1     -11.162   9.210  71.712  1.00  0.00    -0.451 C  
ENDROOT
BRANCH   5   8
HETATM    8  O   UNL     1     -12.695  10.656  70.694  1.00  0.00    -0.352 OA 
BRANCH   8   9
HETATM    9  C   UNL     1     -11.804  11.672  70.246  1.00  0.00    -0.326 C  
BRANCH   9  10
HETATM   10  C   UNL     1     -12.370  12.968  70.844  1.00  0.00    -0.376 A  
HETATM   11  C   UNL     1     -11.985  14.232  70.356  1.00  0.00    -0.402 A  
HETATM   12  C   UNL     1     -13.383  12.922  71.814  1.00  0.00    -0.451 A  
HETATM   13  C   UNL     1     -12.607  15.403  70.797  1.00  0.00    -0.497 A  
HETATM   14  C   UNL     1     -14.016  14.095  72.247  1.00  0.00    -0.646 A  
HETATM   15  C   UNL     1     -13.634  15.331  71.733  1.00  0.00    -0.581 A  
ENDBRANCH   9  10
BRANCH   9  16
HETATM   16  C   UNL     1     -11.610  11.692  68.734  1.00  0.00    -0.374 A  
HETATM   17  C   UNL     1     -11.809  12.758  66.543  1.00  0.00    -0.471 A  
HETATM   18  C   UNL     1     -12.088  12.729  67.916  1.00  0.00    -0.187 A  
HETATM   19  C   UNL     1     -10.629  10.674  66.740  1.00  0.00    -0.297 A  
HETATM   20  C   UNL     1     -10.896  10.653  68.113  1.00  0.00    -0.291 A  
HETATM   21  C   UNL     1     -11.071  11.735  65.956  1.00  0.00    -0.363 A  
ENDBRANCH   9  16
ENDBRANCH   8   9
ENDBRANCH   5   8
TORSDOF 4
ENDMDL
MODEL       24
REMARK 921   NORMALIZED FREE ENERGY PREDICTED BY IDOCK:   -5.85 KCAL/MOL
REMARK 922        TOTAL FREE ENERGY PREDICTED BY IDOCK:   -8.30 KCAL/MOL
REMARK 923 INTER-LIGAND FREE ENERGY PREDICTED BY IDOCK:   -7.40 KCAL/MOL
REMARK 924 INTRA-LIGAND FREE ENERGY PREDICTED BY IDOCK:   -0.90 KCAL/MOL
REMARK 927      BINDING AFFINITY PREDICTED BY RF-SCORE:    0.00 PKD
ROOT
HETATM    1  C   UNL     1     -12.254  14.912  64.217  1.00  0.00    -0.344 C  
HETATM    2  N   UNL     1     -12.755  13.907  65.140  1.00  0.00    -0.689 NA 
HETATM    3  C   UNL     1     -12.587  12.531  64.681  1.00  0.00    -0.426 C  
HETATM    4  C   UNL     1     -11.246  11.861  65.017  1.00  0.00    -0.350 C  
HETATM    5  C   UNL     1     -10.791  12.076  66.468  1.00  0.00    -0.277 C  
HETATM    6  C   UNL     1     -12.264  14.107  66.508  1.00  0.00    -0.433 C  
HETATM    7  C   UNL     1     -10.837  13.586  66.733  1.00  0.00    -0.284 C  
ENDROOT
BRANCH   5   8
HETATM    8  O   UNL     1     -11.540  11.503  67.537  1.00  0.00    -0.477 OA 
BRANCH   8   9
HETATM    9  C   UNL     1     -10.984  11.344  68.839  1.00  0.00    -0.226 C  
BRANCH   9  10
HETATM   10  C   UNL     1     -10.588   9.862  68.907  1.00  0.00    -0.239 A  
HETATM   11  C   UNL     1     -10.872   8.976  67.850  1.00  0.00    -0.118 A  
HETATM   12  C   UNL     1      -9.819   9.379  69.977  1.00  0.00    -0.253 A  
HETATM   13  C   UNL     1     -10.384   7.667  67.847  1.00  0.00    -0.270 A  
HETATM   14  C   UNL     1      -9.319   8.070  69.968  1.00  0.00    -0.156 A  
HETATM   15  C   UNL     1      -9.594   7.219  68.900  1.00  0.00    -0.143 A  
ENDBRANCH   9  10
BRANCH   9  16
HETATM   16  C   UNL     1     -11.906  11.816  69.958  1.00  0.00    -0.422 A  
HETATM   17  C   UNL     1     -13.380  11.399  71.863  1.00  0.00    -0.409 A  
HETATM   18  C   UNL     1     -12.617  10.930  70.787  1.00  0.00    -0.470 A  
HETATM   19  C   UNL     1     -12.815  13.661  71.278  1.00  0.00    -0.424 A  
HETATM   20  C   UNL     1     -12.041  13.191  70.212  1.00  0.00    -0.399 A  
HETATM   21  C   UNL     1     -13.472  12.764  72.115  1.00  0.00    -0.591 A  
ENDBRANCH   9  16
ENDBRANCH   8   9
ENDBRANCH   5   8
TORSDOF 4
ENDMDL
MODEL       25
REMARK 921   NORMALIZED FREE ENERGY PREDICTED BY IDOCK:   -5.84 KCAL/MOL
REMARK 922        TOTAL FREE ENERGY PREDICTED BY IDOCK:   -8.28 KCAL/MOL
REMARK 923 INTER-LIGAND FREE ENERGY PREDICTED BY IDOCK:   -7.05 KCAL/MOL
REMARK 924 INTRA-LIGAND FREE ENERGY PREDICTED BY IDOCK:   -1.23 KCAL/MOL
REMARK 927      BINDING AFFINITY PREDICTED BY RF-SCORE:    0.00 PKD
ROOT
HETATM    1  C   UNL     1     -10.292   4.817  71.829  1.00  0.00    -0.160 C  
HETATM    2  N   UNL     1     -10.189   6.137  71.227  1.00  0.00    -0.202 NA 
HETATM    3  C   UNL     1     -11.357   6.534  70.445  1.00  0.00    -0.383 C  
HETATM    4  C   UNL     1     -12.495   7.213  71.221  1.00  0.00    -0.425 C  
HETATM    5  C   UNL     1     -12.020   8.300  72.196  1.00  0.00    -0.369 C  
HETATM    6  C   UNL     1      -9.782   7.164  72.192  1.00  0.00    -0.146 C  
HETATM    7  C   UNL     1     -10.933   7.670  73.075  1.00  0.00    -0.457 C  
ENDROOT
BRANCH   5   8
HETATM    8  O   UNL     1     -11.424   9.493  71.692  1.00  0.00    -0.381 OA 
BRANCH   8   9
HETATM    9  C   UNL     1     -11.985  10.204  70.594  1.00  0.00    -0.332 C  
BRANCH   9  10
HETATM   10  C   UNL     1     -10.913  10.123  69.498  1.00  0.00    -0.295 A  
HETATM   11  C   UNL     1      -9.552   9.947  69.812  1.00  0.00    -0.261 A  
HETATM   12  C   UNL     1     -11.280  10.098  68.142  1.00  0.00    -0.245 A  
HETATM   13  C   UNL     1      -8.597   9.727  68.816  1.00  0.00    -0.127 A  
HETATM   14  C   UNL     1     -10.324   9.864  67.145  1.00  0.00    -0.304 A  
HETATM   15  C   UNL     1      -8.988   9.669  67.482  1.00  0.00    -0.136 A  
ENDBRANCH   9  10
BRANCH   9  16
HETATM   16  C   UNL     1     -12.437  11.616  70.948  1.00  0.00    -0.440 A  
HETATM   17  C   UNL     1     -13.558  13.223  72.410  1.00  0.00    -0.694 A  
HETATM   18  C   UNL     1     -13.241  11.903  72.065  1.00  0.00    -0.461 A  
HETATM   19  C   UNL     1     -12.348  14.016  70.491  1.00  0.00    -0.437 A  
HETATM   20  C   UNL     1     -12.019  12.698  70.156  1.00  0.00    -0.375 A  
HETATM   21  C   UNL     1     -13.104  14.281  71.629  1.00  0.00    -0.417 A  
ENDBRANCH   9  16
ENDBRANCH   8   9
ENDBRANCH   5   8
TORSDOF 4
ENDMDL
MODEL       26
REMARK 921   NORMALIZED FREE ENERGY PREDICTED BY IDOCK:   -5.83 KCAL/MOL
REMARK 922        TOTAL FREE ENERGY PREDICTED BY IDOCK:   -8.26 KCAL/MOL
REMARK 923 INTER-LIGAND FREE ENERGY PREDICTED BY IDOCK:   -7.22 KCAL/MOL
REMARK 924 INTRA-LIGAND FREE ENERGY PREDICTED BY IDOCK:   -1.04 KCAL/MOL
REMARK 927      BINDING AFFINITY PREDICTED BY RF-SCORE:    0.00 PKD
ROOT
HETATM    1  C   UNL     1     -10.986   8.968  71.726  1.00  0.00    -0.372 C  
HETATM    2  N   UNL     1     -11.781   9.353  70.571  1.00  0.00    -0.238 NA 
HETATM    3  C   UNL     1     -12.759  10.405  70.837  1.00  0.00    -0.385 C  
HETATM    4  C   UNL     1     -12.256  11.849  70.702  1.00  0.00    -0.424 C  
HETATM    5  C   UNL     1     -11.423  12.102  69.437  1.00  0.00    -0.290 C  
HETATM    6  C   UNL     1     -10.957   9.637  69.391  1.00  0.00    -0.190 C  
HETATM    7  C   UNL     1     -10.322  11.035  69.406  1.00  0.00    -0.134 C  
ENDROOT
BRANCH   5   8
HETATM    8  O   UNL     1     -12.039  12.017  68.155  1.00  0.00    -0.480 OA 
BRANCH   8   9
HETATM    9  C   UNL     1     -12.119  13.142  67.286  1.00  0.00    -0.274 C  
BRANCH   9  10
HETATM   10  C   UNL     1     -11.800  12.576  65.896  1.00  0.00    -0.489 A  
HETATM   11  C   UNL     1     -12.305  13.173  64.725  1.00  0.00    -0.477 A  
HETATM   12  C   UNL     1     -10.890  11.516  65.750  1.00  0.00    -0.319 A  
HETATM   13  C   UNL     1     -11.898  12.749  63.457  1.00  0.00    -0.618 A  
HETATM   14  C   UNL     1     -10.472  11.100  64.478  1.00  0.00    -0.415 A  
HETATM   15  C   UNL     1     -10.968  11.721  63.336  1.00  0.00    -0.458 A  
ENDBRANCH   9  10
BRANCH   9  16
HETATM   16  C   UNL     1     -11.244  14.313  67.721  1.00  0.00    -0.309 A  
HETATM   17  C   UNL     1     -10.818  16.309  69.066  1.00  0.00    -0.315 A  
HETATM   18  C   UNL     1     -11.682  15.302  68.619  1.00  0.00    -0.367 A  
HETATM   19  C   UNL     1      -9.067  15.424  67.677  1.00  0.00    -0.183 A  
HETATM   20  C   UNL     1      -9.927  14.410  67.242  1.00  0.00    -0.247 A  
HETATM   21  C   UNL     1      -9.507  16.365  68.603  1.00  0.00    -0.239 A  
ENDBRANCH   9  16
ENDBRANCH   8   9
ENDBRANCH   5   8
TORSDOF 4
ENDMDL
MODEL       27
REMARK 921   NORMALIZED FREE ENERGY PREDICTED BY IDOCK:   -5.80 KCAL/MOL
REMARK 922        TOTAL FREE ENERGY PREDICTED BY IDOCK:   -8.22 KCAL/MOL
REMARK 923 INTER-LIGAND FREE ENERGY PREDICTED BY IDOCK:   -7.11 KCAL/MOL
REMARK 924 INTRA-LIGAND FREE ENERGY PREDICTED BY IDOCK:   -1.11 KCAL/MOL
REMARK 927      BINDING AFFINITY PREDICTED BY RF-SCORE:    0.00 PKD
ROOT
HETATM    1  C   UNL     1     -11.672   8.166  72.384  1.00  0.00    -0.399 C  
HETATM    2  N   UNL     1     -12.255   8.587  71.120  1.00  0.00    -0.271 NA 
HETATM    3  C   UNL     1     -13.198   9.698  71.233  1.00  0.00    -0.355 C  
HETATM    4  C   UNL     1     -12.595  11.109  71.179  1.00  0.00    -0.513 C  
HETATM    5  C   UNL     1     -11.564  11.301  70.058  1.00  0.00    -0.321 C  
HETATM    6  C   UNL     1     -11.244   8.812  70.082  1.00  0.00    -0.152 C  
HETATM    7  C   UNL     1     -10.536  10.171  70.195  1.00  0.00    -0.337 C  
ENDROOT
BRANCH   5   8
HETATM    8  O   UNL     1     -11.978  11.242  68.695  1.00  0.00    -0.472 OA 
BRANCH   8   9
HETATM    9  C   UNL     1     -12.026  12.405  67.875  1.00  0.00    -0.196 C  
BRANCH   9  10
HETATM   10  C   UNL     1     -11.576  11.916  66.492  1.00  0.00    -0.328 A  
HETATM   11  C   UNL     1     -11.978  12.574  65.313  1.00  0.00    -0.490 A  
HETATM   12  C   UNL     1     -10.647  10.870  66.373  1.00  0.00    -0.289 A  
HETATM   13  C   UNL     1     -11.453  12.221  64.067  1.00  0.00    -0.483 A  
HETATM   14  C   UNL     1     -10.111  10.525  65.124  1.00  0.00    -0.383 A  
HETATM   15  C   UNL     1     -10.507  11.206  63.976  1.00  0.00    -0.447 A  
ENDBRANCH   9  10
BRANCH   9  16
HETATM   16  C   UNL     1     -11.228  13.579  68.434  1.00  0.00    -0.309 A  
HETATM   17  C   UNL     1      -9.172  14.881  68.662  1.00  0.00    -0.193 A  
HETATM   18  C   UNL     1      -9.850  13.741  68.211  1.00  0.00    -0.232 A  
HETATM   19  C   UNL     1     -11.206  15.702  69.645  1.00  0.00    -0.310 A  
HETATM   20  C   UNL     1     -11.886  14.570  69.181  1.00  0.00    -0.354 A  
HETATM   21  C   UNL     1      -9.852  15.866  69.371  1.00  0.00    -0.280 A  
ENDBRANCH   9  16
ENDBRANCH   8   9
ENDBRANCH   5   8
TORSDOF 4
ENDMDL
MODEL       28
REMARK 921   NORMALIZED FREE ENERGY PREDICTED BY IDOCK:   -5.79 KCAL/MOL
REMARK 922        TOTAL FREE ENERGY PREDICTED BY IDOCK:   -8.22 KCAL/MOL
REMARK 923 INTER-LIGAND FREE ENERGY PREDICTED BY IDOCK:   -7.12 KCAL/MOL
REMARK 924 INTRA-LIGAND FREE ENERGY PREDICTED BY IDOCK:   -1.10 KCAL/MOL
REMARK 927      BINDING AFFINITY PREDICTED BY RF-SCORE:    0.00 PKD
ROOT
HETATM    1  C   UNL     1     -10.410   7.485  69.814  1.00  0.00    -0.221 C  
HETATM    2  N   UNL     1      -9.965   8.869  69.819  1.00  0.00    -0.186 NA 
HETATM    3  C   UNL     1      -9.874   9.476  68.493  1.00  0.00    -0.158 C  
HETATM    4  C   UNL     1     -11.160  10.116  67.950  1.00  0.00    -0.303 C  
HETATM    5  C   UNL     1     -11.894  10.997  68.971  1.00  0.00    -0.329 C  
HETATM    6  C   UNL     1     -10.718   9.698  70.766  1.00  0.00    -0.331 C  
HETATM    7  C   UNL     1     -12.086  10.152  70.236  1.00  0.00    -0.282 C  
ENDROOT
BRANCH   5   8
HETATM    8  O   UNL     1     -11.289  12.201  69.434  1.00  0.00    -0.264 OA 
BRANCH   8   9
HETATM    9  C   UNL     1     -11.896  13.472  69.229  1.00  0.00    -0.341 C  
BRANCH   9  10
HETATM   10  C   UNL     1     -10.941  14.203  68.275  1.00  0.00    -0.266 A  
HETATM   11  C   UNL     1      -9.552  13.971  68.304  1.00  0.00    -0.224 A  
HETATM   12  C   UNL     1     -11.445  15.032  67.260  1.00  0.00    -0.312 A  
HETATM   13  C   UNL     1      -8.702  14.522  67.343  1.00  0.00    -0.210 A  
HETATM   14  C   UNL     1     -10.593  15.574  66.288  1.00  0.00    -0.310 A  
HETATM   15  C   UNL     1      -9.226  15.312  66.324  1.00  0.00    -0.350 A  
ENDBRANCH   9  10
BRANCH   9  16
HETATM   16  C   UNL     1     -12.207  14.217  70.523  1.00  0.00    -0.431 A  
HETATM   17  C   UNL     1     -13.142  14.331  72.779  1.00  0.00    -0.589 A  
HETATM   18  C   UNL     1     -12.957  13.651  71.569  1.00  0.00    -0.443 A  
HETATM   19  C   UNL     1     -11.901  16.200  71.918  1.00  0.00    -0.605 A  
HETATM   20  C   UNL     1     -11.704  15.514  70.715  1.00  0.00    -0.397 A  
HETATM   21  C   UNL     1     -12.606  15.602  72.958  1.00  0.00    -0.568 A  
ENDBRANCH   9  16
ENDBRANCH   8   9
ENDBRANCH   5   8
TORSDOF 4
ENDMDL
MODEL       29
REMARK 921   NORMALIZED FREE ENERGY PREDICTED BY IDOCK:   -5.71 KCAL/MOL
REMARK 922        TOTAL FREE ENERGY PREDICTED BY IDOCK:   -8.12 KCAL/MOL
REMARK 923 INTER-LIGAND FREE ENERGY PREDICTED BY IDOCK:   -6.92 KCAL/MOL
REMARK 924 INTRA-LIGAND FREE ENERGY PREDICTED BY IDOCK:   -1.20 KCAL/MOL
REMARK 927      BINDING AFFINITY PREDICTED BY RF-SCORE:    0.00 PKD
ROOT
HETATM    1  C   UNL     1      -9.384   7.352  67.765  1.00  0.00    -0.136 C  
HETATM    2  N   UNL     1     -10.441   8.286  68.116  1.00  0.00    -0.199 NA 
HETATM    3  C   UNL     1     -10.429   8.712  69.514  1.00  0.00    -0.220 C  
HETATM    4  C   UNL     1      -9.543   9.921  69.848  1.00  0.00    -0.265 C  
HETATM    5  C   UNL     1      -9.688  11.088  68.860  1.00  0.00    -0.172 C  
HETATM    6  C   UNL     1     -10.524   9.417  67.186  1.00  0.00    -0.244 C  
HETATM    7  C   UNL     1      -9.483  10.513  67.454  1.00  0.00    -0.172 C  
ENDROOT
BRANCH   5   8
HETATM    8  O   UNL     1     -10.922  11.798  68.779  1.00  0.00    -0.211 OA 
BRANCH   8   9
HETATM    9  C   UNL     1     -10.972  13.220  68.822  1.00  0.00    -0.260 C  
BRANCH   9  10
HETATM   10  C   UNL     1     -12.004  13.534  69.914  1.00  0.00    -0.416 A  
HETATM   11  C   UNL     1     -12.425  12.552  70.831  1.00  0.00    -0.361 A  
HETATM   12  C   UNL     1     -12.464  14.847  70.103  1.00  0.00    -0.353 A  
HETATM   13  C   UNL     1     -13.250  12.872  71.913  1.00  0.00    -0.521 A  
HETATM   14  C   UNL     1     -13.281  15.170  71.195  1.00  0.00    -0.535 A  
HETATM   15  C   UNL     1     -13.665  14.187  72.102  1.00  0.00    -0.587 A  
ENDBRANCH   9  10
BRANCH   9  16
HETATM   16  C   UNL     1     -11.251  13.863  67.468  1.00  0.00    -0.323 A  
HETATM   17  C   UNL     1     -10.737  15.452  65.683  1.00  0.00    -0.381 A  
HETATM   18  C   UNL     1     -10.511  14.950  66.970  1.00  0.00    -0.272 A  
HETATM   19  C   UNL     1     -12.504  13.854  65.369  1.00  0.00    -0.528 A  
HETATM   20  C   UNL     1     -12.268  13.343  66.650  1.00  0.00    -0.391 A  
HETATM   21  C   UNL     1     -11.728  14.899  64.878  1.00  0.00    -0.371 A  
ENDBRANCH   9  16
ENDBRANCH   8   9
ENDBRANCH   5   8
TORSDOF 4
ENDMDL
MODEL       30
REMARK 921   NORMALIZED FREE ENERGY PREDICTED BY IDOCK:   -5.68 KCAL/MOL
REMARK 922        TOTAL FREE ENERGY PREDICTED BY IDOCK:   -8.09 KCAL/MOL
REMARK 923 INTER-LIGAND FREE ENERGY PREDICTED BY IDOCK:   -6.99 KCAL/MOL
REMARK 924 INTRA-LIGAND FREE ENERGY PREDICTED BY IDOCK:   -1.10 KCAL/MOL
REMARK 927      BINDING AFFINITY PREDICTED BY RF-SCORE:    0.00 PKD
ROOT
HETATM    1  C   UNL     1      -7.733  19.869  67.637  1.00  0.00    -0.291 C  
HETATM    2  N   UNL     1      -8.485  19.126  68.636  1.00  0.00    -0.361 NA 
HETATM    3  C   UNL     1      -9.899  19.489  68.717  1.00  0.00    -0.451 C  
HETATM    4  C   UNL     1     -10.846  18.746  67.764  1.00  0.00    -0.333 C  
HETATM    5  C   UNL     1     -10.611  17.230  67.711  1.00  0.00    -0.367 C  
HETATM    6  C   UNL     1      -8.282  17.678  68.530  1.00  0.00    -0.292 C  
HETATM    7  C   UNL     1      -9.119  17.017  67.425  1.00  0.00    -0.225 C  
ENDROOT
BRANCH   5   8
HETATM    8  O   UNL     1     -10.871  16.431  68.863  1.00  0.00    -0.293 OA 
BRANCH   8   9
HETATM    9  C   UNL     1     -11.544  15.180  68.771  1.00  0.00    -0.349 C  
BRANCH   9  10
HETATM   10  C   UNL     1     -12.043  14.909  70.196  1.00  0.00    -0.379 A  
HETATM   11  C   UNL     1     -12.111  15.934  71.160  1.00  0.00    -0.464 A  
HETATM   12  C   UNL     1     -12.565  13.651  70.542  1.00  0.00    -0.337 A  
HETATM   13  C   UNL     1     -12.701  15.722  72.408  1.00  0.00    -0.537 A  
HETATM   14  C   UNL     1     -13.168  13.443  71.789  1.00  0.00    -0.495 A  
HETATM   15  C   UNL     1     -13.244  14.479  72.716  1.00  0.00    -0.600 A  
ENDBRANCH   9  10
BRANCH   9  16
HETATM   16  C   UNL     1     -10.691  14.071  68.165  1.00  0.00    -0.254 A  
HETATM   17  C   UNL     1     -10.209  12.420  66.428  1.00  0.00    -0.253 A  
HETATM   18  C   UNL     1     -11.063  13.367  67.007  1.00  0.00    -0.310 A  
HETATM   19  C   UNL     1      -8.612  12.786  68.187  1.00  0.00    -0.185 A  
HETATM   20  C   UNL     1      -9.459  13.742  68.756  1.00  0.00    -0.015 A  
HETATM   21  C   UNL     1      -8.979  12.135  67.012  1.00  0.00    -0.201 A  
ENDBRANCH   9  16
ENDBRANCH   8   9
ENDBRANCH   5   8
TORSDOF 4
ENDMDL
MODEL       31
REMARK 921   NORMALIZED FREE ENERGY PREDICTED BY IDOCK:   -5.61 KCAL/MOL
REMARK 922        TOTAL FREE ENERGY PREDICTED BY IDOCK:   -7.99 KCAL/MOL
REMARK 923 INTER-LIGAND FREE ENERGY PREDICTED BY IDOCK:   -6.85 KCAL/MOL
REMARK 924 INTRA-LIGAND FREE ENERGY PREDICTED BY IDOCK:   -1.14 KCAL/MOL
REMARK 927      BINDING AFFINITY PREDICTED BY RF-SCORE:    0.00 PKD
ROOT
HETATM    1  C   UNL     1     -12.258  14.662  64.360  1.00  0.00    -0.452 C  
HETATM    2  N   UNL     1     -12.570  13.380  64.969  1.00  0.00    -0.617 NA 
HETATM    3  C   UNL     1     -12.386  12.232  64.083  1.00  0.00    -0.451 C  
HETATM    4  C   UNL     1     -10.975  11.626  64.041  1.00  0.00    -0.456 C  
HETATM    5  C   UNL     1     -10.342  11.431  65.426  1.00  0.00    -0.279 C  
HETATM    6  C   UNL     1     -11.912  13.199  66.267  1.00  0.00    -0.415 C  
HETATM    7  C   UNL     1     -10.439  12.776  66.158  1.00  0.00    -0.284 C  
ENDROOT
BRANCH   5   8
HETATM    8  O   UNL     1     -10.904  10.489  66.337  1.00  0.00    -0.146 OA 
BRANCH   8   9
HETATM    9  C   UNL     1     -10.116   9.854  67.338  1.00  0.00    -0.205 C  
BRANCH   9  10
HETATM   10  C   UNL     1      -9.949   8.413  66.837  1.00  0.00    -0.341 A  
HETATM   11  C   UNL     1      -8.784   8.000  66.162  1.00  0.00    -0.177 A  
HETATM   12  C   UNL     1     -10.906   7.434  67.150  1.00  0.00    -0.340 A  
HETATM   13  C   UNL     1      -8.568   6.659  65.837  1.00  0.00    -0.153 A  
HETATM   14  C   UNL     1     -10.683   6.087  66.835  1.00  0.00    -0.407 A  
HETATM   15  C   UNL     1      -9.512   5.699  66.188  1.00  0.00    -0.157 A  
ENDBRANCH   9  10
BRANCH   9  16
HETATM   16  C   UNL     1     -10.695   9.984  68.743  1.00  0.00    -0.250 A  
HETATM   17  C   UNL     1     -12.423  10.718  70.309  1.00  0.00    -0.395 A  
HETATM   18  C   UNL     1     -11.872  10.699  69.021  1.00  0.00    -0.256 A  
HETATM   19  C   UNL     1     -10.599   9.371  71.107  1.00  0.00    -0.403 A  
HETATM   20  C   UNL     1     -10.058   9.341  69.818  1.00  0.00    -0.218 A  
HETATM   21  C   UNL     1     -11.792  10.046  71.351  1.00  0.00    -0.447 A  
ENDBRANCH   9  16
ENDBRANCH   8   9
ENDBRANCH   5   8
TORSDOF 4
ENDMDL
MODEL       32
REMARK 921   NORMALIZED FREE ENERGY PREDICTED BY IDOCK:   -5.59 KCAL/MOL
REMARK 922        TOTAL FREE ENERGY PREDICTED BY IDOCK:   -7.97 KCAL/MOL
REMARK 923 INTER-LIGAND FREE ENERGY PREDICTED BY IDOCK:   -6.76 KCAL/MOL
REMARK 924 INTRA-LIGAND FREE ENERGY PREDICTED BY IDOCK:   -1.21 KCAL/MOL
REMARK 927      BINDING AFFINITY PREDICTED BY RF-SCORE:    0.00 PKD
ROOT
HETATM    1  C   UNL     1     -11.750  14.886  64.480  1.00  0.00    -0.382 C  
HETATM    2  N   UNL     1     -12.004  14.321  65.796  1.00  0.00    -0.387 NA 
HETATM    3  C   UNL     1     -12.276  12.886  65.792  1.00  0.00    -0.439 C  
HETATM    4  C   UNL     1     -11.051  11.963  65.869  1.00  0.00    -0.365 C  
HETATM    5  C   UNL     1     -10.022  12.382  66.928  1.00  0.00    -0.215 C  
HETATM    6  C   UNL     1     -10.979  14.697  66.775  1.00  0.00    -0.323 C  
HETATM    7  C   UNL     1      -9.695  13.859  66.676  1.00  0.00    -0.295 C  
ENDROOT
BRANCH   5   8
HETATM    8  O   UNL     1     -10.364  12.324  68.311  1.00  0.00    -0.209 OA 
BRANCH   8   9
HETATM    9  C   UNL     1     -11.194  11.293  68.834  1.00  0.00    -0.253 C  
BRANCH   9  10
HETATM   10  C   UNL     1     -11.891  11.937  70.040  1.00  0.00    -0.407 A  
HETATM   11  C   UNL     1     -11.990  13.336  70.171  1.00  0.00    -0.388 A  
HETATM   12  C   UNL     1     -12.559  11.143  70.985  1.00  0.00    -0.503 A  
HETATM   13  C   UNL     1     -12.749  13.920  71.188  1.00  0.00    -0.441 A  
HETATM   14  C   UNL     1     -13.331  11.729  71.998  1.00  0.00    -0.417 A  
HETATM   15  C   UNL     1     -13.433  13.114  72.093  1.00  0.00    -0.653 A  
ENDBRANCH   9  10
BRANCH   9  16
HETATM   16  C   UNL     1     -10.443  10.001  69.139  1.00  0.00    -0.238 A  
HETATM   17  C   UNL     1      -8.859   8.681  70.452  1.00  0.00    -0.170 A  
HETATM   18  C   UNL     1      -9.459   9.907  70.139  1.00  0.00    -0.214 A  
HETATM   19  C   UNL     1     -10.145   7.610  68.727  1.00  0.00    -0.202 A  
HETATM   20  C   UNL     1     -10.755   8.832  68.425  1.00  0.00    -0.112 A  
HETATM   21  C   UNL     1      -9.208   7.530  69.753  1.00  0.00    -0.147 A  
ENDBRANCH   9  16
ENDBRANCH   8   9
ENDBRANCH   5   8
TORSDOF 4
ENDMDL
MODEL       33
REMARK 921   NORMALIZED FREE ENERGY PREDICTED BY IDOCK:   -5.59 KCAL/MOL
REMARK 922        TOTAL FREE ENERGY PREDICTED BY IDOCK:   -7.97 KCAL/MOL
REMARK 923 INTER-LIGAND FREE ENERGY PREDICTED BY IDOCK:   -7.01 KCAL/MOL
REMARK 924 INTRA-LIGAND FREE ENERGY PREDICTED BY IDOCK:   -0.96 KCAL/MOL
REMARK 927      BINDING AFFINITY PREDICTED BY RF-SCORE:    0.00 PKD
ROOT
HETATM    1  C   UNL     1      -6.577  17.740  66.514  1.00  0.00    -0.221 C  
HETATM    2  N   UNL     1      -7.813  17.526  67.249  1.00  0.00    -0.199 NA 
HETATM    3  C   UNL     1      -8.972  17.240  66.407  1.00  0.00    -0.252 C  
HETATM    4  C   UNL     1      -9.192  15.768  66.031  1.00  0.00    -0.379 C  
HETATM    5  C   UNL     1      -9.047  14.797  67.212  1.00  0.00    -0.204 C  
HETATM    6  C   UNL     1      -7.658  16.557  68.339  1.00  0.00    -0.189 C  
HETATM    7  C   UNL     1      -7.696  15.094  67.873  1.00  0.00    -0.145 C  
ENDROOT
BRANCH   5   8
HETATM    8  O   UNL     1      -9.986  14.840  68.284  1.00  0.00    -0.212 OA 
BRANCH   8   9
HETATM    9  C   UNL     1     -10.779  13.710  68.631  1.00  0.00    -0.256 C  
BRANCH   9  10
HETATM   10  C   UNL     1     -11.416  13.269  67.307  1.00  0.00    -0.378 A  
HETATM   11  C   UNL     1     -12.337  14.088  66.625  1.00  0.00    -0.408 A  
HETATM   12  C   UNL     1     -11.002  12.085  66.676  1.00  0.00    -0.330 A  
HETATM   13  C   UNL     1     -12.805  13.754  65.352  1.00  0.00    -0.455 A  
HETATM   14  C   UNL     1     -11.461  11.757  65.393  1.00  0.00    -0.239 A  
HETATM   15  C   UNL     1     -12.353  12.595  64.729  1.00  0.00    -0.556 A  
ENDBRANCH   9  10
BRANCH   9  16
HETATM   16  C   UNL     1     -11.765  13.981  69.762  1.00  0.00    -0.375 A  
HETATM   17  C   UNL     1     -13.161  15.477  71.101  1.00  0.00    -0.573 A  
HETATM   18  C   UNL     1     -12.183  15.275  70.119  1.00  0.00    -0.402 A  
HETATM   19  C   UNL     1     -13.285  13.104  71.463  1.00  0.00    -0.368 A  
HETATM   20  C   UNL     1     -12.319  12.903  70.472  1.00  0.00    -0.362 A  
HETATM   21  C   UNL     1     -13.719  14.391  71.767  1.00  0.00    -0.504 A  
ENDBRANCH   9  16
ENDBRANCH   8   9
ENDBRANCH   5   8
TORSDOF 4
ENDMDL
MODEL       34
REMARK 921   NORMALIZED FREE ENERGY PREDICTED BY IDOCK:   -5.58 KCAL/MOL
REMARK 922        TOTAL FREE ENERGY PREDICTED BY IDOCK:   -7.96 KCAL/MOL
REMARK 923 INTER-LIGAND FREE ENERGY PREDICTED BY IDOCK:   -6.65 KCAL/MOL
REMARK 924 INTRA-LIGAND FREE ENERGY PREDICTED BY IDOCK:   -1.31 KCAL/MOL
REMARK 927      BINDING AFFINITY PREDICTED BY RF-SCORE:    0.00 PKD
ROOT
HETATM    1  C   UNL     1      -8.652   7.051  70.465  1.00  0.00    -0.141 C  
HETATM    2  N   UNL     1      -9.503   8.228  70.538  1.00  0.00    -0.165 NA 
HETATM    3  C   UNL     1      -8.791   9.496  70.395  1.00  0.00    -0.234 C  
HETATM    4  C   UNL     1      -8.582  10.000  68.960  1.00  0.00    -0.153 C  
HETATM    5  C   UNL     1      -9.838   9.908  68.081  1.00  0.00    -0.147 C  
HETATM    6  C   UNL     1     -10.668   8.135  69.651  1.00  0.00    -0.195 C  
HETATM    7  C   UNL     1     -10.354   8.468  68.185  1.00  0.00    -0.258 C  
ENDROOT
BRANCH   5   8
HETATM    8  O   UNL     1     -10.974  10.716  68.381  1.00  0.00    -0.214 OA 
BRANCH   8   9
HETATM    9  C   UNL     1     -10.850  12.105  68.667  1.00  0.00    -0.235 C  
BRANCH   9  10
HETATM   10  C   UNL     1     -11.835  12.347  69.820  1.00  0.00    -0.387 A  
HETATM   11  C   UNL     1     -12.313  11.286  70.613  1.00  0.00    -0.477 A  
HETATM   12  C   UNL     1     -12.189  13.654  70.192  1.00  0.00    -0.413 A  
HETATM   13  C   UNL     1     -13.091  11.521  71.750  1.00  0.00    -0.503 A  
HETATM   14  C   UNL     1     -12.958  13.890  71.339  1.00  0.00    -0.430 A  
HETATM   15  C   UNL     1     -13.400  12.826  72.121  1.00  0.00    -0.593 A  
ENDBRANCH   9  10
BRANCH   9  16
HETATM   16  C   UNL     1     -11.052  13.000  67.449  1.00  0.00    -0.302 A  
HETATM   17  C   UNL     1     -12.332  13.747  65.505  1.00  0.00    -0.507 A  
HETATM   18  C   UNL     1     -12.129  12.847  66.559  1.00  0.00    -0.375 A  
HETATM   19  C   UNL     1     -10.346  14.941  66.143  1.00  0.00    -0.312 A  
HETATM   20  C   UNL     1     -10.152  14.050  67.204  1.00  0.00    -0.259 A  
HETATM   21  C   UNL     1     -11.445  14.800  65.302  1.00  0.00    -0.352 A  
ENDBRANCH   9  16
ENDBRANCH   8   9
ENDBRANCH   5   8
TORSDOF 4
ENDMDL
MODEL       35
REMARK 921   NORMALIZED FREE ENERGY PREDICTED BY IDOCK:   -5.58 KCAL/MOL
REMARK 922        TOTAL FREE ENERGY PREDICTED BY IDOCK:   -7.96 KCAL/MOL
REMARK 923 INTER-LIGAND FREE ENERGY PREDICTED BY IDOCK:   -6.79 KCAL/MOL
REMARK 924 INTRA-LIGAND FREE ENERGY PREDICTED BY IDOCK:   -1.17 KCAL/MOL
REMARK 927      BINDING AFFINITY PREDICTED BY RF-SCORE:    0.00 PKD
ROOT
HETATM    1  C   UNL     1      -8.548   7.619  69.284  1.00  0.00    -0.136 C  
HETATM    2  N   UNL     1      -9.198   8.789  69.852  1.00  0.00    -0.153 NA 
HETATM    3  C   UNL     1      -8.413  10.018  69.758  1.00  0.00    -0.172 C  
HETATM    4  C   UNL     1      -8.570  10.826  68.462  1.00  0.00    -0.148 C  
HETATM    5  C   UNL     1     -10.028  11.002  68.012  1.00  0.00    -0.173 C  
HETATM    6  C   UNL     1     -10.571   8.961  69.367  1.00  0.00    -0.217 C  
HETATM    7  C   UNL     1     -10.657   9.604  67.975  1.00  0.00    -0.292 C  
ENDROOT
BRANCH   5   8
HETATM    8  O   UNL     1     -10.925  11.776  68.804  1.00  0.00    -0.211 OA 
BRANCH   8   9
HETATM    9  C   UNL     1     -10.914  13.199  68.773  1.00  0.00    -0.262 C  
BRANCH   9  10
HETATM   10  C   UNL     1     -11.934  13.613  69.843  1.00  0.00    -0.415 A  
HETATM   11  C   UNL     1     -12.445  12.684  70.770  1.00  0.00    -0.357 A  
HETATM   12  C   UNL     1     -12.291  14.961  70.003  1.00  0.00    -0.358 A  
HETATM   13  C   UNL     1     -13.258  13.087  71.832  1.00  0.00    -0.527 A  
HETATM   14  C   UNL     1     -13.096  15.367  71.076  1.00  0.00    -0.565 A  
HETATM   15  C   UNL     1     -13.570  14.434  71.994  1.00  0.00    -0.514 A  
ENDBRANCH   9  10
BRANCH   9  16
HETATM   16  C   UNL     1     -11.162  13.782  67.387  1.00  0.00    -0.330 A  
HETATM   17  C   UNL     1     -10.482  15.100  65.443  1.00  0.00    -0.416 A  
HETATM   18  C   UNL     1     -10.264  14.659  66.755  1.00  0.00    -0.268 A  
HETATM   19  C   UNL     1     -12.545  13.868  65.373  1.00  0.00    -0.538 A  
HETATM   20  C   UNL     1     -12.318  13.416  66.677  1.00  0.00    -0.324 A  
HETATM   21  C   UNL     1     -11.618  14.697  64.748  1.00  0.00    -0.418 A  
ENDBRANCH   9  16
ENDBRANCH   8   9
ENDBRANCH   5   8
TORSDOF 4
ENDMDL
MODEL       36
REMARK 921   NORMALIZED FREE ENERGY PREDICTED BY IDOCK:   -5.51 KCAL/MOL
REMARK 922        TOTAL FREE ENERGY PREDICTED BY IDOCK:   -7.88 KCAL/MOL
REMARK 923 INTER-LIGAND FREE ENERGY PREDICTED BY IDOCK:   -6.57 KCAL/MOL
REMARK 924 INTRA-LIGAND FREE ENERGY PREDICTED BY IDOCK:   -1.30 KCAL/MOL
REMARK 927      BINDING AFFINITY PREDICTED BY RF-SCORE:    0.00 PKD
ROOT
HETATM    1  C   UNL     1      -8.079   7.058  68.761  1.00  0.00    -0.121 C  
HETATM    2  N   UNL     1      -8.847   8.247  69.092  1.00  0.00    -0.143 NA 
HETATM    3  C   UNL     1      -8.233   9.500  68.661  1.00  0.00    -0.112 C  
HETATM    4  C   UNL     1      -8.551   9.955  67.229  1.00  0.00    -0.125 C  
HETATM    5  C   UNL     1     -10.038   9.851  66.861  1.00  0.00    -0.225 C  
HETATM    6  C   UNL     1     -10.252   8.140  68.684  1.00  0.00    -0.207 C  
HETATM    7  C   UNL     1     -10.483   8.421  67.192  1.00  0.00    -0.380 C  
ENDROOT
BRANCH   5   8
HETATM    8  O   UNL     1     -10.992  10.682  67.518  1.00  0.00    -0.279 OA 
BRANCH   8   9
HETATM    9  C   UNL     1     -10.702  12.035  67.853  1.00  0.00    -0.210 C  
BRANCH   9  10
HETATM   10  C   UNL     1     -11.431  12.265  69.183  1.00  0.00    -0.352 A  
HETATM   11  C   UNL     1     -11.788  13.558  69.612  1.00  0.00    -0.398 A  
HETATM   12  C   UNL     1     -11.874  11.176  69.951  1.00  0.00    -0.439 A  
HETATM   13  C   UNL     1     -12.578  13.757  70.747  1.00  0.00    -0.410 A  
HETATM   14  C   UNL     1     -12.678  11.375  71.082  1.00  0.00    -0.479 A  
HETATM   15  C   UNL     1     -13.036  12.662  71.473  1.00  0.00    -0.373 A  
ENDBRANCH   9  10
BRANCH   9  16
HETATM   16  C   UNL     1     -11.051  13.025  66.747  1.00  0.00    -0.316 A  
HETATM   17  C   UNL     1     -10.502  14.889  65.264  1.00  0.00    -0.427 A  
HETATM   18  C   UNL     1     -10.186  14.058  66.345  1.00  0.00    -0.293 A  
HETATM   19  C   UNL     1     -12.595  13.739  64.992  1.00  0.00    -0.427 A  
HETATM   20  C   UNL     1     -12.271  12.900  66.063  1.00  0.00    -0.431 A  
HETATM   21  C   UNL     1     -11.702  14.724  64.580  1.00  0.00    -0.426 A  
ENDBRANCH   9  16
ENDBRANCH   8   9
ENDBRANCH   5   8
TORSDOF 4
ENDMDL
MODEL       37
REMARK 921   NORMALIZED FREE ENERGY PREDICTED BY IDOCK:   -5.51 KCAL/MOL
REMARK 922        TOTAL FREE ENERGY PREDICTED BY IDOCK:   -7.87 KCAL/MOL
REMARK 923 INTER-LIGAND FREE ENERGY PREDICTED BY IDOCK:   -7.16 KCAL/MOL
REMARK 924 INTRA-LIGAND FREE ENERGY PREDICTED BY IDOCK:   -0.71 KCAL/MOL
REMARK 927      BINDING AFFINITY PREDICTED BY RF-SCORE:    0.00 PKD
ROOT
HETATM    1  C   UNL     1     -12.148  12.324  63.388  1.00  0.00    -0.516 C  
HETATM    2  N   UNL     1     -12.614  13.061  64.552  1.00  0.00    -0.659 NA 
HETATM    3  C   UNL     1     -12.153  12.522  65.829  1.00  0.00    -0.378 C  
HETATM    4  C   UNL     1     -10.790  13.026  66.325  1.00  0.00    -0.295 C  
HETATM    5  C   UNL     1     -10.609  14.546  66.207  1.00  0.00    -0.304 C  
HETATM    6  C   UNL     1     -12.383  14.504  64.433  1.00  0.00    -0.413 C  
HETATM    7  C   UNL     1     -10.943  14.926  64.759  1.00  0.00    -0.390 C  
ENDROOT
BRANCH   5   8
HETATM    8  O   UNL     1     -11.410  15.419  66.999  1.00  0.00    -0.288 OA 
BRANCH   8   9
HETATM    9  C   UNL     1     -10.904  16.038  68.177  1.00  0.00    -0.322 C  
BRANCH   9  10
HETATM   10  C   UNL     1      -9.379  15.966  68.022  1.00  0.00    -0.201 A  
HETATM   11  C   UNL     1      -8.616  14.996  68.700  1.00  0.00    -0.174 A  
HETATM   12  C   UNL     1      -8.716  16.792  67.099  1.00  0.00    -0.218 A  
HETATM   13  C   UNL     1      -7.251  14.836  68.447  1.00  0.00    -0.114 A  
HETATM   14  C   UNL     1      -7.350  16.623  66.837  1.00  0.00    -0.260 A  
HETATM   15  C   UNL     1      -6.622  15.641  67.502  1.00  0.00    -0.212 A  
ENDBRANCH   9  10
BRANCH   9  16
HETATM   16  C   UNL     1     -11.449  15.434  69.466  1.00  0.00    -0.330 A  
HETATM   17  C   UNL     1     -12.428  13.595  70.746  1.00  0.00    -0.432 A  
HETATM   18  C   UNL     1     -12.024  14.152  69.526  1.00  0.00    -0.389 A  
HETATM   19  C   UNL     1     -11.773  15.609  71.883  1.00  0.00    -0.544 A  
HETATM   20  C   UNL     1     -11.356  16.159  70.666  1.00  0.00    -0.394 A  
HETATM   21  C   UNL     1     -12.294  14.319  71.926  1.00  0.00    -0.329 A  
ENDBRANCH   9  16
ENDBRANCH   8   9
ENDBRANCH   5   8
TORSDOF 4
ENDMDL
MODEL       38
REMARK 921   NORMALIZED FREE ENERGY PREDICTED BY IDOCK:   -5.50 KCAL/MOL
REMARK 922        TOTAL FREE ENERGY PREDICTED BY IDOCK:   -7.86 KCAL/MOL
REMARK 923 INTER-LIGAND FREE ENERGY PREDICTED BY IDOCK:   -6.70 KCAL/MOL
REMARK 924 INTRA-LIGAND FREE ENERGY PREDICTED BY IDOCK:   -1.16 KCAL/MOL
REMARK 927      BINDING AFFINITY PREDICTED BY RF-SCORE:    0.00 PKD
ROOT
HETATM    1  C   UNL     1     -12.140   8.984  71.247  1.00  0.00    -0.314 C  
HETATM    2  N   UNL     1     -11.199  10.052  70.951  1.00  0.00    -0.343 NA 
HETATM    3  C   UNL     1     -10.070   9.646  70.118  1.00  0.00    -0.262 C  
HETATM    4  C   UNL     1     -10.289   9.709  68.599  1.00  0.00    -0.226 C  
HETATM    5  C   UNL     1     -10.958  11.006  68.122  1.00  0.00    -0.247 C  
HETATM    6  C   UNL     1     -11.861  11.261  70.449  1.00  0.00    -0.350 C  
HETATM    7  C   UNL     1     -12.229  11.189  68.960  1.00  0.00    -0.194 C  
ENDROOT
BRANCH   5   8
HETATM    8  O   UNL     1     -10.268  12.247  68.245  1.00  0.00    -0.209 OA 
BRANCH   8   9
HETATM    9  C   UNL     1      -9.983  13.062  67.113  1.00  0.00    -0.235 C  
BRANCH   9  10
HETATM   10  C   UNL     1     -10.169  14.499  67.619  1.00  0.00    -0.225 A  
HETATM   11  C   UNL     1      -9.611  15.597  66.936  1.00  0.00    -0.244 A  
HETATM   12  C   UNL     1     -11.009  14.766  68.713  1.00  0.00    -0.267 A  
HETATM   13  C   UNL     1      -9.902  16.911  67.311  1.00  0.00    -0.265 A  
HETATM   14  C   UNL     1     -11.310  16.085  69.080  1.00  0.00    -0.352 A  
HETATM   15  C   UNL     1     -10.765  17.154  68.375  1.00  0.00    -0.347 A  
ENDBRANCH   9  10
BRANCH   9  16
HETATM   16  C   UNL     1     -10.804  12.702  65.880  1.00  0.00    -0.300 A  
HETATM   17  C   UNL     1     -12.860  12.768  64.558  1.00  0.00    -0.323 A  
HETATM   18  C   UNL     1     -12.164  13.033  65.744  1.00  0.00    -0.511 A  
HETATM   19  C   UNL     1     -10.887  11.759  63.626  1.00  0.00    -0.508 A  
HETATM   20  C   UNL     1     -10.189  12.038  64.806  1.00  0.00    -0.311 A  
HETATM   21  C   UNL     1     -12.219  12.139  63.495  1.00  0.00    -0.670 A  
ENDBRANCH   9  16
ENDBRANCH   8   9
ENDBRANCH   5   8
TORSDOF 4
ENDMDL
MODEL       39
REMARK 921   NORMALIZED FREE ENERGY PREDICTED BY IDOCK:   -5.49 KCAL/MOL
REMARK 922        TOTAL FREE ENERGY PREDICTED BY IDOCK:   -7.85 KCAL/MOL
REMARK 923 INTER-LIGAND FREE ENERGY PREDICTED BY IDOCK:   -6.80 KCAL/MOL
REMARK 924 INTRA-LIGAND FREE ENERGY PREDICTED BY IDOCK:   -1.05 KCAL/MOL
REMARK 927      BINDING AFFINITY PREDICTED BY RF-SCORE:    0.00 PKD
ROOT
HETATM    1  C   UNL     1     -10.639   6.370  73.278  1.00  0.00    -0.268 C  
HETATM    2  N   UNL     1     -10.479   7.805  73.111  1.00  0.00    -0.360 NA 
HETATM    3  C   UNL     1      -9.241   8.198  72.442  1.00  0.00    -0.226 C  
HETATM    4  C   UNL     1      -9.283   8.241  70.908  1.00  0.00    -0.182 C  
HETATM    5  C   UNL     1     -10.527   8.939  70.340  1.00  0.00    -0.210 C  
HETATM    6  C   UNL     1     -11.662   8.438  72.521  1.00  0.00    -0.359 C  
HETATM    7  C   UNL     1     -11.748   8.282  70.995  1.00  0.00    -0.293 C  
ENDROOT
BRANCH   5   8
HETATM    8  O   UNL     1     -10.716  10.336  70.553  1.00  0.00    -0.283 OA 
BRANCH   8   9
HETATM    9  C   UNL     1     -11.632  11.096  69.772  1.00  0.00    -0.334 C  
BRANCH   9  10
HETATM   10  C   UNL     1     -10.855  11.434  68.493  1.00  0.00    -0.251 A  
HETATM   11  C   UNL     1      -9.456  11.593  68.503  1.00  0.00    -0.175 A  
HETATM   12  C   UNL     1     -11.509  11.471  67.250  1.00  0.00    -0.338 A  
HETATM   13  C   UNL     1      -8.733  11.754  67.318  1.00  0.00    -0.163 A  
HETATM   14  C   UNL     1     -10.782  11.620  66.061  1.00  0.00    -0.328 A  
HETATM   15  C   UNL     1      -9.397  11.752  66.095  1.00  0.00    -0.236 A  
ENDBRANCH   9  10
BRANCH   9  16
HETATM   16  C   UNL     1     -12.213  12.298  70.509  1.00  0.00    -0.387 A  
HETATM   17  C   UNL     1     -12.701  14.685  70.701  1.00  0.00    -0.417 A  
HETATM   18  C   UNL     1     -12.075  13.617  70.046  1.00  0.00    -0.417 A  
HETATM   19  C   UNL     1     -13.563  13.166  72.352  1.00  0.00    -0.667 A  
HETATM   20  C   UNL     1     -12.949  12.099  71.689  1.00  0.00    -0.427 A  
HETATM   21  C   UNL     1     -13.454  14.459  71.849  1.00  0.00    -0.479 A  
ENDBRANCH   9  16
ENDBRANCH   8   9
ENDBRANCH   5   8
TORSDOF 4
ENDMDL
MODEL       40
REMARK 921   NORMALIZED FREE ENERGY PREDICTED BY IDOCK:   -5.47 KCAL/MOL
REMARK 922        TOTAL FREE ENERGY PREDICTED BY IDOCK:   -7.82 KCAL/MOL
REMARK 923 INTER-LIGAND FREE ENERGY PREDICTED BY IDOCK:   -6.94 KCAL/MOL
REMARK 924 INTRA-LIGAND FREE ENERGY PREDICTED BY IDOCK:   -0.88 KCAL/MOL
REMARK 927      BINDING AFFINITY PREDICTED BY RF-SCORE:    0.00 PKD
ROOT
HETATM    1  C   UNL     1     -12.515  12.189  63.548  1.00  0.00    -0.555 C  
HETATM    2  N   UNL     1     -12.666  12.940  64.784  1.00  0.00    -0.706 NA 
HETATM    3  C   UNL     1     -11.956  12.369  65.926  1.00  0.00    -0.367 C  
HETATM    4  C   UNL     1     -10.492  12.797  66.098  1.00  0.00    -0.284 C  
HETATM    5  C   UNL     1     -10.263  14.307  65.935  1.00  0.00    -0.324 C  
HETATM    6  C   UNL     1     -12.393  14.370  64.610  1.00  0.00    -0.418 C  
HETATM    7  C   UNL     1     -10.896  14.714  64.599  1.00  0.00    -0.332 C  
ENDROOT
BRANCH   5   8
HETATM    8  O   UNL     1     -10.817  15.214  66.884  1.00  0.00    -0.307 OA 
BRANCH   8   9
HETATM    9  C   UNL     1     -10.008  15.867  67.857  1.00  0.00    -0.221 C  
BRANCH   9  10
HETATM   10  C   UNL     1     -10.101  17.356  67.496  1.00  0.00    -0.322 A  
HETATM   11  C   UNL     1     -10.348  17.777  66.175  1.00  0.00    -0.340 A  
HETATM   12  C   UNL     1     -10.064  18.336  68.500  1.00  0.00    -0.419 A  
HETATM   13  C   UNL     1     -10.577  19.122  65.871  1.00  0.00    -0.495 A  
HETATM   14  C   UNL     1     -10.307  19.683  68.197  1.00  0.00    -0.561 A  
HETATM   15  C   UNL     1     -10.572  20.073  66.887  1.00  0.00    -0.455 A  
ENDBRANCH   9  10
BRANCH   9  16
HETATM   16  C   UNL     1      -8.590  15.312  67.944  1.00  0.00    -0.153 A  
HETATM   17  C   UNL     1      -6.188  15.447  67.514  1.00  0.00    -0.120 A  
HETATM   18  C   UNL     1      -7.488  15.935  67.334  1.00  0.00    -0.217 A  
HETATM   19  C   UNL     1      -7.050  13.649  68.858  1.00  0.00    -0.102 A  
HETATM   20  C   UNL     1      -8.346  14.146  68.689  1.00  0.00    -0.123 A  
HETATM   21  C   UNL     1      -5.967  14.309  68.284  1.00  0.00    -0.120 A  
ENDBRANCH   9  16
ENDBRANCH   8   9
ENDBRANCH   5   8
TORSDOF 4
ENDMDL
MODEL       41
REMARK 921   NORMALIZED FREE ENERGY PREDICTED BY IDOCK:   -5.46 KCAL/MOL
REMARK 922        TOTAL FREE ENERGY PREDICTED BY IDOCK:   -7.81 KCAL/MOL
REMARK 923 INTER-LIGAND FREE ENERGY PREDICTED BY IDOCK:   -6.79 KCAL/MOL
REMARK 924 INTRA-LIGAND FREE ENERGY PREDICTED BY IDOCK:   -1.02 KCAL/MOL
REMARK 927      BINDING AFFINITY PREDICTED BY RF-SCORE:    0.00 PKD
ROOT
HETATM    1  C   UNL     1      -7.719  10.195  65.615  1.00  0.00    -0.143 C  
HETATM    2  N   UNL     1      -8.128  10.907  66.816  1.00  0.00    -0.136 NA 
HETATM    3  C   UNL     1      -8.946  12.091  66.564  1.00  0.00    -0.193 C  
HETATM    4  C   UNL     1     -10.459  11.859  66.445  1.00  0.00    -0.258 C  
HETATM    5  C   UNL     1     -11.034  10.946  67.538  1.00  0.00    -0.293 C  
HETATM    6  C   UNL     1      -8.720  10.018  67.821  1.00  0.00    -0.125 C  
HETATM    7  C   UNL     1     -10.189   9.666  67.544  1.00  0.00    -0.274 C  
ENDROOT
BRANCH   5   8
HETATM    8  O   UNL     1     -11.035  11.379  68.896  1.00  0.00    -0.200 OA 
BRANCH   8   9
HETATM    9  C   UNL     1     -12.160  11.177  69.745  1.00  0.00    -0.344 C  
BRANCH   9  10
HETATM   10  C   UNL     1     -12.406  12.550  70.387  1.00  0.00    -0.311 A  
HETATM   11  C   UNL     1     -13.117  12.679  71.595  1.00  0.00    -0.421 A  
HETATM   12  C   UNL     1     -11.819  13.705  69.845  1.00  0.00    -0.389 A  
HETATM   13  C   UNL     1     -13.215  13.908  72.254  1.00  0.00    -0.568 A  
HETATM   14  C   UNL     1     -11.906  14.934  70.513  1.00  0.00    -0.358 A  
HETATM   15  C   UNL     1     -12.594  15.032  71.719  1.00  0.00    -0.409 A  
ENDBRANCH   9  10
BRANCH   9  16
HETATM   16  C   UNL     1     -11.982  10.028  70.732  1.00  0.00    -0.426 A  
HETATM   17  C   UNL     1     -10.598   8.570  72.124  1.00  0.00    -0.419 A  
HETATM   18  C   UNL     1     -10.720   9.565  71.146  1.00  0.00    -0.408 A  
HETATM   19  C   UNL     1     -12.993   8.406  72.256  1.00  0.00    -0.338 A  
HETATM   20  C   UNL     1     -13.113   9.410  71.289  1.00  0.00    -0.363 A  
HETATM   21  C   UNL     1     -11.734   7.997  72.686  1.00  0.00    -0.418 A  
ENDBRANCH   9  16
ENDBRANCH   8   9
ENDBRANCH   5   8
TORSDOF 4
ENDMDL
MODEL       42
REMARK 921   NORMALIZED FREE ENERGY PREDICTED BY IDOCK:   -5.42 KCAL/MOL
REMARK 922        TOTAL FREE ENERGY PREDICTED BY IDOCK:   -7.76 KCAL/MOL
REMARK 923 INTER-LIGAND FREE ENERGY PREDICTED BY IDOCK:   -6.42 KCAL/MOL
REMARK 924 INTRA-LIGAND FREE ENERGY PREDICTED BY IDOCK:   -1.33 KCAL/MOL
REMARK 927      BINDING AFFINITY PREDICTED BY RF-SCORE:    0.00 PKD
ROOT
HETATM    1  C   UNL     1     -10.278  15.264  65.342  1.00  0.00    -0.383 C  
HETATM    2  N   UNL     1     -10.318  13.898  65.839  1.00  0.00    -0.302 NA 
HETATM    3  C   UNL     1      -9.316  13.600  66.860  1.00  0.00    -0.257 C  
HETATM    4  C   UNL     1      -9.712  13.911  68.311  1.00  0.00    -0.223 C  
HETATM    5  C   UNL     1     -11.122  13.432  68.686  1.00  0.00    -0.263 C  
HETATM    6  C   UNL     1     -11.667  13.484  66.237  1.00  0.00    -0.367 C  
HETATM    7  C   UNL     1     -12.081  13.989  67.627  1.00  0.00    -0.344 C  
ENDROOT
BRANCH   5   8
HETATM    8  O   UNL     1     -11.409  12.036  68.728  1.00  0.00    -0.232 OA 
BRANCH   8   9
HETATM    9  C   UNL     1     -10.590  11.125  69.452  1.00  0.00    -0.134 C  
BRANCH   9  10
HETATM   10  C   UNL     1      -9.919  10.270  68.368  1.00  0.00    -0.173 A  
HETATM   11  C   UNL     1      -8.518  10.149  68.289  1.00  0.00    -0.115 A  
HETATM   12  C   UNL     1     -10.694   9.484  67.499  1.00  0.00    -0.311 A  
HETATM   13  C   UNL     1      -7.913   9.258  67.398  1.00  0.00    -0.106 A  
HETATM   14  C   UNL     1     -10.087   8.581  66.615  1.00  0.00    -0.364 A  
HETATM   15  C   UNL     1      -8.701   8.462  66.572  1.00  0.00    -0.151 A  
ENDBRANCH   9  10
BRANCH   9  16
HETATM   16  C   UNL     1     -11.345  10.337  70.517  1.00  0.00    -0.422 A  
HETATM   17  C   UNL     1     -13.381   9.767  71.745  1.00  0.00    -0.506 A  
HETATM   18  C   UNL     1     -12.696  10.573  70.827  1.00  0.00    -0.471 A  
HETATM   19  C   UNL     1     -11.372   8.508  72.137  1.00  0.00    -0.442 A  
HETATM   20  C   UNL     1     -10.692   9.304  71.209  1.00  0.00    -0.422 A  
HETATM   21  C   UNL     1     -12.722   8.728  72.394  1.00  0.00    -0.433 A  
ENDBRANCH   9  16
ENDBRANCH   8   9
ENDBRANCH   5   8
TORSDOF 4
ENDMDL
MODEL       43
REMARK 921   NORMALIZED FREE ENERGY PREDICTED BY IDOCK:   -5.38 KCAL/MOL
REMARK 922        TOTAL FREE ENERGY PREDICTED BY IDOCK:   -7.71 KCAL/MOL
REMARK 923 INTER-LIGAND FREE ENERGY PREDICTED BY IDOCK:   -6.41 KCAL/MOL
REMARK 924 INTRA-LIGAND FREE ENERGY PREDICTED BY IDOCK:   -1.30 KCAL/MOL
REMARK 927      BINDING AFFINITY PREDICTED BY RF-SCORE:    0.00 PKD
ROOT
HETATM    1  C   UNL     1     -10.506  15.965  65.578  1.00  0.00    -0.404 C  
HETATM    2  N   UNL     1     -10.528  14.549  65.909  1.00  0.00    -0.299 NA 
HETATM    3  C   UNL     1      -9.405  14.106  66.732  1.00  0.00    -0.282 C  
HETATM    4  C   UNL     1      -9.581  14.244  68.251  1.00  0.00    -0.221 C  
HETATM    5  C   UNL     1     -10.942  13.752  68.766  1.00  0.00    -0.264 C  
HETATM    6  C   UNL     1     -11.823  14.117  66.445  1.00  0.00    -0.423 C  
HETATM    7  C   UNL     1     -12.018  14.455  67.931  1.00  0.00    -0.348 C  
ENDROOT
BRANCH   5   8
HETATM    8  O   UNL     1     -11.273  12.368  68.682  1.00  0.00    -0.233 OA 
BRANCH   8   9
HETATM    9  C   UNL     1     -10.478  11.369  69.312  1.00  0.00    -0.067 C  
BRANCH   9  10
HETATM   10  C   UNL     1      -9.862  10.580  68.148  1.00  0.00    -0.169 A  
HETATM   11  C   UNL     1     -10.611  10.262  66.998  1.00  0.00    -0.302 A  
HETATM   12  C   UNL     1      -8.494  10.262  68.147  1.00  0.00    -0.123 A  
HETATM   13  C   UNL     1     -10.013   9.675  65.880  1.00  0.00    -0.351 A  
HETATM   14  C   UNL     1      -7.893   9.685  67.020  1.00  0.00    -0.098 A  
HETATM   15  C   UNL     1      -8.649   9.401  65.886  1.00  0.00    -0.155 A  
ENDBRANCH   9  10
BRANCH   9  16
HETATM   16  C   UNL     1     -11.246  10.526  70.325  1.00  0.00    -0.391 A  
HETATM   17  C   UNL     1     -11.425   8.648  71.880  1.00  0.00    -0.419 A  
HETATM   18  C   UNL     1     -10.730   9.344  70.883  1.00  0.00    -0.393 A  
HETATM   19  C   UNL     1     -13.216  10.246  71.744  1.00  0.00    -0.534 A  
HETATM   20  C   UNL     1     -12.513  10.948  70.759  1.00  0.00    -0.489 A  
HETATM   21  C   UNL     1     -12.665   9.104  72.318  1.00  0.00    -0.447 A  
ENDBRANCH   9  16
ENDBRANCH   8   9
ENDBRANCH   5   8
TORSDOF 4
ENDMDL
MODEL       44
REMARK 921   NORMALIZED FREE ENERGY PREDICTED BY IDOCK:   -5.35 KCAL/MOL
REMARK 922        TOTAL FREE ENERGY PREDICTED BY IDOCK:   -7.68 KCAL/MOL
REMARK 923 INTER-LIGAND FREE ENERGY PREDICTED BY IDOCK:   -6.46 KCAL/MOL
REMARK 924 INTRA-LIGAND FREE ENERGY PREDICTED BY IDOCK:   -1.21 KCAL/MOL
REMARK 927      BINDING AFFINITY PREDICTED BY RF-SCORE:    0.00 PKD
ROOT
HETATM    1  C   UNL     1      -8.072   8.567  65.305  1.00  0.00    -0.138 C  
HETATM    2  N   UNL     1      -8.808   9.761  65.686  1.00  0.00    -0.146 NA 
HETATM    3  C   UNL     1     -10.157   9.504  66.184  1.00  0.00    -0.256 C  
HETATM    4  C   UNL     1     -10.282   9.208  67.685  1.00  0.00    -0.293 C  
HETATM    5  C   UNL     1      -9.480  10.168  68.576  1.00  0.00    -0.158 C  
HETATM    6  C   UNL     1      -8.038  10.635  66.577  1.00  0.00    -0.140 C  
HETATM    7  C   UNL     1      -8.043  10.179  68.043  1.00  0.00    -0.112 C  
ENDROOT
BRANCH   5   8
HETATM    8  O   UNL     1      -9.846  11.544  68.644  1.00  0.00    -0.199 OA 
BRANCH   8   9
HETATM    9  C   UNL     1     -11.178  11.979  68.390  1.00  0.00    -0.262 C  
BRANCH   9  10
HETATM   10  C   UNL     1     -11.051  12.916  67.182  1.00  0.00    -0.309 A  
HETATM   11  C   UNL     1     -12.108  13.083  66.266  1.00  0.00    -0.453 A  
HETATM   12  C   UNL     1      -9.916  13.730  67.027  1.00  0.00    -0.251 A  
HETATM   13  C   UNL     1     -12.048  14.043  65.253  1.00  0.00    -0.415 A  
HETATM   14  C   UNL     1      -9.863  14.701  66.018  1.00  0.00    -0.347 A  
HETATM   15  C   UNL     1     -10.930  14.863  65.139  1.00  0.00    -0.410 A  
ENDBRANCH   9  10
BRANCH   9  16
HETATM   16  C   UNL     1     -11.864  12.587  69.608  1.00  0.00    -0.382 A  
HETATM   17  C   UNL     1     -12.865  14.466  70.810  1.00  0.00    -0.417 A  
HETATM   18  C   UNL     1     -12.150  13.959  69.718  1.00  0.00    -0.404 A  
HETATM   19  C   UNL     1     -12.967  12.263  71.765  1.00  0.00    -0.431 A  
HETATM   20  C   UNL     1     -12.266  11.755  70.666  1.00  0.00    -0.443 A  
HETATM   21  C   UNL     1     -13.282  13.617  71.830  1.00  0.00    -0.497 A  
ENDBRANCH   9  16
ENDBRANCH   8   9
ENDBRANCH   5   8
TORSDOF 4
ENDMDL
MODEL       45
REMARK 921   NORMALIZED FREE ENERGY PREDICTED BY IDOCK:   -5.29 KCAL/MOL
REMARK 922        TOTAL FREE ENERGY PREDICTED BY IDOCK:   -7.60 KCAL/MOL
REMARK 923 INTER-LIGAND FREE ENERGY PREDICTED BY IDOCK:   -6.89 KCAL/MOL
REMARK 924 INTRA-LIGAND FREE ENERGY PREDICTED BY IDOCK:   -0.71 KCAL/MOL
REMARK 927      BINDING AFFINITY PREDICTED BY RF-SCORE:    0.00 PKD
ROOT
HETATM    1  C   UNL     1      -7.907  18.092  67.487  1.00  0.00    -0.222 C  
HETATM    2  N   UNL     1      -8.499  16.941  68.149  1.00  0.00    -0.210 NA 
HETATM    3  C   UNL     1      -9.836  17.180  68.689  1.00  0.00    -0.300 C  
HETATM    4  C   UNL     1     -11.008  16.957  67.723  1.00  0.00    -0.212 C  
HETATM    5  C   UNL     1     -10.905  15.657  66.911  1.00  0.00    -0.282 C  
HETATM    6  C   UNL     1      -8.432  15.726  67.330  1.00  0.00    -0.171 C  
HETATM    7  C   UNL     1      -9.522  15.650  66.250  1.00  0.00    -0.351 C  
ENDROOT
BRANCH   5   8
HETATM    8  O   UNL     1     -10.991  14.398  67.574  1.00  0.00    -0.280 OA 
BRANCH   8   9
HETATM    9  C   UNL     1     -11.937  13.409  67.185  1.00  0.00    -0.366 C  
BRANCH   9  10
HETATM   10  C   UNL     1     -11.937  12.402  68.343  1.00  0.00    -0.269 A  
HETATM   11  C   UNL     1     -11.367  11.122  68.203  1.00  0.00    -0.377 A  
HETATM   12  C   UNL     1     -12.397  12.779  69.615  1.00  0.00    -0.059 A  
HETATM   13  C   UNL     1     -11.235  10.261  69.296  1.00  0.00    -0.281 A  
HETATM   14  C   UNL     1     -12.253  11.920  70.713  1.00  0.00    -0.401 A  
HETATM   15  C   UNL     1     -11.665  10.668  70.555  1.00  0.00    -0.451 A  
ENDBRANCH   9  10
BRANCH   9  16
HETATM   16  C   UNL     1     -11.663  12.810  65.809  1.00  0.00    -0.449 A  
HETATM   17  C   UNL     1     -12.343  12.209  63.539  1.00  0.00    -0.682 A  
HETATM   18  C   UNL     1     -12.655  12.679  64.822  1.00  0.00    -0.530 A  
HETATM   19  C   UNL     1     -10.053  11.909  64.206  1.00  0.00    -0.325 A  
HETATM   20  C   UNL     1     -10.363  12.392  65.482  1.00  0.00    -0.298 A  
HETATM   21  C   UNL     1     -11.041  11.833  63.228  1.00  0.00    -0.370 A  
ENDBRANCH   9  16
ENDBRANCH   8   9
ENDBRANCH   5   8
TORSDOF 4
ENDMDL
MODEL       46
REMARK 921   NORMALIZED FREE ENERGY PREDICTED BY IDOCK:   -5.29 KCAL/MOL
REMARK 922        TOTAL FREE ENERGY PREDICTED BY IDOCK:   -7.60 KCAL/MOL
REMARK 923 INTER-LIGAND FREE ENERGY PREDICTED BY IDOCK:   -6.34 KCAL/MOL
REMARK 924 INTRA-LIGAND FREE ENERGY PREDICTED BY IDOCK:   -1.26 KCAL/MOL
REMARK 927      BINDING AFFINITY PREDICTED BY RF-SCORE:    0.00 PKD
ROOT
HETATM    1  C   UNL     1      -8.379   8.033  71.624  1.00  0.00    -0.124 C  
HETATM    2  N   UNL     1      -8.878   9.291  71.093  1.00  0.00    -0.293 NA 
HETATM    3  C   UNL     1      -8.214   9.733  69.869  1.00  0.00    -0.183 C  
HETATM    4  C   UNL     1      -8.791   9.195  68.551  1.00  0.00    -0.129 C  
HETATM    5  C   UNL     1     -10.323   9.266  68.469  1.00  0.00    -0.209 C  
HETATM    6  C   UNL     1     -10.340   9.312  70.978  1.00  0.00    -0.318 C  
HETATM    7  C   UNL     1     -10.871   8.589  69.731  1.00  0.00    -0.177 C  
ENDROOT
BRANCH   5   8
HETATM    8  O   UNL     1     -10.973  10.534  68.434  1.00  0.00    -0.224 OA 
BRANCH   8   9
HETATM    9  C   UNL     1     -10.431  11.634  67.711  1.00  0.00    -0.187 C  
BRANCH   9  10
HETATM   10  C   UNL     1     -10.716  12.853  68.599  1.00  0.00    -0.273 A  
HETATM   11  C   UNL     1     -10.067  14.085  68.387  1.00  0.00    -0.236 A  
HETATM   12  C   UNL     1     -11.728  12.805  69.572  1.00  0.00    -0.383 A  
HETATM   13  C   UNL     1     -10.432  15.232  69.097  1.00  0.00    -0.247 A  
HETATM   14  C   UNL     1     -12.102  13.959  70.274  1.00  0.00    -0.423 A  
HETATM   15  C   UNL     1     -11.462  15.170  70.030  1.00  0.00    -0.315 A  
ENDBRANCH   9  10
BRANCH   9  16
HETATM   16  C   UNL     1     -10.952  11.742  66.282  1.00  0.00    -0.346 A  
HETATM   17  C   UNL     1     -12.517  12.600  64.612  1.00  0.00    -0.538 A  
HETATM   18  C   UNL     1     -12.122  12.444  65.946  1.00  0.00    -0.352 A  
HETATM   19  C   UNL     1     -10.631  11.291  63.901  1.00  0.00    -0.455 A  
HETATM   20  C   UNL     1     -10.229  11.149  65.234  1.00  0.00    -0.337 A  
HETATM   21  C   UNL     1     -11.767  12.031  63.588  1.00  0.00    -0.587 A  
ENDBRANCH   9  16
ENDBRANCH   8   9
ENDBRANCH   5   8
TORSDOF 4
ENDMDL
MODEL       47
REMARK 921   NORMALIZED FREE ENERGY PREDICTED BY IDOCK:   -5.28 KCAL/MOL
REMARK 922        TOTAL FREE ENERGY PREDICTED BY IDOCK:   -7.59 KCAL/MOL
REMARK 923 INTER-LIGAND FREE ENERGY PREDICTED BY IDOCK:   -6.44 KCAL/MOL
REMARK 924 INTRA-LIGAND FREE ENERGY PREDICTED BY IDOCK:   -1.15 KCAL/MOL
REMARK 927      BINDING AFFINITY PREDICTED BY RF-SCORE:    0.00 PKD
ROOT
HETATM    1  C   UNL     1      -8.477   5.007  66.198  1.00  0.00    -0.114 C  
HETATM    2  N   UNL     1      -8.648   6.114  67.125  1.00  0.00    -0.104 NA 
HETATM    3  C   UNL     1      -9.740   7.023  66.783  1.00  0.00    -0.184 C  
HETATM    4  C   UNL     1     -11.130   6.645  67.314  1.00  0.00    -0.418 C  
HETATM    5  C   UNL     1     -11.136   6.218  68.789  1.00  0.00    -0.346 C  
HETATM    6  C   UNL     1      -8.701   5.673  68.523  1.00  0.00    -0.110 C  
HETATM    7  C   UNL     1     -10.072   5.125  68.944  1.00  0.00    -0.237 C  
ENDROOT
BRANCH   5   8
HETATM    8  O   UNL     1     -10.820   7.169  69.804  1.00  0.00    -0.234 OA 
BRANCH   8   9
HETATM    9  C   UNL     1     -11.667   7.372  70.930  1.00  0.00    -0.296 C  
BRANCH   9  10
HETATM   10  C   UNL     1     -11.872   8.892  70.985  1.00  0.00    -0.324 A  
HETATM   11  C   UNL     1     -11.177   9.760  70.121  1.00  0.00    -0.324 A  
HETATM   12  C   UNL     1     -12.855   9.449  71.819  1.00  0.00    -0.484 A  
HETATM   13  C   UNL     1     -11.470  11.125  70.069  1.00  0.00    -0.376 A  
HETATM   14  C   UNL     1     -13.158  10.816  71.758  1.00  0.00    -0.573 A  
HETATM   15  C   UNL     1     -12.473  11.650  70.878  1.00  0.00    -0.440 A  
ENDBRANCH   9  10
BRANCH   9  16
HETATM   16  C   UNL     1     -11.134   6.747  72.215  1.00  0.00    -0.286 A  
HETATM   17  C   UNL     1     -10.922   4.887  73.786  1.00  0.00    -0.361 A  
HETATM   18  C   UNL     1     -11.504   5.463  72.650  1.00  0.00    -0.305 A  
HETATM   19  C   UNL     1      -9.636   6.887  74.141  1.00  0.00    -0.308 A  
HETATM   20  C   UNL     1     -10.208   7.455  72.998  1.00  0.00    -0.335 A  
HETATM   21  C   UNL     1      -9.981   5.595  74.527  1.00  0.00    -0.279 A  
ENDBRANCH   9  16
ENDBRANCH   8   9
ENDBRANCH   5   8
TORSDOF 4
ENDMDL
MODEL       48
REMARK 921   NORMALIZED FREE ENERGY PREDICTED BY IDOCK:   -5.27 KCAL/MOL
REMARK 922        TOTAL FREE ENERGY PREDICTED BY IDOCK:   -7.58 KCAL/MOL
REMARK 923 INTER-LIGAND FREE ENERGY PREDICTED BY IDOCK:   -6.32 KCAL/MOL
REMARK 924 INTRA-LIGAND FREE ENERGY PREDICTED BY IDOCK:   -1.26 KCAL/MOL
REMARK 927      BINDING AFFINITY PREDICTED BY RF-SCORE:    0.00 PKD
ROOT
HETATM    1  C   UNL     1      -8.692   6.226  65.939  1.00  0.00    -0.149 C  
HETATM    2  N   UNL     1      -9.634   7.174  66.513  1.00  0.00    -0.169 NA 
HETATM    3  C   UNL     1     -10.924   6.594  66.878  1.00  0.00    -0.326 C  
HETATM    4  C   UNL     1     -11.019   5.978  68.281  1.00  0.00    -0.347 C  
HETATM    5  C   UNL     1     -10.415   6.856  69.387  1.00  0.00    -0.217 C  
HETATM    6  C   UNL     1      -9.045   7.964  67.599  1.00  0.00    -0.133 C  
HETATM    7  C   UNL     1      -8.993   7.221  68.942  1.00  0.00    -0.133 C  
ENDROOT
BRANCH   5   8
HETATM    8  O   UNL     1     -11.019   8.107  69.709  1.00  0.00    -0.225 OA 
BRANCH   8   9
HETATM    9  C   UNL     1     -11.672   8.324  70.955  1.00  0.00    -0.270 C  
BRANCH   9  10
HETATM   10  C   UNL     1     -12.081   9.803  70.920  1.00  0.00    -0.407 A  
HETATM   11  C   UNL     1     -12.921  10.357  71.905  1.00  0.00    -0.555 A  
HETATM   12  C   UNL     1     -11.525  10.674  69.969  1.00  0.00    -0.404 A  
HETATM   13  C   UNL     1     -13.175  11.730  71.957  1.00  0.00    -0.460 A  
HETATM   14  C   UNL     1     -11.769  12.053  70.030  1.00  0.00    -0.346 A  
HETATM   15  C   UNL     1     -12.585  12.580  71.027  1.00  0.00    -0.350 A  
ENDBRANCH   9  10
BRANCH   9  16
HETATM   16  C   UNL     1     -10.834   7.916  72.162  1.00  0.00    -0.327 A  
HETATM   17  C   UNL     1     -10.363   6.471  74.077  1.00  0.00    -0.362 A  
HETATM   18  C   UNL     1     -11.204   6.877  73.034  1.00  0.00    -0.220 A  
HETATM   19  C   UNL     1      -8.783   8.177  73.466  1.00  0.00    -0.317 A  
HETATM   20  C   UNL     1      -9.618   8.572  72.416  1.00  0.00    -0.356 A  
HETATM   21  C   UNL     1      -9.147   7.114  74.288  1.00  0.00    -0.251 A  
ENDBRANCH   9  16
ENDBRANCH   8   9
ENDBRANCH   5   8
TORSDOF 4
ENDMDL
MODEL       49
REMARK 921   NORMALIZED FREE ENERGY PREDICTED BY IDOCK:   -5.21 KCAL/MOL
REMARK 922        TOTAL FREE ENERGY PREDICTED BY IDOCK:   -7.50 KCAL/MOL
REMARK 923 INTER-LIGAND FREE ENERGY PREDICTED BY IDOCK:   -6.49 KCAL/MOL
REMARK 924 INTRA-LIGAND FREE ENERGY PREDICTED BY IDOCK:   -1.02 KCAL/MOL
REMARK 927      BINDING AFFINITY PREDICTED BY RF-SCORE:    0.00 PKD
ROOT
HETATM    1  C   UNL     1     -13.015  14.052  72.730  1.00  0.00    -0.378 C  
HETATM    2  N   UNL     1     -13.446  14.145  71.345  1.00  0.00    -0.338 NA 
HETATM    3  C   UNL     1     -13.323  15.480  70.765  1.00  0.00    -0.259 C  
HETATM    4  C   UNL     1     -11.964  15.825  70.140  1.00  0.00    -0.364 C  
HETATM    5  C   UNL     1     -11.394  14.719  69.240  1.00  0.00    -0.294 C  
HETATM    6  C   UNL     1     -12.849  13.107  70.499  1.00  0.00     0.043 C  
HETATM    7  C   UNL     1     -11.411  13.422  70.060  1.00  0.00    -0.126 C  
ENDROOT
BRANCH   5   8
HETATM    8  O   UNL     1     -12.059  14.381  68.025  1.00  0.00    -0.320 OA 
BRANCH   8   9
HETATM    9  C   UNL     1     -11.763  15.044  66.801  1.00  0.00    -0.154 C  
BRANCH   9  10
HETATM   10  C   UNL     1     -11.909  13.954  65.730  1.00  0.00    -0.393 A  
HETATM   11  C   UNL     1     -12.163  14.276  64.383  1.00  0.00    -0.471 A  
HETATM   12  C   UNL     1     -11.669  12.607  66.047  1.00  0.00    -0.470 A  
HETATM   13  C   UNL     1     -12.150  13.297  63.386  1.00  0.00    -0.508 A  
HETATM   14  C   UNL     1     -11.643  11.628  65.045  1.00  0.00    -0.133 A  
HETATM   15  C   UNL     1     -11.874  11.974  63.716  1.00  0.00    -0.581 A  
ENDBRANCH   9  10
BRANCH   9  16
HETATM   16  C   UNL     1     -10.420  15.766  66.806  1.00  0.00    -0.305 A  
HETATM   17  C   UNL     1      -7.976  15.781  66.819  1.00  0.00    -0.273 A  
HETATM   18  C   UNL     1      -9.191  15.092  66.911  1.00  0.00    -0.265 A  
HETATM   19  C   UNL     1      -9.170  17.855  66.589  1.00  0.00    -0.288 A  
HETATM   20  C   UNL     1     -10.383  17.163  66.667  1.00  0.00    -0.310 A  
HETATM   21  C   UNL     1      -7.964  17.162  66.648  1.00  0.00    -0.300 A  
ENDBRANCH   9  16
ENDBRANCH   8   9
ENDBRANCH   5   8
TORSDOF 4
ENDMDL
MODEL       50
REMARK 921   NORMALIZED FREE ENERGY PREDICTED BY IDOCK:   -5.20 KCAL/MOL
REMARK 922        TOTAL FREE ENERGY PREDICTED BY IDOCK:   -7.49 KCAL/MOL
REMARK 923 INTER-LIGAND FREE ENERGY PREDICTED BY IDOCK:   -6.25 KCAL/MOL
REMARK 924 INTRA-LIGAND FREE ENERGY PREDICTED BY IDOCK:   -1.25 KCAL/MOL
REMARK 927      BINDING AFFINITY PREDICTED BY RF-SCORE:    0.00 PKD
ROOT
HETATM    1  C   UNL     1     -13.576  13.944  71.764  1.00  0.00    -0.385 C  
HETATM    2  N   UNL     1     -12.186  13.932  71.340  1.00  0.00    -0.284 NA 
HETATM    3  C   UNL     1     -11.913  13.065  70.195  1.00  0.00    -0.303 C  
HETATM    4  C   UNL     1     -12.107  13.693  68.807  1.00  0.00    -0.332 C  
HETATM    5  C   UNL     1     -11.493  15.093  68.667  1.00  0.00    -0.325 C  
HETATM    6  C   UNL     1     -11.640  15.282  71.165  1.00  0.00    -0.370 C  
HETATM    7  C   UNL     1     -12.028  15.936  69.831  1.00  0.00    -0.283 C  
ENDROOT
BRANCH   5   8
HETATM    8  O   UNL     1     -10.078  15.256  68.731  1.00  0.00    -0.205 OA 
BRANCH   8   9
HETATM    9  C   UNL     1      -9.347  15.871  67.675  1.00  0.00    -0.217 C  
BRANCH   9  10
HETATM   10  C   UNL     1      -7.876  15.600  68.020  1.00  0.00    -0.135 A  
HETATM   11  C   UNL     1      -6.829  16.114  67.230  1.00  0.00    -0.236 A  
HETATM   12  C   UNL     1      -7.534  14.933  69.207  1.00  0.00    -0.177 A  
HETATM   13  C   UNL     1      -5.494  15.993  67.623  1.00  0.00    -0.158 A  
HETATM   14  C   UNL     1      -6.195  14.823  69.608  1.00  0.00    -0.133 A  
HETATM   15  C   UNL     1      -5.179  15.360  68.822  1.00  0.00    -0.098 A  
ENDBRANCH   9  10
BRANCH   9  16
HETATM   16  C   UNL     1      -9.699  17.340  67.464  1.00  0.00    -0.264 A  
HETATM   17  C   UNL     1      -9.729  19.679  68.175  1.00  0.00    -0.503 A  
HETATM   18  C   UNL     1      -9.479  18.326  68.441  1.00  0.00    -0.336 A  
HETATM   19  C   UNL     1     -10.501  19.103  65.973  1.00  0.00    -0.546 A  
HETATM   20  C   UNL     1     -10.238  17.754  66.234  1.00  0.00    -0.364 A  
HETATM   21  C   UNL     1     -10.231  20.069  66.937  1.00  0.00    -0.595 A  
ENDBRANCH   9  16
ENDBRANCH   8   9
ENDBRANCH   5   8
TORSDOF 4
ENDMDL
MODEL       51
REMARK 921   NORMALIZED FREE ENERGY PREDICTED BY IDOCK:   -5.20 KCAL/MOL
REMARK 922        TOTAL FREE ENERGY PREDICTED BY IDOCK:   -7.48 KCAL/MOL
REMARK 923 INTER-LIGAND FREE ENERGY PREDICTED BY IDOCK:   -6.31 KCAL/MOL
REMARK 924 INTRA-LIGAND FREE ENERGY PREDICTED BY IDOCK:   -1.18 KCAL/MOL
REMARK 927      BINDING AFFINITY PREDICTED BY RF-SCORE:    0.00 PKD
ROOT
HETATM    1  C   UNL     1      -7.652  10.095  64.962  1.00  0.00    -0.141 C  
HETATM    2  N   UNL     1      -8.660  10.672  65.837  1.00  0.00    -0.167 NA 
HETATM    3  C   UNL     1      -9.956   9.998  65.788  1.00  0.00    -0.276 C  
HETATM    4  C   UNL     1     -10.133   8.799  66.730  1.00  0.00    -0.359 C  
HETATM    5  C   UNL     1      -9.635   9.053  68.160  1.00  0.00    -0.148 C  
HETATM    6  C   UNL     1      -8.174  10.857  67.208  1.00  0.00    -0.123 C  
HETATM    7  C   UNL     1      -8.197   9.572  68.048  1.00  0.00    -0.114 C  
ENDROOT
BRANCH   5   8
HETATM    8  O   UNL     1     -10.298  10.012  68.981  1.00  0.00    -0.184 OA 
BRANCH   8   9
HETATM    9  C   UNL     1     -11.404   9.658  69.803  1.00  0.00    -0.120 C  
BRANCH   9  10
HETATM   10  C   UNL     1     -11.985  11.002  70.263  1.00  0.00    -0.452 A  
HETATM   11  C   UNL     1     -12.773  11.103  71.426  1.00  0.00    -0.524 A  
HETATM   12  C   UNL     1     -11.641  12.192  69.601  1.00  0.00    -0.361 A  
HETATM   13  C   UNL     1     -13.178  12.344  71.925  1.00  0.00    -0.486 A  
HETATM   14  C   UNL     1     -12.037  13.436  70.109  1.00  0.00    -0.415 A  
HETATM   15  C   UNL     1     -12.796  13.512  71.274  1.00  0.00    -0.420 A  
ENDBRANCH   9  10
BRANCH   9  16
HETATM   16  C   UNL     1     -11.045   8.693  70.928  1.00  0.00    -0.310 A  
HETATM   17  C   UNL     1      -9.788   8.085  72.934  1.00  0.00    -0.357 A  
HETATM   18  C   UNL     1     -10.026   8.952  71.860  1.00  0.00    -0.384 A  
HETATM   19  C   UNL     1     -11.527   6.627  72.142  1.00  0.00    -0.323 A  
HETATM   20  C   UNL     1     -11.773   7.501  71.078  1.00  0.00    -0.317 A  
HETATM   21  C   UNL     1     -10.545   6.927  73.081  1.00  0.00    -0.330 A  
ENDBRANCH   9  16
ENDBRANCH   8   9
ENDBRANCH   5   8
TORSDOF 4
ENDMDL
MODEL       52
REMARK 921   NORMALIZED FREE ENERGY PREDICTED BY IDOCK:   -5.17 KCAL/MOL
REMARK 922        TOTAL FREE ENERGY PREDICTED BY IDOCK:   -7.45 KCAL/MOL
REMARK 923 INTER-LIGAND FREE ENERGY PREDICTED BY IDOCK:   -6.59 KCAL/MOL
REMARK 924 INTRA-LIGAND FREE ENERGY PREDICTED BY IDOCK:   -0.86 KCAL/MOL
REMARK 927      BINDING AFFINITY PREDICTED BY RF-SCORE:    0.00 PKD
ROOT
HETATM    1  C   UNL     1      -8.315   7.374  65.745  1.00  0.00    -0.139 C  
HETATM    2  N   UNL     1      -8.189   8.443  66.722  1.00  0.00    -0.101 NA 
HETATM    3  C   UNL     1      -7.979   9.767  66.142  1.00  0.00    -0.110 C  
HETATM    4  C   UNL     1      -9.244  10.552  65.765  1.00  0.00    -0.215 C  
HETATM    5  C   UNL     1     -10.333  10.530  66.847  1.00  0.00    -0.239 C  
HETATM    6  C   UNL     1      -9.270   8.429  67.713  1.00  0.00    -0.131 C  
HETATM    7  C   UNL     1     -10.576   9.060  67.209  1.00  0.00    -0.301 C  
ENDROOT
BRANCH   5   8
HETATM    8  O   UNL     1     -10.102  11.173  68.098  1.00  0.00    -0.169 OA 
BRANCH   8   9
HETATM    9  C   UNL     1     -10.421  12.544  68.306  1.00  0.00    -0.234 C  
BRANCH   9  10
HETATM   10  C   UNL     1     -11.449  12.530  69.446  1.00  0.00    -0.327 A  
HETATM   11  C   UNL     1     -11.863  11.326  70.047  1.00  0.00    -0.448 A  
HETATM   12  C   UNL     1     -11.911  13.733  70.003  1.00  0.00    -0.407 A  
HETATM   13  C   UNL     1     -12.684  11.322  71.178  1.00  0.00    -0.492 A  
HETATM   14  C   UNL     1     -12.724  13.729  71.145  1.00  0.00    -0.438 A  
HETATM   15  C   UNL     1     -13.101  12.526  71.736  1.00  0.00    -0.450 A  
ENDBRANCH   9  10
BRANCH   9  16
HETATM   16  C   UNL     1     -10.873  13.265  67.040  1.00  0.00    -0.278 A  
HETATM   17  C   UNL     1     -12.561  13.846  65.371  1.00  0.00    -0.538 A  
HETATM   18  C   UNL     1     -12.151  13.097  66.481  1.00  0.00    -0.423 A  
HETATM   19  C   UNL     1     -10.405  14.905  65.290  1.00  0.00    -0.424 A  
HETATM   20  C   UNL     1     -10.001  14.166  66.407  1.00  0.00    -0.302 A  
HETATM   21  C   UNL     1     -11.692  14.758  64.781  1.00  0.00    -0.422 A  
ENDBRANCH   9  16
ENDBRANCH   8   9
ENDBRANCH   5   8
TORSDOF 4
ENDMDL
MODEL       53
REMARK 921   NORMALIZED FREE ENERGY PREDICTED BY IDOCK:   -5.12 KCAL/MOL
REMARK 922        TOTAL FREE ENERGY PREDICTED BY IDOCK:   -7.39 KCAL/MOL
REMARK 923 INTER-LIGAND FREE ENERGY PREDICTED BY IDOCK:   -6.17 KCAL/MOL
REMARK 924 INTRA-LIGAND FREE ENERGY PREDICTED BY IDOCK:   -1.22 KCAL/MOL
REMARK 927      BINDING AFFINITY PREDICTED BY RF-SCORE:    0.00 PKD
ROOT
HETATM    1  C   UNL     1      -8.842   6.807  69.561  1.00  0.00    -0.139 C  
HETATM    2  N   UNL     1      -9.592   7.697  68.689  1.00  0.00    -0.151 NA 
HETATM    3  C   UNL     1     -10.537   8.566  69.386  1.00  0.00    -0.195 C  
HETATM    4  C   UNL     1      -9.978   9.898  69.908  1.00  0.00    -0.292 C  
HETATM    5  C   UNL     1      -9.104  10.645  68.891  1.00  0.00    -0.176 C  
HETATM    6  C   UNL     1      -8.727   8.436  67.763  1.00  0.00    -0.137 C  
HETATM    7  C   UNL     1      -8.042   9.654  68.399  1.00  0.00    -0.104 C  
ENDROOT
BRANCH   5   8
HETATM    8  O   UNL     1      -9.688  11.163  67.698  1.00  0.00    -0.167 OA 
BRANCH   8   9
HETATM    9  C   UNL     1     -10.941  11.840  67.711  1.00  0.00    -0.225 C  
BRANCH   9  10
HETATM   10  C   UNL     1     -11.289  12.028  66.228  1.00  0.00    -0.415 A  
HETATM   11  C   UNL     1     -12.175  13.036  65.803  1.00  0.00    -0.511 A  
HETATM   12  C   UNL     1     -10.633  11.274  65.241  1.00  0.00    -0.323 A  
HETATM   13  C   UNL     1     -12.379  13.302  64.446  1.00  0.00    -0.410 A  
HETATM   14  C   UNL     1     -10.828  11.550  63.881  1.00  0.00    -0.469 A  
HETATM   15  C   UNL     1     -11.691  12.568  63.485  1.00  0.00    -0.595 A  
ENDBRANCH   9  10
BRANCH   9  16
HETATM   16  C   UNL     1     -10.934  13.121  68.538  1.00  0.00    -0.289 A  
HETATM   17  C   UNL     1     -10.111  15.369  69.033  1.00  0.00    -0.234 A  
HETATM   18  C   UNL     1     -10.025  14.170  68.315  1.00  0.00    -0.241 A  
HETATM   19  C   UNL     1     -11.968  14.488  70.281  1.00  0.00    -0.379 A  
HETATM   20  C   UNL     1     -11.890  13.297  69.552  1.00  0.00    -0.388 A  
HETATM   21  C   UNL     1     -11.088  15.532  70.010  1.00  0.00    -0.326 A  
ENDBRANCH   9  16
ENDBRANCH   8   9
ENDBRANCH   5   8
TORSDOF 4
ENDMDL
MODEL       54
REMARK 921   NORMALIZED FREE ENERGY PREDICTED BY IDOCK:   -5.11 KCAL/MOL
REMARK 922        TOTAL FREE ENERGY PREDICTED BY IDOCK:   -7.38 KCAL/MOL
REMARK 923 INTER-LIGAND FREE ENERGY PREDICTED BY IDOCK:   -6.38 KCAL/MOL
REMARK 924 INTRA-LIGAND FREE ENERGY PREDICTED BY IDOCK:   -1.00 KCAL/MOL
REMARK 927      BINDING AFFINITY PREDICTED BY RF-SCORE:    0.00 PKD
ROOT
HETATM    1  C   UNL     1     -10.947  16.205  65.187  1.00  0.00    -0.316 C  
HETATM    2  N   UNL     1     -10.242  15.268  66.047  1.00  0.00    -0.295 NA 
HETATM    3  C   UNL     1     -10.344  15.567  67.474  1.00  0.00    -0.271 C  
HETATM    4  C   UNL     1     -11.564  14.986  68.204  1.00  0.00    -0.360 C  
HETATM    5  C   UNL     1     -11.843  13.514  67.871  1.00  0.00    -0.362 C  
HETATM    6  C   UNL     1     -10.566  13.871  65.741  1.00  0.00    -0.297 C  
HETATM    7  C   UNL     1     -11.899  13.402  66.343  1.00  0.00    -0.441 C  
ENDROOT
BRANCH   5   8
HETATM    8  O   UNL     1     -10.914  12.508  68.269  1.00  0.00    -0.217 OA 
BRANCH   8   9
HETATM    9  C   UNL     1     -11.171  11.124  68.057  1.00  0.00    -0.296 C  
BRANCH   9  10
HETATM   10  C   UNL     1     -11.367  10.551  69.467  1.00  0.00    -0.341 A  
HETATM   11  C   UNL     1     -12.604  10.647  70.134  1.00  0.00    -0.283 A  
HETATM   12  C   UNL     1     -10.349   9.804  70.081  1.00  0.00    -0.335 A  
HETATM   13  C   UNL     1     -12.826  10.000  71.352  1.00  0.00    -0.519 A  
HETATM   14  C   UNL     1     -10.576   9.144  71.296  1.00  0.00    -0.399 A  
HETATM   15  C   UNL     1     -11.815   9.235  71.925  1.00  0.00    -0.426 A  
ENDBRANCH   9  10
BRANCH   9  16
HETATM   16  C   UNL     1     -10.103  10.426  67.221  1.00  0.00    -0.244 A  
HETATM   17  C   UNL     1      -9.302   8.558  65.863  1.00  0.00    -0.231 A  
HETATM   18  C   UNL     1     -10.266   9.129  66.704  1.00  0.00    -0.328 A  
HETATM   19  C   UNL     1      -7.941  10.527  66.086  1.00  0.00    -0.147 A  
HETATM   20  C   UNL     1      -8.911  11.102  66.914  1.00  0.00    -0.157 A  
HETATM   21  C   UNL     1      -8.144   9.260  65.546  1.00  0.00    -0.113 A  
ENDBRANCH   9  16
ENDBRANCH   8   9
ENDBRANCH   5   8
TORSDOF 4
ENDMDL
MODEL       55
REMARK 921   NORMALIZED FREE ENERGY PREDICTED BY IDOCK:   -5.06 KCAL/MOL
REMARK 922        TOTAL FREE ENERGY PREDICTED BY IDOCK:   -7.32 KCAL/MOL
REMARK 923 INTER-LIGAND FREE ENERGY PREDICTED BY IDOCK:   -6.14 KCAL/MOL
REMARK 924 INTRA-LIGAND FREE ENERGY PREDICTED BY IDOCK:   -1.18 KCAL/MOL
REMARK 927      BINDING AFFINITY PREDICTED BY RF-SCORE:    0.00 PKD
ROOT
HETATM    1  C   UNL     1     -12.889  12.671  64.460  1.00  0.00    -0.270 C  
HETATM    2  N   UNL     1     -12.662  13.852  65.278  1.00  0.00    -0.678 NA 
HETATM    3  C   UNL     1     -12.437  13.570  66.693  1.00  0.00    -0.208 C  
HETATM    4  C   UNL     1     -10.987  13.272  67.103  1.00  0.00    -0.288 C  
HETATM    5  C   UNL     1      -9.960  14.246  66.508  1.00  0.00    -0.281 C  
HETATM    6  C   UNL     1     -11.641  14.740  64.712  1.00  0.00    -0.418 C  
HETATM    7  C   UNL     1     -10.202  14.282  64.994  1.00  0.00    -0.402 C  
ENDROOT
BRANCH   5   8
HETATM    8  O   UNL     1      -9.970  15.615  66.904  1.00  0.00    -0.239 OA 
BRANCH   8   9
HETATM    9  C   UNL     1      -8.837  16.457  66.718  1.00  0.00    -0.225 C  
BRANCH   9  10
HETATM   10  C   UNL     1      -7.760  15.856  67.632  1.00  0.00    -0.169 A  
HETATM   11  C   UNL     1      -6.469  15.560  67.152  1.00  0.00     0.089 A  
HETATM   12  C   UNL     1      -7.998  15.702  69.008  1.00  0.00    -0.208 A  
HETATM   13  C   UNL     1      -5.448  15.153  68.014  1.00  0.00    -0.142 A  
HETATM   14  C   UNL     1      -6.970  15.306  69.874  1.00  0.00    -0.121 A  
HETATM   15  C   UNL     1      -5.695  15.042  69.379  1.00  0.00    -0.101 A  
ENDBRANCH   9  10
BRANCH   9  16
HETATM   16  C   UNL     1      -9.129  17.935  66.951  1.00  0.00    -0.266 A  
HETATM   17  C   UNL     1      -8.432  20.270  67.152  1.00  0.00    -0.407 A  
HETATM   18  C   UNL     1      -8.119  18.910  67.030  1.00  0.00    -0.272 A  
HETATM   19  C   UNL     1     -10.773  19.726  67.200  1.00  0.00    -0.547 A  
HETATM   20  C   UNL     1     -10.460  18.369  67.064  1.00  0.00    -0.429 A  
HETATM   21  C   UNL     1      -9.760  20.679  67.228  1.00  0.00    -0.562 A  
ENDBRANCH   9  16
ENDBRANCH   8   9
ENDBRANCH   5   8
TORSDOF 4
ENDMDL
MODEL       56
REMARK 921   NORMALIZED FREE ENERGY PREDICTED BY IDOCK:   -5.05 KCAL/MOL
REMARK 922        TOTAL FREE ENERGY PREDICTED BY IDOCK:   -7.31 KCAL/MOL
REMARK 923 INTER-LIGAND FREE ENERGY PREDICTED BY IDOCK:   -6.26 KCAL/MOL
REMARK 924 INTRA-LIGAND FREE ENERGY PREDICTED BY IDOCK:   -1.05 KCAL/MOL
REMARK 927      BINDING AFFINITY PREDICTED BY RF-SCORE:    0.00 PKD
ROOT
HETATM    1  C   UNL     1      -6.365  17.174  67.005  1.00  0.00    -0.185 C  
HETATM    2  N   UNL     1      -7.270  16.086  66.672  1.00  0.00    -0.177 NA 
HETATM    3  C   UNL     1      -7.238  14.967  67.611  1.00  0.00    -0.185 C  
HETATM    4  C   UNL     1      -8.164  15.078  68.831  1.00  0.00    -0.178 C  
HETATM    5  C   UNL     1      -9.587  15.542  68.490  1.00  0.00    -0.203 C  
HETATM    6  C   UNL     1      -8.634  16.552  66.401  1.00  0.00    -0.312 C  
HETATM    7  C   UNL     1      -9.454  16.830  67.669  1.00  0.00    -0.234 C  
ENDROOT
BRANCH   5   8
HETATM    8  O   UNL     1     -10.437  14.707  67.708  1.00  0.00    -0.243 OA 
BRANCH   8   9
HETATM    9  C   UNL     1     -10.034  13.406  67.295  1.00  0.00    -0.232 C  
BRANCH   9  10
HETATM   10  C   UNL     1     -10.629  13.249  65.888  1.00  0.00    -0.288 A  
HETATM   11  C   UNL     1     -10.309  12.147  65.073  1.00  0.00    -0.320 A  
HETATM   12  C   UNL     1     -11.609  14.143  65.426  1.00  0.00    -0.334 A  
HETATM   13  C   UNL     1     -10.960  11.928  63.856  1.00  0.00    -0.473 A  
HETATM   14  C   UNL     1     -12.271  13.916  64.212  1.00  0.00    -0.447 A  
HETATM   15  C   UNL     1     -11.953  12.806  63.434  1.00  0.00    -0.613 A  
ENDBRANCH   9  10
BRANCH   9  16
HETATM   16  C   UNL     1     -10.414  12.306  68.280  1.00  0.00    -0.236 A  
HETATM   17  C   UNL     1     -12.002  11.195  69.770  1.00  0.00    -0.428 A  
HETATM   18  C   UNL     1     -11.653  12.270  68.944  1.00  0.00    -0.367 A  
HETATM   19  C   UNL     1      -9.858  10.188  69.365  1.00  0.00    -0.247 A  
HETATM   20  C   UNL     1      -9.516  11.255  68.528  1.00  0.00    -0.191 A  
HETATM   21  C   UNL     1     -11.108  10.148  69.974  1.00  0.00    -0.368 A  
ENDBRANCH   9  16
ENDBRANCH   8   9
ENDBRANCH   5   8
TORSDOF 4
ENDMDL
MODEL       57
REMARK 921   NORMALIZED FREE ENERGY PREDICTED BY IDOCK:   -5.03 KCAL/MOL
REMARK 922        TOTAL FREE ENERGY PREDICTED BY IDOCK:   -7.28 KCAL/MOL
REMARK 923 INTER-LIGAND FREE ENERGY PREDICTED BY IDOCK:   -6.14 KCAL/MOL
REMARK 924 INTRA-LIGAND FREE ENERGY PREDICTED BY IDOCK:   -1.15 KCAL/MOL
REMARK 927      BINDING AFFINITY PREDICTED BY RF-SCORE:    0.00 PKD
ROOT
HETATM    1  C   UNL     1     -11.242  16.014  64.602  1.00  0.00    -0.330 C  
HETATM    2  N   UNL     1     -10.709  14.665  64.710  1.00  0.00    -0.410 NA 
HETATM    3  C   UNL     1     -10.011  14.392  65.964  1.00  0.00    -0.317 C  
HETATM    4  C   UNL     1     -10.881  13.910  67.134  1.00  0.00    -0.288 C  
HETATM    5  C   UNL     1     -11.888  12.816  66.749  1.00  0.00    -0.382 C  
HETATM    6  C   UNL     1     -11.705  13.639  64.386  1.00  0.00    -0.411 C  
HETATM    7  C   UNL     1     -12.674  13.335  65.539  1.00  0.00    -0.429 C  
ENDROOT
BRANCH   5   8
HETATM    8  O   UNL     1     -11.420  11.531  66.346  1.00  0.00    -0.375 OA 
BRANCH   8   9
HETATM    9  C   UNL     1     -10.177  11.009  66.804  1.00  0.00    -0.229 C  
BRANCH   9  10
HETATM   10  C   UNL     1      -9.432  10.613  65.522  1.00  0.00    -0.261 A  
HETATM   11  C   UNL     1     -10.073  10.618  64.268  1.00  0.00    -0.411 A  
HETATM   12  C   UNL     1      -8.052  10.355  65.551  1.00  0.00    -0.156 A  
HETATM   13  C   UNL     1      -9.361  10.401  63.086  1.00  0.00    -0.340 A  
HETATM   14  C   UNL     1      -7.336  10.150  64.364  1.00  0.00    -0.116 A  
HETATM   15  C   UNL     1      -7.988  10.182  63.134  1.00  0.00    -0.154 A  
ENDBRANCH   9  10
BRANCH   9  16
HETATM   16  C   UNL     1     -10.326   9.894  67.833  1.00  0.00    -0.256 A  
HETATM   17  C   UNL     1     -10.663   9.093  70.118  1.00  0.00    -0.263 A  
HETATM   18  C   UNL     1     -10.434  10.137  69.213  1.00  0.00    -0.246 A  
HETATM   19  C   UNL     1     -10.607   7.512  68.307  1.00  0.00    -0.185 A  
HETATM   20  C   UNL     1     -10.393   8.558  67.403  1.00  0.00    -0.356 A  
HETATM   21  C   UNL     1     -10.759   7.781  69.665  1.00  0.00    -0.223 A  
ENDBRANCH   9  16
ENDBRANCH   8   9
ENDBRANCH   5   8
TORSDOF 4
ENDMDL
MODEL       58
REMARK 921   NORMALIZED FREE ENERGY PREDICTED BY IDOCK:   -5.03 KCAL/MOL
REMARK 922        TOTAL FREE ENERGY PREDICTED BY IDOCK:   -7.28 KCAL/MOL
REMARK 923 INTER-LIGAND FREE ENERGY PREDICTED BY IDOCK:   -6.21 KCAL/MOL
REMARK 924 INTRA-LIGAND FREE ENERGY PREDICTED BY IDOCK:   -1.07 KCAL/MOL
REMARK 927      BINDING AFFINITY PREDICTED BY RF-SCORE:    0.00 PKD
ROOT
HETATM    1  C   UNL     1     -11.119  15.364  66.942  1.00  0.00    -0.256 C  
HETATM    2  N   UNL     1     -11.797  14.216  67.523  1.00  0.00    -0.387 NA 
HETATM    3  C   UNL     1     -12.511  13.386  66.557  1.00  0.00    -0.195 C  
HETATM    4  C   UNL     1     -11.691  12.283  65.872  1.00  0.00    -0.451 C  
HETATM    5  C   UNL     1     -10.814  11.472  66.836  1.00  0.00    -0.284 C  
HETATM    6  C   UNL     1     -10.921  13.431  68.400  1.00  0.00    -0.267 C  
HETATM    7  C   UNL     1      -9.984  12.479  67.642  1.00  0.00    -0.201 C  
ENDROOT
BRANCH   5   8
HETATM    8  O   UNL     1     -11.423  10.642  67.821  1.00  0.00    -0.460 OA 
BRANCH   8   9
HETATM    9  C   UNL     1     -10.667  10.041  68.867  1.00  0.00    -0.219 C  
BRANCH   9  10
HETATM   10  C   UNL     1      -9.953   8.861  68.193  1.00  0.00    -0.208 A  
HETATM   11  C   UNL     1     -10.653   7.942  67.387  1.00  0.00    -0.342 A  
HETATM   12  C   UNL     1      -8.556   8.738  68.263  1.00  0.00    -0.134 A  
HETATM   13  C   UNL     1      -9.983   6.957  66.657  1.00  0.00    -0.211 A  
HETATM   14  C   UNL     1      -7.884   7.758  67.521  1.00  0.00    -0.122 A  
HETATM   15  C   UNL     1      -8.596   6.876  66.713  1.00  0.00    -0.120 A  
ENDBRANCH   9  10
BRANCH   9  16
HETATM   16  C   UNL     1     -11.499   9.676  70.091  1.00  0.00    -0.238 A  
HETATM   17  C   UNL     1     -11.979   8.280  72.039  1.00  0.00    -0.405 A  
HETATM   18  C   UNL     1     -11.253   8.531  70.869  1.00  0.00    -0.304 A  
HETATM   19  C   UNL     1     -13.279  10.266  71.659  1.00  0.00    -0.509 A  
HETATM   20  C   UNL     1     -12.543  10.524  70.498  1.00  0.00    -0.423 A  
HETATM   21  C   UNL     1     -12.986   9.152  72.440  1.00  0.00    -0.468 A  
ENDBRANCH   9  16
ENDBRANCH   8   9
ENDBRANCH   5   8
TORSDOF 4
ENDMDL
MODEL       59
REMARK 921   NORMALIZED FREE ENERGY PREDICTED BY IDOCK:   -5.02 KCAL/MOL
REMARK 922        TOTAL FREE ENERGY PREDICTED BY IDOCK:   -7.27 KCAL/MOL
REMARK 923 INTER-LIGAND FREE ENERGY PREDICTED BY IDOCK:   -6.21 KCAL/MOL
REMARK 924 INTRA-LIGAND FREE ENERGY PREDICTED BY IDOCK:   -1.06 KCAL/MOL
REMARK 927      BINDING AFFINITY PREDICTED BY RF-SCORE:    0.00 PKD
ROOT
HETATM    1  C   UNL     1      -7.848   6.622  67.074  1.00  0.00    -0.108 C  
HETATM    2  N   UNL     1      -8.008   8.005  67.493  1.00  0.00    -0.121 NA 
HETATM    3  C   UNL     1      -7.806   8.984  66.428  1.00  0.00    -0.099 C  
HETATM    4  C   UNL     1      -9.038   9.325  65.577  1.00  0.00    -0.275 C  
HETATM    5  C   UNL     1     -10.310   9.577  66.399  1.00  0.00    -0.173 C  
HETATM    6  C   UNL     1      -9.255   8.227  68.232  1.00  0.00    -0.134 C  
HETATM    7  C   UNL     1     -10.489   8.371  67.329  1.00  0.00    -0.373 C  
ENDROOT
BRANCH   5   8
HETATM    8  O   UNL     1     -10.383  10.708  67.263  1.00  0.00    -0.198 OA 
BRANCH   8   9
HETATM    9  C   UNL     1     -11.581  11.462  67.411  1.00  0.00    -0.184 C  
BRANCH   9  10
HETATM   10  C   UNL     1     -11.336  12.736  66.591  1.00  0.00    -0.364 A  
HETATM   11  C   UNL     1     -10.105  13.418  66.644  1.00  0.00    -0.275 A  
HETATM   12  C   UNL     1     -12.295  13.186  65.669  1.00  0.00    -0.519 A  
HETATM   13  C   UNL     1      -9.830  14.490  65.790  1.00  0.00    -0.343 A  
HETATM   14  C   UNL     1     -12.013  14.252  64.804  1.00  0.00    -0.449 A  
HETATM   15  C   UNL     1     -10.780  14.896  64.859  1.00  0.00    -0.426 A  
ENDBRANCH   9  10
BRANCH   9  16
HETATM   16  C   UNL     1     -11.979  11.698  68.864  1.00  0.00    -0.355 A  
HETATM   17  C   UNL     1     -12.549  10.904  71.105  1.00  0.00    -0.532 A  
HETATM   18  C   UNL     1     -12.280  10.652  69.754  1.00  0.00    -0.318 A  
HETATM   19  C   UNL     1     -12.305  13.263  70.713  1.00  0.00    -0.425 A  
HETATM   20  C   UNL     1     -12.021  13.009  69.367  1.00  0.00    -0.338 A  
HETATM   21  C   UNL     1     -12.553  12.209  71.588  1.00  0.00    -0.204 A  
ENDBRANCH   9  16
ENDBRANCH   8   9
ENDBRANCH   5   8
TORSDOF 4
ENDMDL
MODEL       60
REMARK 921   NORMALIZED FREE ENERGY PREDICTED BY IDOCK:   -5.00 KCAL/MOL
REMARK 922        TOTAL FREE ENERGY PREDICTED BY IDOCK:   -7.24 KCAL/MOL
REMARK 923 INTER-LIGAND FREE ENERGY PREDICTED BY IDOCK:   -6.27 KCAL/MOL
REMARK 924 INTRA-LIGAND FREE ENERGY PREDICTED BY IDOCK:   -0.97 KCAL/MOL
REMARK 927      BINDING AFFINITY PREDICTED BY RF-SCORE:    0.00 PKD
ROOT
HETATM    1  C   UNL     1     -13.150  11.808  63.969  1.00  0.00     0.204 C  
HETATM    2  N   UNL     1     -12.494  12.408  65.120  1.00  0.00    -0.601 NA 
HETATM    3  C   UNL     1     -11.054  12.167  65.185  1.00  0.00    -0.322 C  
HETATM    4  C   UNL     1     -10.164  13.163  64.428  1.00  0.00    -0.319 C  
HETATM    5  C   UNL     1     -10.544  14.634  64.657  1.00  0.00    -0.240 C  
HETATM    6  C   UNL     1     -12.835  13.824  65.286  1.00  0.00    -0.384 C  
HETATM    7  C   UNL     1     -12.043  14.761  64.361  1.00  0.00    -0.457 C  
ENDROOT
BRANCH   5   8
HETATM    8  O   UNL     1     -10.386  15.213  65.950  1.00  0.00    -0.288 OA 
BRANCH   8   9
HETATM    9  C   UNL     1      -9.299  16.081  66.254  1.00  0.00    -0.322 C  
BRANCH   9  10
HETATM   10  C   UNL     1      -8.328  15.209  67.062  1.00  0.00    -0.263 A  
HETATM   11  C   UNL     1      -7.009  15.627  67.326  1.00  0.00    -0.224 A  
HETATM   12  C   UNL     1      -8.771  14.021  67.666  1.00  0.00    -0.189 A  
HETATM   13  C   UNL     1      -6.174  14.905  68.182  1.00  0.00    -0.144 A  
HETATM   14  C   UNL     1      -7.937  13.304  68.535  1.00  0.00    -0.097 A  
HETATM   15  C   UNL     1      -6.645  13.750  68.799  1.00  0.00    -0.100 A  
ENDBRANCH   9  10
BRANCH   9  16
HETATM   16  C   UNL     1      -9.724  17.375  66.938  1.00  0.00    -0.286 A  
HETATM   17  C   UNL     1      -9.742  18.907  68.844  1.00  0.00    -0.420 A  
HETATM   18  C   UNL     1      -9.416  17.668  68.278  1.00  0.00    -0.295 A  
HETATM   19  C   UNL     1     -10.766  19.580  66.776  1.00  0.00    -0.569 A  
HETATM   20  C   UNL     1     -10.427  18.348  66.208  1.00  0.00    -0.421 A  
HETATM   21  C   UNL     1     -10.409  19.867  68.090  1.00  0.00    -0.533 A  
ENDBRANCH   9  16
ENDBRANCH   8   9
ENDBRANCH   5   8
TORSDOF 4
ENDMDL
MODEL       61
REMARK 921   NORMALIZED FREE ENERGY PREDICTED BY IDOCK:   -4.99 KCAL/MOL
REMARK 922        TOTAL FREE ENERGY PREDICTED BY IDOCK:   -7.23 KCAL/MOL
REMARK 923 INTER-LIGAND FREE ENERGY PREDICTED BY IDOCK:   -6.73 KCAL/MOL
REMARK 924 INTRA-LIGAND FREE ENERGY PREDICTED BY IDOCK:   -0.50 KCAL/MOL
REMARK 927      BINDING AFFINITY PREDICTED BY RF-SCORE:    0.00 PKD
ROOT
HETATM    1  C   UNL     1     -11.776   7.581  70.917  1.00  0.00    -0.283 C  
HETATM    2  N   UNL     1     -10.898   8.740  70.875  1.00  0.00    -0.226 NA 
HETATM    3  C   UNL     1      -9.953   8.738  69.761  1.00  0.00    -0.190 C  
HETATM    4  C   UNL     1     -10.457   9.341  68.442  1.00  0.00    -0.246 C  
HETATM    5  C   UNL     1     -11.192  10.679  68.611  1.00  0.00    -0.278 C  
HETATM    6  C   UNL     1     -11.631  10.005  70.988  1.00  0.00    -0.393 C  
HETATM    7  C   UNL     1     -12.278  10.462  69.673  1.00  0.00    -0.118 C  
ENDROOT
BRANCH   5   8
HETATM    8  O   UNL     1     -10.478  11.828  69.061  1.00  0.00    -0.188 OA 
BRANCH   8   9
HETATM    9  C   UNL     1     -10.475  13.045  68.322  1.00  0.00    -0.250 C  
BRANCH   9  10
HETATM   10  C   UNL     1     -11.186  14.050  69.238  1.00  0.00    -0.304 A  
HETATM   11  C   UNL     1     -12.267  13.665  70.054  1.00  0.00    -0.395 A  
HETATM   12  C   UNL     1     -10.695  15.359  69.377  1.00  0.00    -0.258 A  
HETATM   13  C   UNL     1     -12.818  14.540  70.994  1.00  0.00    -0.418 A  
HETATM   14  C   UNL     1     -11.240  16.232  70.328  1.00  0.00    -0.343 A  
HETATM   15  C   UNL     1     -12.293  15.820  71.140  1.00  0.00    -0.480 A  
ENDBRANCH   9  10
BRANCH   9  16
HETATM   16  C   UNL     1     -11.073  12.912  66.925  1.00  0.00    -0.312 A  
HETATM   17  C   UNL     1     -11.167  11.896  64.703  1.00  0.00    -0.364 A  
HETATM   18  C   UNL     1     -10.536  12.061  65.943  1.00  0.00    -0.302 A  
HETATM   19  C   UNL     1     -12.852  13.485  65.350  1.00  0.00    -0.420 A  
HETATM   20  C   UNL     1     -12.229  13.637  66.593  1.00  0.00    -0.437 A  
HETATM   21  C   UNL     1     -12.330  12.601  64.409  1.00  0.00    -0.523 A  
ENDBRANCH   9  16
ENDBRANCH   8   9
ENDBRANCH   5   8
TORSDOF 4
ENDMDL
MODEL       62
REMARK 921   NORMALIZED FREE ENERGY PREDICTED BY IDOCK:   -4.98 KCAL/MOL
REMARK 922        TOTAL FREE ENERGY PREDICTED BY IDOCK:   -7.22 KCAL/MOL
REMARK 923 INTER-LIGAND FREE ENERGY PREDICTED BY IDOCK:   -6.30 KCAL/MOL
REMARK 924 INTRA-LIGAND FREE ENERGY PREDICTED BY IDOCK:   -0.92 KCAL/MOL
REMARK 927      BINDING AFFINITY PREDICTED BY RF-SCORE:    0.00 PKD
ROOT
HETATM    1  C   UNL     1      -5.779  13.287  70.440  1.00  0.00    -0.171 C  
HETATM    2  N   UNL     1      -5.821  14.299  69.398  1.00  0.00    -0.092 NA 
HETATM    3  C   UNL     1      -5.688  13.772  68.041  1.00  0.00    -0.132 C  
HETATM    4  C   UNL     1      -6.988  13.322  67.358  1.00  0.00    -0.105 C  
HETATM    5  C   UNL     1      -8.148  14.316  67.511  1.00  0.00    -0.187 C  
HETATM    6  C   UNL     1      -6.967  15.204  69.540  1.00  0.00    -0.189 C  
HETATM    7  C   UNL     1      -8.283  14.619  69.008  1.00  0.00    -0.110 C  
ENDROOT
BRANCH   5   8
HETATM    8  O   UNL     1      -8.068  15.599  66.894  1.00  0.00    -0.218 OA 
BRANCH   8   9
HETATM    9  C   UNL     1      -9.116  16.101  66.072  1.00  0.00    -0.318 C  
BRANCH   9  10
HETATM   10  C   UNL     1      -9.472  17.459  66.693  1.00  0.00    -0.285 A  
HETATM   11  C   UNL     1     -10.366  18.344  66.060  1.00  0.00    -0.397 A  
HETATM   12  C   UNL     1      -9.008  17.801  67.973  1.00  0.00    -0.263 A  
HETATM   13  C   UNL     1     -10.803  19.511  66.692  1.00  0.00    -0.476 A  
HETATM   14  C   UNL     1      -9.457  18.965  68.611  1.00  0.00    -0.427 A  
HETATM   15  C   UNL     1     -10.359  19.813  67.976  1.00  0.00    -0.567 A  
ENDBRANCH   9  10
BRANCH   9  16
HETATM   16  C   UNL     1     -10.287  15.136  65.918  1.00  0.00    -0.344 A  
HETATM   17  C   UNL     1     -12.350  14.098  66.719  1.00  0.00    -0.333 A  
HETATM   18  C   UNL     1     -11.237  14.920  66.932  1.00  0.00    -0.343 A  
HETATM   19  C   UNL     1     -11.567  13.613  64.499  1.00  0.00    -0.415 A  
HETATM   20  C   UNL     1     -10.463  14.446  64.708  1.00  0.00    -0.394 A  
HETATM   21  C   UNL     1     -12.521  13.451  65.500  1.00  0.00    -0.534 A  
ENDBRANCH   9  16
ENDBRANCH   8   9
ENDBRANCH   5   8
TORSDOF 4
ENDMDL
MODEL       63
REMARK 921   NORMALIZED FREE ENERGY PREDICTED BY IDOCK:   -4.96 KCAL/MOL
REMARK 922        TOTAL FREE ENERGY PREDICTED BY IDOCK:   -7.19 KCAL/MOL
REMARK 923 INTER-LIGAND FREE ENERGY PREDICTED BY IDOCK:   -5.95 KCAL/MOL
REMARK 924 INTRA-LIGAND FREE ENERGY PREDICTED BY IDOCK:   -1.24 KCAL/MOL
REMARK 927      BINDING AFFINITY PREDICTED BY RF-SCORE:    0.00 PKD
ROOT
HETATM    1  C   UNL     1     -11.308  15.886  64.297  1.00  0.00    -0.171 C  
HETATM    2  N   UNL     1     -10.636  14.842  65.054  1.00  0.00    -0.414 NA 
HETATM    3  C   UNL     1     -10.645  15.046  66.501  1.00  0.00    -0.305 C  
HETATM    4  C   UNL     1     -11.869  14.507  67.254  1.00  0.00    -0.419 C  
HETATM    5  C   UNL     1     -12.277  13.085  66.840  1.00  0.00    -0.168 C  
HETATM    6  C   UNL     1     -11.080  13.497  64.673  1.00  0.00    -0.374 C  
HETATM    7  C   UNL     1     -12.414  13.085  65.313  1.00  0.00    -0.555 C  
ENDROOT
BRANCH   5   8
HETATM    8  O   UNL     1     -11.409  11.989  67.120  1.00  0.00    -0.294 OA 
BRANCH   8   9
HETATM    9  C   UNL     1     -10.605  11.951  68.294  1.00  0.00    -0.213 C  
BRANCH   9  10
HETATM   10  C   UNL     1      -9.233  11.470  67.803  1.00  0.00    -0.165 A  
HETATM   11  C   UNL     1      -9.057  10.947  66.507  1.00  0.00    -0.183 A  
HETATM   12  C   UNL     1      -8.088  11.653  68.595  1.00  0.00    -0.121 A  
HETATM   13  C   UNL     1      -7.787  10.647  66.009  1.00  0.00    -0.156 A  
HETATM   14  C   UNL     1      -6.813  11.363  68.091  1.00  0.00    -0.064 A  
HETATM   15  C   UNL     1      -6.663  10.870  66.798  1.00  0.00    -0.120 A  
ENDBRANCH   9  10
BRANCH   9  16
HETATM   16  C   UNL     1     -11.212  11.124  69.423  1.00  0.00    -0.334 A  
HETATM   17  C   UNL     1     -12.681  10.859  71.358  1.00  0.00    -0.539 A  
HETATM   18  C   UNL     1     -12.070  11.669  70.393  1.00  0.00    -0.462 A  
HETATM   19  C   UNL     1     -11.539   8.940  70.469  1.00  0.00    -0.189 A  
HETATM   20  C   UNL     1     -10.941   9.748  69.497  1.00  0.00    -0.256 A  
HETATM   21  C   UNL     1     -12.423   9.492  71.391  1.00  0.00    -0.450 A  
ENDBRANCH   9  16
ENDBRANCH   8   9
ENDBRANCH   5   8
TORSDOF 4
ENDMDL
MODEL       64
REMARK 921   NORMALIZED FREE ENERGY PREDICTED BY IDOCK:   -4.95 KCAL/MOL
REMARK 922        TOTAL FREE ENERGY PREDICTED BY IDOCK:   -7.18 KCAL/MOL
REMARK 923 INTER-LIGAND FREE ENERGY PREDICTED BY IDOCK:   -6.07 KCAL/MOL
REMARK 924 INTRA-LIGAND FREE ENERGY PREDICTED BY IDOCK:   -1.11 KCAL/MOL
REMARK 927      BINDING AFFINITY PREDICTED BY RF-SCORE:    0.00 PKD
ROOT
HETATM    1  C   UNL     1      -8.183   5.299  66.083  1.00  0.00    -0.110 C  
HETATM    2  N   UNL     1      -8.461   5.443  67.503  1.00  0.00    -0.106 NA 
HETATM    3  C   UNL     1      -8.067   6.732  68.066  1.00  0.00    -0.114 C  
HETATM    4  C   UNL     1      -9.104   7.860  67.969  1.00  0.00    -0.132 C  
HETATM    5  C   UNL     1     -10.525   7.434  68.366  1.00  0.00    -0.185 C  
HETATM    6  C   UNL     1      -9.839   5.077  67.846  1.00  0.00    -0.151 C  
HETATM    7  C   UNL     1     -10.862   6.183  67.547  1.00  0.00    -0.422 C  
ENDROOT
BRANCH   5   8
HETATM    8  O   UNL     1     -10.803   7.064  69.714  1.00  0.00    -0.232 OA 
BRANCH   8   9
HETATM    9  C   UNL     1     -10.468   7.911  70.808  1.00  0.00    -0.210 C  
BRANCH   9  10
HETATM   10  C   UNL     1     -10.392   6.966  72.015  1.00  0.00    -0.220 A  
HETATM   11  C   UNL     1      -9.732   7.341  73.201  1.00  0.00    -0.254 A  
HETATM   12  C   UNL     1     -11.087   5.746  72.010  1.00  0.00    -0.318 A  
HETATM   13  C   UNL     1      -9.787   6.544  74.348  1.00  0.00    -0.355 A  
HETATM   14  C   UNL     1     -11.153   4.953  73.163  1.00  0.00    -0.396 A  
HETATM   15  C   UNL     1     -10.512   5.356  74.332  1.00  0.00    -0.255 A  
ENDBRANCH   9  10
BRANCH   9  16
HETATM   16  C   UNL     1     -11.416   9.095  70.976  1.00  0.00    -0.372 A  
HETATM   17  C   UNL     1     -13.331  10.197  72.021  1.00  0.00    -0.492 A  
HETATM   18  C   UNL     1     -12.538   9.060  71.821  1.00  0.00    -0.434 A  
HETATM   19  C   UNL     1     -11.956  11.426  70.478  1.00  0.00    -0.451 A  
HETATM   20  C   UNL     1     -11.157  10.293  70.291  1.00  0.00    -0.388 A  
HETATM   21  C   UNL     1     -13.035  11.383  71.357  1.00  0.00    -0.468 A  
ENDBRANCH   9  16
ENDBRANCH   8   9
ENDBRANCH   5   8
TORSDOF 4
ENDMDL
MODEL       65
REMARK 921   NORMALIZED FREE ENERGY PREDICTED BY IDOCK:   -4.95 KCAL/MOL
REMARK 922        TOTAL FREE ENERGY PREDICTED BY IDOCK:   -7.18 KCAL/MOL
REMARK 923 INTER-LIGAND FREE ENERGY PREDICTED BY IDOCK:   -5.97 KCAL/MOL
REMARK 924 INTRA-LIGAND FREE ENERGY PREDICTED BY IDOCK:   -1.21 KCAL/MOL
REMARK 927      BINDING AFFINITY PREDICTED BY RF-SCORE:    0.00 PKD
ROOT
HETATM    1  C   UNL     1      -8.502   5.585  68.312  1.00  0.00    -0.097 C  
HETATM    2  N   UNL     1      -9.380   6.624  68.824  1.00  0.00    -0.132 NA 
HETATM    3  C   UNL     1      -8.683   7.789  69.364  1.00  0.00    -0.135 C  
HETATM    4  C   UNL     1      -8.321   8.891  68.357  1.00  0.00    -0.125 C  
HETATM    5  C   UNL     1      -9.465   9.258  67.400  1.00  0.00    -0.132 C  
HETATM    6  C   UNL     1     -10.432   6.991  67.870  1.00  0.00    -0.214 C  
HETATM    7  C   UNL     1      -9.958   7.951  66.769  1.00  0.00    -0.333 C  
ENDROOT
BRANCH   5   8
HETATM    8  O   UNL     1     -10.644   9.876  67.910  1.00  0.00    -0.220 OA 
BRANCH   8   9
HETATM    9  C   UNL     1     -10.588  11.044  68.721  1.00  0.00    -0.202 C  
BRANCH   9  10
HETATM   10  C   UNL     1     -11.551  10.753  69.879  1.00  0.00    -0.410 A  
HETATM   11  C   UNL     1     -11.599   9.488  70.496  1.00  0.00    -0.316 A  
HETATM   12  C   UNL     1     -12.325  11.783  70.438  1.00  0.00    -0.362 A  
HETATM   13  C   UNL     1     -12.367   9.265  71.642  1.00  0.00    -0.450 A  
HETATM   14  C   UNL     1     -13.085  11.562  71.595  1.00  0.00    -0.478 A  
HETATM   15  C   UNL     1     -13.098  10.309  72.200  1.00  0.00    -0.444 A  
ENDBRANCH   9  10
BRANCH   9  16
HETATM   16  C   UNL     1     -10.871  12.333  67.956  1.00  0.00    -0.253 A  
HETATM   17  C   UNL     1     -10.413  14.674  67.422  1.00  0.00    -0.255 A  
HETATM   18  C   UNL     1     -10.191  13.537  68.208  1.00  0.00    -0.250 A  
HETATM   19  C   UNL     1     -12.061  13.472  66.150  1.00  0.00    -0.482 A  
HETATM   20  C   UNL     1     -11.827  12.332  66.926  1.00  0.00    -0.334 A  
HETATM   21  C   UNL     1     -11.342  14.639  66.386  1.00  0.00    -0.348 A  
ENDBRANCH   9  16
ENDBRANCH   8   9
ENDBRANCH   5   8
TORSDOF 4
ENDMDL
MODEL       66
REMARK 921   NORMALIZED FREE ENERGY PREDICTED BY IDOCK:   -4.94 KCAL/MOL
REMARK 922        TOTAL FREE ENERGY PREDICTED BY IDOCK:   -7.17 KCAL/MOL
REMARK 923 INTER-LIGAND FREE ENERGY PREDICTED BY IDOCK:   -6.04 KCAL/MOL
REMARK 924 INTRA-LIGAND FREE ENERGY PREDICTED BY IDOCK:   -1.14 KCAL/MOL
REMARK 927      BINDING AFFINITY PREDICTED BY RF-SCORE:    0.00 PKD
ROOT
HETATM    1  C   UNL     1     -12.929  15.817  73.767  1.00  0.00    -0.505 C  
HETATM    2  N   UNL     1     -12.327  14.870  72.842  1.00  0.00    -0.338 NA 
HETATM    3  C   UNL     1     -13.274  14.234  71.929  1.00  0.00    -0.375 C  
HETATM    4  C   UNL     1     -13.571  14.989  70.626  1.00  0.00    -0.132 C  
HETATM    5  C   UNL     1     -12.318  15.528  69.920  1.00  0.00    -0.277 C  
HETATM    6  C   UNL     1     -11.163  15.428  72.146  1.00  0.00    -0.230 C  
HETATM    7  C   UNL     1     -11.530  16.333  70.961  1.00  0.00    -0.343 C  
ENDROOT
BRANCH   5   8
HETATM    8  O   UNL     1     -11.365  14.619  69.376  1.00  0.00    -0.257 OA 
BRANCH   8   9
HETATM    9  C   UNL     1     -10.374  15.041  68.445  1.00  0.00    -0.231 C  
BRANCH   9  10
HETATM   10  C   UNL     1     -10.965  14.692  67.072  1.00  0.00    -0.317 A  
HETATM   11  C   UNL     1     -11.990  13.735  66.935  1.00  0.00    -0.460 A  
HETATM   12  C   UNL     1     -10.584  15.411  65.928  1.00  0.00    -0.349 A  
HETATM   13  C   UNL     1     -12.628  13.523  65.710  1.00  0.00    -0.490 A  
HETATM   14  C   UNL     1     -11.233  15.207  64.703  1.00  0.00    -0.352 A  
HETATM   15  C   UNL     1     -12.259  14.272  64.597  1.00  0.00    -0.470 A  
ENDBRANCH   9  10
BRANCH   9  16
HETATM   16  C   UNL     1      -8.992  14.458  68.718  1.00  0.00    -0.131 A  
HETATM   17  C   UNL     1      -7.293  12.719  68.468  1.00  0.00    -0.115 A  
HETATM   18  C   UNL     1      -8.601  13.182  68.279  1.00  0.00    -0.166 A  
HETATM   19  C   UNL     1      -6.737  14.759  69.611  1.00  0.00    -0.166 A  
HETATM   20  C   UNL     1      -8.040  15.226  69.409  1.00  0.00    -0.230 A  
HETATM   21  C   UNL     1      -6.357  13.511  69.126  1.00  0.00    -0.101 A  
ENDBRANCH   9  16
ENDBRANCH   8   9
ENDBRANCH   5   8
TORSDOF 4
ENDMDL
MODEL       67
REMARK 921   NORMALIZED FREE ENERGY PREDICTED BY IDOCK:   -4.87 KCAL/MOL
REMARK 922        TOTAL FREE ENERGY PREDICTED BY IDOCK:   -7.09 KCAL/MOL
REMARK 923 INTER-LIGAND FREE ENERGY PREDICTED BY IDOCK:   -5.95 KCAL/MOL
REMARK 924 INTRA-LIGAND FREE ENERGY PREDICTED BY IDOCK:   -1.14 KCAL/MOL
REMARK 927      BINDING AFFINITY PREDICTED BY RF-SCORE:    0.00 PKD
ROOT
HETATM    1  C   UNL     1     -11.003  13.180  66.106  1.00  0.00    -0.283 C  
HETATM    2  N   UNL     1     -10.240  12.728  67.258  1.00  0.00    -0.231 NA 
HETATM    3  C   UNL     1     -10.793  13.141  68.546  1.00  0.00    -0.262 C  
HETATM    4  C   UNL     1     -11.855  12.216  69.157  1.00  0.00    -0.361 C  
HETATM    5  C   UNL     1     -11.486  10.727  69.106  1.00  0.00    -0.298 C  
HETATM    6  C   UNL     1      -9.945  11.293  67.208  1.00  0.00    -0.183 C  
HETATM    7  C   UNL     1     -11.118  10.406  67.652  1.00  0.00    -0.361 C  
ENDROOT
BRANCH   5   8
HETATM    8  O   UNL     1     -10.382  10.244  69.868  1.00  0.00    -0.255 OA 
BRANCH   8   9
HETATM    9  C   UNL     1     -10.555   9.694  71.170  1.00  0.00    -0.257 C  
BRANCH   9  10
HETATM   10  C   UNL     1      -9.297   8.843  71.395  1.00  0.00    -0.338 A  
HETATM   11  C   UNL     1      -9.009   8.275  72.651  1.00  0.00    -0.316 A  
HETATM   12  C   UNL     1      -8.463   8.505  70.317  1.00  0.00    -0.128 A  
HETATM   13  C   UNL     1      -7.948   7.382  72.820  1.00  0.00    -0.118 A  
HETATM   14  C   UNL     1      -7.406   7.600  70.484  1.00  0.00    -0.074 A  
HETATM   15  C   UNL     1      -7.155   7.033  71.731  1.00  0.00    -0.070 A  
ENDBRANCH   9  10
BRANCH   9  16
HETATM   16  C   UNL     1     -11.875   8.952  71.349  1.00  0.00    -0.383 A  
HETATM   17  C   UNL     1     -13.262   6.944  71.206  1.00  0.00    -0.237 A  
HETATM   18  C   UNL     1     -12.065   7.621  70.939  1.00  0.00    -0.226 A  
HETATM   19  C   UNL     1     -14.154   8.927  72.232  1.00  0.00    -0.512 A  
HETATM   20  C   UNL     1     -12.953   9.597  71.979  1.00  0.00    -0.518 A  
HETATM   21  C   UNL     1     -14.304   7.594  71.861  1.00  0.00    -0.536 A  
ENDBRANCH   9  16
ENDBRANCH   8   9
ENDBRANCH   5   8
TORSDOF 4
ENDMDL
MODEL       68
REMARK 921   NORMALIZED FREE ENERGY PREDICTED BY IDOCK:   -4.87 KCAL/MOL
REMARK 922        TOTAL FREE ENERGY PREDICTED BY IDOCK:   -7.08 KCAL/MOL
REMARK 923 INTER-LIGAND FREE ENERGY PREDICTED BY IDOCK:   -6.02 KCAL/MOL
REMARK 924 INTRA-LIGAND FREE ENERGY PREDICTED BY IDOCK:   -1.06 KCAL/MOL
REMARK 927      BINDING AFFINITY PREDICTED BY RF-SCORE:    0.00 PKD
ROOT
HETATM    1  C   UNL     1     -14.002  14.279  71.761  1.00  0.00    -0.442 C  
HETATM    2  N   UNL     1     -12.567  14.152  71.560  1.00  0.00    -0.344 NA 
HETATM    3  C   UNL     1     -12.171  12.988  70.771  1.00  0.00    -0.272 C  
HETATM    4  C   UNL     1     -12.150  13.175  69.247  1.00  0.00    -0.270 C  
HETATM    5  C   UNL     1     -11.474  14.476  68.790  1.00  0.00    -0.294 C  
HETATM    6  C   UNL     1     -11.955  15.394  71.075  1.00  0.00    -0.359 C  
HETATM    7  C   UNL     1     -12.134  15.621  69.567  1.00  0.00    -0.307 C  
ENDROOT
BRANCH   5   8
HETATM    8  O   UNL     1     -10.076  14.661  69.002  1.00  0.00    -0.229 OA 
BRANCH   8   9
HETATM    9  C   UNL     1      -9.123  14.400  67.978  1.00  0.00    -0.188 C  
BRANCH   9  10
HETATM   10  C   UNL     1      -8.259  15.668  67.928  1.00  0.00    -0.155 A  
HETATM   11  C   UNL     1      -8.649  16.850  68.587  1.00  0.00    -0.267 A  
HETATM   12  C   UNL     1      -6.991  15.643  67.324  1.00  0.00    -0.224 A  
HETATM   13  C   UNL     1      -7.797  17.955  68.665  1.00  0.00    -0.294 A  
HETATM   14  C   UNL     1      -6.133  16.747  67.413  1.00  0.00    -0.189 A  
HETATM   15  C   UNL     1      -6.532  17.896  68.091  1.00  0.00    -0.189 A  
ENDBRANCH   9  10
BRANCH   9  16
HETATM   16  C   UNL     1      -9.750  13.996  66.648  1.00  0.00    -0.296 A  
HETATM   17  C   UNL     1     -10.531  12.320  65.048  1.00  0.00    -0.322 A  
HETATM   18  C   UNL     1      -9.865  12.658  66.233  1.00  0.00    -0.266 A  
HETATM   19  C   UNL     1     -10.925  14.650  64.607  1.00  0.00    -0.340 A  
HETATM   20  C   UNL     1     -10.272  14.985  65.798  1.00  0.00    -0.361 A  
HETATM   21  C   UNL     1     -11.069  13.316  64.239  1.00  0.00    -0.414 A  
ENDBRANCH   9  16
ENDBRANCH   8   9
ENDBRANCH   5   8
TORSDOF 4
ENDMDL
MODEL       69
REMARK 921   NORMALIZED FREE ENERGY PREDICTED BY IDOCK:   -4.86 KCAL/MOL
REMARK 922        TOTAL FREE ENERGY PREDICTED BY IDOCK:   -7.07 KCAL/MOL
REMARK 923 INTER-LIGAND FREE ENERGY PREDICTED BY IDOCK:   -5.84 KCAL/MOL
REMARK 924 INTRA-LIGAND FREE ENERGY PREDICTED BY IDOCK:   -1.22 KCAL/MOL
REMARK 927      BINDING AFFINITY PREDICTED BY RF-SCORE:    0.00 PKD
ROOT
HETATM    1  C   UNL     1      -8.114   5.831  65.734  1.00  0.00    -0.116 C  
HETATM    2  N   UNL     1      -8.401   6.605  66.931  1.00  0.00    -0.113 NA 
HETATM    3  C   UNL     1      -9.563   7.484  66.816  1.00  0.00    -0.206 C  
HETATM    4  C   UNL     1     -10.924   6.858  67.154  1.00  0.00    -0.427 C  
HETATM    5  C   UNL     1     -10.921   6.023  68.443  1.00  0.00    -0.251 C  
HETATM    6  C   UNL     1      -8.442   5.776  68.140  1.00  0.00    -0.109 C  
HETATM    7  C   UNL     1      -9.766   5.020  68.325  1.00  0.00    -0.200 C  
ENDROOT
BRANCH   5   8
HETATM    8  O   UNL     1     -10.711   6.662  69.700  1.00  0.00    -0.222 OA 
BRANCH   8   9
HETATM    9  C   UNL     1     -11.439   6.283  70.863  1.00  0.00    -0.312 C  
BRANCH   9  10
HETATM   10  C   UNL     1     -12.284   7.517  71.205  1.00  0.00    -0.330 A  
HETATM   11  C   UNL     1     -13.657   7.409  71.503  1.00  0.00    -0.454 A  
HETATM   12  C   UNL     1     -11.681   8.777  71.350  1.00  0.00    -0.369 A  
HETATM   13  C   UNL     1     -14.392   8.507  71.955  1.00  0.00    -0.537 A  
HETATM   14  C   UNL     1     -12.416   9.875  71.817  1.00  0.00    -0.487 A  
HETATM   15  C   UNL     1     -13.766   9.738  72.127  1.00  0.00    -0.350 A  
ENDBRANCH   9  10
BRANCH   9  16
HETATM   16  C   UNL     1     -10.555   5.774  71.997  1.00  0.00    -0.276 A  
HETATM   17  C   UNL     1      -8.387   5.505  73.093  1.00  0.00    -0.118 A  
HETATM   18  C   UNL     1      -9.156   5.901  71.991  1.00  0.00    -0.147 A  
HETATM   19  C   UNL     1     -10.379   4.767  74.218  1.00  0.00    -0.317 A  
HETATM   20  C   UNL     1     -11.147   5.176  73.123  1.00  0.00    -0.391 A  
HETATM   21  C   UNL     1      -8.999   4.947  74.211  1.00  0.00    -0.112 A  
ENDBRANCH   9  16
ENDBRANCH   8   9
ENDBRANCH   5   8
TORSDOF 4
ENDMDL
MODEL       70
REMARK 921   NORMALIZED FREE ENERGY PREDICTED BY IDOCK:   -4.80 KCAL/MOL
REMARK 922        TOTAL FREE ENERGY PREDICTED BY IDOCK:   -7.00 KCAL/MOL
REMARK 923 INTER-LIGAND FREE ENERGY PREDICTED BY IDOCK:   -6.18 KCAL/MOL
REMARK 924 INTRA-LIGAND FREE ENERGY PREDICTED BY IDOCK:   -0.82 KCAL/MOL
REMARK 927      BINDING AFFINITY PREDICTED BY RF-SCORE:    0.00 PKD
ROOT
HETATM    1  C   UNL     1     -12.971  13.876  72.796  1.00  0.00    -0.316 C  
HETATM    2  N   UNL     1     -13.318  14.396  71.483  1.00  0.00    -0.339 NA 
HETATM    3  C   UNL     1     -12.877  15.768  71.243  1.00  0.00    -0.426 C  
HETATM    4  C   UNL     1     -11.452  15.936  70.695  1.00  0.00    -0.426 C  
HETATM    5  C   UNL     1     -11.113  14.979  69.543  1.00  0.00    -0.277 C  
HETATM    6  C   UNL     1     -12.938  13.485  70.399  1.00  0.00     0.112 C  
HETATM    7  C   UNL     1     -11.451  13.563  70.023  1.00  0.00    -0.141 C  
ENDROOT
BRANCH   5   8
HETATM    8  O   UNL     1     -11.790  15.104  68.295  1.00  0.00    -0.331 OA 
BRANCH   8   9
HETATM    9  C   UNL     1     -11.119  15.544  67.119  1.00  0.00    -0.256 C  
BRANCH   9  10
HETATM   10  C   UNL     1     -11.265  14.375  66.135  1.00  0.00    -0.336 A  
HETATM   11  C   UNL     1     -11.154  13.037  66.561  1.00  0.00    -0.315 A  
HETATM   12  C   UNL     1     -11.638  14.609  64.801  1.00  0.00    -0.418 A  
HETATM   13  C   UNL     1     -11.432  11.974  65.698  1.00  0.00    -0.372 A  
HETATM   14  C   UNL     1     -11.929  13.542  63.940  1.00  0.00    -0.491 A  
HETATM   15  C   UNL     1     -11.835  12.228  64.391  1.00  0.00    -0.464 A  
ENDBRANCH   9  10
BRANCH   9  16
HETATM   16  C   UNL     1      -9.685  16.000  67.368  1.00  0.00    -0.232 A  
HETATM   17  C   UNL     1      -8.042  17.626  68.163  1.00  0.00    -0.252 A  
HETATM   18  C   UNL     1      -9.364  17.277  67.858  1.00  0.00    -0.258 A  
HETATM   19  C   UNL     1      -7.301  15.461  67.427  1.00  0.00    -0.244 A  
HETATM   20  C   UNL     1      -8.624  15.109  67.136  1.00  0.00    -0.247 A  
HETATM   21  C   UNL     1      -7.011  16.715  67.956  1.00  0.00    -0.156 A  
ENDBRANCH   9  16
ENDBRANCH   8   9
ENDBRANCH   5   8
TORSDOF 4
ENDMDL
MODEL       71
REMARK 921   NORMALIZED FREE ENERGY PREDICTED BY IDOCK:   -4.79 KCAL/MOL
REMARK 922        TOTAL FREE ENERGY PREDICTED BY IDOCK:   -6.99 KCAL/MOL
REMARK 923 INTER-LIGAND FREE ENERGY PREDICTED BY IDOCK:   -5.85 KCAL/MOL
REMARK 924 INTRA-LIGAND FREE ENERGY PREDICTED BY IDOCK:   -1.14 KCAL/MOL
REMARK 927      BINDING AFFINITY PREDICTED BY RF-SCORE:    0.00 PKD
ROOT
HETATM    1  C   UNL     1     -11.000   6.968  73.089  1.00  0.00    -0.281 C  
HETATM    2  N   UNL     1     -11.391   7.271  71.721  1.00  0.00    -0.247 NA 
HETATM    3  C   UNL     1     -12.613   8.062  71.605  1.00  0.00    -0.322 C  
HETATM    4  C   UNL     1     -12.442   9.587  71.666  1.00  0.00    -0.476 C  
HETATM    5  C   UNL     1     -11.291  10.119  70.800  1.00  0.00    -0.354 C  
HETATM    6  C   UNL     1     -10.286   7.823  70.931  1.00  0.00    -0.199 C  
HETATM    7  C   UNL     1     -10.039   9.319  71.179  1.00  0.00    -0.374 C  
ENDROOT
BRANCH   5   8
HETATM    8  O   UNL     1     -11.366  10.013  69.380  1.00  0.00    -0.215 OA 
BRANCH   8   9
HETATM    9  C   UNL     1     -10.412  10.643  68.531  1.00  0.00    -0.191 C  
BRANCH   9  10
HETATM   10  C   UNL     1     -11.176  11.816  67.902  1.00  0.00    -0.331 A  
HETATM   11  C   UNL     1     -11.325  13.043  68.577  1.00  0.00    -0.323 A  
HETATM   12  C   UNL     1     -11.643  11.736  66.580  1.00  0.00    -0.256 A  
HETATM   13  C   UNL     1     -11.890  14.156  67.948  1.00  0.00    -0.405 A  
HETATM   14  C   UNL     1     -12.198  12.855  65.946  1.00  0.00    -0.469 A  
HETATM   15  C   UNL     1     -12.312  14.065  66.625  1.00  0.00    -0.408 A  
ENDBRANCH   9  10
BRANCH   9  16
HETATM   16  C   UNL     1      -9.759   9.691  67.535  1.00  0.00    -0.195 A  
HETATM   17  C   UNL     1      -9.764   7.678  66.148  1.00  0.00    -0.030 A  
HETATM   18  C   UNL     1     -10.350   8.480  67.136  1.00  0.00    -0.377 A  
HETATM   19  C   UNL     1      -7.934   9.227  65.977  1.00  0.00    -0.110 A  
HETATM   20  C   UNL     1      -8.528  10.035  66.953  1.00  0.00    -0.125 A  
HETATM   21  C   UNL     1      -8.560   8.056  65.562  1.00  0.00    -0.158 A  
ENDBRANCH   9  16
ENDBRANCH   8   9
ENDBRANCH   5   8
TORSDOF 4
ENDMDL
MODEL       72
REMARK 921   NORMALIZED FREE ENERGY PREDICTED BY IDOCK:   -4.77 KCAL/MOL
REMARK 922        TOTAL FREE ENERGY PREDICTED BY IDOCK:   -6.96 KCAL/MOL
REMARK 923 INTER-LIGAND FREE ENERGY PREDICTED BY IDOCK:   -6.03 KCAL/MOL
REMARK 924 INTRA-LIGAND FREE ENERGY PREDICTED BY IDOCK:   -0.94 KCAL/MOL
REMARK 927      BINDING AFFINITY PREDICTED BY RF-SCORE:    0.00 PKD
ROOT
HETATM    1  C   UNL     1      -7.189  17.865  68.365  1.00  0.00    -0.256 C  
HETATM    2  N   UNL     1      -7.491  16.747  67.485  1.00  0.00    -0.153 NA 
HETATM    3  C   UNL     1      -6.630  15.581  67.677  1.00  0.00    -0.169 C  
HETATM    4  C   UNL     1      -7.076  14.578  68.751  1.00  0.00    -0.112 C  
HETATM    5  C   UNL     1      -8.569  14.226  68.691  1.00  0.00    -0.149 C  
HETATM    6  C   UNL     1      -8.915  16.400  67.486  1.00  0.00    -0.192 C  
HETATM    7  C   UNL     1      -9.342  15.550  68.692  1.00  0.00    -0.201 C  
ENDROOT
BRANCH   5   8
HETATM    8  O   UNL     1      -9.085  13.513  67.569  1.00  0.00    -0.194 OA 
BRANCH   8   9
HETATM    9  C   UNL     1     -10.471  13.215  67.443  1.00  0.00    -0.242 C  
BRANCH   9  10
HETATM   10  C   UNL     1     -10.691  12.019  68.380  1.00  0.00    -0.255 A  
HETATM   11  C   UNL     1      -9.727  11.002  68.513  1.00  0.00    -0.189 A  
HETATM   12  C   UNL     1     -11.812  11.973  69.225  1.00  0.00    -0.377 A  
HETATM   13  C   UNL     1      -9.860   9.993  69.471  1.00  0.00    -0.249 A  
HETATM   14  C   UNL     1     -11.939  10.969  70.194  1.00  0.00    -0.443 A  
HETATM   15  C   UNL     1     -10.960   9.987  70.322  1.00  0.00    -0.377 A  
ENDBRANCH   9  10
BRANCH   9  16
HETATM   16  C   UNL     1     -10.921  12.996  66.003  1.00  0.00    -0.296 A  
HETATM   17  C   UNL     1     -11.115  11.631  63.984  1.00  0.00    -0.458 A  
HETATM   18  C   UNL     1     -10.606  11.837  65.272  1.00  0.00    -0.327 A  
HETATM   19  C   UNL     1     -12.211  13.769  64.076  1.00  0.00    -0.429 A  
HETATM   20  C   UNL     1     -11.713  13.967  65.368  1.00  0.00    -0.347 A  
HETATM   21  C   UNL     1     -11.926  12.593  63.389  1.00  0.00    -0.613 A  
ENDBRANCH   9  16
ENDBRANCH   8   9
ENDBRANCH   5   8
TORSDOF 4
ENDMDL
MODEL       73
REMARK 921   NORMALIZED FREE ENERGY PREDICTED BY IDOCK:   -4.77 KCAL/MOL
REMARK 922        TOTAL FREE ENERGY PREDICTED BY IDOCK:   -6.95 KCAL/MOL
REMARK 923 INTER-LIGAND FREE ENERGY PREDICTED BY IDOCK:   -5.80 KCAL/MOL
REMARK 924 INTRA-LIGAND FREE ENERGY PREDICTED BY IDOCK:   -1.16 KCAL/MOL
REMARK 927      BINDING AFFINITY PREDICTED BY RF-SCORE:    0.00 PKD
ROOT
HETATM    1  C   UNL     1      -6.123   8.322  65.158  1.00  0.00    -0.045 C  
HETATM    2  N   UNL     1      -7.416   8.343  65.823  1.00  0.00    -0.076 NA 
HETATM    3  C   UNL     1      -7.345   8.257  67.280  1.00  0.00    -0.089 C  
HETATM    4  C   UNL     1      -7.177   9.586  68.031  1.00  0.00    -0.081 C  
HETATM    5  C   UNL     1      -8.107  10.702  67.535  1.00  0.00    -0.111 C  
HETATM    6  C   UNL     1      -8.265   9.449  65.367  1.00  0.00    -0.125 C  
HETATM    7  C   UNL     1      -7.922  10.798  66.016  1.00  0.00    -0.154 C  
ENDROOT
BRANCH   5   8
HETATM    8  O   UNL     1      -9.517  10.582  67.715  1.00  0.00    -0.147 OA 
BRANCH   8   9
HETATM    9  C   UNL     1     -10.277  11.594  68.366  1.00  0.00    -0.207 C  
BRANCH   9  10
HETATM   10  C   UNL     1     -11.082  10.840  69.434  1.00  0.00    -0.324 A  
HETATM   11  C   UNL     1     -10.777   9.510  69.782  1.00  0.00    -0.259 A  
HETATM   12  C   UNL     1     -12.069  11.503  70.182  1.00  0.00    -0.432 A  
HETATM   13  C   UNL     1     -11.411   8.874  70.852  1.00  0.00    -0.339 A  
HETATM   14  C   UNL     1     -12.695  10.869  71.264  1.00  0.00    -0.542 A  
HETATM   15  C   UNL     1     -12.360   9.561  71.603  1.00  0.00    -0.480 A  
ENDBRANCH   9  10
BRANCH   9  16
HETATM   16  C   UNL     1     -11.110  12.442  67.411  1.00  0.00    -0.320 A  
HETATM   17  C   UNL     1     -12.036  14.578  66.665  1.00  0.00    -0.358 A  
HETATM   18  C   UNL     1     -11.344  13.813  67.613  1.00  0.00    -0.331 A  
HETATM   19  C   UNL     1     -12.354  12.615  65.314  1.00  0.00    -0.528 A  
HETATM   20  C   UNL     1     -11.650  11.856  66.255  1.00  0.00    -0.317 A  
HETATM   21  C   UNL     1     -12.533  13.982  65.511  1.00  0.00    -0.533 A  
ENDBRANCH   9  16
ENDBRANCH   8   9
ENDBRANCH   5   8
TORSDOF 4
ENDMDL
MODEL       74
REMARK 921   NORMALIZED FREE ENERGY PREDICTED BY IDOCK:   -4.69 KCAL/MOL
REMARK 922        TOTAL FREE ENERGY PREDICTED BY IDOCK:   -6.86 KCAL/MOL
REMARK 923 INTER-LIGAND FREE ENERGY PREDICTED BY IDOCK:   -5.95 KCAL/MOL
REMARK 924 INTRA-LIGAND FREE ENERGY PREDICTED BY IDOCK:   -0.91 KCAL/MOL
REMARK 927      BINDING AFFINITY PREDICTED BY RF-SCORE:    0.00 PKD
ROOT
HETATM    1  C   UNL     1      -7.820  20.843  67.623  1.00  0.00    -0.078 C  
HETATM    2  N   UNL     1      -8.187  19.565  68.211  1.00  0.00    -0.331 NA 
HETATM    3  C   UNL     1      -9.592  19.463  68.599  1.00  0.00    -0.426 C  
HETATM    4  C   UNL     1     -10.566  18.996  67.508  1.00  0.00    -0.546 C  
HETATM    5  C   UNL     1     -10.068  17.784  66.708  1.00  0.00    -0.349 C  
HETATM    6  C   UNL     1      -7.743  18.426  67.401  1.00  0.00    -0.223 C  
HETATM    7  C   UNL     1      -8.660  18.125  66.206  1.00  0.00    -0.205 C  
ENDROOT
BRANCH   5   8
HETATM    8  O   UNL     1      -9.920  16.521  67.353  1.00  0.00    -0.255 OA 
BRANCH   8   9
HETATM    9  C   UNL     1      -9.184  15.458  66.759  1.00  0.00    -0.249 C  
BRANCH   9  10
HETATM   10  C   UNL     1     -10.257  14.503  66.220  1.00  0.00    -0.306 A  
HETATM   11  C   UNL     1     -10.993  13.664  67.079  1.00  0.00    -0.298 A  
HETATM   12  C   UNL     1     -10.621  14.531  64.864  1.00  0.00    -0.450 A  
HETATM   13  C   UNL     1     -12.068  12.904  66.611  1.00  0.00    -0.360 A  
HETATM   14  C   UNL     1     -11.707  13.779  64.397  1.00  0.00    -0.436 A  
HETATM   15  C   UNL     1     -12.434  12.975  65.270  1.00  0.00    -0.555 A  
ENDBRANCH   9  10
BRANCH   9  16
HETATM   16  C   UNL     1      -8.167  14.819  67.699  1.00  0.00    -0.187 A  
HETATM   17  C   UNL     1      -6.445  13.162  68.216  1.00  0.00    -0.096 A  
HETATM   18  C   UNL     1      -7.438  13.665  67.365  1.00  0.00    -0.139 A  
HETATM   19  C   UNL     1      -6.926  14.902  69.803  1.00  0.00    -0.175 A  
HETATM   20  C   UNL     1      -7.907  15.412  68.945  1.00  0.00    -0.177 A  
HETATM   21  C   UNL     1      -6.183  13.786  69.431  1.00  0.00    -0.107 A  
ENDBRANCH   9  16
ENDBRANCH   8   9
ENDBRANCH   5   8
TORSDOF 4
ENDMDL
MODEL       75
REMARK 921   NORMALIZED FREE ENERGY PREDICTED BY IDOCK:   -4.68 KCAL/MOL
REMARK 922        TOTAL FREE ENERGY PREDICTED BY IDOCK:   -6.85 KCAL/MOL
REMARK 923 INTER-LIGAND FREE ENERGY PREDICTED BY IDOCK:   -5.68 KCAL/MOL
REMARK 924 INTRA-LIGAND FREE ENERGY PREDICTED BY IDOCK:   -1.17 KCAL/MOL
REMARK 927      BINDING AFFINITY PREDICTED BY RF-SCORE:    0.00 PKD
ROOT
HETATM    1  C   UNL     1      -5.129  13.909  70.521  1.00  0.00    -0.100 C  
HETATM    2  N   UNL     1      -5.560  14.852  69.503  1.00  0.00    -0.096 NA 
HETATM    3  C   UNL     1      -5.316  14.412  68.131  1.00  0.00    -0.120 C  
HETATM    4  C   UNL     1      -6.412  13.548  67.490  1.00  0.00    -0.113 C  
HETATM    5  C   UNL     1      -7.833  14.086  67.709  1.00  0.00    -0.171 C  
HETATM    6  C   UNL     1      -6.938  15.310  69.708  1.00  0.00    -0.168 C  
HETATM    7  C   UNL     1      -7.999  14.314  69.217  1.00  0.00     0.125 C  
ENDROOT
BRANCH   5   8
HETATM    8  O   UNL     1      -8.223  15.322  67.117  1.00  0.00    -0.186 OA 
BRANCH   8   9
HETATM    9  C   UNL     1      -9.484  15.922  67.396  1.00  0.00    -0.219 C  
BRANCH   9  10
HETATM   10  C   UNL     1     -10.495  15.061  66.626  1.00  0.00    -0.284 A  
HETATM   11  C   UNL     1     -11.477  14.305  67.296  1.00  0.00    -0.371 A  
HETATM   12  C   UNL     1     -10.546  15.104  65.223  1.00  0.00    -0.432 A  
HETATM   13  C   UNL     1     -12.487  13.640  66.595  1.00  0.00    -0.291 A  
HETATM   14  C   UNL     1     -11.567  14.448  64.522  1.00  0.00    -0.393 A  
HETATM   15  C   UNL     1     -12.540  13.726  65.208  1.00  0.00    -0.510 A  
ENDBRANCH   9  10
BRANCH   9  16
HETATM   16  C   UNL     1      -9.534  17.413  67.079  1.00  0.00    -0.268 A  
HETATM   17  C   UNL     1     -10.659  19.583  67.073  1.00  0.00    -0.607 A  
HETATM   18  C   UNL     1     -10.680  18.200  67.288  1.00  0.00    -0.336 A  
HETATM   19  C   UNL     1      -8.369  19.436  66.357  1.00  0.00    -0.342 A  
HETATM   20  C   UNL     1      -8.387  18.056  66.586  1.00  0.00    -0.284 A  
HETATM   21  C   UNL     1      -9.500  20.204  66.616  1.00  0.00    -0.517 A  
ENDBRANCH   9  16
ENDBRANCH   8   9
ENDBRANCH   5   8
TORSDOF 4
ENDMDL
MODEL       76
REMARK 921   NORMALIZED FREE ENERGY PREDICTED BY IDOCK:   -4.68 KCAL/MOL
REMARK 922        TOTAL FREE ENERGY PREDICTED BY IDOCK:   -6.84 KCAL/MOL
REMARK 923 INTER-LIGAND FREE ENERGY PREDICTED BY IDOCK:   -5.77 KCAL/MOL
REMARK 924 INTRA-LIGAND FREE ENERGY PREDICTED BY IDOCK:   -1.08 KCAL/MOL
REMARK 927      BINDING AFFINITY PREDICTED BY RF-SCORE:    0.00 PKD
ROOT
HETATM    1  C   UNL     1     -12.018  11.183  68.708  1.00  0.00    -0.268 C  
HETATM    2  N   UNL     1     -11.204  12.352  69.002  1.00  0.00    -0.260 NA 
HETATM    3  C   UNL     1      -9.899  12.358  68.344  1.00  0.00    -0.198 C  
HETATM    4  C   UNL     1      -9.855  12.949  66.928  1.00  0.00    -0.235 C  
HETATM    5  C   UNL     1     -10.612  14.278  66.786  1.00  0.00    -0.278 C  
HETATM    6  C   UNL     1     -11.936  13.608  68.809  1.00  0.00    -0.359 C  
HETATM    7  C   UNL     1     -12.023  14.052  67.341  1.00  0.00    -0.439 C  
ENDROOT
BRANCH   5   8
HETATM    8  O   UNL     1     -10.141  15.438  67.468  1.00  0.00    -0.230 OA 
BRANCH   8   9
HETATM    9  C   UNL     1      -9.049  16.206  66.974  1.00  0.00    -0.209 C  
BRANCH   9  10
HETATM   10  C   UNL     1      -7.852  15.763  67.826  1.00  0.00    -0.155 A  
HETATM   11  C   UNL     1      -7.639  16.278  69.119  1.00  0.00    -0.227 A  
HETATM   12  C   UNL     1      -7.004  14.735  67.383  1.00  0.00    -0.141 A  
HETATM   13  C   UNL     1      -6.638  15.769  69.950  1.00  0.00    -0.099 A  
HETATM   14  C   UNL     1      -6.008  14.216  68.221  1.00  0.00    -0.119 A  
HETATM   15  C   UNL     1      -5.832  14.725  69.505  1.00  0.00    -0.102 A  
ENDBRANCH   9  10
BRANCH   9  16
HETATM   16  C   UNL     1      -9.313  17.708  66.967  1.00  0.00    -0.258 A  
HETATM   17  C   UNL     1     -10.614  19.676  67.609  1.00  0.00    -0.556 A  
HETATM   18  C   UNL     1     -10.452  18.286  67.554  1.00  0.00    -0.431 A  
HETATM   19  C   UNL     1      -8.542  19.963  66.424  1.00  0.00    -0.386 A  
HETATM   20  C   UNL     1      -8.375  18.575  66.382  1.00  0.00    -0.278 A  
HETATM   21  C   UNL     1      -9.654  20.516  67.052  1.00  0.00    -0.540 A  
ENDBRANCH   9  16
ENDBRANCH   8   9
ENDBRANCH   5   8
TORSDOF 4
ENDMDL
MODEL       77
REMARK 921   NORMALIZED FREE ENERGY PREDICTED BY IDOCK:   -4.65 KCAL/MOL
REMARK 922        TOTAL FREE ENERGY PREDICTED BY IDOCK:   -6.81 KCAL/MOL
REMARK 923 INTER-LIGAND FREE ENERGY PREDICTED BY IDOCK:   -5.76 KCAL/MOL
REMARK 924 INTRA-LIGAND FREE ENERGY PREDICTED BY IDOCK:   -1.05 KCAL/MOL
REMARK 927      BINDING AFFINITY PREDICTED BY RF-SCORE:    0.00 PKD
ROOT
HETATM    1  C   UNL     1      -8.756  18.796  67.709  1.00  0.00    -0.287 C  
HETATM    2  N   UNL     1      -8.906  17.565  68.469  1.00  0.00    -0.281 NA 
HETATM    3  C   UNL     1     -10.263  17.317  68.951  1.00  0.00    -0.349 C  
HETATM    4  C   UNL     1     -11.203  16.582  67.985  1.00  0.00    -0.202 C  
HETATM    5  C   UNL     1     -10.566  15.359  67.310  1.00  0.00    -0.294 C  
HETATM    6  C   UNL     1      -8.334  16.405  67.779  1.00  0.00    -0.165 C  
HETATM    7  C   UNL     1      -9.246  15.827  66.686  1.00  0.00    -0.283 C  
ENDROOT
BRANCH   5   8
HETATM    8  O   UNL     1     -10.207  14.223  68.093  1.00  0.00    -0.222 OA 
BRANCH   8   9
HETATM    9  C   UNL     1     -10.540  12.899  67.690  1.00  0.00    -0.223 C  
BRANCH   9  10
HETATM   10  C   UNL     1      -9.335  12.053  68.123  1.00  0.00    -0.199 A  
HETATM   11  C   UNL     1      -8.061  12.626  68.304  1.00  0.00    -0.161 A  
HETATM   12  C   UNL     1      -9.500  10.702  68.469  1.00  0.00    -0.176 A  
HETATM   13  C   UNL     1      -7.001  11.889  68.838  1.00  0.00    -0.110 A  
HETATM   14  C   UNL     1      -8.440   9.967  69.017  1.00  0.00    -0.147 A  
HETATM   15  C   UNL     1      -7.196  10.562  69.209  1.00  0.00    -0.103 A  
ENDBRANCH   9  10
BRANCH   9  16
HETATM   16  C   UNL     1     -10.911  12.785  66.215  1.00  0.00    -0.299 A  
HETATM   17  C   UNL     1     -10.375  12.271  63.886  1.00  0.00    -0.455 A  
HETATM   18  C   UNL     1      -9.978  12.458  65.216  1.00  0.00    -0.234 A  
HETATM   19  C   UNL     1     -12.639  12.807  64.488  1.00  0.00    -0.463 A  
HETATM   20  C   UNL     1     -12.244  12.980  65.818  1.00  0.00    -0.511 A  
HETATM   21  C   UNL     1     -11.707  12.437  63.523  1.00  0.00    -0.592 A  
ENDBRANCH   9  16
ENDBRANCH   8   9
ENDBRANCH   5   8
TORSDOF 4
ENDMDL
MODEL       78
REMARK 921   NORMALIZED FREE ENERGY PREDICTED BY IDOCK:   -4.59 KCAL/MOL
REMARK 922        TOTAL FREE ENERGY PREDICTED BY IDOCK:   -6.74 KCAL/MOL
REMARK 923 INTER-LIGAND FREE ENERGY PREDICTED BY IDOCK:   -5.57 KCAL/MOL
REMARK 924 INTRA-LIGAND FREE ENERGY PREDICTED BY IDOCK:   -1.17 KCAL/MOL
REMARK 927      BINDING AFFINITY PREDICTED BY RF-SCORE:    0.00 PKD
ROOT
HETATM    1  C   UNL     1      -6.876   5.408  73.427  1.00  0.00    -0.083 C  
HETATM    2  N   UNL     1      -7.997   5.723  72.556  1.00  0.00    -0.102 NA 
HETATM    3  C   UNL     1      -9.205   6.149  73.260  1.00  0.00    -0.131 C  
HETATM    4  C   UNL     1      -9.311   7.647  73.581  1.00  0.00    -0.344 C  
HETATM    5  C   UNL     1      -8.940   8.562  72.405  1.00  0.00    -0.214 C  
HETATM    6  C   UNL     1      -7.626   6.639  71.472  1.00  0.00    -0.089 C  
HETATM    7  C   UNL     1      -7.563   8.111  71.903  1.00  0.00    -0.115 C  
ENDROOT
BRANCH   5   8
HETATM    8  O   UNL     1      -9.756   8.581  71.237  1.00  0.00    -0.174 OA 
BRANCH   8   9
HETATM    9  C   UNL     1     -10.743   9.586  71.030  1.00  0.00    -0.340 C  
BRANCH   9  10
HETATM   10  C   UNL     1     -12.071   8.892  71.361  1.00  0.00    -0.381 A  
HETATM   11  C   UNL     1     -12.240   7.505  71.184  1.00  0.00    -0.330 A  
HETATM   12  C   UNL     1     -13.117   9.606  71.968  1.00  0.00    -0.537 A  
HETATM   13  C   UNL     1     -13.395   6.850  71.622  1.00  0.00    -0.296 A  
HETATM   14  C   UNL     1     -14.269   8.947  72.418  1.00  0.00    -0.452 A  
HETATM   15  C   UNL     1     -14.403   7.572  72.253  1.00  0.00    -0.215 A  
ENDBRANCH   9  10
BRANCH   9  16
HETATM   16  C   UNL     1     -10.680  10.229  69.648  1.00  0.00    -0.299 A  
HETATM   17  C   UNL     1     -10.084  10.200  67.277  1.00  0.00    -0.254 A  
HETATM   18  C   UNL     1     -10.041   9.623  68.552  1.00  0.00    -0.195 A  
HETATM   19  C   UNL     1     -11.339  12.051  68.159  1.00  0.00    -0.349 A  
HETATM   20  C   UNL     1     -11.308  11.466  69.429  1.00  0.00    -0.365 A  
HETATM   21  C   UNL     1     -10.741  11.410  67.078  1.00  0.00    -0.304 A  
ENDBRANCH   9  16
ENDBRANCH   8   9
ENDBRANCH   5   8
TORSDOF 4
ENDMDL
MODEL       79
REMARK 921   NORMALIZED FREE ENERGY PREDICTED BY IDOCK:   -4.58 KCAL/MOL
REMARK 922        TOTAL FREE ENERGY PREDICTED BY IDOCK:   -6.73 KCAL/MOL
REMARK 923 INTER-LIGAND FREE ENERGY PREDICTED BY IDOCK:   -5.43 KCAL/MOL
REMARK 924 INTRA-LIGAND FREE ENERGY PREDICTED BY IDOCK:   -1.30 KCAL/MOL
REMARK 927      BINDING AFFINITY PREDICTED BY RF-SCORE:    0.00 PKD
ROOT
HETATM    1  C   UNL     1      -9.920   6.073  73.061  1.00  0.00    -0.175 C  
HETATM    2  N   UNL     1      -9.593   6.909  71.917  1.00  0.00    -0.155 NA 
HETATM    3  C   UNL     1     -10.367   6.611  70.714  1.00  0.00    -0.202 C  
HETATM    4  C   UNL     1     -11.718   7.329  70.581  1.00  0.00    -0.310 C  
HETATM    5  C   UNL     1     -11.660   8.828  70.908  1.00  0.00    -0.277 C  
HETATM    6  C   UNL     1      -9.595   8.338  72.247  1.00  0.00    -0.285 C  
HETATM    7  C   UNL     1     -10.998   8.960  72.285  1.00  0.00    -0.245 C  
ENDROOT
BRANCH   5   8
HETATM    8  O   UNL     1     -10.917   9.709  70.070  1.00  0.00    -0.235 OA 
BRANCH   8   9
HETATM    9  C   UNL     1     -11.221   9.861  68.687  1.00  0.00    -0.068 C  
BRANCH   9  10
HETATM   10  C   UNL     1     -10.029   9.223  67.961  1.00  0.00    -0.216 A  
HETATM   11  C   UNL     1      -8.706   9.438  68.390  1.00  0.00    -0.124 A  
HETATM   12  C   UNL     1     -10.238   8.304  66.919  1.00  0.00    -0.388 A  
HETATM   13  C   UNL     1      -7.634   8.743  67.823  1.00  0.00    -0.097 A  
HETATM   14  C   UNL     1      -9.165   7.598  66.359  1.00  0.00    -0.223 A  
HETATM   15  C   UNL     1      -7.867   7.811  66.817  1.00  0.00    -0.106 A  
ENDBRANCH   9  10
BRANCH   9  16
HETATM   16  C   UNL     1     -11.526  11.300  68.284  1.00  0.00    -0.378 A  
HETATM   17  C   UNL     1     -11.880  13.661  68.806  1.00  0.00    -0.395 A  
HETATM   18  C   UNL     1     -11.694  12.336  69.218  1.00  0.00    -0.388 A  
HETATM   19  C   UNL     1     -11.815  12.956  66.509  1.00  0.00    -0.473 A  
HETATM   20  C   UNL     1     -11.615  11.634  66.922  1.00  0.00    -0.246 A  
HETATM   21  C   UNL     1     -11.932  13.973  67.452  1.00  0.00    -0.439 A  
ENDBRANCH   9  16
ENDBRANCH   8   9
ENDBRANCH   5   8
TORSDOF 4
ENDMDL
MODEL       80
REMARK 921   NORMALIZED FREE ENERGY PREDICTED BY IDOCK:   -4.57 KCAL/MOL
REMARK 922        TOTAL FREE ENERGY PREDICTED BY IDOCK:   -6.71 KCAL/MOL
REMARK 923 INTER-LIGAND FREE ENERGY PREDICTED BY IDOCK:   -6.16 KCAL/MOL
REMARK 924 INTRA-LIGAND FREE ENERGY PREDICTED BY IDOCK:   -0.55 KCAL/MOL
REMARK 927      BINDING AFFINITY PREDICTED BY RF-SCORE:    0.00 PKD
ROOT
HETATM    1  C   UNL     1     -13.439  14.536  73.067  1.00  0.00    -0.314 C  
HETATM    2  N   UNL     1     -13.313  15.393  71.899  1.00  0.00    -0.426 NA 
HETATM    3  C   UNL     1     -12.015  16.052  71.773  1.00  0.00    -0.517 C  
HETATM    4  C   UNL     1     -10.920  15.260  71.044  1.00  0.00    -0.274 C  
HETATM    5  C   UNL     1     -11.394  14.601  69.740  1.00  0.00    -0.275 C  
HETATM    6  C   UNL     1     -13.725  14.722  70.662  1.00  0.00     0.110 C  
HETATM    7  C   UNL     1     -12.651  13.791  70.080  1.00  0.00    -0.207 C  
ENDROOT
BRANCH   5   8
HETATM    8  O   UNL     1     -11.781  15.413  68.635  1.00  0.00    -0.353 OA 
BRANCH   8   9
HETATM    9  C   UNL     1     -10.891  15.684  67.557  1.00  0.00    -0.316 C  
BRANCH   9  10
HETATM   10  C   UNL     1      -9.810  14.600  67.671  1.00  0.00    -0.218 A  
HETATM   11  C   UNL     1     -10.005  13.309  67.143  1.00  0.00    -0.238 A  
HETATM   12  C   UNL     1      -8.546  14.908  68.198  1.00  0.00    -0.159 A  
HETATM   13  C   UNL     1      -8.971  12.370  67.116  1.00  0.00    -0.195 A  
HETATM   14  C   UNL     1      -7.505  13.970  68.159  1.00  0.00    -0.131 A  
HETATM   15  C   UNL     1      -7.715  12.708  67.611  1.00  0.00    -0.155 A  
ENDBRANCH   9  10
BRANCH   9  16
HETATM   16  C   UNL     1     -10.368  17.116  67.542  1.00  0.00    -0.341 A  
HETATM   17  C   UNL     1      -9.786  19.192  66.389  1.00  0.00    -0.437 A  
HETATM   18  C   UNL     1     -10.180  17.848  66.357  1.00  0.00    -0.372 A  
HETATM   19  C   UNL     1      -9.678  19.102  68.789  1.00  0.00    -0.491 A  
HETATM   20  C   UNL     1     -10.085  17.764  68.756  1.00  0.00    -0.381 A  
HETATM   21  C   UNL     1      -9.544  19.823  67.605  1.00  0.00    -0.470 A  
ENDBRANCH   9  16
ENDBRANCH   8   9
ENDBRANCH   5   8
TORSDOF 4
ENDMDL
MODEL       81
REMARK 921   NORMALIZED FREE ENERGY PREDICTED BY IDOCK:   -4.57 KCAL/MOL
REMARK 922        TOTAL FREE ENERGY PREDICTED BY IDOCK:   -6.71 KCAL/MOL
REMARK 923 INTER-LIGAND FREE ENERGY PREDICTED BY IDOCK:   -5.47 KCAL/MOL
REMARK 924 INTRA-LIGAND FREE ENERGY PREDICTED BY IDOCK:   -1.24 KCAL/MOL
REMARK 927      BINDING AFFINITY PREDICTED BY RF-SCORE:    0.00 PKD
ROOT
HETATM    1  C   UNL     1      -9.383   4.558  72.562  1.00  0.00    -0.131 C  
HETATM    2  N   UNL     1      -9.808   5.898  72.189  1.00  0.00    -0.162 NA 
HETATM    3  C   UNL     1      -8.735   6.751  71.684  1.00  0.00    -0.126 C  
HETATM    4  C   UNL     1      -8.444   6.657  70.180  1.00  0.00    -0.136 C  
HETATM    5  C   UNL     1      -9.703   6.682  69.301  1.00  0.00    -0.146 C  
HETATM    6  C   UNL     1     -10.981   5.890  71.309  1.00  0.00    -0.259 C  
HETATM    7  C   UNL     1     -10.647   5.600  69.839  1.00  0.00    -0.399 C  
ENDROOT
BRANCH   5   8
HETATM    8  O   UNL     1     -10.504   7.859  69.245  1.00  0.00    -0.218 OA 
BRANCH   8   9
HETATM    9  C   UNL     1      -9.928   9.161  69.282  1.00  0.00    -0.187 C  
BRANCH   9  10
HETATM   10  C   UNL     1     -10.912   9.992  70.116  1.00  0.00    -0.368 A  
HETATM   11  C   UNL     1     -11.207  11.329  69.788  1.00  0.00    -0.294 A  
HETATM   12  C   UNL     1     -11.639   9.398  71.161  1.00  0.00    -0.415 A  
HETATM   13  C   UNL     1     -12.209  12.038  70.456  1.00  0.00    -0.414 A  
HETATM   14  C   UNL     1     -12.652  10.105  71.822  1.00  0.00    -0.500 A  
HETATM   15  C   UNL     1     -12.943  11.418  71.464  1.00  0.00    -0.505 A  
ENDBRANCH   9  10
BRANCH   9  16
HETATM   16  C   UNL     1      -9.614   9.729  67.902  1.00  0.00    -0.158 A  
HETATM   17  C   UNL     1      -8.187  10.961  66.346  1.00  0.00    -0.163 A  
HETATM   18  C   UNL     1      -8.492  10.535  67.644  1.00  0.00    -0.115 A  
HETATM   19  C   UNL     1     -10.157   9.857  65.522  1.00  0.00    -0.297 A  
HETATM   20  C   UNL     1     -10.453   9.420  66.818  1.00  0.00    -0.265 A  
HETATM   21  C   UNL     1      -9.014  10.614  65.282  1.00  0.00    -0.209 A  
ENDBRANCH   9  16
ENDBRANCH   8   9
ENDBRANCH   5   8
TORSDOF 4
ENDMDL
MODEL       82
REMARK 921   NORMALIZED FREE ENERGY PREDICTED BY IDOCK:   -4.55 KCAL/MOL
REMARK 922        TOTAL FREE ENERGY PREDICTED BY IDOCK:   -6.69 KCAL/MOL
REMARK 923 INTER-LIGAND FREE ENERGY PREDICTED BY IDOCK:   -5.58 KCAL/MOL
REMARK 924 INTRA-LIGAND FREE ENERGY PREDICTED BY IDOCK:   -1.11 KCAL/MOL
REMARK 927      BINDING AFFINITY PREDICTED BY RF-SCORE:    0.00 PKD
ROOT
HETATM    1  C   UNL     1     -13.008  15.845  73.643  1.00  0.00    -0.568 C  
HETATM    2  N   UNL     1     -12.092  14.919  72.995  1.00  0.00    -0.290 NA 
HETATM    3  C   UNL     1     -12.585  13.546  72.911  1.00  0.00     0.478 C  
HETATM    4  C   UNL     1     -13.451  13.209  71.689  1.00  0.00    -0.320 C  
HETATM    5  C   UNL     1     -12.882  13.731  70.362  1.00  0.00    -0.096 C  
HETATM    6  C   UNL     1     -11.604  15.420  71.707  1.00  0.00    -0.427 C  
HETATM    7  C   UNL     1     -12.598  15.226  70.553  1.00  0.00    -0.450 C  
ENDROOT
BRANCH   5   8
HETATM    8  O   UNL     1     -11.660  13.198  69.856  1.00  0.00    -0.264 OA 
BRANCH   8   9
HETATM    9  C   UNL     1     -11.465  12.961  68.466  1.00  0.00    -0.310 C  
BRANCH   9  10
HETATM   10  C   UNL     1     -10.944  11.519  68.393  1.00  0.00    -0.267 A  
HETATM   11  C   UNL     1     -10.716  10.760  69.557  1.00  0.00    -0.268 A  
HETATM   12  C   UNL     1     -10.799  10.876  67.153  1.00  0.00    -0.337 A  
HETATM   13  C   UNL     1     -10.384   9.405  69.488  1.00  0.00    -0.223 A  
HETATM   14  C   UNL     1     -10.478   9.513  67.085  1.00  0.00    -0.322 A  
HETATM   15  C   UNL     1     -10.280   8.778  68.250  1.00  0.00    -0.240 A  
ENDBRANCH   9  10
BRANCH   9  16
HETATM   16  C   UNL     1     -10.579  14.001  67.788  1.00  0.00    -0.244 A  
HETATM   17  C   UNL     1      -8.402  14.833  67.047  1.00  0.00    -0.228 A  
HETATM   18  C   UNL     1      -9.176  13.908  67.760  1.00  0.00    -0.197 A  
HETATM   19  C   UNL     1     -10.396  16.023  66.428  1.00  0.00    -0.312 A  
HETATM   20  C   UNL     1     -11.169  15.091  67.128  1.00  0.00    -0.336 A  
HETATM   21  C   UNL     1      -9.013  15.886  66.373  1.00  0.00    -0.361 A  
ENDBRANCH   9  16
ENDBRANCH   8   9
ENDBRANCH   5   8
TORSDOF 4
ENDMDL
MODEL       83
REMARK 921   NORMALIZED FREE ENERGY PREDICTED BY IDOCK:   -4.54 KCAL/MOL
REMARK 922        TOTAL FREE ENERGY PREDICTED BY IDOCK:   -6.68 KCAL/MOL
REMARK 923 INTER-LIGAND FREE ENERGY PREDICTED BY IDOCK:   -5.63 KCAL/MOL
REMARK 924 INTRA-LIGAND FREE ENERGY PREDICTED BY IDOCK:   -1.06 KCAL/MOL
REMARK 927      BINDING AFFINITY PREDICTED BY RF-SCORE:    0.00 PKD
ROOT
HETATM    1  C   UNL     1     -12.724  15.625  71.650  1.00  0.00    -0.456 C  
HETATM    2  N   UNL     1     -11.543  15.079  71.002  1.00  0.00    -0.312 NA 
HETATM    3  C   UNL     1     -11.737  13.755  70.414  1.00  0.00    -0.171 C  
HETATM    4  C   UNL     1     -12.277  13.722  68.977  1.00  0.00    -0.259 C  
HETATM    5  C   UNL     1     -11.581  14.710  68.030  1.00  0.00    -0.340 C  
HETATM    6  C   UNL     1     -10.928  16.025  70.065  1.00  0.00    -0.365 C  
HETATM    7  C   UNL     1     -11.632  16.088  68.702  1.00  0.00    -0.343 C  
ENDROOT
BRANCH   5   8
HETATM    8  O   UNL     1     -10.206  14.526  67.698  1.00  0.00    -0.225 OA 
BRANCH   8   9
HETATM    9  C   UNL     1      -9.635  13.229  67.567  1.00  0.00    -0.218 C  
BRANCH   9  10
HETATM   10  C   UNL     1      -8.139  13.440  67.837  1.00  0.00    -0.162 A  
HETATM   11  C   UNL     1      -7.493  14.644  67.494  1.00  0.00    -0.217 A  
HETATM   12  C   UNL     1      -7.400  12.481  68.549  1.00  0.00    -0.115 A  
HETATM   13  C   UNL     1      -6.171  14.894  67.871  1.00  0.00    -0.175 A  
HETATM   14  C   UNL     1      -6.078  12.737  68.937  1.00  0.00    -0.079 A  
HETATM   15  C   UNL     1      -5.469  13.944  68.607  1.00  0.00    -0.087 A  
ENDBRANCH   9  10
BRANCH   9  16
HETATM   16  C   UNL     1      -9.960  12.550  66.241  1.00  0.00    -0.263 A  
HETATM   17  C   UNL     1     -10.338  10.564  64.866  1.00  0.00    -0.307 A  
HETATM   18  C   UNL     1      -9.943  11.154  66.073  1.00  0.00    -0.280 A  
HETATM   19  C   UNL     1     -10.709  12.744  63.922  1.00  0.00    -0.443 A  
HETATM   20  C   UNL     1     -10.328  13.331  65.133  1.00  0.00    -0.336 A  
HETATM   21  C   UNL     1     -10.730  11.358  63.793  1.00  0.00    -0.470 A  
ENDBRANCH   9  16
ENDBRANCH   8   9
ENDBRANCH   5   8
TORSDOF 4
ENDMDL
MODEL       84
REMARK 921   NORMALIZED FREE ENERGY PREDICTED BY IDOCK:   -4.54 KCAL/MOL
REMARK 922        TOTAL FREE ENERGY PREDICTED BY IDOCK:   -6.68 KCAL/MOL
REMARK 923 INTER-LIGAND FREE ENERGY PREDICTED BY IDOCK:   -5.84 KCAL/MOL
REMARK 924 INTRA-LIGAND FREE ENERGY PREDICTED BY IDOCK:   -0.85 KCAL/MOL
REMARK 927      BINDING AFFINITY PREDICTED BY RF-SCORE:    0.00 PKD
ROOT
HETATM    1  C   UNL     1      -8.157  18.953  67.843  1.00  0.00    -0.272 C  
HETATM    2  N   UNL     1      -8.500  17.613  68.293  1.00  0.00    -0.263 NA 
HETATM    3  C   UNL     1      -9.893  17.456  68.706  1.00  0.00    -0.311 C  
HETATM    4  C   UNL     1     -10.895  17.107  67.596  1.00  0.00    -0.241 C  
HETATM    5  C   UNL     1     -10.413  15.997  66.651  1.00  0.00    -0.304 C  
HETATM    6  C   UNL     1      -8.074  16.576  67.348  1.00  0.00    -0.150 C  
HETATM    7  C   UNL     1      -9.022  16.405  66.152  1.00  0.00    -0.367 C  
ENDROOT
BRANCH   5   8
HETATM    8  O   UNL     1     -10.240  14.671  67.146  1.00  0.00    -0.252 OA 
BRANCH   8   9
HETATM    9  C   UNL     1      -9.517  13.687  66.414  1.00  0.00    -0.234 C  
BRANCH   9  10
HETATM   10  C   UNL     1     -10.557  13.072  65.468  1.00  0.00    -0.297 A  
HETATM   11  C   UNL     1     -11.936  13.155  65.738  1.00  0.00    -0.473 A  
HETATM   12  C   UNL     1     -10.162  12.515  64.240  1.00  0.00    -0.359 A  
HETATM   13  C   UNL     1     -12.887  12.726  64.808  1.00  0.00    -0.374 A  
HETATM   14  C   UNL     1     -11.116  12.097  63.303  1.00  0.00    -0.408 A  
HETATM   15  C   UNL     1     -12.475  12.212  63.582  1.00  0.00    -0.658 A  
ENDBRANCH   9  10
BRANCH   9  16
HETATM   16  C   UNL     1      -8.780  12.687  67.299  1.00  0.00    -0.198 A  
HETATM   17  C   UNL     1      -6.953  12.066  68.800  1.00  0.00    -0.101 A  
HETATM   18  C   UNL     1      -7.553  12.976  67.920  1.00  0.00    -0.144 A  
HETATM   19  C   UNL     1      -8.745  10.512  68.412  1.00  0.00    -0.137 A  
HETATM   20  C   UNL     1      -9.350  11.427  67.545  1.00  0.00    -0.166 A  
HETATM   21  C   UNL     1      -7.554  10.837  69.054  1.00  0.00    -0.126 A  
ENDBRANCH   9  16
ENDBRANCH   8   9
ENDBRANCH   5   8
TORSDOF 4
ENDMDL
MODEL       85
REMARK 921   NORMALIZED FREE ENERGY PREDICTED BY IDOCK:   -4.53 KCAL/MOL
REMARK 922        TOTAL FREE ENERGY PREDICTED BY IDOCK:   -6.66 KCAL/MOL
REMARK 923 INTER-LIGAND FREE ENERGY PREDICTED BY IDOCK:   -5.37 KCAL/MOL
REMARK 924 INTRA-LIGAND FREE ENERGY PREDICTED BY IDOCK:   -1.29 KCAL/MOL
REMARK 927      BINDING AFFINITY PREDICTED BY RF-SCORE:    0.00 PKD
ROOT
HETATM    1  C   UNL     1     -10.843   5.397  73.442  1.00  0.00    -0.297 C  
HETATM    2  N   UNL     1     -10.303   6.349  72.485  1.00  0.00    -0.188 NA 
HETATM    3  C   UNL     1     -10.768   6.154  71.114  1.00  0.00    -0.256 C  
HETATM    4  C   UNL     1     -12.084   6.849  70.738  1.00  0.00    -0.400 C  
HETATM    5  C   UNL     1     -12.171   8.309  71.205  1.00  0.00    -0.233 C  
HETATM    6  C   UNL     1     -10.444   7.738  72.934  1.00  0.00    -0.350 C  
HETATM    7  C   UNL     1     -11.847   8.320  72.704  1.00  0.00    -0.382 C  
ENDROOT
BRANCH   5   8
HETATM    8  O   UNL     1     -11.297   9.286  70.644  1.00  0.00    -0.255 OA 
BRANCH   8   9
HETATM    9  C   UNL     1     -11.002   9.316  69.251  1.00  0.00    -0.085 C  
BRANCH   9  10
HETATM   10  C   UNL     1      -9.532   8.885  69.162  1.00  0.00    -0.157 A  
HETATM   11  C   UNL     1      -8.537   9.500  69.945  1.00  0.00    -0.217 A  
HETATM   12  C   UNL     1      -9.160   7.776  68.384  1.00  0.00    -0.131 A  
HETATM   13  C   UNL     1      -7.228   9.012  69.974  1.00  0.00    -0.058 A  
HETATM   14  C   UNL     1      -7.850   7.280  68.422  1.00  0.00    -0.122 A  
HETATM   15  C   UNL     1      -6.889   7.891  69.223  1.00  0.00    -0.048 A  
ENDBRANCH   9  10
BRANCH   9  16
HETATM   16  C   UNL     1     -11.323  10.651  68.588  1.00  0.00    -0.345 A  
HETATM   17  C   UNL     1     -12.021  12.992  68.670  1.00  0.00    -0.298 A  
HETATM   18  C   UNL     1     -11.827  11.755  69.297  1.00  0.00    -0.389 A  
HETATM   19  C   UNL     1     -11.290  12.049  66.583  1.00  0.00    -0.399 A  
HETATM   20  C   UNL     1     -11.083  10.818  67.214  1.00  0.00    -0.339 A  
HETATM   21  C   UNL     1     -11.744  13.142  67.315  1.00  0.00    -0.425 A  
ENDBRANCH   9  16
ENDBRANCH   8   9
ENDBRANCH   5   8
TORSDOF 4
ENDMDL
MODEL       86
REMARK 921   NORMALIZED FREE ENERGY PREDICTED BY IDOCK:   -4.52 KCAL/MOL
REMARK 922        TOTAL FREE ENERGY PREDICTED BY IDOCK:   -6.65 KCAL/MOL
REMARK 923 INTER-LIGAND FREE ENERGY PREDICTED BY IDOCK:   -5.51 KCAL/MOL
REMARK 924 INTRA-LIGAND FREE ENERGY PREDICTED BY IDOCK:   -1.14 KCAL/MOL
REMARK 927      BINDING AFFINITY PREDICTED BY RF-SCORE:    0.00 PKD
ROOT
HETATM    1  C   UNL     1      -8.761   7.849  70.191  1.00  0.00    -0.136 C  
HETATM    2  N   UNL     1      -8.733   9.296  70.056  1.00  0.00    -0.176 NA 
HETATM    3  C   UNL     1      -7.544   9.815  69.384  1.00  0.00    -0.104 C  
HETATM    4  C   UNL     1      -7.608   9.889  67.852  1.00  0.00    -0.090 C  
HETATM    5  C   UNL     1      -8.917  10.484  67.313  1.00  0.00    -0.139 C  
HETATM    6  C   UNL     1      -9.977   9.832  69.492  1.00  0.00    -0.214 C  
HETATM    7  C   UNL     1     -10.066   9.704  67.964  1.00  0.00    -0.213 C  
ENDROOT
BRANCH   5   8
HETATM    8  O   UNL     1      -9.230  11.853  67.562  1.00  0.00    -0.170 OA 
BRANCH   8   9
HETATM    9  C   UNL     1      -9.247  12.819  66.516  1.00  0.00    -0.189 C  
BRANCH   9  10
HETATM   10  C   UNL     1      -9.204  14.170  67.243  1.00  0.00    -0.222 A  
HETATM   11  C   UNL     1      -9.237  14.250  68.649  1.00  0.00    -0.167 A  
HETATM   12  C   UNL     1      -9.005  15.360  66.524  1.00  0.00    -0.344 A  
HETATM   13  C   UNL     1      -9.050  15.465  69.313  1.00  0.00    -0.260 A  
HETATM   14  C   UNL     1      -8.805  16.576  67.191  1.00  0.00    -0.213 A  
HETATM   15  C   UNL     1      -8.818  16.626  68.583  1.00  0.00    -0.249 A  
ENDBRANCH   9  10
BRANCH   9  16
HETATM   16  C   UNL     1     -10.411  12.647  65.545  1.00  0.00    -0.305 A  
HETATM   17  C   UNL     1     -12.740  12.983  64.883  1.00  0.00    -0.456 A  
HETATM   18  C   UNL     1     -11.718  13.074  65.836  1.00  0.00    -0.442 A  
HETATM   19  C   UNL     1     -11.207  11.963  63.338  1.00  0.00    -0.463 A  
HETATM   20  C   UNL     1     -10.184  12.068  64.286  1.00  0.00    -0.347 A  
HETATM   21  C   UNL     1     -12.483  12.437  63.630  1.00  0.00    -0.610 A  
ENDBRANCH   9  16
ENDBRANCH   8   9
ENDBRANCH   5   8
TORSDOF 4
ENDMDL
MODEL       87
REMARK 921   NORMALIZED FREE ENERGY PREDICTED BY IDOCK:   -4.46 KCAL/MOL
REMARK 922        TOTAL FREE ENERGY PREDICTED BY IDOCK:   -6.57 KCAL/MOL
REMARK 923 INTER-LIGAND FREE ENERGY PREDICTED BY IDOCK:   -5.39 KCAL/MOL
REMARK 924 INTRA-LIGAND FREE ENERGY PREDICTED BY IDOCK:   -1.18 KCAL/MOL
REMARK 927      BINDING AFFINITY PREDICTED BY RF-SCORE:    0.00 PKD
ROOT
HETATM    1  C   UNL     1     -10.933  14.966  66.466  1.00  0.00    -0.327 C  
HETATM    2  N   UNL     1     -10.203  13.869  67.081  1.00  0.00    -0.256 NA 
HETATM    3  C   UNL     1     -10.377  13.768  68.528  1.00  0.00    -0.244 C  
HETATM    4  C   UNL     1     -11.584  12.952  69.011  1.00  0.00    -0.372 C  
HETATM    5  C   UNL     1     -11.759  11.610  68.284  1.00  0.00    -0.304 C  
HETATM    6  C   UNL     1     -10.428  12.592  66.396  1.00  0.00    -0.247 C  
HETATM    7  C   UNL     1     -11.750  11.912  66.780  1.00  0.00    -0.281 C  
ENDROOT
BRANCH   5   8
HETATM    8  O   UNL     1     -10.784  10.583  68.447  1.00  0.00    -0.194 OA 
BRANCH   8   9
HETATM    9  C   UNL     1     -10.281  10.226  69.730  1.00  0.00    -0.220 C  
BRANCH   9  10
HETATM   10  C   UNL     1      -8.832   9.792  69.466  1.00  0.00    -0.202 A  
HETATM   11  C   UNL     1      -8.280   9.823  68.170  1.00  0.00    -0.109 A  
HETATM   12  C   UNL     1      -7.979   9.469  70.533  1.00  0.00    -0.188 A  
HETATM   13  C   UNL     1      -6.924   9.570  67.951  1.00  0.00    -0.079 A  
HETATM   14  C   UNL     1      -6.616   9.228  70.314  1.00  0.00    -0.062 A  
HETATM   15  C   UNL     1      -6.088   9.288  69.027  1.00  0.00    -0.043 A  
ENDBRANCH   9  10
BRANCH   9  16
HETATM   16  C   UNL     1     -11.138   9.195  70.457  1.00  0.00    -0.308 A  
HETATM   17  C   UNL     1     -12.923   8.579  72.011  1.00  0.00    -0.406 A  
HETATM   18  C   UNL     1     -12.089   9.544  71.433  1.00  0.00    -0.459 A  
HETATM   19  C   UNL     1     -11.836   6.868  70.719  1.00  0.00    -0.427 A  
HETATM   20  C   UNL     1     -11.014   7.835  70.131  1.00  0.00    -0.246 A  
HETATM   21  C   UNL     1     -12.803   7.241  71.647  1.00  0.00    -0.415 A  
ENDBRANCH   9  16
ENDBRANCH   8   9
ENDBRANCH   5   8
TORSDOF 4
ENDMDL
MODEL       88
REMARK 921   NORMALIZED FREE ENERGY PREDICTED BY IDOCK:   -4.42 KCAL/MOL
REMARK 922        TOTAL FREE ENERGY PREDICTED BY IDOCK:   -6.53 KCAL/MOL
REMARK 923 INTER-LIGAND FREE ENERGY PREDICTED BY IDOCK:   -5.34 KCAL/MOL
REMARK 924 INTRA-LIGAND FREE ENERGY PREDICTED BY IDOCK:   -1.18 KCAL/MOL
REMARK 927      BINDING AFFINITY PREDICTED BY RF-SCORE:    0.00 PKD
ROOT
HETATM    1  C   UNL     1     -10.052   6.274  70.330  1.00  0.00    -0.184 C  
HETATM    2  N   UNL     1      -9.260   7.199  69.536  1.00  0.00    -0.149 NA 
HETATM    3  C   UNL     1      -9.216   6.885  68.110  1.00  0.00    -0.126 C  
HETATM    4  C   UNL     1     -10.353   7.460  67.253  1.00  0.00    -0.356 C  
HETATM    5  C   UNL     1     -10.660   8.937  67.538  1.00  0.00    -0.237 C  
HETATM    6  C   UNL     1      -9.608   8.601  69.792  1.00  0.00    -0.171 C  
HETATM    7  C   UNL     1     -10.871   9.067  69.052  1.00  0.00    -0.092 C  
ENDROOT
BRANCH   5   8
HETATM    8  O   UNL     1      -9.691   9.935  67.227  1.00  0.00    -0.161 OA 
BRANCH   8   9
HETATM    9  C   UNL     1      -9.974  11.323  67.366  1.00  0.00    -0.182 C  
BRANCH   9  10
HETATM   10  C   UNL     1     -10.721  11.693  66.077  1.00  0.00    -0.328 A  
HETATM   11  C   UNL     1     -11.890  12.478  66.104  1.00  0.00    -0.459 A  
HETATM   12  C   UNL     1     -10.186  11.358  64.822  1.00  0.00    -0.338 A  
HETATM   13  C   UNL     1     -12.486  12.936  64.926  1.00  0.00    -0.540 A  
HETATM   14  C   UNL     1     -10.777  11.829  63.642  1.00  0.00    -0.503 A  
HETATM   15  C   UNL     1     -11.919  12.624  63.695  1.00  0.00    -0.615 A  
ENDBRANCH   9  10
BRANCH   9  16
HETATM   16  C   UNL     1      -8.742  12.172  67.662  1.00  0.00    -0.172 A  
HETATM   17  C   UNL     1      -7.460  14.247  67.506  1.00  0.00    -0.201 A  
HETATM   18  C   UNL     1      -8.560  13.463  67.137  1.00  0.00    -0.201 A  
HETATM   19  C   UNL     1      -6.640  12.451  68.877  1.00  0.00    -0.095 A  
HETATM   20  C   UNL     1      -7.747  11.674  68.519  1.00  0.00    -0.134 A  
HETATM   21  C   UNL     1      -6.504  13.745  68.384  1.00  0.00    -0.099 A  
ENDBRANCH   9  16
ENDBRANCH   8   9
ENDBRANCH   5   8
TORSDOF 4
ENDMDL
MODEL       89
REMARK 921   NORMALIZED FREE ENERGY PREDICTED BY IDOCK:   -4.40 KCAL/MOL
REMARK 922        TOTAL FREE ENERGY PREDICTED BY IDOCK:   -6.50 KCAL/MOL
REMARK 923 INTER-LIGAND FREE ENERGY PREDICTED BY IDOCK:   -5.30 KCAL/MOL
REMARK 924 INTRA-LIGAND FREE ENERGY PREDICTED BY IDOCK:   -1.20 KCAL/MOL
REMARK 927      BINDING AFFINITY PREDICTED BY RF-SCORE:    0.00 PKD
ROOT
HETATM    1  C   UNL     1     -10.611  14.870  65.512  1.00  0.00    -0.357 C  
HETATM    2  N   UNL     1      -9.813  13.874  66.209  1.00  0.00    -0.299 NA 
HETATM    3  C   UNL     1      -9.779  14.038  67.661  1.00  0.00    -0.228 C  
HETATM    4  C   UNL     1     -10.915  13.365  68.446  1.00  0.00    -0.291 C  
HETATM    5  C   UNL     1     -11.206  11.923  68.005  1.00  0.00    -0.257 C  
HETATM    6  C   UNL     1     -10.147  12.504  65.806  1.00  0.00    -0.262 C  
HETATM    7  C   UNL     1     -11.408  11.952  66.485  1.00  0.00    -0.403 C  
ENDROOT
BRANCH   5   8
HETATM    8  O   UNL     1     -10.229  10.907  68.216  1.00  0.00    -0.162 OA 
BRANCH   8   9
HETATM    9  C   UNL     1     -10.574   9.526  68.225  1.00  0.00    -0.216 C  
BRANCH   9  10
HETATM   10  C   UNL     1     -10.356   9.087  69.680  1.00  0.00    -0.217 A  
HETATM   11  C   UNL     1      -9.063   8.905  70.206  1.00  0.00    -0.201 A  
HETATM   12  C   UNL     1     -11.443   8.974  70.561  1.00  0.00    -0.248 A  
HETATM   13  C   UNL     1      -8.859   8.650  71.565  1.00  0.00    -0.285 A  
HETATM   14  C   UNL     1     -11.238   8.730  71.926  1.00  0.00    -0.438 A  
HETATM   15  C   UNL     1      -9.948   8.578  72.427  1.00  0.00    -0.365 A  
ENDBRANCH   9  10
BRANCH   9  16
HETATM   16  C   UNL     1      -9.825   8.701  67.184  1.00  0.00    -0.269 A  
HETATM   17  C   UNL     1      -8.071   8.420  65.505  1.00  0.00    -0.129 A  
HETATM   18  C   UNL     1      -8.799   9.232  66.383  1.00  0.00    -0.169 A  
HETATM   19  C   UNL     1      -9.417   6.532  66.135  1.00  0.00    -0.067 A  
HETATM   20  C   UNL     1     -10.134   7.341  67.023  1.00  0.00    -0.316 A  
HETATM   21  C   UNL     1      -8.373   7.068  65.387  1.00  0.00    -0.121 A  
ENDBRANCH   9  16
ENDBRANCH   8   9
ENDBRANCH   5   8
TORSDOF 4
ENDMDL
MODEL       90
REMARK 921   NORMALIZED FREE ENERGY PREDICTED BY IDOCK:   -4.39 KCAL/MOL
REMARK 922        TOTAL FREE ENERGY PREDICTED BY IDOCK:   -6.49 KCAL/MOL
REMARK 923 INTER-LIGAND FREE ENERGY PREDICTED BY IDOCK:   -5.45 KCAL/MOL
REMARK 924 INTRA-LIGAND FREE ENERGY PREDICTED BY IDOCK:   -1.04 KCAL/MOL
REMARK 927      BINDING AFFINITY PREDICTED BY RF-SCORE:    0.00 PKD
ROOT
HETATM    1  C   UNL     1      -6.579   8.900  66.392  1.00  0.00    -0.067 C  
HETATM    2  N   UNL     1      -7.204   9.573  67.520  1.00  0.00    -0.089 NA 
HETATM    3  C   UNL     1      -6.714  10.928  67.759  1.00  0.00    -0.064 C  
HETATM    4  C   UNL     1      -7.414  12.050  66.978  1.00  0.00    -0.106 C  
HETATM    5  C   UNL     1      -8.946  11.949  66.985  1.00  0.00    -0.190 C  
HETATM    6  C   UNL     1      -8.668   9.504  67.474  1.00  0.00    -0.126 C  
HETATM    7  C   UNL     1      -9.304  10.530  66.525  1.00  0.00    -0.189 C  
ENDROOT
BRANCH   5   8
HETATM    8  O   UNL     1      -9.663  12.119  68.205  1.00  0.00    -0.209 OA 
BRANCH   8   9
HETATM    9  C   UNL     1     -10.822  12.943  68.285  1.00  0.00    -0.242 C  
BRANCH   9  10
HETATM   10  C   UNL     1     -10.281  14.375  68.183  1.00  0.00    -0.232 A  
HETATM   11  C   UNL     1     -10.885  15.331  67.344  1.00  0.00    -0.304 A  
HETATM   12  C   UNL     1      -9.240  14.806  69.023  1.00  0.00    -0.145 A  
HETATM   13  C   UNL     1     -10.486  16.671  67.361  1.00  0.00    -0.314 A  
HETATM   14  C   UNL     1      -8.850  16.151  69.049  1.00  0.00    -0.251 A  
HETATM   15  C   UNL     1      -9.478  17.083  68.226  1.00  0.00    -0.265 A  
ENDBRANCH   9  10
BRANCH   9  16
HETATM   16  C   UNL     1     -11.684  12.666  69.511  1.00  0.00    -0.374 A  
HETATM   17  C   UNL     1     -12.630  11.165  71.193  1.00  0.00    -0.513 A  
HETATM   18  C   UNL     1     -11.909  11.371  70.011  1.00  0.00    -0.440 A  
HETATM   19  C   UNL     1     -12.998  13.533  71.381  1.00  0.00    -0.421 A  
HETATM   20  C   UNL     1     -12.265  13.738  70.208  1.00  0.00    -0.429 A  
HETATM   21  C   UNL     1     -13.167  12.246  71.884  1.00  0.00    -0.481 A  
ENDBRANCH   9  16
ENDBRANCH   8   9
ENDBRANCH   5   8
TORSDOF 4
ENDMDL
MODEL       91
REMARK 921   NORMALIZED FREE ENERGY PREDICTED BY IDOCK:   -4.38 KCAL/MOL
REMARK 922        TOTAL FREE ENERGY PREDICTED BY IDOCK:   -6.47 KCAL/MOL
REMARK 923 INTER-LIGAND FREE ENERGY PREDICTED BY IDOCK:   -5.94 KCAL/MOL
REMARK 924 INTRA-LIGAND FREE ENERGY PREDICTED BY IDOCK:   -0.53 KCAL/MOL
REMARK 927      BINDING AFFINITY PREDICTED BY RF-SCORE:    0.00 PKD
ROOT
HETATM    1  C   UNL     1      -6.489  10.564  67.733  1.00  0.00    -0.060 C  
HETATM    2  N   UNL     1      -7.097  11.533  68.630  1.00  0.00    -0.090 NA 
HETATM    3  C   UNL     1      -6.531  12.877  68.538  1.00  0.00    -0.083 C  
HETATM    4  C   UNL     1      -7.143  13.800  67.474  1.00  0.00    -0.172 C  
HETATM    5  C   UNL     1      -8.678  13.785  67.448  1.00  0.00    -0.207 C  
HETATM    6  C   UNL     1      -8.561  11.533  68.548  1.00  0.00    -0.140 C  
HETATM    7  C   UNL     1      -9.111  12.318  67.347  1.00  0.00    -0.184 C  
ENDROOT
BRANCH   5   8
HETATM    8  O   UNL     1      -9.411  14.298  68.558  1.00  0.00    -0.201 OA 
BRANCH   8   9
HETATM    9  C   UNL     1     -10.294  15.406  68.425  1.00  0.00    -0.229 C  
BRANCH   9  10
HETATM   10  C   UNL     1     -10.990  15.181  67.075  1.00  0.00    -0.322 A  
HETATM   11  C   UNL     1     -10.531  15.805  65.899  1.00  0.00    -0.366 A  
HETATM   12  C   UNL     1     -12.030  14.246  66.956  1.00  0.00    -0.463 A  
HETATM   13  C   UNL     1     -11.069  15.489  64.649  1.00  0.00    -0.373 A  
HETATM   14  C   UNL     1     -12.561  13.919  65.701  1.00  0.00    -0.553 A  
HETATM   15  C   UNL     1     -12.075  14.532  64.550  1.00  0.00    -0.501 A  
ENDBRANCH   9  10
BRANCH   9  16
HETATM   16  C   UNL     1      -9.606  16.758  68.577  1.00  0.00    -0.245 A  
HETATM   17  C   UNL     1      -7.617  18.180  68.594  1.00  0.00    -0.306 A  
HETATM   18  C   UNL     1      -8.209  16.912  68.544  1.00  0.00    -0.249 A  
HETATM   19  C   UNL     1      -9.792  19.186  68.791  1.00  0.00    -0.502 A  
HETATM   20  C   UNL     1     -10.382  17.919  68.726  1.00  0.00    -0.311 A  
HETATM   21  C   UNL     1      -8.409  19.319  68.708  1.00  0.00    -0.386 A  
ENDBRANCH   9  16
ENDBRANCH   8   9
ENDBRANCH   5   8
TORSDOF 4
ENDMDL
MODEL       92
REMARK 921   NORMALIZED FREE ENERGY PREDICTED BY IDOCK:   -4.36 KCAL/MOL
REMARK 922        TOTAL FREE ENERGY PREDICTED BY IDOCK:   -6.46 KCAL/MOL
REMARK 923 INTER-LIGAND FREE ENERGY PREDICTED BY IDOCK:   -6.25 KCAL/MOL
REMARK 924 INTRA-LIGAND FREE ENERGY PREDICTED BY IDOCK:   -0.21 KCAL/MOL
REMARK 927      BINDING AFFINITY PREDICTED BY RF-SCORE:    0.00 PKD
ROOT
HETATM    1  C   UNL     1     -13.764  16.042  72.993  1.00  0.00    -0.396 C  
HETATM    2  N   UNL     1     -14.068  15.195  71.850  1.00  0.00    -0.498 NA 
HETATM    3  C   UNL     1     -13.137  15.335  70.733  1.00  0.00    -0.414 C  
HETATM    4  C   UNL     1     -11.882  14.451  70.782  1.00  0.00    -0.349 C  
HETATM    5  C   UNL     1     -12.166  12.989  71.156  1.00  0.00    -0.042 C  
HETATM    6  C   UNL     1     -14.285  13.796  72.230  1.00  0.00    -0.467 C  
HETATM    7  C   UNL     1     -12.985  13.009  72.452  1.00  0.00    -0.257 C  
ENDROOT
BRANCH   5   8
HETATM    8  O   UNL     1     -12.919  12.164  70.270  1.00  0.00     0.230 OA 
BRANCH   8   9
HETATM    9  C   UNL     1     -12.291  11.225  69.405  1.00  0.00    -0.149 C  
BRANCH   9  10
HETATM   10  C   UNL     1     -11.761  10.134  70.345  1.00  0.00    -0.390 A  
HETATM   11  C   UNL     1     -10.381   9.962  70.567  1.00  0.00    -0.298 A  
HETATM   12  C   UNL     1     -12.648   9.355  71.106  1.00  0.00    -0.357 A  
HETATM   13  C   UNL     1      -9.904   9.070  71.531  1.00  0.00    -0.381 A  
HETATM   14  C   UNL     1     -12.170   8.470  72.082  1.00  0.00    -0.446 A  
HETATM   15  C   UNL     1     -10.802   8.335  72.300  1.00  0.00    -0.408 A  
ENDBRANCH   9  10
BRANCH   9  16
HETATM   16  C   UNL     1     -11.246  11.846  68.485  1.00  0.00    -0.308 A  
HETATM   17  C   UNL     1      -8.934  12.215  67.779  1.00  0.00    -0.179 A  
HETATM   18  C   UNL     1      -9.863  11.709  68.697  1.00  0.00    -0.173 A  
HETATM   19  C   UNL     1     -10.732  13.082  66.440  1.00  0.00    -0.295 A  
HETATM   20  C   UNL     1     -11.659  12.564  67.350  1.00  0.00    -0.434 A  
HETATM   21  C   UNL     1      -9.369  12.894  66.645  1.00  0.00    -0.240 A  
ENDBRANCH   9  16
ENDBRANCH   8   9
ENDBRANCH   5   8
TORSDOF 4
ENDMDL
MODEL       93
REMARK 921   NORMALIZED FREE ENERGY PREDICTED BY IDOCK:   -4.36 KCAL/MOL
REMARK 922        TOTAL FREE ENERGY PREDICTED BY IDOCK:   -6.46 KCAL/MOL
REMARK 923 INTER-LIGAND FREE ENERGY PREDICTED BY IDOCK:   -5.25 KCAL/MOL
REMARK 924 INTRA-LIGAND FREE ENERGY PREDICTED BY IDOCK:   -1.21 KCAL/MOL
REMARK 927      BINDING AFFINITY PREDICTED BY RF-SCORE:    0.00 PKD
ROOT
HETATM    1  C   UNL     1     -11.614  15.958  68.182  1.00  0.00    -0.223 C  
HETATM    2  N   UNL     1     -11.911  14.536  68.226  1.00  0.00    -0.303 NA 
HETATM    3  C   UNL     1     -12.165  13.933  66.920  1.00  0.00    -0.377 C  
HETATM    4  C   UNL     1     -10.932  13.432  66.153  1.00  0.00    -0.285 C  
HETATM    5  C   UNL     1      -9.951  12.623  67.014  1.00  0.00    -0.219 C  
HETATM    6  C   UNL     1     -10.931  13.781  69.013  1.00  0.00    -0.243 C  
HETATM    7  C   UNL     1      -9.634  13.473  68.250  1.00  0.00    -0.218 C  
ENDROOT
BRANCH   5   8
HETATM    8  O   UNL     1     -10.347  11.360  67.542  1.00  0.00    -0.188 OA 
BRANCH   8   9
HETATM    9  C   UNL     1      -9.427  10.510  68.219  1.00  0.00    -0.155 C  
BRANCH   9  10
HETATM   10  C   UNL     1      -9.129   9.390  67.213  1.00  0.00    -0.150 A  
HETATM   11  C   UNL     1      -7.988   9.427  66.388  1.00  0.00    -0.108 A  
HETATM   12  C   UNL     1      -9.925   8.233  67.177  1.00  0.00    -0.307 A  
HETATM   13  C   UNL     1      -7.638   8.343  65.580  1.00  0.00    -0.090 A  
HETATM   14  C   UNL     1      -9.566   7.141  66.376  1.00  0.00    -0.161 A  
HETATM   15  C   UNL     1      -8.421   7.192  65.587  1.00  0.00    -0.141 A  
ENDBRANCH   9  10
BRANCH   9  16
HETATM   16  C   UNL     1      -9.923  10.036  69.581  1.00  0.00    -0.263 A  
HETATM   17  C   UNL     1     -11.681   9.717  71.249  1.00  0.00    -0.458 A  
HETATM   18  C   UNL     1     -11.237  10.248  70.032  1.00  0.00    -0.376 A  
HETATM   19  C   UNL     1      -9.492   8.808  71.650  1.00  0.00    -0.358 A  
HETATM   20  C   UNL     1      -9.054   9.326  70.427  1.00  0.00    -0.288 A  
HETATM   21  C   UNL     1     -10.811   8.988  72.055  1.00  0.00    -0.342 A  
ENDBRANCH   9  16
ENDBRANCH   8   9
ENDBRANCH   5   8
TORSDOF 4
ENDMDL
MODEL       94
REMARK 921   NORMALIZED FREE ENERGY PREDICTED BY IDOCK:   -4.35 KCAL/MOL
REMARK 922        TOTAL FREE ENERGY PREDICTED BY IDOCK:   -6.44 KCAL/MOL
REMARK 923 INTER-LIGAND FREE ENERGY PREDICTED BY IDOCK:   -5.65 KCAL/MOL
REMARK 924 INTRA-LIGAND FREE ENERGY PREDICTED BY IDOCK:   -0.79 KCAL/MOL
REMARK 927      BINDING AFFINITY PREDICTED BY RF-SCORE:    0.00 PKD
ROOT
HETATM    1  C   UNL     1     -10.842   8.913  70.574  1.00  0.00    -0.236 C  
HETATM    2  N   UNL     1     -10.306  10.164  70.062  1.00  0.00    -0.265 NA 
HETATM    3  C   UNL     1      -9.562  10.034  68.811  1.00  0.00    -0.168 C  
HETATM    4  C   UNL     1     -10.388  10.109  67.519  1.00  0.00    -0.279 C  
HETATM    5  C   UNL     1     -11.410  11.256  67.501  1.00  0.00    -0.288 C  
HETATM    6  C   UNL     1     -11.314  11.227  70.008  1.00  0.00    -0.208 C  
HETATM    7  C   UNL     1     -12.239  11.138  68.785  1.00  0.00    -0.080 C  
ENDROOT
BRANCH   5   8
HETATM    8  O   UNL     1     -10.957  12.608  67.491  1.00  0.00    -0.232 OA 
BRANCH   8   9
HETATM    9  C   UNL     1     -11.618  13.613  66.731  1.00  0.00    -0.364 C  
BRANCH   9  10
HETATM   10  C   UNL     1     -11.555  13.103  65.285  1.00  0.00    -0.350 A  
HETATM   11  C   UNL     1     -10.325  12.871  64.640  1.00  0.00    -0.366 A  
HETATM   12  C   UNL     1     -12.729  12.735  64.607  1.00  0.00    -0.439 A  
HETATM   13  C   UNL     1     -10.265  12.270  63.380  1.00  0.00    -0.360 A  
HETATM   14  C   UNL     1     -12.667  12.120  63.349  1.00  0.00    -0.508 A  
HETATM   15  C   UNL     1     -11.438  11.880  62.742  1.00  0.00     0.524 A  
ENDBRANCH   9  10
BRANCH   9  16
HETATM   16  C   UNL     1     -11.052  15.012  66.946  1.00  0.00    -0.331 A  
HETATM   17  C   UNL     1     -10.180  17.141  66.117  1.00  0.00    -0.343 A  
HETATM   18  C   UNL     1     -10.607  15.827  65.890  1.00  0.00    -0.350 A  
HETATM   19  C   UNL     1     -10.552  16.853  68.475  1.00  0.00    -0.367 A  
HETATM   20  C   UNL     1     -10.991  15.545  68.244  1.00  0.00    -0.305 A  
HETATM   21  C   UNL     1     -10.161  17.658  67.409  1.00  0.00    -0.331 A  
ENDBRANCH   9  16
ENDBRANCH   8   9
ENDBRANCH   5   8
TORSDOF 4
ENDMDL
MODEL       95
REMARK 921   NORMALIZED FREE ENERGY PREDICTED BY IDOCK:   -4.35 KCAL/MOL
REMARK 922        TOTAL FREE ENERGY PREDICTED BY IDOCK:   -6.44 KCAL/MOL
REMARK 923 INTER-LIGAND FREE ENERGY PREDICTED BY IDOCK:   -5.20 KCAL/MOL
REMARK 924 INTRA-LIGAND FREE ENERGY PREDICTED BY IDOCK:   -1.24 KCAL/MOL
REMARK 927      BINDING AFFINITY PREDICTED BY RF-SCORE:    0.00 PKD
ROOT
HETATM    1  C   UNL     1      -7.265   2.386  73.169  1.00  0.00    -0.036 C  
HETATM    2  N   UNL     1      -7.649   3.440  72.243  1.00  0.00    -0.056 NA 
HETATM    3  C   UNL     1      -8.753   3.087  71.354  1.00  0.00    -0.073 C  
HETATM    4  C   UNL     1     -10.168   3.342  71.895  1.00  0.00    -0.083 C  
HETATM    5  C   UNL     1     -10.340   4.715  72.560  1.00  0.00    -0.199 C  
HETATM    6  C   UNL     1      -7.856   4.728  72.913  1.00  0.00    -0.093 C  
HETATM    7  C   UNL     1      -9.223   4.852  73.602  1.00  0.00    -0.122 C  
ENDROOT
BRANCH   5   8
HETATM    8  O   UNL     1     -10.242   5.901  71.775  1.00  0.00    -0.193 OA 
BRANCH   8   9
HETATM    9  C   UNL     1     -11.237   6.250  70.818  1.00  0.00    -0.324 C  
BRANCH   9  10
HETATM   10  C   UNL     1     -10.475   6.341  69.489  1.00  0.00    -0.293 A  
HETATM   11  C   UNL     1      -9.071   6.440  69.452  1.00  0.00    -0.140 A  
HETATM   12  C   UNL     1     -11.154   6.203  68.267  1.00  0.00    -0.336 A  
HETATM   13  C   UNL     1      -8.368   6.376  68.247  1.00  0.00    -0.116 A  
HETATM   14  C   UNL     1     -10.447   6.125  67.059  1.00  0.00    -0.341 A  
HETATM   15  C   UNL     1      -9.057   6.202  67.051  1.00  0.00    -0.119 A  
ENDBRANCH   9  10
BRANCH   9  16
HETATM   16  C   UNL     1     -12.033   7.496  71.191  1.00  0.00    -0.334 A  
HETATM   17  C   UNL     1     -14.045   8.606  72.025  1.00  0.00    -0.523 A  
HETATM   18  C   UNL     1     -13.377   7.450  71.601  1.00  0.00    -0.426 A  
HETATM   19  C   UNL     1     -12.078   9.910  71.572  1.00  0.00    -0.496 A  
HETATM   20  C   UNL     1     -11.407   8.753  71.162  1.00  0.00    -0.345 A  
HETATM   21  C   UNL     1     -13.393   9.835  72.019  1.00  0.00    -0.547 A  
ENDBRANCH   9  16
ENDBRANCH   8   9
ENDBRANCH   5   8
TORSDOF 4
ENDMDL
MODEL       96
REMARK 921   NORMALIZED FREE ENERGY PREDICTED BY IDOCK:   -4.34 KCAL/MOL
REMARK 922        TOTAL FREE ENERGY PREDICTED BY IDOCK:   -6.43 KCAL/MOL
REMARK 923 INTER-LIGAND FREE ENERGY PREDICTED BY IDOCK:   -5.69 KCAL/MOL
REMARK 924 INTRA-LIGAND FREE ENERGY PREDICTED BY IDOCK:   -0.75 KCAL/MOL
REMARK 927      BINDING AFFINITY PREDICTED BY RF-SCORE:    0.00 PKD
ROOT
HETATM    1  C   UNL     1      -9.768  17.805  68.555  1.00  0.00    -0.343 C  
HETATM    2  N   UNL     1      -9.782  16.351  68.566  1.00  0.00    -0.221 NA 
HETATM    3  C   UNL     1     -11.040  15.757  68.119  1.00  0.00    -0.341 C  
HETATM    4  C   UNL     1     -11.184  15.533  66.607  1.00  0.00    -0.118 C  
HETATM    5  C   UNL     1      -9.948  14.900  65.951  1.00  0.00    -0.331 C  
HETATM    6  C   UNL     1      -8.616  15.773  67.890  1.00  0.00    -0.159 C  
HETATM    7  C   UNL     1      -8.740  15.751  66.359  1.00  0.00    -0.372 C  
ENDROOT
BRANCH   5   8
HETATM    8  O   UNL     1      -9.574  13.565  66.285  1.00  0.00    -0.272 OA 
BRANCH   8   9
HETATM    9  C   UNL     1     -10.419  12.456  65.999  1.00  0.00    -0.254 C  
BRANCH   9  10
HETATM   10  C   UNL     1     -10.580  11.740  67.347  1.00  0.00    -0.258 A  
HETATM   11  C   UNL     1      -9.477  11.171  68.013  1.00  0.00    -0.174 A  
HETATM   12  C   UNL     1     -11.817  11.741  68.012  1.00  0.00    -0.304 A  
HETATM   13  C   UNL     1      -9.597  10.650  69.304  1.00  0.00    -0.164 A  
HETATM   14  C   UNL     1     -11.933  11.229  69.311  1.00  0.00    -0.411 A  
HETATM   15  C   UNL     1     -10.823  10.694  69.959  1.00  0.00    -0.280 A  
ENDBRANCH   9  10
BRANCH   9  16
HETATM   16  C   UNL     1      -9.911  11.579  64.860  1.00  0.00    -0.303 A  
HETATM   17  C   UNL     1      -8.917   9.519  63.998  1.00  0.00    -0.228 A  
HETATM   18  C   UNL     1      -9.286  10.338  65.072  1.00  0.00    -0.290 A  
HETATM   19  C   UNL     1      -9.713  11.183  62.456  1.00  0.00    -0.112 A  
HETATM   20  C   UNL     1     -10.094  11.994  63.531  1.00  0.00    -0.448 A  
HETATM   21  C   UNL     1      -9.139   9.937  62.689  1.00  0.00    -0.304 A  
ENDBRANCH   9  16
ENDBRANCH   8   9
ENDBRANCH   5   8
TORSDOF 4
ENDMDL
MODEL       97
REMARK 921   NORMALIZED FREE ENERGY PREDICTED BY IDOCK:   -4.34 KCAL/MOL
REMARK 922        TOTAL FREE ENERGY PREDICTED BY IDOCK:   -6.43 KCAL/MOL
REMARK 923 INTER-LIGAND FREE ENERGY PREDICTED BY IDOCK:   -5.95 KCAL/MOL
REMARK 924 INTRA-LIGAND FREE ENERGY PREDICTED BY IDOCK:   -0.48 KCAL/MOL
REMARK 927      BINDING AFFINITY PREDICTED BY RF-SCORE:    0.00 PKD
ROOT
HETATM    1  C   UNL     1     -12.549  11.845  63.211  1.00  0.00    -0.344 C  
HETATM    2  N   UNL     1     -11.648  12.816  63.810  1.00  0.00    -0.445 NA 
HETATM    3  C   UNL     1     -12.273  13.683  64.806  1.00  0.00    -0.403 C  
HETATM    4  C   UNL     1     -12.309  13.148  66.245  1.00  0.00    -0.346 C  
HETATM    5  C   UNL     1     -10.978  12.545  66.717  1.00  0.00    -0.265 C  
HETATM    6  C   UNL     1     -10.407  12.205  64.297  1.00  0.00    -0.334 C  
HETATM    7  C   UNL     1     -10.553  11.516  65.662  1.00  0.00    -0.326 C  
ENDROOT
BRANCH   5   8
HETATM    8  O   UNL     1      -9.837  13.384  66.876  1.00  0.00    -0.242 OA 
BRANCH   8   9
HETATM    9  C   UNL     1      -9.381  13.794  68.161  1.00  0.00    -0.211 C  
BRANCH   9  10
HETATM   10  C   UNL     1     -10.667  14.004  68.973  1.00  0.00    -0.232 A  
HETATM   11  C   UNL     1     -11.262  12.950  69.693  1.00  0.00    -0.072 A  
HETATM   12  C   UNL     1     -11.215  15.288  69.120  1.00  0.00    -0.285 A  
HETATM   13  C   UNL     1     -12.345  13.173  70.548  1.00  0.00    -0.380 A  
HETATM   14  C   UNL     1     -12.293  15.513  69.987  1.00  0.00    -0.345 A  
HETATM   15  C   UNL     1     -12.850  14.459  70.706  1.00  0.00    -0.417 A  
ENDBRANCH   9  10
BRANCH   9  16
HETATM   16  C   UNL     1      -8.441  14.993  68.123  1.00  0.00    -0.151 A  
HETATM   17  C   UNL     1      -7.379  16.870  66.971  1.00  0.00    -0.228 A  
HETATM   18  C   UNL     1      -8.175  15.718  66.948  1.00  0.00    -0.288 A  
HETATM   19  C   UNL     1      -7.020  16.574  69.329  1.00  0.00    -0.227 A  
HETATM   20  C   UNL     1      -7.827  15.432  69.308  1.00  0.00    -0.225 A  
HETATM   21  C   UNL     1      -6.808  17.304  68.163  1.00  0.00    -0.182 A  
ENDBRANCH   9  16
ENDBRANCH   8   9
ENDBRANCH   5   8
TORSDOF 4
ENDMDL
MODEL       98
REMARK 921   NORMALIZED FREE ENERGY PREDICTED BY IDOCK:   -4.32 KCAL/MOL
REMARK 922        TOTAL FREE ENERGY PREDICTED BY IDOCK:   -6.41 KCAL/MOL
REMARK 923 INTER-LIGAND FREE ENERGY PREDICTED BY IDOCK:   -5.26 KCAL/MOL
REMARK 924 INTRA-LIGAND FREE ENERGY PREDICTED BY IDOCK:   -1.15 KCAL/MOL
REMARK 927      BINDING AFFINITY PREDICTED BY RF-SCORE:    0.00 PKD
ROOT
HETATM    1  C   UNL     1      -7.479   2.304  73.031  1.00  0.00    -0.041 C  
HETATM    2  N   UNL     1      -8.508   2.747  72.103  1.00  0.00    -0.065 NA 
HETATM    3  C   UNL     1      -9.874   2.504  72.560  1.00  0.00    -0.138 C  
HETATM    4  C   UNL     1     -10.500   3.596  73.440  1.00  0.00    -0.262 C  
HETATM    5  C   UNL     1     -10.281   5.021  72.911  1.00  0.00    -0.178 C  
HETATM    6  C   UNL     1      -8.302   4.127  71.654  1.00  0.00    -0.091 C  
HETATM    7  C   UNL     1      -8.776   5.182  72.665  1.00  0.00    -0.123 C  
ENDROOT
BRANCH   5   8
HETATM    8  O   UNL     1     -10.888   5.423  71.685  1.00  0.00    -0.229 OA 
BRANCH   8   9
HETATM    9  C   UNL     1     -10.668   6.715  71.129  1.00  0.00    -0.234 C  
BRANCH   9  10
HETATM   10  C   UNL     1     -11.912   7.521  71.530  1.00  0.00    -0.336 A  
HETATM   11  C   UNL     1     -11.887   8.927  71.595  1.00  0.00    -0.415 A  
HETATM   12  C   UNL     1     -13.146   6.878  71.722  1.00  0.00    -0.302 A  
HETATM   13  C   UNL     1     -13.052   9.666  71.816  1.00  0.00    -0.514 A  
HETATM   14  C   UNL     1     -14.316   7.621  71.931  1.00  0.00    -0.536 A  
HETATM   15  C   UNL     1     -14.270   9.011  71.968  1.00  0.00    -0.384 A  
ENDBRANCH   9  10
BRANCH   9  16
HETATM   16  C   UNL     1     -10.370   6.694  69.634  1.00  0.00    -0.226 A  
HETATM   17  C   UNL     1     -10.977   6.209  67.316  1.00  0.00    -0.418 A  
HETATM   18  C   UNL     1     -11.242   6.126  68.688  1.00  0.00    -0.275 A  
HETATM   19  C   UNL     1      -8.919   7.360  67.783  1.00  0.00    -0.127 A  
HETATM   20  C   UNL     1      -9.192   7.290  69.153  1.00  0.00    -0.139 A  
HETATM   21  C   UNL     1      -9.820   6.834  66.862  1.00  0.00    -0.229 A  
ENDBRANCH   9  16
ENDBRANCH   8   9
ENDBRANCH   5   8
TORSDOF 4
ENDMDL
MODEL       99
REMARK 921   NORMALIZED FREE ENERGY PREDICTED BY IDOCK:   -4.32 KCAL/MOL
REMARK 922        TOTAL FREE ENERGY PREDICTED BY IDOCK:   -6.41 KCAL/MOL
REMARK 923 INTER-LIGAND FREE ENERGY PREDICTED BY IDOCK:   -5.37 KCAL/MOL
REMARK 924 INTRA-LIGAND FREE ENERGY PREDICTED BY IDOCK:   -1.04 KCAL/MOL
REMARK 927      BINDING AFFINITY PREDICTED BY RF-SCORE:    0.00 PKD
ROOT
HETATM    1  C   UNL     1      -5.689   8.015  74.393  1.00  0.00    -0.083 C  
HETATM    2  N   UNL     1      -6.474   7.048  73.643  1.00  0.00    -0.066 NA 
HETATM    3  C   UNL     1      -7.740   6.683  74.273  1.00  0.00    -0.101 C  
HETATM    4  C   UNL     1      -8.942   7.584  73.954  1.00  0.00    -0.300 C  
HETATM    5  C   UNL     1      -9.083   7.926  72.463  1.00  0.00    -0.187 C  
HETATM    6  C   UNL     1      -6.634   7.425  72.235  1.00  0.00    -0.051 C  
HETATM    7  C   UNL     1      -7.728   8.477  72.000  1.00  0.00    -0.141 C  
ENDROOT
BRANCH   5   8
HETATM    8  O   UNL     1      -9.388   6.897  71.525  1.00  0.00    -0.155 OA 
BRANCH   8   9
HETATM    9  C   UNL     1     -10.623   6.872  70.817  1.00  0.00    -0.220 C  
BRANCH   9  10
HETATM   10  C   UNL     1     -10.218   6.675  69.350  1.00  0.00    -0.207 A  
HETATM   11  C   UNL     1     -11.153   6.269  68.377  1.00  0.00    -0.371 A  
HETATM   12  C   UNL     1      -8.927   7.015  68.915  1.00  0.00    -0.129 A  
HETATM   13  C   UNL     1     -10.821   6.231  67.020  1.00  0.00    -0.458 A  
HETATM   14  C   UNL     1      -8.599   6.989  67.552  1.00  0.00    -0.121 A  
HETATM   15  C   UNL     1      -9.547   6.607  66.607  1.00  0.00    -0.207 A  
ENDBRANCH   9  10
BRANCH   9  16
HETATM   16  C   UNL     1     -11.505   8.087  71.084  1.00  0.00    -0.302 A  
HETATM   17  C   UNL     1     -13.358   9.204  72.221  1.00  0.00    -0.540 A  
HETATM   18  C   UNL     1     -12.628   8.045  71.927  1.00  0.00    -0.359 A  
HETATM   19  C   UNL     1     -11.918  10.477  70.778  1.00  0.00    -0.472 A  
HETATM   20  C   UNL     1     -11.181   9.321  70.497  1.00  0.00    -0.315 A  
HETATM   21  C   UNL     1     -12.998  10.422  71.654  1.00  0.00    -0.581 A  
ENDBRANCH   9  16
ENDBRANCH   8   9
ENDBRANCH   5   8
TORSDOF 4
ENDMDL
MODEL      100
REMARK 921   NORMALIZED FREE ENERGY PREDICTED BY IDOCK:   -4.30 KCAL/MOL
REMARK 922        TOTAL FREE ENERGY PREDICTED BY IDOCK:   -6.37 KCAL/MOL
REMARK 923 INTER-LIGAND FREE ENERGY PREDICTED BY IDOCK:   -5.13 KCAL/MOL
REMARK 924 INTRA-LIGAND FREE ENERGY PREDICTED BY IDOCK:   -1.25 KCAL/MOL
REMARK 927      BINDING AFFINITY PREDICTED BY RF-SCORE:    0.00 PKD
ROOT
HETATM    1  C   UNL     1      -7.929   4.178  66.588  1.00  0.00    -0.098 C  
HETATM    2  N   UNL     1      -8.387   5.087  67.628  1.00  0.00    -0.105 NA 
HETATM    3  C   UNL     1      -7.824   6.432  67.543  1.00  0.00    -0.105 C  
HETATM    4  C   UNL     1      -8.573   7.426  66.643  1.00  0.00    -0.128 C  
HETATM    5  C   UNL     1     -10.095   7.418  66.842  1.00  0.00    -0.257 C  
HETATM    6  C   UNL     1      -9.848   5.096  67.761  1.00  0.00    -0.156 C  
HETATM    7  C   UNL     1     -10.557   5.961  66.709  1.00  0.00    -0.368 C  
ENDROOT
BRANCH   5   8
HETATM    8  O   UNL     1     -10.651   7.857  68.079  1.00  0.00    -0.200 OA 
BRANCH   8   9
HETATM    9  C   UNL     1      -9.914   8.672  68.984  1.00  0.00    -0.192 C  
BRANCH   9  10
HETATM   10  C   UNL     1     -10.239   8.097  70.369  1.00  0.00    -0.203 A  
HETATM   11  C   UNL     1      -9.641   8.609  71.537  1.00  0.00    -0.327 A  
HETATM   12  C   UNL     1     -11.240   7.123  70.520  1.00  0.00    -0.321 A  
HETATM   13  C   UNL     1     -10.044   8.187  72.807  1.00  0.00    -0.367 A  
HETATM   14  C   UNL     1     -11.653   6.710  71.794  1.00  0.00    -0.347 A  
HETATM   15  C   UNL     1     -11.063   7.248  72.934  1.00  0.00    -0.369 A  
ENDBRANCH   9  10
BRANCH   9  16
HETATM   16  C   UNL     1     -10.189  10.163  68.825  1.00  0.00    -0.200 A  
HETATM   17  C   UNL     1      -9.579  12.404  68.061  1.00  0.00    -0.211 A  
HETATM   18  C   UNL     1      -9.255  11.059  68.277  1.00  0.00    -0.165 A  
HETATM   19  C   UNL     1     -11.757  12.030  69.006  1.00  0.00    -0.382 A  
HETATM   20  C   UNL     1     -11.437  10.683  69.207  1.00  0.00    -0.351 A  
HETATM   21  C   UNL     1     -10.834  12.888  68.417  1.00  0.00    -0.276 A  
ENDBRANCH   9  16
ENDBRANCH   8   9
ENDBRANCH   5   8
TORSDOF 4
ENDMDL
MODEL      101
REMARK 921   NORMALIZED FREE ENERGY PREDICTED BY IDOCK:   -4.28 KCAL/MOL
REMARK 922        TOTAL FREE ENERGY PREDICTED BY IDOCK:   -6.36 KCAL/MOL
REMARK 923 INTER-LIGAND FREE ENERGY PREDICTED BY IDOCK:   -5.34 KCAL/MOL
REMARK 924 INTRA-LIGAND FREE ENERGY PREDICTED BY IDOCK:   -1.02 KCAL/MOL
REMARK 927      BINDING AFFINITY PREDICTED BY RF-SCORE:    0.00 PKD
ROOT
HETATM    1  C   UNL     1     -10.455  16.481  66.966  1.00  0.00    -0.289 C  
HETATM    2  N   UNL     1     -11.219  15.354  67.475  1.00  0.00    -0.324 NA 
HETATM    3  C   UNL     1     -11.488  14.313  66.486  1.00  0.00    -0.360 C  
HETATM    4  C   UNL     1     -10.409  13.232  66.327  1.00  0.00    -0.290 C  
HETATM    5  C   UNL     1      -9.881  12.680  67.659  1.00  0.00    -0.210 C  
HETATM    6  C   UNL     1     -10.664  14.815  68.721  1.00  0.00    -0.253 C  
HETATM    7  C   UNL     1      -9.460  13.886  68.508  1.00  0.00    -0.174 C  
ENDROOT
BRANCH   5   8
HETATM    8  O   UNL     1     -10.747  11.931  68.509  1.00  0.00    -0.208 OA 
BRANCH   8   9
HETATM    9  C   UNL     1     -10.687  10.511  68.574  1.00  0.00    -0.224 C  
BRANCH   9  10
HETATM   10  C   UNL     1     -11.507  10.150  69.820  1.00  0.00    -0.288 A  
HETATM   11  C   UNL     1     -11.314   8.931  70.499  1.00  0.00    -0.268 A  
HETATM   12  C   UNL     1     -12.388  11.084  70.389  1.00  0.00    -0.442 A  
HETATM   13  C   UNL     1     -11.953   8.666  71.714  1.00  0.00    -0.402 A  
HETATM   14  C   UNL     1     -13.018  10.822  71.613  1.00  0.00    -0.581 A  
HETATM   15  C   UNL     1     -12.793   9.620  72.278  1.00  0.00    -0.407 A  
ENDBRANCH   9  10
BRANCH   9  16
HETATM   16  C   UNL     1      -9.266   9.958  68.556  1.00  0.00    -0.136 A  
HETATM   17  C   UNL     1      -7.426   8.763  67.478  1.00  0.00    -0.089 A  
HETATM   18  C   UNL     1      -8.765   9.173  67.503  1.00  0.00    -0.120 A  
HETATM   19  C   UNL     1      -7.057   9.838  69.596  1.00  0.00    -0.083 A  
HETATM   20  C   UNL     1      -8.391  10.260  69.612  1.00  0.00    -0.139 A  
HETATM   21  C   UNL     1      -6.569   9.102  68.520  1.00  0.00    -0.055 A  
ENDBRANCH   9  16
ENDBRANCH   8   9
ENDBRANCH   5   8
TORSDOF 4
ENDMDL
MODEL      102
REMARK 921   NORMALIZED FREE ENERGY PREDICTED BY IDOCK:   -4.23 KCAL/MOL
REMARK 922        TOTAL FREE ENERGY PREDICTED BY IDOCK:   -6.29 KCAL/MOL
REMARK 923 INTER-LIGAND FREE ENERGY PREDICTED BY IDOCK:   -5.23 KCAL/MOL
REMARK 924 INTRA-LIGAND FREE ENERGY PREDICTED BY IDOCK:   -1.06 KCAL/MOL
REMARK 927      BINDING AFFINITY PREDICTED BY RF-SCORE:    0.00 PKD
ROOT
HETATM    1  C   UNL     1      -5.829  13.685  69.158  1.00  0.00    -0.084 C  
HETATM    2  N   UNL     1      -6.425  13.217  67.917  1.00  0.00    -0.121 NA 
HETATM    3  C   UNL     1      -5.628  12.220  67.205  1.00  0.00    -0.122 C  
HETATM    4  C   UNL     1      -5.849  10.757  67.613  1.00  0.00    -0.043 C  
HETATM    5  C   UNL     1      -7.328  10.366  67.748  1.00  0.00    -0.087 C  
HETATM    6  C   UNL     1      -7.822  12.803  68.085  1.00  0.00    -0.146 C  
HETATM    7  C   UNL     1      -7.980  11.396  68.678  1.00  0.00    -0.141 C  
ENDROOT
BRANCH   5   8
HETATM    8  O   UNL     1      -8.164  10.349  66.593  1.00  0.00    -0.123 OA 
BRANCH   8   9
HETATM    9  C   UNL     1      -9.563  10.103  66.686  1.00  0.00    -0.183 C  
BRANCH   9  10
HETATM   10  C   UNL     1      -9.700   8.587  66.488  1.00  0.00    -0.330 A  
HETATM   11  C   UNL     1      -8.733   7.848  65.779  1.00  0.00    -0.163 A  
HETATM   12  C   UNL     1     -10.735   7.876  67.117  1.00  0.00    -0.306 A  
HETATM   13  C   UNL     1      -8.779   6.453  65.724  1.00  0.00    -0.135 A  
HETATM   14  C   UNL     1     -10.773   6.476  67.073  1.00  0.00    -0.434 A  
HETATM   15  C   UNL     1      -9.792   5.766  66.386  1.00  0.00    -0.174 A  
ENDBRANCH   9  10
BRANCH   9  16
HETATM   16  C   UNL     1     -10.397  10.954  65.734  1.00  0.00    -0.303 A  
HETATM   17  C   UNL     1     -11.155  11.579  63.496  1.00  0.00    -0.434 A  
HETATM   18  C   UNL     1     -10.307  10.847  64.335  1.00  0.00    -0.430 A  
HETATM   19  C   UNL     1     -12.165  12.612  65.417  1.00  0.00    -0.517 A  
HETATM   20  C   UNL     1     -11.327  11.869  66.255  1.00  0.00    -0.394 A  
HETATM   21  C   UNL     1     -12.091  12.455  64.036  1.00  0.00    -0.563 A  
ENDBRANCH   9  16
ENDBRANCH   8   9
ENDBRANCH   5   8
TORSDOF 4
ENDMDL
MODEL      103
REMARK 921   NORMALIZED FREE ENERGY PREDICTED BY IDOCK:   -4.21 KCAL/MOL
REMARK 922        TOTAL FREE ENERGY PREDICTED BY IDOCK:   -6.27 KCAL/MOL
REMARK 923 INTER-LIGAND FREE ENERGY PREDICTED BY IDOCK:   -5.05 KCAL/MOL
REMARK 924 INTRA-LIGAND FREE ENERGY PREDICTED BY IDOCK:   -1.22 KCAL/MOL
REMARK 927      BINDING AFFINITY PREDICTED BY RF-SCORE:    0.00 PKD
ROOT
HETATM    1  C   UNL     1     -11.117  16.829  68.370  1.00  0.00    -0.266 C  
HETATM    2  N   UNL     1     -11.158  15.390  68.574  1.00  0.00    -0.279 NA 
HETATM    3  C   UNL     1     -11.290  14.611  67.344  1.00  0.00    -0.356 C  
HETATM    4  C   UNL     1      -9.982  14.256  66.622  1.00  0.00    -0.279 C  
HETATM    5  C   UNL     1      -8.879  13.734  67.555  1.00  0.00    -0.197 C  
HETATM    6  C   UNL     1     -10.065  14.912  69.427  1.00  0.00    -0.158 C  
HETATM    7  C   UNL     1      -8.728  14.758  68.686  1.00  0.00    -0.178 C  
ENDROOT
BRANCH   5   8
HETATM    8  O   UNL     1      -9.048  12.486  68.223  1.00  0.00    -0.199 OA 
BRANCH   8   9
HETATM    9  C   UNL     1      -9.850  11.445  67.675  1.00  0.00    -0.176 C  
BRANCH   9  10
HETATM   10  C   UNL     1     -10.622  10.884  68.876  1.00  0.00    -0.241 A  
HETATM   11  C   UNL     1      -9.972  10.159  69.894  1.00  0.00    -0.250 A  
HETATM   12  C   UNL     1     -11.982  11.186  69.054  1.00  0.00    -0.389 A  
HETATM   13  C   UNL     1     -10.644   9.775  71.057  1.00  0.00    -0.295 A  
HETATM   14  C   UNL     1     -12.652  10.812  70.226  1.00  0.00    -0.350 A  
HETATM   15  C   UNL     1     -11.982  10.116  71.229  1.00  0.00    -0.473 A  
ENDBRANCH   9  10
BRANCH   9  16
HETATM   16  C   UNL     1      -9.053  10.415  66.882  1.00  0.00    -0.159 A  
HETATM   17  C   UNL     1      -6.949   9.436  66.113  1.00  0.00    -0.090 A  
HETATM   18  C   UNL     1      -7.652  10.452  66.771  1.00  0.00    -0.110 A  
HETATM   19  C   UNL     1      -9.025   8.344  65.583  1.00  0.00    -0.183 A  
HETATM   20  C   UNL     1      -9.725   9.353  66.254  1.00  0.00    -0.330 A  
HETATM   21  C   UNL     1      -7.634   8.376  65.526  1.00  0.00    -0.090 A  
ENDBRANCH   9  16
ENDBRANCH   8   9
ENDBRANCH   5   8
TORSDOF 4
ENDMDL
MODEL      104
REMARK 921   NORMALIZED FREE ENERGY PREDICTED BY IDOCK:   -4.20 KCAL/MOL
REMARK 922        TOTAL FREE ENERGY PREDICTED BY IDOCK:   -6.26 KCAL/MOL
REMARK 923 INTER-LIGAND FREE ENERGY PREDICTED BY IDOCK:   -5.10 KCAL/MOL
REMARK 924 INTRA-LIGAND FREE ENERGY PREDICTED BY IDOCK:   -1.16 KCAL/MOL
REMARK 927      BINDING AFFINITY PREDICTED BY RF-SCORE:    0.00 PKD
ROOT
HETATM    1  C   UNL     1     -11.722   8.419  72.066  1.00  0.00    -0.352 C  
HETATM    2  N   UNL     1     -11.018   9.535  71.456  1.00  0.00    -0.357 NA 
HETATM    3  C   UNL     1     -10.125   9.159  70.363  1.00  0.00    -0.218 C  
HETATM    4  C   UNL     1     -10.758   9.073  68.967  1.00  0.00    -0.163 C  
HETATM    5  C   UNL     1     -11.668  10.261  68.623  1.00  0.00     0.095 C  
HETATM    6  C   UNL     1     -11.918  10.635  71.092  1.00  0.00    -0.300 C  
HETATM    7  C   UNL     1     -12.672  10.404  69.774  1.00  0.00     0.134 C  
ENDROOT
BRANCH   5   8
HETATM    8  O   UNL     1     -11.107  11.563  68.475  1.00  0.00    -0.201 OA 
BRANCH   8   9
HETATM    9  C   UNL     1     -11.225  12.295  67.260  1.00  0.00    -0.300 C  
BRANCH   9  10
HETATM   10  C   UNL     1     -10.215  11.632  66.314  1.00  0.00    -0.262 A  
HETATM   11  C   UNL     1      -8.885  11.394  66.708  1.00  0.00    -0.179 A  
HETATM   12  C   UNL     1     -10.628  11.131  65.069  1.00  0.00    -0.340 A  
HETATM   13  C   UNL     1      -8.007  10.660  65.906  1.00  0.00    -0.157 A  
HETATM   14  C   UNL     1      -9.752  10.384  64.270  1.00  0.00    -0.389 A  
HETATM   15  C   UNL     1      -8.448  10.142  64.692  1.00  0.00    -0.178 A  
ENDBRANCH   9  10
BRANCH   9  16
HETATM   16  C   UNL     1     -11.051  13.800  67.435  1.00  0.00    -0.312 A  
HETATM   17  C   UNL     1     -10.317  15.996  66.649  1.00  0.00    -0.299 A  
HETATM   18  C   UNL     1     -10.375  14.605  66.501  1.00  0.00    -0.283 A  
HETATM   19  C   UNL     1     -11.540  15.826  68.712  1.00  0.00    -0.401 A  
HETATM   20  C   UNL     1     -11.610  14.438  68.555  1.00  0.00    -0.347 A  
HETATM   21  C   UNL     1     -10.907  16.609  67.750  1.00  0.00    -0.292 A  
ENDBRANCH   9  16
ENDBRANCH   8   9
ENDBRANCH   5   8
TORSDOF 4
ENDMDL
MODEL      105
REMARK 921   NORMALIZED FREE ENERGY PREDICTED BY IDOCK:   -4.19 KCAL/MOL
REMARK 922        TOTAL FREE ENERGY PREDICTED BY IDOCK:   -6.25 KCAL/MOL
REMARK 923 INTER-LIGAND FREE ENERGY PREDICTED BY IDOCK:   -6.12 KCAL/MOL
REMARK 924 INTRA-LIGAND FREE ENERGY PREDICTED BY IDOCK:   -0.13 KCAL/MOL
REMARK 927      BINDING AFFINITY PREDICTED BY RF-SCORE:    0.00 PKD
ROOT
HETATM    1  C   UNL     1     -12.668  12.065  63.828  1.00  0.00    -0.400 C  
HETATM    2  N   UNL     1     -12.554  12.524  65.203  1.00  0.00    -0.650 NA 
HETATM    3  C   UNL     1     -11.352  12.065  65.894  1.00  0.00    -0.337 C  
HETATM    4  C   UNL     1     -10.098  12.935  65.726  1.00  0.00    -0.294 C  
HETATM    5  C   UNL     1     -10.358  14.438  65.897  1.00  0.00    -0.314 C  
HETATM    6  C   UNL     1     -12.757  13.971  65.330  1.00  0.00    -0.439 C  
HETATM    7  C   UNL     1     -11.518  14.801  64.963  1.00  0.00    -0.389 C  
ENDROOT
BRANCH   5   8
HETATM    8  O   UNL     1     -10.750  14.950  67.168  1.00  0.00    -0.284 OA 
BRANCH   8   9
HETATM    9  C   UNL     1      -9.803  15.498  68.080  1.00  0.00    -0.212 C  
BRANCH   9  10
HETATM   10  C   UNL     1      -9.857  17.010  67.825  1.00  0.00    -0.271 A  
HETATM   11  C   UNL     1     -10.190  17.917  68.849  1.00  0.00    -0.331 A  
HETATM   12  C   UNL     1      -9.453  17.539  66.588  1.00  0.00    -0.285 A  
HETATM   13  C   UNL     1     -10.097  19.298  68.658  1.00  0.00    -0.499 A  
HETATM   14  C   UNL     1      -9.347  18.924  66.401  1.00  0.00    -0.343 A  
HETATM   15  C   UNL     1      -9.660  19.800  67.437  1.00  0.00    -0.475 A  
ENDBRANCH   9  10
BRANCH   9  16
HETATM   16  C   UNL     1      -8.416  14.875  67.967  1.00  0.00    -0.151 A  
HETATM   17  C   UNL     1      -6.892  12.965  68.048  1.00  0.00    -0.108 A  
HETATM   18  C   UNL     1      -8.160  13.523  68.253  1.00  0.00    -0.155 A  
HETATM   19  C   UNL     1      -6.066  15.107  67.336  1.00  0.00     0.079 A  
HETATM   20  C   UNL     1      -7.337  15.660  67.528  1.00  0.00    -0.213 A  
HETATM   21  C   UNL     1      -5.846  13.755  67.581  1.00  0.00    -0.047 A  
ENDBRANCH   9  16
ENDBRANCH   8   9
ENDBRANCH   5   8
TORSDOF 4
ENDMDL
MODEL      106
REMARK 921   NORMALIZED FREE ENERGY PREDICTED BY IDOCK:   -4.19 KCAL/MOL
REMARK 922        TOTAL FREE ENERGY PREDICTED BY IDOCK:   -6.24 KCAL/MOL
REMARK 923 INTER-LIGAND FREE ENERGY PREDICTED BY IDOCK:   -5.23 KCAL/MOL
REMARK 924 INTRA-LIGAND FREE ENERGY PREDICTED BY IDOCK:   -1.01 KCAL/MOL
REMARK 927      BINDING AFFINITY PREDICTED BY RF-SCORE:    0.00 PKD
ROOT
HETATM    1  C   UNL     1      -7.565   9.853  65.794  1.00  0.00    -0.113 C  
HETATM    2  N   UNL     1      -7.930  10.020  67.192  1.00  0.00    -0.109 NA 
HETATM    3  C   UNL     1      -9.239  10.634  67.403  1.00  0.00    -0.143 C  
HETATM    4  C   UNL     1     -10.441   9.680  67.427  1.00  0.00    -0.319 C  
HETATM    5  C   UNL     1     -10.218   8.420  68.277  1.00  0.00    -0.205 C  
HETATM    6  C   UNL     1      -7.755   8.789  67.969  1.00  0.00    -0.101 C  
HETATM    7  C   UNL     1      -8.905   7.786  67.802  1.00  0.00    -0.126 C  
ENDROOT
BRANCH   5   8
HETATM    8  O   UNL     1     -10.066   8.537  69.690  1.00  0.00    -0.192 OA 
BRANCH   8   9
HETATM    9  C   UNL     1     -10.531   7.526  70.579  1.00  0.00    -0.219 C  
BRANCH   9  10
HETATM   10  C   UNL     1     -11.928   8.000  71.000  1.00  0.00    -0.260 A  
HETATM   11  C   UNL     1     -12.993   7.094  71.167  1.00  0.00    -0.316 A  
HETATM   12  C   UNL     1     -12.150   9.342  71.353  1.00  0.00    -0.424 A  
HETATM   13  C   UNL     1     -14.222   7.502  71.691  1.00  0.00    -0.592 A  
HETATM   14  C   UNL     1     -13.378   9.748  71.890  1.00  0.00    -0.530 A  
HETATM   15  C   UNL     1     -14.408   8.829  72.067  1.00  0.00    -0.466 A  
ENDBRANCH   9  10
BRANCH   9  16
HETATM   16  C   UNL     1      -9.573   7.239  71.730  1.00  0.00    -0.163 A  
HETATM   17  C   UNL     1      -8.133   5.744  73.021  1.00  0.00    -0.118 A  
HETATM   18  C   UNL     1      -9.083   5.952  72.014  1.00  0.00    -0.147 A  
HETATM   19  C   UNL     1      -8.184   8.087  73.553  1.00  0.00    -0.271 A  
HETATM   20  C   UNL     1      -9.122   8.297  72.537  1.00  0.00    -0.323 A  
HETATM   21  C   UNL     1      -7.676   6.812  73.786  1.00  0.00    -0.089 A  
ENDBRANCH   9  16
ENDBRANCH   8   9
ENDBRANCH   5   8
TORSDOF 4
ENDMDL
MODEL      107
REMARK 921   NORMALIZED FREE ENERGY PREDICTED BY IDOCK:   -4.17 KCAL/MOL
REMARK 922        TOTAL FREE ENERGY PREDICTED BY IDOCK:   -6.22 KCAL/MOL
REMARK 923 INTER-LIGAND FREE ENERGY PREDICTED BY IDOCK:   -5.52 KCAL/MOL
REMARK 924 INTRA-LIGAND FREE ENERGY PREDICTED BY IDOCK:   -0.70 KCAL/MOL
REMARK 927      BINDING AFFINITY PREDICTED BY RF-SCORE:    0.00 PKD
ROOT
HETATM    1  C   UNL     1     -11.335  14.403  66.223  1.00  0.00    -0.350 C  
HETATM    2  N   UNL     1     -10.825  15.738  66.493  1.00  0.00    -0.276 NA 
HETATM    3  C   UNL     1     -10.951  16.159  67.886  1.00  0.00    -0.318 C  
HETATM    4  C   UNL     1      -9.799  15.763  68.821  1.00  0.00    -0.214 C  
HETATM    5  C   UNL     1      -8.404  16.022  68.233  1.00  0.00    -0.164 C  
HETATM    6  C   UNL     1      -9.473  15.940  65.964  1.00  0.00    -0.354 C  
HETATM    7  C   UNL     1      -8.368  15.352  66.854  1.00  0.00    -0.290 C  
ENDROOT
BRANCH   5   8
HETATM    8  O   UNL     1      -7.974  17.359  67.990  1.00  0.00    -0.211 OA 
BRANCH   8   9
HETATM    9  C   UNL     1      -6.605  17.675  67.759  1.00  0.00    -0.181 C  
BRANCH   9  10
HETATM   10  C   UNL     1      -6.129  18.302  69.077  1.00  0.00    -0.228 A  
HETATM   11  C   UNL     1      -6.459  19.627  69.422  1.00  0.00    -0.370 A  
HETATM   12  C   UNL     1      -5.453  17.526  70.032  1.00  0.00    -0.236 A  
HETATM   13  C   UNL     1      -6.152  20.149  70.681  1.00  0.00    -0.361 A  
HETATM   14  C   UNL     1      -5.157  18.046  71.299  1.00  0.00    -0.165 A  
HETATM   15  C   UNL     1      -5.514  19.351  71.625  1.00  0.00    -0.349 A  
ENDBRANCH   9  10
BRANCH   9  16
HETATM   16  C   UNL     1      -6.378  18.532  66.519  1.00  0.00    -0.213 A  
HETATM   17  C   UNL     1      -5.483  18.887  64.272  1.00  0.00    -0.279 A  
HETATM   18  C   UNL     1      -5.592  18.111  65.432  1.00  0.00    -0.183 A  
HETATM   19  C   UNL     1      -6.877  20.572  65.268  1.00  0.00    -0.234 A  
HETATM   20  C   UNL     1      -6.997  19.789  66.421  1.00  0.00    -0.239 A  
HETATM   21  C   UNL     1      -6.133  20.114  64.185  1.00  0.00    -0.299 A  
ENDBRANCH   9  16
ENDBRANCH   8   9
ENDBRANCH   5   8
TORSDOF 4
ENDMDL
MODEL      108
REMARK 921   NORMALIZED FREE ENERGY PREDICTED BY IDOCK:   -4.16 KCAL/MOL
REMARK 922        TOTAL FREE ENERGY PREDICTED BY IDOCK:   -6.20 KCAL/MOL
REMARK 923 INTER-LIGAND FREE ENERGY PREDICTED BY IDOCK:   -5.07 KCAL/MOL
REMARK 924 INTRA-LIGAND FREE ENERGY PREDICTED BY IDOCK:   -1.14 KCAL/MOL
REMARK 927      BINDING AFFINITY PREDICTED BY RF-SCORE:    0.00 PKD
ROOT
HETATM    1  C   UNL     1     -11.267  14.785  66.486  1.00  0.00    -0.342 C  
HETATM    2  N   UNL     1     -10.476  14.063  67.470  1.00  0.00    -0.251 NA 
HETATM    3  C   UNL     1     -10.964  14.186  68.842  1.00  0.00    -0.259 C  
HETATM    4  C   UNL     1     -12.034  13.174  69.275  1.00  0.00    -0.344 C  
HETATM    5  C   UNL     1     -11.720  11.726  68.871  1.00  0.00    -0.323 C  
HETATM    6  C   UNL     1     -10.234  12.669  67.082  1.00  0.00    -0.225 C  
HETATM    7  C   UNL     1     -11.419  11.736  67.367  1.00  0.00    -0.375 C  
ENDROOT
BRANCH   5   8
HETATM    8  O   UNL     1     -10.606  11.054  69.453  1.00  0.00    -0.223 OA 
BRANCH   8   9
HETATM    9  C   UNL     1     -10.257   9.724  69.083  1.00  0.00    -0.199 C  
BRANCH   9  10
HETATM   10  C   UNL     1     -10.885   8.846  70.174  1.00  0.00    -0.251 A  
HETATM   11  C   UNL     1     -11.274   7.518  69.915  1.00  0.00    -0.124 A  
HETATM   12  C   UNL     1     -10.974   9.309  71.497  1.00  0.00    -0.446 A  
HETATM   13  C   UNL     1     -11.708   6.674  70.941  1.00  0.00    -0.431 A  
HETATM   14  C   UNL     1     -11.397   8.458  72.527  1.00  0.00    -0.416 A  
HETATM   15  C   UNL     1     -11.755   7.141  72.250  1.00  0.00    -0.296 A  
ENDBRANCH   9  10
BRANCH   9  16
HETATM   16  C   UNL     1      -8.759   9.521  68.876  1.00  0.00    -0.133 A  
HETATM   17  C   UNL     1      -6.847   8.246  68.043  1.00  0.00    -0.066 A  
HETATM   18  C   UNL     1      -8.219   8.357  68.302  1.00  0.00    -0.124 A  
HETATM   19  C   UNL     1      -6.492  10.426  68.991  1.00  0.00    -0.052 A  
HETATM   20  C   UNL     1      -7.864  10.542  69.237  1.00  0.00    -0.144 A  
HETATM   21  C   UNL     1      -5.984   9.285  68.379  1.00  0.00    -0.045 A  
ENDBRANCH   9  16
ENDBRANCH   8   9
ENDBRANCH   5   8
TORSDOF 4
ENDMDL
MODEL      109
REMARK 921   NORMALIZED FREE ENERGY PREDICTED BY IDOCK:   -4.15 KCAL/MOL
REMARK 922        TOTAL FREE ENERGY PREDICTED BY IDOCK:   -6.20 KCAL/MOL
REMARK 923 INTER-LIGAND FREE ENERGY PREDICTED BY IDOCK:   -5.21 KCAL/MOL
REMARK 924 INTRA-LIGAND FREE ENERGY PREDICTED BY IDOCK:   -0.99 KCAL/MOL
REMARK 927      BINDING AFFINITY PREDICTED BY RF-SCORE:    0.00 PKD
ROOT
HETATM    1  C   UNL     1     -12.984  15.739  74.024  1.00  0.00    -0.332 C  
HETATM    2  N   UNL     1     -12.326  14.975  72.976  1.00  0.00    -0.370 NA 
HETATM    3  C   UNL     1     -13.220  14.110  72.211  1.00  0.00    -0.447 C  
HETATM    4  C   UNL     1     -13.919  14.753  71.005  1.00  0.00    -0.231 C  
HETATM    5  C   UNL     1     -12.986  15.594  70.122  1.00  0.00     0.117 C  
HETATM    6  C   UNL     1     -11.481  15.811  72.118  1.00  0.00    -0.347 C  
HETATM    7  C   UNL     1     -12.265  16.583  71.046  1.00  0.00     0.735 C  
ENDROOT
BRANCH   5   8
HETATM    8  O   UNL     1     -11.939  14.960  69.391  1.00  0.00    -0.302 OA 
BRANCH   8   9
HETATM    9  C   UNL     1     -11.420  15.518  68.189  1.00  0.00    -0.326 C  
BRANCH   9  10
HETATM   10  C   UNL     1     -11.503  14.374  67.169  1.00  0.00    -0.379 A  
HETATM   11  C   UNL     1     -11.223  13.043  67.533  1.00  0.00    -0.320 A  
HETATM   12  C   UNL     1     -11.982  14.610  65.870  1.00  0.00    -0.242 A  
HETATM   13  C   UNL     1     -11.440  11.985  66.647  1.00  0.00    -0.411 A  
HETATM   14  C   UNL     1     -12.212  13.548  64.986  1.00  0.00    -0.453 A  
HETATM   15  C   UNL     1     -11.950  12.237  65.377  1.00  0.00    -0.395 A  
ENDBRANCH   9  10
BRANCH   9  16
HETATM   16  C   UNL     1     -10.036  16.137  68.351  1.00  0.00    -0.230 A  
HETATM   17  C   UNL     1      -8.536  18.059  68.528  1.00  0.00    -0.314 A  
HETATM   18  C   UNL     1      -9.806  17.522  68.282  1.00  0.00    -0.319 A  
HETATM   19  C   UNL     1      -7.660  15.843  68.845  1.00  0.00    -0.190 A  
HETATM   20  C   UNL     1      -8.932  15.309  68.613  1.00  0.00    -0.193 A  
HETATM   21  C   UNL     1      -7.464  17.221  68.819  1.00  0.00    -0.260 A  
ENDBRANCH   9  16
ENDBRANCH   8   9
ENDBRANCH   5   8
TORSDOF 4
ENDMDL
MODEL      110
REMARK 921   NORMALIZED FREE ENERGY PREDICTED BY IDOCK:   -4.15 KCAL/MOL
REMARK 922        TOTAL FREE ENERGY PREDICTED BY IDOCK:   -6.20 KCAL/MOL
REMARK 923 INTER-LIGAND FREE ENERGY PREDICTED BY IDOCK:   -4.87 KCAL/MOL
REMARK 924 INTRA-LIGAND FREE ENERGY PREDICTED BY IDOCK:   -1.33 KCAL/MOL
REMARK 927      BINDING AFFINITY PREDICTED BY RF-SCORE:    0.00 PKD
ROOT
HETATM    1  C   UNL     1     -10.824   5.510  73.343  1.00  0.00    -0.288 C  
HETATM    2  N   UNL     1     -10.211   6.041  72.136  1.00  0.00    -0.189 NA 
HETATM    3  C   UNL     1     -10.943   5.743  70.907  1.00  0.00    -0.235 C  
HETATM    4  C   UNL     1     -12.053   6.731  70.521  1.00  0.00    -0.332 C  
HETATM    5  C   UNL     1     -11.640   8.206  70.638  1.00  0.00    -0.194 C  
HETATM    6  C   UNL     1      -9.873   7.463  72.257  1.00  0.00    -0.167 C  
HETATM    7  C   UNL     1     -11.071   8.402  72.048  1.00  0.00    -0.397 C  
ENDROOT
BRANCH   5   8
HETATM    8  O   UNL     1     -10.636   8.731  69.772  1.00  0.00    -0.220 OA 
BRANCH   8   9
HETATM    9  C   UNL     1     -10.599   8.408  68.386  1.00  0.00    -0.105 C  
BRANCH   9  10
HETATM   10  C   UNL     1      -9.390   7.473  68.244  1.00  0.00    -0.141 A  
HETATM   11  C   UNL     1      -8.179   7.730  68.915  1.00  0.00    -0.127 A  
HETATM   12  C   UNL     1      -9.502   6.265  67.536  1.00  0.00    -0.115 A  
HETATM   13  C   UNL     1      -7.130   6.806  68.904  1.00  0.00    -0.089 A  
HETATM   14  C   UNL     1      -8.455   5.334  67.536  1.00  0.00    -0.105 A  
HETATM   15  C   UNL     1      -7.276   5.600  68.226  1.00  0.00    -0.075 A  
ENDBRANCH   9  10
BRANCH   9  16
HETATM   16  C   UNL     1     -10.578   9.630  67.474  1.00  0.00    -0.339 A  
HETATM   17  C   UNL     1     -10.137  10.719  65.330  1.00  0.00    -0.347 A  
HETATM   18  C   UNL     1     -10.053   9.601  66.170  1.00  0.00    -0.328 A  
HETATM   19  C   UNL     1     -11.202  11.961  67.091  1.00  0.00    -0.377 A  
HETATM   20  C   UNL     1     -11.131  10.840  67.924  1.00  0.00    -0.369 A  
HETATM   21  C   UNL     1     -10.720  11.897  65.787  1.00  0.00    -0.327 A  
ENDBRANCH   9  16
ENDBRANCH   8   9
ENDBRANCH   5   8
TORSDOF 4
ENDMDL
MODEL      111
REMARK 921   NORMALIZED FREE ENERGY PREDICTED BY IDOCK:   -4.10 KCAL/MOL
REMARK 922        TOTAL FREE ENERGY PREDICTED BY IDOCK:   -6.14 KCAL/MOL
REMARK 923 INTER-LIGAND FREE ENERGY PREDICTED BY IDOCK:   -5.07 KCAL/MOL
REMARK 924 INTRA-LIGAND FREE ENERGY PREDICTED BY IDOCK:   -1.07 KCAL/MOL
REMARK 927      BINDING AFFINITY PREDICTED BY RF-SCORE:    0.00 PKD
ROOT
HETATM    1  C   UNL     1      -6.839   5.185  66.334  1.00  0.00    -0.062 C  
HETATM    2  N   UNL     1      -7.972   5.369  67.227  1.00  0.00    -0.101 NA 
HETATM    3  C   UNL     1      -7.750   4.887  68.589  1.00  0.00    -0.077 C  
HETATM    4  C   UNL     1      -7.097   5.879  69.562  1.00  0.00    -0.065 C  
HETATM    5  C   UNL     1      -7.700   7.290  69.509  1.00  0.00    -0.113 C  
HETATM    6  C   UNL     1      -8.497   6.738  67.194  1.00  0.00    -0.120 C  
HETATM    7  C   UNL     1      -7.684   7.730  68.040  1.00  0.00    -0.126 C  
ENDROOT
BRANCH   5   8
HETATM    8  O   UNL     1      -9.046   7.501  69.930  1.00  0.00    -0.144 OA 
BRANCH   8   9
HETATM    9  C   UNL     1      -9.354   8.214  71.122  1.00  0.00    -0.154 C  
BRANCH   9  10
HETATM   10  C   UNL     1      -9.677   7.120  72.149  1.00  0.00    -0.163 A  
HETATM   11  C   UNL     1      -9.393   7.290  73.518  1.00  0.00    -0.253 A  
HETATM   12  C   UNL     1     -10.381   5.967  71.765  1.00  0.00    -0.259 A  
HETATM   13  C   UNL     1      -9.819   6.361  74.471  1.00  0.00    -0.356 A  
HETATM   14  C   UNL     1     -10.819   5.042  72.722  1.00  0.00    -0.305 A  
HETATM   15  C   UNL     1     -10.546   5.243  74.072  1.00  0.00    -0.321 A  
ENDBRANCH   9  10
BRANCH   9  16
HETATM   16  C   UNL     1     -10.442   9.268  70.940  1.00  0.00    -0.372 A  
HETATM   17  C   UNL     1     -11.492  11.098  69.706  1.00  0.00    -0.388 A  
HETATM   18  C   UNL     1     -10.428  10.207  69.894  1.00  0.00    -0.322 A  
HETATM   19  C   UNL     1     -12.588  10.199  71.647  1.00  0.00    -0.533 A  
HETATM   20  C   UNL     1     -11.532   9.300  71.826  1.00  0.00    -0.448 A  
HETATM   21  C   UNL     1     -12.577  11.089  70.576  1.00  0.00    -0.390 A  
ENDBRANCH   9  16
ENDBRANCH   8   9
ENDBRANCH   5   8
TORSDOF 4
ENDMDL
MODEL      112
REMARK 921   NORMALIZED FREE ENERGY PREDICTED BY IDOCK:   -4.09 KCAL/MOL
REMARK 922        TOTAL FREE ENERGY PREDICTED BY IDOCK:   -6.11 KCAL/MOL
REMARK 923 INTER-LIGAND FREE ENERGY PREDICTED BY IDOCK:   -5.05 KCAL/MOL
REMARK 924 INTRA-LIGAND FREE ENERGY PREDICTED BY IDOCK:   -1.06 KCAL/MOL
REMARK 927      BINDING AFFINITY PREDICTED BY RF-SCORE:    0.00 PKD
ROOT
HETATM    1  C   UNL     1      -5.408  12.546  70.173  1.00  0.00    -0.113 C  
HETATM    2  N   UNL     1      -6.745  12.242  69.690  1.00  0.00    -0.016 NA 
HETATM    3  C   UNL     1      -7.109  12.930  68.453  1.00  0.00    -0.099 C  
HETATM    4  C   UNL     1      -6.709  12.231  67.145  1.00  0.00    -0.105 C  
HETATM    5  C   UNL     1      -7.029  10.730  67.120  1.00  0.00    -0.091 C  
HETATM    6  C   UNL     1      -7.005  10.800  69.628  1.00  0.00    -0.134 C  
HETATM    7  C   UNL     1      -6.413  10.119  68.385  1.00  0.00    -0.053 C  
ENDROOT
BRANCH   5   8
HETATM    8  O   UNL     1      -8.386  10.293  67.138  1.00  0.00    -0.121 OA 
BRANCH   8   9
HETATM    9  C   UNL     1      -8.995   9.694  65.999  1.00  0.00    -0.162 C  
BRANCH   9  10
HETATM   10  C   UNL     1     -10.144  10.644  65.635  1.00  0.00    -0.335 A  
HETATM   11  C   UNL     1     -10.797  11.417  66.615  1.00  0.00    -0.339 A  
HETATM   12  C   UNL     1     -10.493  10.860  64.292  1.00  0.00    -0.405 A  
HETATM   13  C   UNL     1     -11.740  12.387  66.267  1.00  0.00    -0.457 A  
HETATM   14  C   UNL     1     -11.429  11.842  63.943  1.00  0.00    -0.511 A  
HETATM   15  C   UNL     1     -12.044  12.610  64.928  1.00  0.00    -0.494 A  
ENDBRANCH   9  10
BRANCH   9  16
HETATM   16  C   UNL     1      -9.405   8.242  66.218  1.00  0.00    -0.267 A  
HETATM   17  C   UNL     1      -8.982   5.837  66.106  1.00  0.00    -0.154 A  
HETATM   18  C   UNL     1      -8.617   7.154  65.804  1.00  0.00    -0.143 A  
HETATM   19  C   UNL     1     -10.977   6.638  67.182  1.00  0.00    -0.478 A  
HETATM   20  C   UNL     1     -10.604   7.954  66.891  1.00  0.00    -0.333 A  
HETATM   21  C   UNL     1     -10.158   5.578  66.803  1.00  0.00    -0.242 A  
ENDBRANCH   9  16
ENDBRANCH   8   9
ENDBRANCH   5   8
TORSDOF 4
ENDMDL
MODEL      113
REMARK 921   NORMALIZED FREE ENERGY PREDICTED BY IDOCK:   -4.07 KCAL/MOL
REMARK 922        TOTAL FREE ENERGY PREDICTED BY IDOCK:   -6.10 KCAL/MOL
REMARK 923 INTER-LIGAND FREE ENERGY PREDICTED BY IDOCK:   -5.06 KCAL/MOL
REMARK 924 INTRA-LIGAND FREE ENERGY PREDICTED BY IDOCK:   -1.04 KCAL/MOL
REMARK 927      BINDING AFFINITY PREDICTED BY RF-SCORE:    0.00 PKD
ROOT
HETATM    1  C   UNL     1     -11.981  13.918  67.085  1.00  0.00    -0.420 C  
HETATM    2  N   UNL     1     -10.661  14.459  67.366  1.00  0.00    -0.268 NA 
HETATM    3  C   UNL     1      -9.941  14.934  66.186  1.00  0.00    -0.303 C  
HETATM    4  C   UNL     1     -10.211  16.386  65.766  1.00  0.00    -0.370 C  
HETATM    5  C   UNL     1     -10.188  17.384  66.933  1.00  0.00    -0.322 C  
HETATM    6  C   UNL     1     -10.677  15.446  68.450  1.00  0.00    -0.256 C  
HETATM    7  C   UNL     1     -11.140  16.842  68.005  1.00  0.00    -0.220 C  
ENDROOT
BRANCH   5   8
HETATM    8  O   UNL     1      -8.970  17.633  67.630  1.00  0.00    -0.237 OA 
BRANCH   8   9
HETATM    9  C   UNL     1      -7.701  17.436  67.014  1.00  0.00    -0.206 C  
BRANCH   9  10
HETATM   10  C   UNL     1      -6.990  16.421  67.919  1.00  0.00    -0.154 A  
HETATM   11  C   UNL     1      -6.339  15.291  67.386  1.00  0.00    -0.039 A  
HETATM   12  C   UNL     1      -6.864  16.660  69.297  1.00  0.00    -0.232 A  
HETATM   13  C   UNL     1      -5.569  14.448  68.191  1.00  0.00    -0.124 A  
HETATM   14  C   UNL     1      -6.081  15.821  70.101  1.00  0.00    -0.106 A  
HETATM   15  C   UNL     1      -5.428  14.723  69.548  1.00  0.00    -0.092 A  
ENDBRANCH   9  10
BRANCH   9  16
HETATM   16  C   UNL     1      -6.933  18.731  66.771  1.00  0.00    -0.215 A  
HETATM   17  C   UNL     1      -5.829  20.346  65.305  1.00  0.00    -0.244 A  
HETATM   18  C   UNL     1      -6.448  19.106  65.506  1.00  0.00    -0.303 A  
HETATM   19  C   UNL     1      -6.086  20.852  67.641  1.00  0.00    -0.360 A  
HETATM   20  C   UNL     1      -6.717  19.620  67.838  1.00  0.00    -0.275 A  
HETATM   21  C   UNL     1      -5.656  21.224  66.370  1.00  0.00    -0.312 A  
ENDBRANCH   9  16
ENDBRANCH   8   9
ENDBRANCH   5   8
TORSDOF 4
ENDMDL
MODEL      114
REMARK 921   NORMALIZED FREE ENERGY PREDICTED BY IDOCK:   -4.07 KCAL/MOL
REMARK 922        TOTAL FREE ENERGY PREDICTED BY IDOCK:   -6.10 KCAL/MOL
REMARK 923 INTER-LIGAND FREE ENERGY PREDICTED BY IDOCK:   -5.14 KCAL/MOL
REMARK 924 INTRA-LIGAND FREE ENERGY PREDICTED BY IDOCK:   -0.96 KCAL/MOL
REMARK 927      BINDING AFFINITY PREDICTED BY RF-SCORE:    0.00 PKD
ROOT
HETATM    1  C   UNL     1      -9.965   7.469  71.391  1.00  0.00    -0.185 C  
HETATM    2  N   UNL     1     -10.819   7.909  70.300  1.00  0.00    -0.241 NA 
HETATM    3  C   UNL     1     -11.423   9.224  70.500  1.00  0.00    -0.248 C  
HETATM    4  C   UNL     1     -10.588  10.431  70.048  1.00  0.00    -0.282 C  
HETATM    5  C   UNL     1      -9.953  10.261  68.661  1.00  0.00    -0.173 C  
HETATM    6  C   UNL     1     -10.168   7.783  68.991  1.00  0.00    -0.208 C  
HETATM    7  C   UNL     1      -9.195   8.928  68.675  1.00  0.00    -0.137 C  
ENDROOT
BRANCH   5   8
HETATM    8  O   UNL     1     -10.783  10.187  67.504  1.00  0.00    -0.257 OA 
BRANCH   8   9
HETATM    9  C   UNL     1     -11.056  11.332  66.703  1.00  0.00    -0.235 C  
BRANCH   9  10
HETATM   10  C   UNL     1     -10.571  10.941  65.300  1.00  0.00    -0.259 A  
HETATM   11  C   UNL     1     -10.994  11.641  64.154  1.00  0.00    -0.442 A  
HETATM   12  C   UNL     1      -9.590   9.949  65.136  1.00  0.00    -0.367 A  
HETATM   13  C   UNL     1     -10.442  11.383  62.897  1.00  0.00    -0.093 A  
HETATM   14  C   UNL     1      -9.027   9.699  63.877  1.00  0.00    -0.254 A  
HETATM   15  C   UNL     1      -9.446  10.421  62.763  1.00  0.00    -0.351 A  
ENDBRANCH   9  10
BRANCH   9  16
HETATM   16  C   UNL     1     -10.457  12.621  67.256  1.00  0.00    -0.237 A  
HETATM   17  C   UNL     1     -10.582  14.658  68.602  1.00  0.00    -0.252 A  
HETATM   18  C   UNL     1     -11.192  13.532  68.034  1.00  0.00    -0.300 A  
HETATM   19  C   UNL     1      -8.498  14.048  67.571  1.00  0.00    -0.201 A  
HETATM   20  C   UNL     1      -9.105  12.916  67.017  1.00  0.00    -0.228 A  
HETATM   21  C   UNL     1      -9.232  14.911  68.378  1.00  0.00    -0.189 A  
ENDBRANCH   9  16
ENDBRANCH   8   9
ENDBRANCH   5   8
TORSDOF 4
ENDMDL
MODEL      115
REMARK 921   NORMALIZED FREE ENERGY PREDICTED BY IDOCK:   -4.06 KCAL/MOL
REMARK 922        TOTAL FREE ENERGY PREDICTED BY IDOCK:   -6.09 KCAL/MOL
REMARK 923 INTER-LIGAND FREE ENERGY PREDICTED BY IDOCK:   -5.11 KCAL/MOL
REMARK 924 INTRA-LIGAND FREE ENERGY PREDICTED BY IDOCK:   -0.98 KCAL/MOL
REMARK 927      BINDING AFFINITY PREDICTED BY RF-SCORE:    0.00 PKD
ROOT
HETATM    1  C   UNL     1      -6.400   6.314  65.495  1.00  0.00    -0.038 C  
HETATM    2  N   UNL     1      -7.624   6.455  66.267  1.00  0.00    -0.088 NA 
HETATM    3  C   UNL     1      -7.419   6.521  67.712  1.00  0.00    -0.097 C  
HETATM    4  C   UNL     1      -7.143   7.915  68.296  1.00  0.00    -0.088 C  
HETATM    5  C   UNL     1      -8.083   9.007  67.767  1.00  0.00    -0.109 C  
HETATM    6  C   UNL     1      -8.479   7.538  65.771  1.00  0.00    -0.144 C  
HETATM    7  C   UNL     1      -8.038   8.934  66.236  1.00  0.00    -0.110 C  
ENDROOT
BRANCH   5   8
HETATM    8  O   UNL     1      -9.472   8.962  68.085  1.00  0.00    -0.142 OA 
BRANCH   8   9
HETATM    9  C   UNL     1     -10.047   9.832  69.054  1.00  0.00    -0.187 C  
BRANCH   9  10
HETATM   10  C   UNL     1     -10.904   8.912  69.934  1.00  0.00    -0.219 A  
HETATM   11  C   UNL     1     -11.028   7.536  69.657  1.00  0.00    -0.164 A  
HETATM   12  C   UNL     1     -11.489   9.397  71.115  1.00  0.00    -0.422 A  
HETATM   13  C   UNL     1     -11.685   6.673  70.538  1.00  0.00    -0.453 A  
HETATM   14  C   UNL     1     -12.137   8.529  72.004  1.00  0.00    -0.428 A  
HETATM   15  C   UNL     1     -12.226   7.169  71.720  1.00  0.00    -0.379 A  
ENDBRANCH   9  10
BRANCH   9  16
HETATM   16  C   UNL     1     -10.791  11.017  68.446  1.00  0.00    -0.264 A  
HETATM   17  C   UNL     1     -11.796  13.240  68.589  1.00  0.00    -0.380 A  
HETATM   18  C   UNL     1     -11.199  12.131  69.200  1.00  0.00    -0.303 A  
HETATM   19  C   UNL     1     -11.673  12.134  66.459  1.00  0.00    -0.392 A  
HETATM   20  C   UNL     1     -11.063  11.032  67.068  1.00  0.00    -0.311 A  
HETATM   21  C   UNL     1     -12.025  13.246  67.217  1.00  0.00    -0.393 A  
ENDBRANCH   9  16
ENDBRANCH   8   9
ENDBRANCH   5   8
TORSDOF 4
ENDMDL
MODEL      116
REMARK 921   NORMALIZED FREE ENERGY PREDICTED BY IDOCK:   -4.04 KCAL/MOL
REMARK 922        TOTAL FREE ENERGY PREDICTED BY IDOCK:   -6.06 KCAL/MOL
REMARK 923 INTER-LIGAND FREE ENERGY PREDICTED BY IDOCK:   -4.99 KCAL/MOL
REMARK 924 INTRA-LIGAND FREE ENERGY PREDICTED BY IDOCK:   -1.07 KCAL/MOL
REMARK 927      BINDING AFFINITY PREDICTED BY RF-SCORE:    0.00 PKD
ROOT
HETATM    1  C   UNL     1     -10.636  16.335  67.034  1.00  0.00    -0.284 C  
HETATM    2  N   UNL     1     -11.147  14.988  67.234  1.00  0.00    -0.327 NA 
HETATM    3  C   UNL     1     -11.770  14.400  66.050  1.00  0.00    -0.375 C  
HETATM    4  C   UNL     1     -10.829  13.668  65.082  1.00  0.00    -0.338 C  
HETATM    5  C   UNL     1      -9.833  12.727  65.775  1.00  0.00    -0.214 C  
HETATM    6  C   UNL     1     -10.159  14.098  67.851  1.00  0.00    -0.235 C  
HETATM    7  C   UNL     1      -9.124  13.546  66.860  1.00  0.00    -0.246 C  
ENDROOT
BRANCH   5   8
HETATM    8  O   UNL     1     -10.309  11.568  66.456  1.00  0.00    -0.218 OA 
BRANCH   8   9
HETATM    9  C   UNL     1     -10.278  10.279  65.853  1.00  0.00    -0.223 C  
BRANCH   9  10
HETATM   10  C   UNL     1     -10.309   9.302  67.036  1.00  0.00    -0.325 A  
HETATM   11  C   UNL     1     -10.628   7.942  66.859  1.00  0.00    -0.333 A  
HETATM   12  C   UNL     1      -9.896   9.717  68.313  1.00  0.00    -0.169 A  
HETATM   13  C   UNL     1     -10.513   7.025  67.906  1.00  0.00    -0.267 A  
HETATM   14  C   UNL     1      -9.769   8.794  69.360  1.00  0.00    -0.172 A  
HETATM   15  C   UNL     1     -10.068   7.450  69.154  1.00  0.00    -0.189 A  
ENDBRANCH   9  10
BRANCH   9  16
HETATM   16  C   UNL     1      -9.115  10.085  64.887  1.00  0.00    -0.265 A  
HETATM   17  C   UNL     1      -8.092  10.259  62.673  1.00  0.00    -0.164 A  
HETATM   18  C   UNL     1      -9.209  10.361  63.512  1.00  0.00    -0.310 A  
HETATM   19  C   UNL     1      -6.762   9.524  64.536  1.00  0.00    -0.095 A  
HETATM   20  C   UNL     1      -7.875   9.641  65.375  1.00  0.00    -0.117 A  
HETATM   21  C   UNL     1      -6.865   9.849  63.186  1.00  0.00    -0.125 A  
ENDBRANCH   9  16
ENDBRANCH   8   9
ENDBRANCH   5   8
TORSDOF 4
ENDMDL
MODEL      117
REMARK 921   NORMALIZED FREE ENERGY PREDICTED BY IDOCK:   -4.04 KCAL/MOL
REMARK 922        TOTAL FREE ENERGY PREDICTED BY IDOCK:   -6.06 KCAL/MOL
REMARK 923 INTER-LIGAND FREE ENERGY PREDICTED BY IDOCK:   -4.92 KCAL/MOL
REMARK 924 INTRA-LIGAND FREE ENERGY PREDICTED BY IDOCK:   -1.13 KCAL/MOL
REMARK 927      BINDING AFFINITY PREDICTED BY RF-SCORE:    0.00 PKD
ROOT
HETATM    1  C   UNL     1      -8.961   8.330  72.096  1.00  0.00    -0.209 C  
HETATM    2  N   UNL     1      -9.172   9.400  71.135  1.00  0.00    -0.253 NA 
HETATM    3  C   UNL     1      -8.099   9.550  70.155  1.00  0.00    -0.174 C  
HETATM    4  C   UNL     1      -8.208   8.685  68.892  1.00  0.00    -0.123 C  
HETATM    5  C   UNL     1      -9.608   8.680  68.261  1.00  0.00    -0.147 C  
HETATM    6  C   UNL     1     -10.498   9.342  70.512  1.00  0.00    -0.274 C  
HETATM    7  C   UNL     1     -10.599   8.316  69.373  1.00  0.00    -0.203 C  
ENDROOT
BRANCH   5   8
HETATM    8  O   UNL     1     -10.133   9.877  67.693  1.00  0.00    -0.176 OA 
BRANCH   8   9
HETATM    9  C   UNL     1      -9.337  10.732  66.879  1.00  0.00    -0.160 C  
BRANCH   9  10
HETATM   10  C   UNL     1      -9.837  12.146  67.206  1.00  0.00    -0.202 A  
HETATM   11  C   UNL     1      -9.043  13.282  66.957  1.00  0.00    -0.232 A  
HETATM   12  C   UNL     1     -11.154  12.352  67.648  1.00  0.00    -0.306 A  
HETATM   13  C   UNL     1      -9.551  14.574  67.116  1.00  0.00    -0.233 A  
HETATM   14  C   UNL     1     -11.667  13.648  67.795  1.00  0.00    -0.397 A  
HETATM   15  C   UNL     1     -10.870  14.756  67.521  1.00  0.00    -0.287 A  
ENDBRANCH   9  10
BRANCH   9  16
HETATM   16  C   UNL     1      -9.365  10.366  65.399  1.00  0.00    -0.252 A  
HETATM   17  C   UNL     1     -10.073  10.750  63.091  1.00  0.00    -0.268 A  
HETATM   18  C   UNL     1     -10.146  11.056  64.455  1.00  0.00    -0.380 A  
HETATM   19  C   UNL     1      -8.495   9.000  63.568  1.00  0.00    -0.173 A  
HETATM   20  C   UNL     1      -8.558   9.316  64.929  1.00  0.00    -0.204 A  
HETATM   21  C   UNL     1      -9.241   9.728  62.645  1.00  0.00    -0.268 A  
ENDBRANCH   9  16
ENDBRANCH   8   9
ENDBRANCH   5   8
TORSDOF 4
ENDMDL
MODEL      118
REMARK 921   NORMALIZED FREE ENERGY PREDICTED BY IDOCK:   -3.99 KCAL/MOL
REMARK 922        TOTAL FREE ENERGY PREDICTED BY IDOCK:   -6.00 KCAL/MOL
REMARK 923 INTER-LIGAND FREE ENERGY PREDICTED BY IDOCK:   -4.81 KCAL/MOL
REMARK 924 INTRA-LIGAND FREE ENERGY PREDICTED BY IDOCK:   -1.19 KCAL/MOL
REMARK 927      BINDING AFFINITY PREDICTED BY RF-SCORE:    0.00 PKD
ROOT
HETATM    1  C   UNL     1     -13.593   9.097  72.266  1.00  0.00    -0.489 C  
HETATM    2  N   UNL     1     -12.522   8.725  71.355  1.00  0.00    -0.309 NA 
HETATM    3  C   UNL     1     -11.188   9.120  71.801  1.00  0.00    -0.381 C  
HETATM    4  C   UNL     1     -10.459   8.130  72.722  1.00  0.00    -0.385 C  
HETATM    5  C   UNL     1     -10.533   6.671  72.248  1.00  0.00    -0.205 C  
HETATM    6  C   UNL     1     -12.587   7.314  70.959  1.00  0.00    -0.263 C  
HETATM    7  C   UNL     1     -12.013   6.352  72.009  1.00  0.00    -0.375 C  
ENDROOT
BRANCH   5   8
HETATM    8  O   UNL     1      -9.885   6.285  71.038  1.00  0.00    -0.178 OA 
BRANCH   8   9
HETATM    9  C   UNL     1     -10.012   4.971  70.506  1.00  0.00    -0.242 C  
BRANCH   9  10
HETATM   10  C   UNL     1      -8.883   4.176  71.177  1.00  0.00    -0.149 A  
HETATM   11  C   UNL     1      -7.540   4.592  71.091  1.00  0.00    -0.071 A  
HETATM   12  C   UNL     1      -9.177   3.077  72.001  1.00  0.00    -0.167 A  
HETATM   13  C   UNL     1      -6.533   3.954  71.821  1.00  0.00    -0.015 A  
HETATM   14  C   UNL     1      -8.169   2.447  72.742  1.00  0.00    -0.059 A  
HETATM   15  C   UNL     1      -6.852   2.890  72.659  1.00  0.00    -0.026 A  
ENDBRANCH   9  10
BRANCH   9  16
HETATM   16  C   UNL     1     -10.013   4.926  68.982  1.00  0.00    -0.237 A  
HETATM   17  C   UNL     1      -9.753   3.750  66.855  1.00  0.00    -0.147 A  
HETATM   18  C   UNL     1      -9.649   3.782  68.251  1.00  0.00    -0.171 A  
HETATM   19  C   UNL     1     -10.513   6.030  66.859  1.00  0.00    -0.344 A  
HETATM   20  C   UNL     1     -10.424   6.056  68.255  1.00  0.00    -0.289 A  
HETATM   21  C   UNL     1     -10.194   4.871  66.159  1.00  0.00    -0.309 A  
ENDBRANCH   9  16
ENDBRANCH   8   9
ENDBRANCH   5   8
TORSDOF 4
ENDMDL
MODEL      119
REMARK 921   NORMALIZED FREE ENERGY PREDICTED BY IDOCK:   -3.98 KCAL/MOL
REMARK 922        TOTAL FREE ENERGY PREDICTED BY IDOCK:   -5.98 KCAL/MOL
REMARK 923 INTER-LIGAND FREE ENERGY PREDICTED BY IDOCK:   -5.04 KCAL/MOL
REMARK 924 INTRA-LIGAND FREE ENERGY PREDICTED BY IDOCK:   -0.94 KCAL/MOL
REMARK 927      BINDING AFFINITY PREDICTED BY RF-SCORE:    0.00 PKD
ROOT
HETATM    1  C   UNL     1     -11.073   6.006  69.743  1.00  0.00    -0.406 C  
HETATM    2  N   UNL     1      -9.939   6.567  69.026  1.00  0.00    -0.142 NA 
HETATM    3  C   UNL     1     -10.033   6.459  67.572  1.00  0.00    -0.136 C  
HETATM    4  C   UNL     1     -10.775   7.595  66.853  1.00  0.00    -0.271 C  
HETATM    5  C   UNL     1     -10.376   8.998  67.332  1.00  0.00    -0.268 C  
HETATM    6  C   UNL     1      -9.612   7.926  69.468  1.00  0.00    -0.160 C  
HETATM    7  C   UNL     1     -10.517   9.007  68.859  1.00  0.00    -0.231 C  
ENDROOT
BRANCH   5   8
HETATM    8  O   UNL     1      -9.056   9.480  67.093  1.00  0.00    -0.133 OA 
BRANCH   8   9
HETATM    9  C   UNL     1      -8.818  10.703  66.404  1.00  0.00    -0.154 C  
BRANCH   9  10
HETATM   10  C   UNL     1      -8.048  11.567  67.412  1.00  0.00    -0.146 A  
HETATM   11  C   UNL     1      -7.598  11.040  68.639  1.00  0.00    -0.124 A  
HETATM   12  C   UNL     1      -7.664  12.876  67.082  1.00  0.00    -0.058 A  
HETATM   13  C   UNL     1      -6.773  11.780  69.490  1.00  0.00    -0.067 A  
HETATM   14  C   UNL     1      -6.826  13.614  67.930  1.00  0.00    -0.155 A  
HETATM   15  C   UNL     1      -6.375  13.063  69.126  1.00  0.00    -0.105 A  
ENDBRANCH   9  10
BRANCH   9  16
HETATM   16  C   UNL     1     -10.083  11.343  65.842  1.00  0.00    -0.286 A  
HETATM   17  C   UNL     1     -12.104  12.699  66.072  1.00  0.00    -0.429 A  
HETATM   18  C   UNL     1     -11.003  12.046  66.639  1.00  0.00    -0.330 A  
HETATM   19  C   UNL     1     -11.453  11.907  63.898  1.00  0.00    -0.511 A  
HETATM   20  C   UNL     1     -10.345  11.267  64.464  1.00  0.00    -0.381 A  
HETATM   21  C   UNL     1     -12.325  12.638  64.699  1.00  0.00    -0.546 A  
ENDBRANCH   9  16
ENDBRANCH   8   9
ENDBRANCH   5   8
TORSDOF 4
ENDMDL
MODEL      120
REMARK 921   NORMALIZED FREE ENERGY PREDICTED BY IDOCK:   -3.98 KCAL/MOL
REMARK 922        TOTAL FREE ENERGY PREDICTED BY IDOCK:   -5.98 KCAL/MOL
REMARK 923 INTER-LIGAND FREE ENERGY PREDICTED BY IDOCK:   -5.16 KCAL/MOL
REMARK 924 INTRA-LIGAND FREE ENERGY PREDICTED BY IDOCK:   -0.83 KCAL/MOL
REMARK 927      BINDING AFFINITY PREDICTED BY RF-SCORE:    0.00 PKD
ROOT
HETATM    1  C   UNL     1     -13.978  13.941  72.017  1.00  0.00    -0.495 C  
HETATM    2  N   UNL     1     -12.579  13.720  71.687  1.00  0.00    -0.314 NA 
HETATM    3  C   UNL     1     -12.309  12.437  71.043  1.00  0.00    -0.210 C  
HETATM    4  C   UNL     1     -12.452  12.402  69.514  1.00  0.00     0.184 C  
HETATM    5  C   UNL     1     -11.790  13.590  68.801  1.00  0.00    -0.355 C  
HETATM    6  C   UNL     1     -11.987  14.849  70.963  1.00  0.00    -0.320 C  
HETATM    7  C   UNL     1     -12.325  14.865  69.465  1.00  0.00    -0.202 C  
ENDROOT
BRANCH   5   8
HETATM    8  O   UNL     1     -10.373  13.737  68.835  1.00  0.00    -0.219 OA 
BRANCH   8   9
HETATM    9  C   UNL     1      -9.563  13.461  67.698  1.00  0.00    -0.219 C  
BRANCH   9  10
HETATM   10  C   UNL     1     -10.543  13.483  66.516  1.00  0.00    -0.281 A  
HETATM   11  C   UNL     1     -10.845  14.677  65.834  1.00  0.00    -0.312 A  
HETATM   12  C   UNL     1     -11.070  12.285  66.006  1.00  0.00    -0.347 A  
HETATM   13  C   UNL     1     -11.620  14.675  64.671  1.00  0.00    -0.406 A  
HETATM   14  C   UNL     1     -11.836  12.282  64.832  1.00  0.00    -0.417 A  
HETATM   15  C   UNL     1     -12.102  13.473  64.162  1.00  0.00    -0.488 A  
ENDBRANCH   9  10
BRANCH   9  16
HETATM   16  C   UNL     1      -8.741  12.183  67.829  1.00  0.00    -0.171 A  
HETATM   17  C   UNL     1      -8.316   9.977  68.793  1.00  0.00    -0.121 A  
HETATM   18  C   UNL     1      -9.037  11.178  68.765  1.00  0.00    -0.144 A  
HETATM   19  C   UNL     1      -6.925  10.773  67.001  1.00  0.00    -0.100 A  
HETATM   20  C   UNL     1      -7.655  11.965  66.965  1.00  0.00    -0.134 A  
HETATM   21  C   UNL     1      -7.265   9.770  67.904  1.00  0.00    -0.084 A  
ENDBRANCH   9  16
ENDBRANCH   8   9
ENDBRANCH   5   8
TORSDOF 4
ENDMDL
MODEL      121
REMARK 921   NORMALIZED FREE ENERGY PREDICTED BY IDOCK:   -3.97 KCAL/MOL
REMARK 922        TOTAL FREE ENERGY PREDICTED BY IDOCK:   -5.97 KCAL/MOL
REMARK 923 INTER-LIGAND FREE ENERGY PREDICTED BY IDOCK:   -4.82 KCAL/MOL
REMARK 924 INTRA-LIGAND FREE ENERGY PREDICTED BY IDOCK:   -1.16 KCAL/MOL
REMARK 927      BINDING AFFINITY PREDICTED BY RF-SCORE:    0.00 PKD
ROOT
HETATM    1  C   UNL     1     -10.763   6.962  73.487  1.00  0.00    -0.312 C  
HETATM    2  N   UNL     1     -10.707   8.075  72.553  1.00  0.00    -0.314 NA 
HETATM    3  C   UNL     1      -9.415   8.241  71.891  1.00  0.00    -0.220 C  
HETATM    4  C   UNL     1      -9.204   7.430  70.604  1.00  0.00    -0.157 C  
HETATM    5  C   UNL     1     -10.394   7.483  69.634  1.00  0.00    -0.225 C  
HETATM    6  C   UNL     1     -11.828   8.073  71.608  1.00  0.00    -0.289 C  
HETATM    7  C   UNL     1     -11.643   7.097  70.436  1.00  0.00    -0.300 C  
ENDROOT
BRANCH   5   8
HETATM    8  O   UNL     1     -10.741   8.714  69.005  1.00  0.00    -0.198 OA 
BRANCH   8   9
HETATM    9  C   UNL     1      -9.761   9.700  68.695  1.00  0.00    -0.155 C  
BRANCH   9  10
HETATM   10  C   UNL     1     -10.518  11.032  68.782  1.00  0.00    -0.222 A  
HETATM   11  C   UNL     1     -10.560  11.926  67.695  1.00  0.00    -0.241 A  
HETATM   12  C   UNL     1     -11.294  11.338  69.912  1.00  0.00    -0.329 A  
HETATM   13  C   UNL     1     -11.367  13.067  67.721  1.00  0.00    -0.333 A  
HETATM   14  C   UNL     1     -12.113  12.476  69.933  1.00  0.00    -0.322 A  
HETATM   15  C   UNL     1     -12.156  13.332  68.836  1.00  0.00    -0.260 A  
ENDBRANCH   9  10
BRANCH   9  16
HETATM   16  C   UNL     1      -9.043   9.452  67.373  1.00  0.00    -0.141 A  
HETATM   17  C   UNL     1      -9.031   8.912  64.989  1.00  0.00    -0.160 A  
HETATM   18  C   UNL     1      -9.710   9.038  66.207  1.00  0.00    -0.345 A  
HETATM   19  C   UNL     1      -6.976   9.533  66.071  1.00  0.00    -0.091 A  
HETATM   20  C   UNL     1      -7.659   9.673  67.284  1.00  0.00    -0.091 A  
HETATM   21  C   UNL     1      -7.665   9.168  64.918  1.00  0.00    -0.110 A  
ENDBRANCH   9  16
ENDBRANCH   8   9
ENDBRANCH   5   8
TORSDOF 4
ENDMDL
MODEL      122
REMARK 921   NORMALIZED FREE ENERGY PREDICTED BY IDOCK:   -3.91 KCAL/MOL
REMARK 922        TOTAL FREE ENERGY PREDICTED BY IDOCK:   -5.90 KCAL/MOL
REMARK 923 INTER-LIGAND FREE ENERGY PREDICTED BY IDOCK:   -5.63 KCAL/MOL
REMARK 924 INTRA-LIGAND FREE ENERGY PREDICTED BY IDOCK:   -0.27 KCAL/MOL
REMARK 927      BINDING AFFINITY PREDICTED BY RF-SCORE:    0.00 PKD
ROOT
HETATM    1  C   UNL     1      -8.364   4.633  66.752  1.00  0.00    -0.106 C  
HETATM    2  N   UNL     1      -9.394   5.509  67.288  1.00  0.00    -0.113 NA 
HETATM    3  C   UNL     1      -9.097   6.044  68.615  1.00  0.00    -0.116 C  
HETATM    4  C   UNL     1      -8.276   7.340  68.656  1.00  0.00    -0.125 C  
HETATM    5  C   UNL     1      -8.754   8.410  67.664  1.00  0.00    -0.137 C  
HETATM    6  C   UNL     1      -9.796   6.551  66.339  1.00  0.00    -0.052 C  
HETATM    7  C   UNL     1      -8.828   7.742  66.286  1.00  0.00    -0.187 C  
ENDROOT
BRANCH   5   8
HETATM    8  O   UNL     1     -10.034   9.015  67.836  1.00  0.00    -0.161 OA 
BRANCH   8   9
HETATM    9  C   UNL     1     -10.174  10.397  68.144  1.00  0.00    -0.161 C  
BRANCH   9  10
HETATM   10  C   UNL     1     -11.028  10.421  69.420  1.00  0.00    -0.296 A  
HETATM   11  C   UNL     1     -11.629  11.608  69.880  1.00  0.00    -0.366 A  
HETATM   12  C   UNL     1     -11.334   9.227  70.094  1.00  0.00    -0.193 A  
HETATM   13  C   UNL     1     -12.523  11.602  70.954  1.00  0.00    -0.440 A  
HETATM   14  C   UNL     1     -12.241   9.220  71.162  1.00  0.00    -0.373 A  
HETATM   15  C   UNL     1     -12.840  10.403  71.585  1.00  0.00    -0.579 A  
ENDBRANCH   9  10
BRANCH   9  16
HETATM   16  C   UNL     1     -10.720  11.229  66.989  1.00  0.00    -0.305 A  
HETATM   17  C   UNL     1     -11.066  11.652  64.606  1.00  0.00    -0.342 A  
HETATM   18  C   UNL     1     -10.471  10.919  65.640  1.00  0.00    -0.274 A  
HETATM   19  C   UNL     1     -12.121  13.081  66.226  1.00  0.00    -0.453 A  
HETATM   20  C   UNL     1     -11.537  12.339  67.258  1.00  0.00    -0.427 A  
HETATM   21  C   UNL     1     -11.899  12.727  64.898  1.00  0.00    -0.424 A  
ENDBRANCH   9  16
ENDBRANCH   8   9
ENDBRANCH   5   8
TORSDOF 4
ENDMDL
MODEL      123
REMARK 921   NORMALIZED FREE ENERGY PREDICTED BY IDOCK:   -3.90 KCAL/MOL
REMARK 922        TOTAL FREE ENERGY PREDICTED BY IDOCK:   -5.89 KCAL/MOL
REMARK 923 INTER-LIGAND FREE ENERGY PREDICTED BY IDOCK:   -5.75 KCAL/MOL
REMARK 924 INTRA-LIGAND FREE ENERGY PREDICTED BY IDOCK:   -0.14 KCAL/MOL
REMARK 927      BINDING AFFINITY PREDICTED BY RF-SCORE:    0.00 PKD
ROOT
HETATM    1  C   UNL     1      -7.654   7.065  74.022  1.00  0.00    -0.105 C  
HETATM    2  N   UNL     1      -7.984   8.256  73.254  1.00  0.00    -0.287 NA 
HETATM    3  C   UNL     1      -7.021   8.581  72.205  1.00  0.00    -0.077 C  
HETATM    4  C   UNL     1      -7.245   7.904  70.845  1.00  0.00    -0.053 C  
HETATM    5  C   UNL     1      -8.703   7.943  70.364  1.00  0.00    -0.137 C  
HETATM    6  C   UNL     1      -9.366   8.243  72.765  1.00  0.00    -0.268 C  
HETATM    7  C   UNL     1      -9.566   7.389  71.504  1.00  0.00    -0.163 C  
ENDROOT
BRANCH   5   8
HETATM    8  O   UNL     1      -9.307   9.191  70.033  1.00  0.00    -0.172 OA 
BRANCH   8   9
HETATM    9  C   UNL     1     -10.611   9.265  69.466  1.00  0.00    -0.224 C  
BRANCH   9  10
HETATM   10  C   UNL     1     -10.373   9.711  68.017  1.00  0.00    -0.262 A  
HETATM   11  C   UNL     1      -9.805   8.843  67.064  1.00  0.00    -0.277 A  
HETATM   12  C   UNL     1     -10.832  10.962  67.572  1.00  0.00    -0.324 A  
HETATM   13  C   UNL     1      -9.724   9.197  65.715  1.00  0.00    -0.299 A  
HETATM   14  C   UNL     1     -10.762  11.310  66.216  1.00  0.00    -0.312 A  
HETATM   15  C   UNL     1     -10.218  10.426  65.289  1.00  0.00    -0.332 A  
ENDBRANCH   9  10
BRANCH   9  16
HETATM   16  C   UNL     1     -11.573  10.142  70.260  1.00  0.00    -0.379 A  
HETATM   17  C   UNL     1     -13.271  10.471  71.988  1.00  0.00    -0.483 A  
HETATM   18  C   UNL     1     -12.469   9.625  71.212  1.00  0.00    -0.445 A  
HETATM   19  C   UNL     1     -12.370  12.379  70.836  1.00  0.00    -0.358 A  
HETATM   20  C   UNL     1     -11.559  11.534  70.072  1.00  0.00    -0.364 A  
HETATM   21  C   UNL     1     -13.216  11.850  71.807  1.00  0.00    -0.426 A  
ENDBRANCH   9  16
ENDBRANCH   8   9
ENDBRANCH   5   8
TORSDOF 4
ENDMDL
MODEL      124
REMARK 921   NORMALIZED FREE ENERGY PREDICTED BY IDOCK:   -3.89 KCAL/MOL
REMARK 922        TOTAL FREE ENERGY PREDICTED BY IDOCK:   -5.88 KCAL/MOL
REMARK 923 INTER-LIGAND FREE ENERGY PREDICTED BY IDOCK:   -4.69 KCAL/MOL
REMARK 924 INTRA-LIGAND FREE ENERGY PREDICTED BY IDOCK:   -1.19 KCAL/MOL
REMARK 927      BINDING AFFINITY PREDICTED BY RF-SCORE:    0.00 PKD
ROOT
HETATM    1  C   UNL     1      -6.172   9.937  64.237  1.00  0.00    -0.124 C  
HETATM    2  N   UNL     1      -6.930  10.324  65.416  1.00  0.00    -0.139 NA 
HETATM    3  C   UNL     1      -8.380  10.291  65.237  1.00  0.00    -0.163 C  
HETATM    4  C   UNL     1      -9.066   8.943  65.502  1.00  0.00    -0.248 C  
HETATM    5  C   UNL     1      -8.598   8.251  66.790  1.00  0.00    -0.127 C  
HETATM    6  C   UNL     1      -6.496   9.611  66.621  1.00  0.00    -0.067 C  
HETATM    7  C   UNL     1      -7.067   8.189  66.735  1.00  0.00    -0.077 C  
ENDROOT
BRANCH   5   8
HETATM    8  O   UNL     1      -8.887   8.839  68.056  1.00  0.00    -0.139 OA 
BRANCH   8   9
HETATM    9  C   UNL     1     -10.223   9.091  68.478  1.00  0.00    -0.200 C  
BRANCH   9  10
HETATM   10  C   UNL     1     -10.395  10.608  68.319  1.00  0.00    -0.201 A  
HETATM   11  C   UNL     1      -9.293  11.483  68.379  1.00  0.00    -0.194 A  
HETATM   12  C   UNL     1     -11.645  11.152  67.985  1.00  0.00    -0.337 A  
HETATM   13  C   UNL     1      -9.427  12.843  68.088  1.00  0.00    -0.218 A  
HETATM   14  C   UNL     1     -11.777  12.514  67.682  1.00  0.00    -0.423 A  
HETATM   15  C   UNL     1     -10.669  13.355  67.724  1.00  0.00    -0.259 A  
ENDBRANCH   9  10
BRANCH   9  16
HETATM   16  C   UNL     1     -10.536   8.550  69.869  1.00  0.00    -0.219 A  
HETATM   17  C   UNL     1     -10.309   8.586  72.303  1.00  0.00    -0.402 A  
HETATM   18  C   UNL     1      -9.927   9.044  71.036  1.00  0.00    -0.349 A  
HETATM   19  C   UNL     1     -11.868   7.067  71.283  1.00  0.00    -0.371 A  
HETATM   20  C   UNL     1     -11.496   7.536  70.019  1.00  0.00    -0.049 A  
HETATM   21  C   UNL     1     -11.286   7.604  72.428  1.00  0.00    -0.381 A  
ENDBRANCH   9  16
ENDBRANCH   8   9
ENDBRANCH   5   8
TORSDOF 4
ENDMDL
MODEL      125
REMARK 921   NORMALIZED FREE ENERGY PREDICTED BY IDOCK:   -3.85 KCAL/MOL
REMARK 922        TOTAL FREE ENERGY PREDICTED BY IDOCK:   -5.82 KCAL/MOL
REMARK 923 INTER-LIGAND FREE ENERGY PREDICTED BY IDOCK:   -4.73 KCAL/MOL
REMARK 924 INTRA-LIGAND FREE ENERGY PREDICTED BY IDOCK:   -1.10 KCAL/MOL
REMARK 927      BINDING AFFINITY PREDICTED BY RF-SCORE:    0.00 PKD
ROOT
HETATM    1  C   UNL     1      -7.007   8.503  72.629  1.00  0.00    -0.033 C  
HETATM    2  N   UNL     1      -7.412   9.379  71.542  1.00  0.00    -0.304 NA 
HETATM    3  C   UNL     1      -6.348   9.690  70.590  1.00  0.00    -0.097 C  
HETATM    4  C   UNL     1      -6.162   8.697  69.433  1.00  0.00    -0.041 C  
HETATM    5  C   UNL     1      -7.475   8.276  68.759  1.00  0.00    -0.096 C  
HETATM    6  C   UNL     1      -8.641   8.925  70.883  1.00  0.00    -0.199 C  
HETATM    7  C   UNL     1      -8.415   7.794  69.870  1.00  0.00    -0.132 C  
ENDROOT
BRANCH   5   8
HETATM    8  O   UNL     1      -8.241   9.236  68.036  1.00  0.00    -0.114 OA 
BRANCH   8   9
HETATM    9  C   UNL     1      -8.688   8.991  66.706  1.00  0.00    -0.123 C  
BRANCH   9  10
HETATM   10  C   UNL     1      -9.729  10.088  66.444  1.00  0.00    -0.266 A  
HETATM   11  C   UNL     1     -10.382  10.749  67.502  1.00  0.00    -0.244 A  
HETATM   12  C   UNL     1      -9.966  10.548  65.139  1.00  0.00    -0.375 A  
HETATM   13  C   UNL     1     -11.218  11.845  67.270  1.00  0.00    -0.376 A  
HETATM   14  C   UNL     1     -10.794  11.655  64.907  1.00  0.00    -0.359 A  
HETATM   15  C   UNL     1     -11.411  12.307  65.972  1.00  0.00    -0.398 A  
ENDBRANCH   9  10
BRANCH   9  16
HETATM   16  C   UNL     1      -9.183   7.567  66.482  1.00  0.00    -0.217 A  
HETATM   17  C   UNL     1      -8.873   5.268  65.708  1.00  0.00    -0.149 A  
HETATM   18  C   UNL     1      -8.424   6.591  65.813  1.00  0.00    -0.149 A  
HETATM   19  C   UNL     1     -10.893   5.864  66.868  1.00  0.00    -0.376 A  
HETATM   20  C   UNL     1     -10.436   7.181  66.984  1.00  0.00    -0.392 A  
HETATM   21  C   UNL     1     -10.104   4.902  66.244  1.00  0.00    -0.285 A  
ENDBRANCH   9  16
ENDBRANCH   8   9
ENDBRANCH   5   8
TORSDOF 4
ENDMDL
MODEL      126
REMARK 921   NORMALIZED FREE ENERGY PREDICTED BY IDOCK:   -3.84 KCAL/MOL
REMARK 922        TOTAL FREE ENERGY PREDICTED BY IDOCK:   -5.81 KCAL/MOL
REMARK 923 INTER-LIGAND FREE ENERGY PREDICTED BY IDOCK:   -4.95 KCAL/MOL
REMARK 924 INTRA-LIGAND FREE ENERGY PREDICTED BY IDOCK:   -0.86 KCAL/MOL
REMARK 927      BINDING AFFINITY PREDICTED BY RF-SCORE:    0.00 PKD
ROOT
HETATM    1  C   UNL     1      -5.782   9.047  71.673  1.00  0.00    -0.061 C  
HETATM    2  N   UNL     1      -7.052   9.557  71.183  1.00  0.00    -0.319 NA 
HETATM    3  C   UNL     1      -6.932  10.528  70.098  1.00  0.00    -0.113 C  
HETATM    4  C   UNL     1      -6.861   9.952  68.677  1.00  0.00    -0.051 C  
HETATM    5  C   UNL     1      -7.899   8.856  68.398  1.00  0.00    -0.104 C  
HETATM    6  C   UNL     1      -8.007   8.487  70.877  1.00  0.00    -0.110 C  
HETATM    7  C   UNL     1      -7.765   7.816  69.517  1.00  0.00    -0.105 C  
ENDROOT
BRANCH   5   8
HETATM    8  O   UNL     1      -9.287   9.182  68.378  1.00  0.00    -0.135 OA 
BRANCH   8   9
HETATM    9  C   UNL     1      -9.738  10.527  68.261  1.00  0.00    -0.154 C  
BRANCH   9  10
HETATM   10  C   UNL     1     -10.915  10.623  69.242  1.00  0.00    -0.294 A  
HETATM   11  C   UNL     1     -11.464   9.475  69.845  1.00  0.00    -0.100 A  
HETATM   12  C   UNL     1     -11.395  11.875  69.658  1.00  0.00    -0.266 A  
HETATM   13  C   UNL     1     -12.434   9.572  70.846  1.00  0.00    -0.277 A  
HETATM   14  C   UNL     1     -12.358  11.973  70.671  1.00  0.00    -0.394 A  
HETATM   15  C   UNL     1     -12.870  10.824  71.270  1.00  0.00    -0.540 A  
ENDBRANCH   9  10
BRANCH   9  16
HETATM   16  C   UNL     1     -10.059  10.940  66.828  1.00  0.00    -0.259 A  
HETATM   17  C   UNL     1     -10.723  12.593  65.154  1.00  0.00    -0.321 A  
HETATM   18  C   UNL     1     -10.529  12.221  66.490  1.00  0.00    -0.254 A  
HETATM   19  C   UNL     1     -10.060  10.394  64.446  1.00  0.00    -0.342 A  
HETATM   20  C   UNL     1      -9.852  10.028  65.780  1.00  0.00    -0.345 A  
HETATM   21  C   UNL     1     -10.480  11.683  64.130  1.00  0.00    -0.402 A  
ENDBRANCH   9  16
ENDBRANCH   8   9
ENDBRANCH   5   8
TORSDOF 4
ENDMDL
MODEL      127
REMARK 921   NORMALIZED FREE ENERGY PREDICTED BY IDOCK:   -3.80 KCAL/MOL
REMARK 922        TOTAL FREE ENERGY PREDICTED BY IDOCK:   -5.77 KCAL/MOL
REMARK 923 INTER-LIGAND FREE ENERGY PREDICTED BY IDOCK:   -4.67 KCAL/MOL
REMARK 924 INTRA-LIGAND FREE ENERGY PREDICTED BY IDOCK:   -1.09 KCAL/MOL
REMARK 927      BINDING AFFINITY PREDICTED BY RF-SCORE:    0.00 PKD
ROOT
HETATM    1  C   UNL     1     -11.751  15.374  68.570  1.00  0.00    -0.338 C  
HETATM    2  N   UNL     1     -11.838  13.978  68.173  1.00  0.00    -0.357 NA 
HETATM    3  C   UNL     1     -12.143  13.772  66.759  1.00  0.00    -0.418 C  
HETATM    4  C   UNL     1     -10.942  13.747  65.802  1.00  0.00    -0.280 C  
HETATM    5  C   UNL     1      -9.769  12.890  66.301  1.00  0.00    -0.268 C  
HETATM    6  C   UNL     1     -10.681  13.194  68.618  1.00  0.00    -0.250 C  
HETATM    7  C   UNL     1      -9.444  13.359  67.724  1.00  0.00    -0.210 C  
ENDROOT
BRANCH   5   8
HETATM    8  O   UNL     1      -9.922  11.477  66.418  1.00  0.00    -0.200 OA 
BRANCH   8   9
HETATM    9  C   UNL     1      -8.801  10.611  66.552  1.00  0.00    -0.151 C  
BRANCH   9  10
HETATM   10  C   UNL     1      -8.353  10.339  65.109  1.00  0.00    -0.162 A  
HETATM   11  C   UNL     1      -6.990  10.282  64.761  1.00  0.00    -0.093 A  
HETATM   12  C   UNL     1      -9.296  10.015  64.119  1.00  0.00    -0.335 A  
HETATM   13  C   UNL     1      -6.580   9.891  63.483  1.00  0.00    -0.124 A  
HETATM   14  C   UNL     1      -8.884   9.610  62.842  1.00  0.00    -0.252 A  
HETATM   15  C   UNL     1      -7.529   9.539  62.529  1.00  0.00    -0.108 A  
ENDBRANCH   9  10
BRANCH   9  16
HETATM   16  C   UNL     1      -9.088   9.365  67.383  1.00  0.00    -0.141 A  
HETATM   17  C   UNL     1      -8.511   7.748  69.123  1.00  0.00    -0.138 A  
HETATM   18  C   UNL     1      -8.174   8.839  68.312  1.00  0.00    -0.118 A  
HETATM   19  C   UNL     1     -10.660   7.617  68.054  1.00  0.00    -0.213 A  
HETATM   20  C   UNL     1     -10.327   8.716  67.254  1.00  0.00    -0.366 A  
HETATM   21  C   UNL     1      -9.757   7.142  69.001  1.00  0.00    -0.150 A  
ENDBRANCH   9  16
ENDBRANCH   8   9
ENDBRANCH   5   8
TORSDOF 4
ENDMDL
MODEL      128
REMARK 921   NORMALIZED FREE ENERGY PREDICTED BY IDOCK:   -3.80 KCAL/MOL
REMARK 922        TOTAL FREE ENERGY PREDICTED BY IDOCK:   -5.77 KCAL/MOL
REMARK 923 INTER-LIGAND FREE ENERGY PREDICTED BY IDOCK:   -4.87 KCAL/MOL
REMARK 924 INTRA-LIGAND FREE ENERGY PREDICTED BY IDOCK:   -0.90 KCAL/MOL
REMARK 927      BINDING AFFINITY PREDICTED BY RF-SCORE:    0.00 PKD
ROOT
HETATM    1  C   UNL     1      -8.947   4.116  65.769  1.00  0.00    -0.129 C  
HETATM    2  N   UNL     1      -9.271   5.481  66.153  1.00  0.00    -0.156 NA 
HETATM    3  C   UNL     1     -10.530   5.618  66.881  1.00  0.00    -0.288 C  
HETATM    4  C   UNL     1     -10.458   5.434  68.404  1.00  0.00    -0.191 C  
HETATM    5  C   UNL     1      -9.291   6.182  69.065  1.00  0.00    -0.128 C  
HETATM    6  C   UNL     1      -8.155   6.154  66.828  1.00  0.00    -0.109 C  
HETATM    7  C   UNL     1      -8.017   5.781  68.311  1.00  0.00    -0.104 C  
ENDROOT
BRANCH   5   8
HETATM    8  O   UNL     1      -9.271   7.607  69.066  1.00  0.00    -0.141 OA 
BRANCH   8   9
HETATM    9  C   UNL     1     -10.380   8.371  68.606  1.00  0.00    -0.197 C  
BRANCH   9  10
HETATM   10  C   UNL     1      -9.784   9.316  67.553  1.00  0.00    -0.201 A  
HETATM   11  C   UNL     1     -10.265   9.338  66.230  1.00  0.00    -0.273 A  
HETATM   12  C   UNL     1      -8.824  10.273  67.917  1.00  0.00    -0.122 A  
HETATM   13  C   UNL     1      -9.825  10.296  65.312  1.00  0.00    -0.372 A  
HETATM   14  C   UNL     1      -8.393  11.242  67.000  1.00  0.00    -0.153 A  
HETATM   15  C   UNL     1      -8.900  11.258  65.704  1.00  0.00    -0.124 A  
ENDBRANCH   9  10
BRANCH   9  16
HETATM   16  C   UNL     1     -11.153   9.061  69.726  1.00  0.00    -0.117 A  
HETATM   17  C   UNL     1     -12.354  10.973  70.662  1.00  0.00    -0.480 A  
HETATM   18  C   UNL     1     -11.566  10.402  69.655  1.00  0.00    -0.307 A  
HETATM   19  C   UNL     1     -12.282   8.906  71.888  1.00  0.00    -0.445 A  
HETATM   20  C   UNL     1     -11.507   8.333  70.874  1.00  0.00    -0.296 A  
HETATM   21  C   UNL     1     -12.720  10.222  71.775  1.00  0.00    -0.535 A  
ENDBRANCH   9  16
ENDBRANCH   8   9
ENDBRANCH   5   8
TORSDOF 4
ENDMDL
MODEL      129
REMARK 921   NORMALIZED FREE ENERGY PREDICTED BY IDOCK:   -3.78 KCAL/MOL
REMARK 922        TOTAL FREE ENERGY PREDICTED BY IDOCK:   -5.74 KCAL/MOL
REMARK 923 INTER-LIGAND FREE ENERGY PREDICTED BY IDOCK:   -4.68 KCAL/MOL
REMARK 924 INTRA-LIGAND FREE ENERGY PREDICTED BY IDOCK:   -1.06 KCAL/MOL
REMARK 927      BINDING AFFINITY PREDICTED BY RF-SCORE:    0.00 PKD
ROOT
HETATM    1  C   UNL     1     -10.246  11.075  63.381  1.00  0.00    -0.346 C  
HETATM    2  N   UNL     1     -10.857  12.169  64.119  1.00  0.00    -0.327 NA 
HETATM    3  C   UNL     1     -11.774  11.745  65.175  1.00  0.00    -0.087 C  
HETATM    4  C   UNL     1     -11.144  11.456  66.545  1.00  0.00    -0.312 C  
HETATM    5  C   UNL     1     -10.142  12.525  67.006  1.00  0.00    -0.216 C  
HETATM    6  C   UNL     1      -9.871  13.148  64.590  1.00  0.00     0.012 C  
HETATM    7  C   UNL     1      -9.134  12.714  65.866  1.00  0.00     0.182 C  
ENDROOT
BRANCH   5   8
HETATM    8  O   UNL     1     -10.597  13.843  67.303  1.00  0.00    -0.272 OA 
BRANCH   8   9
HETATM    9  C   UNL     1      -9.863  14.714  68.156  1.00  0.00    -0.224 C  
BRANCH   9  10
HETATM   10  C   UNL     1     -10.820  15.006  69.320  1.00  0.00    -0.263 A  
HETATM   11  C   UNL     1     -10.480  15.912  70.342  1.00  0.00    -0.096 A  
HETATM   12  C   UNL     1     -12.118  14.468  69.327  1.00  0.00    -0.325 A  
HETATM   13  C   UNL     1     -11.405  16.289  71.319  1.00  0.00    -0.272 A  
HETATM   14  C   UNL     1     -13.049  14.856  70.300  1.00  0.00    -0.112 A  
HETATM   15  C   UNL     1     -12.696  15.772  71.287  1.00  0.00    -0.498 A  
ENDBRANCH   9  10
BRANCH   9  16
HETATM   16  C   UNL     1      -9.317  15.948  67.446  1.00  0.00    -0.214 A  
HETATM   17  C   UNL     1      -7.559  17.149  66.245  1.00  0.00    -0.352 A  
HETATM   18  C   UNL     1      -7.996  16.037  66.975  1.00  0.00    -0.262 A  
HETATM   19  C   UNL     1      -9.724  18.163  66.495  1.00  0.00    -0.344 A  
HETATM   20  C   UNL     1     -10.163  17.044  67.212  1.00  0.00    -0.310 A  
HETATM   21  C   UNL     1      -8.425  18.209  65.997  1.00  0.00    -0.040 A  
ENDBRANCH   9  16
ENDBRANCH   8   9
ENDBRANCH   5   8
TORSDOF 4
ENDMDL
MODEL      130
REMARK 921   NORMALIZED FREE ENERGY PREDICTED BY IDOCK:   -3.76 KCAL/MOL
REMARK 922        TOTAL FREE ENERGY PREDICTED BY IDOCK:   -5.72 KCAL/MOL
REMARK 923 INTER-LIGAND FREE ENERGY PREDICTED BY IDOCK:   -4.50 KCAL/MOL
REMARK 924 INTRA-LIGAND FREE ENERGY PREDICTED BY IDOCK:   -1.22 KCAL/MOL
REMARK 927      BINDING AFFINITY PREDICTED BY RF-SCORE:    0.00 PKD
ROOT
HETATM    1  C   UNL     1     -11.686  13.191  69.689  1.00  0.00    -0.303 C  
HETATM    2  N   UNL     1     -11.619  12.359  68.499  1.00  0.00    -0.291 NA 
HETATM    3  C   UNL     1     -10.761  12.888  67.442  1.00  0.00    -0.237 C  
HETATM    4  C   UNL     1      -9.274  12.515  67.525  1.00  0.00    -0.188 C  
HETATM    5  C   UNL     1      -9.021  11.030  67.824  1.00  0.00    -0.140 C  
HETATM    6  C   UNL     1     -11.328  10.955  68.810  1.00  0.00    -0.292 C  
HETATM    7  C   UNL     1      -9.840  10.679  69.072  1.00  0.00    -0.218 C  
ENDROOT
BRANCH   5   8
HETATM    8  O   UNL     1      -9.391  10.041  66.866  1.00  0.00    -0.154 OA 
BRANCH   8   9
HETATM    9  C   UNL     1      -8.637   8.846  66.694  1.00  0.00    -0.123 C  
BRANCH   9  10
HETATM   10  C   UNL     1      -8.551   8.662  65.173  1.00  0.00    -0.200 A  
HETATM   11  C   UNL     1      -8.925   9.690  64.286  1.00  0.00    -0.269 A  
HETATM   12  C   UNL     1      -7.978   7.503  64.626  1.00  0.00    -0.133 A  
HETATM   13  C   UNL     1      -8.709   9.579  62.910  1.00  0.00    -0.233 A  
HETATM   14  C   UNL     1      -7.750   7.397  63.248  1.00  0.00    -0.121 A  
HETATM   15  C   UNL     1      -8.107   8.437  62.393  1.00  0.00    -0.175 A  
ENDBRANCH   9  10
BRANCH   9  16
HETATM   16  C   UNL     1      -9.204   7.652  67.456  1.00  0.00    -0.145 A  
HETATM   17  C   UNL     1      -9.006   5.827  69.070  1.00  0.00    -0.117 A  
HETATM   18  C   UNL     1      -8.428   6.857  68.317  1.00  0.00    -0.125 A  
HETATM   19  C   UNL     1     -11.142   6.295  68.072  1.00  0.00    -0.365 A  
HETATM   20  C   UNL     1     -10.566   7.333  67.331  1.00  0.00    -0.370 A  
HETATM   21  C   UNL     1     -10.365   5.552  68.955  1.00  0.00    -0.304 A  
ENDBRANCH   9  16
ENDBRANCH   8   9
ENDBRANCH   5   8
TORSDOF 4
ENDMDL
MODEL      131
REMARK 921   NORMALIZED FREE ENERGY PREDICTED BY IDOCK:   -3.76 KCAL/MOL
REMARK 922        TOTAL FREE ENERGY PREDICTED BY IDOCK:   -5.71 KCAL/MOL
REMARK 923 INTER-LIGAND FREE ENERGY PREDICTED BY IDOCK:   -5.05 KCAL/MOL
REMARK 924 INTRA-LIGAND FREE ENERGY PREDICTED BY IDOCK:   -0.66 KCAL/MOL
REMARK 927      BINDING AFFINITY PREDICTED BY RF-SCORE:    0.00 PKD
ROOT
HETATM    1  C   UNL     1      -5.133  12.294  70.185  1.00  0.00    -0.092 C  
HETATM    2  N   UNL     1      -6.522  12.285  69.754  1.00  0.00    -0.086 NA 
HETATM    3  C   UNL     1      -6.862  13.335  68.797  1.00  0.00    -0.102 C  
HETATM    4  C   UNL     1      -6.624  13.006  67.316  1.00  0.00    -0.004 C  
HETATM    5  C   UNL     1      -7.131  11.618  66.898  1.00  0.00    -0.124 C  
HETATM    6  C   UNL     1      -6.965  10.958  69.314  1.00  0.00    -0.112 C  
HETATM    7  C   UNL     1      -6.530  10.607  67.883  1.00  0.00    -0.059 C  
ENDROOT
BRANCH   5   8
HETATM    8  O   UNL     1      -8.529  11.341  66.911  1.00  0.00    -0.141 OA 
BRANCH   8   9
HETATM    9  C   UNL     1      -9.489  12.347  67.216  1.00  0.00    -0.191 C  
BRANCH   9  10
HETATM   10  C   UNL     1     -10.275  11.778  68.405  1.00  0.00    -0.208 A  
HETATM   11  C   UNL     1     -11.340  12.489  68.990  1.00  0.00    -0.342 A  
HETATM   12  C   UNL     1     -10.030  10.473  68.862  1.00  0.00    -0.213 A  
HETATM   13  C   UNL     1     -12.148  11.912  69.973  1.00  0.00    -0.366 A  
HETATM   14  C   UNL     1     -10.848   9.890  69.839  1.00  0.00    -0.316 A  
HETATM   15  C   UNL     1     -11.910  10.605  70.386  1.00  0.00    -0.441 A  
ENDBRANCH   9  10
BRANCH   9  16
HETATM   16  C   UNL     1     -10.341  12.761  66.020  1.00  0.00    -0.291 A  
HETATM   17  C   UNL     1     -11.384  14.448  64.591  1.00  0.00    -0.373 A  
HETATM   18  C   UNL     1     -10.679  14.098  65.750  1.00  0.00    -0.301 A  
HETATM   19  C   UNL     1     -11.508  12.129  63.967  1.00  0.00    -0.488 A  
HETATM   20  C   UNL     1     -10.791  11.783  65.118  1.00  0.00    -0.351 A  
HETATM   21  C   UNL     1     -11.791  13.465  63.694  1.00  0.00    -0.451 A  
ENDBRANCH   9  16
ENDBRANCH   8   9
ENDBRANCH   5   8
TORSDOF 4
ENDMDL
MODEL      132
REMARK 921   NORMALIZED FREE ENERGY PREDICTED BY IDOCK:   -3.75 KCAL/MOL
REMARK 922        TOTAL FREE ENERGY PREDICTED BY IDOCK:   -5.70 KCAL/MOL
REMARK 923 INTER-LIGAND FREE ENERGY PREDICTED BY IDOCK:   -4.67 KCAL/MOL
REMARK 924 INTRA-LIGAND FREE ENERGY PREDICTED BY IDOCK:   -1.03 KCAL/MOL
REMARK 927      BINDING AFFINITY PREDICTED BY RF-SCORE:    0.00 PKD
ROOT
HETATM    1  C   UNL     1      -7.301   2.391  73.177  1.00  0.00    -0.040 C  
HETATM    2  N   UNL     1      -7.891   3.146  72.084  1.00  0.00    -0.057 NA 
HETATM    3  C   UNL     1      -9.238   2.718  71.715  1.00  0.00    -0.103 C  
HETATM    4  C   UNL     1     -10.392   3.361  72.497  1.00  0.00    -0.190 C  
HETATM    5  C   UNL     1     -10.262   4.883  72.658  1.00  0.00    -0.188 C  
HETATM    6  C   UNL     1      -7.797   4.595  72.287  1.00  0.00    -0.093 C  
HETATM    7  C   UNL     1      -8.868   5.155  73.236  1.00  0.00    -0.118 C  
ENDROOT
BRANCH   5   8
HETATM    8  O   UNL     1     -10.344   5.726  71.512  1.00  0.00    -0.205 OA 
BRANCH   8   9
HETATM    9  C   UNL     1     -10.218   7.141  71.613  1.00  0.00    -0.193 C  
BRANCH   9  10
HETATM   10  C   UNL     1     -11.665   7.654  71.627  1.00  0.00    -0.313 A  
HETATM   11  C   UNL     1     -12.734   6.852  71.183  1.00  0.00    -0.331 A  
HETATM   12  C   UNL     1     -11.974   8.897  72.202  1.00  0.00    -0.419 A  
HETATM   13  C   UNL     1     -14.061   7.260  71.332  1.00  0.00    -0.456 A  
HETATM   14  C   UNL     1     -13.306   9.301  72.363  1.00  0.00    -0.521 A  
HETATM   15  C   UNL     1     -14.347   8.480  71.938  1.00  0.00    -0.536 A  
ENDBRANCH   9  10
BRANCH   9  16
HETATM   16  C   UNL     1      -9.329   7.753  70.535  1.00  0.00    -0.163 A  
HETATM   17  C   UNL     1      -7.927   9.552  69.656  1.00  0.00    -0.120 A  
HETATM   18  C   UNL     1      -8.816   9.059  70.620  1.00  0.00    -0.259 A  
HETATM   19  C   UNL     1      -8.091   7.482  68.446  1.00  0.00    -0.125 A  
HETATM   20  C   UNL     1      -8.967   6.985  69.416  1.00  0.00    -0.139 A  
HETATM   21  C   UNL     1      -7.557   8.761  68.574  1.00  0.00    -0.098 A  
ENDBRANCH   9  16
ENDBRANCH   8   9
ENDBRANCH   5   8
TORSDOF 4
ENDMDL
MODEL      133
REMARK 921   NORMALIZED FREE ENERGY PREDICTED BY IDOCK:   -3.69 KCAL/MOL
REMARK 922        TOTAL FREE ENERGY PREDICTED BY IDOCK:   -5.63 KCAL/MOL
REMARK 923 INTER-LIGAND FREE ENERGY PREDICTED BY IDOCK:   -5.41 KCAL/MOL
REMARK 924 INTRA-LIGAND FREE ENERGY PREDICTED BY IDOCK:   -0.22 KCAL/MOL
REMARK 927      BINDING AFFINITY PREDICTED BY RF-SCORE:    0.00 PKD
ROOT
HETATM    1  C   UNL     1      -9.840   4.382  66.223  1.00  0.00    -0.231 C  
HETATM    2  N   UNL     1      -9.309   5.393  67.123  1.00  0.00    -0.114 NA 
HETATM    3  C   UNL     1     -10.161   6.571  67.275  1.00  0.00    -0.164 C  
HETATM    4  C   UNL     1     -11.248   6.487  68.356  1.00  0.00    -0.274 C  
HETATM    5  C   UNL     1     -10.751   5.922  69.694  1.00  0.00    -0.345 C  
HETATM    6  C   UNL     1      -8.889   4.833  68.411  1.00  0.00    -0.104 C  
HETATM    7  C   UNL     1     -10.051   4.592  69.387  1.00  0.00    -0.194 C  
ENDROOT
BRANCH   5   8
HETATM    8  O   UNL     1      -9.802   6.655  70.465  1.00  0.00    -0.175 OA 
BRANCH   8   9
HETATM    9  C   UNL     1     -10.116   7.157  71.759  1.00  0.00    -0.183 C  
BRANCH   9  10
HETATM   10  C   UNL     1      -9.914   5.957  72.695  1.00  0.00    -0.195 A  
HETATM   11  C   UNL     1     -10.985   5.115  73.051  1.00  0.00    -0.355 A  
HETATM   12  C   UNL     1      -8.627   5.595  73.123  1.00  0.00    -0.117 A  
HETATM   13  C   UNL     1     -10.777   3.942  73.781  1.00  0.00    -0.311 A  
HETATM   14  C   UNL     1      -8.417   4.412  73.844  1.00  0.00    -0.099 A  
HETATM   15  C   UNL     1      -9.489   3.583  74.164  1.00  0.00    -0.115 A  
ENDBRANCH   9  10
BRANCH   9  16
HETATM   16  C   UNL     1     -11.489   7.815  71.842  1.00  0.00    -0.320 A  
HETATM   17  C   UNL     1     -13.930   7.717  71.936  1.00  0.00    -0.419 A  
HETATM   18  C   UNL     1     -12.690   7.089  71.762  1.00  0.00    -0.378 A  
HETATM   19  C   UNL     1     -12.821   9.833  72.199  1.00  0.00    -0.448 A  
HETATM   20  C   UNL     1     -11.582   9.203  72.040  1.00  0.00    -0.371 A  
HETATM   21  C   UNL     1     -13.995   9.088  72.164  1.00  0.00    -0.499 A  
ENDBRANCH   9  16
ENDBRANCH   8   9
ENDBRANCH   5   8
TORSDOF 4
ENDMDL
MODEL      134
REMARK 921   NORMALIZED FREE ENERGY PREDICTED BY IDOCK:   -3.67 KCAL/MOL
REMARK 922        TOTAL FREE ENERGY PREDICTED BY IDOCK:   -5.60 KCAL/MOL
REMARK 923 INTER-LIGAND FREE ENERGY PREDICTED BY IDOCK:   -5.15 KCAL/MOL
REMARK 924 INTRA-LIGAND FREE ENERGY PREDICTED BY IDOCK:   -0.45 KCAL/MOL
REMARK 927      BINDING AFFINITY PREDICTED BY RF-SCORE:    0.00 PKD
ROOT
HETATM    1  C   UNL     1     -12.943  10.512  71.030  1.00  0.00    -0.383 C  
HETATM    2  N   UNL     1     -11.979   9.727  71.784  1.00  0.00    -0.372 NA 
HETATM    3  C   UNL     1     -12.509   8.477  72.322  1.00  0.00    -0.387 C  
HETATM    4  C   UNL     1     -12.450   7.258  71.390  1.00  0.00    -0.418 C  
HETATM    5  C   UNL     1     -11.102   7.086  70.676  1.00  0.00    -0.272 C  
HETATM    6  C   UNL     1     -10.719   9.537  71.058  1.00  0.00    -0.340 C  
HETATM    7  C   UNL     1     -10.779   8.425  70.000  1.00  0.00    -0.236 C  
ENDROOT
BRANCH   5   8
HETATM    8  O   UNL     1      -9.933   6.778  71.432  1.00  0.00    -0.180 OA 
BRANCH   8   9
HETATM    9  C   UNL     1      -9.208   5.569  71.232  1.00  0.00    -0.146 C  
BRANCH   9  10
HETATM   10  C   UNL     1      -9.076   5.451  69.707  1.00  0.00    -0.157 A  
HETATM   11  C   UNL     1      -7.946   5.945  69.027  1.00  0.00    -0.099 A  
HETATM   12  C   UNL     1     -10.027   4.734  68.963  1.00  0.00    -0.213 A  
HETATM   13  C   UNL     1      -7.756   5.708  67.663  1.00  0.00    -0.097 A  
HETATM   14  C   UNL     1      -9.830   4.486  67.598  1.00  0.00    -0.181 A  
HETATM   15  C   UNL     1      -8.693   4.964  66.952  1.00  0.00    -0.107 A  
ENDBRANCH   9  10
BRANCH   9  16
HETATM   16  C   UNL     1      -9.834   4.361  71.919  1.00  0.00    -0.247 A  
HETATM   17  C   UNL     1     -10.060   1.952  72.272  1.00  0.00    -0.229 A  
HETATM   18  C   UNL     1      -9.536   3.036  71.556  1.00  0.00    -0.225 A  
HETATM   19  C   UNL     1     -11.261   3.473  73.694  1.00  0.00    -0.278 A  
HETATM   20  C   UNL     1     -10.727   4.555  72.987  1.00  0.00    -0.298 A  
HETATM   21  C   UNL     1     -10.915   2.170  73.348  1.00  0.00    -0.290 A  
ENDBRANCH   9  16
ENDBRANCH   8   9
ENDBRANCH   5   8
TORSDOF 4
ENDMDL
MODEL      135
REMARK 921   NORMALIZED FREE ENERGY PREDICTED BY IDOCK:   -3.67 KCAL/MOL
REMARK 922        TOTAL FREE ENERGY PREDICTED BY IDOCK:   -5.60 KCAL/MOL
REMARK 923 INTER-LIGAND FREE ENERGY PREDICTED BY IDOCK:   -4.39 KCAL/MOL
REMARK 924 INTRA-LIGAND FREE ENERGY PREDICTED BY IDOCK:   -1.21 KCAL/MOL
REMARK 927      BINDING AFFINITY PREDICTED BY RF-SCORE:    0.00 PKD
ROOT
HETATM    1  C   UNL     1      -7.597   2.074  72.494  1.00  0.00    -0.044 C  
HETATM    2  N   UNL     1      -7.487   3.302  71.722  1.00  0.00    -0.050 NA 
HETATM    3  C   UNL     1      -7.265   3.096  70.293  1.00  0.00    -0.040 C  
HETATM    4  C   UNL     1      -8.523   2.919  69.429  1.00  0.00    -0.100 C  
HETATM    5  C   UNL     1      -9.631   3.938  69.730  1.00  0.00    -0.201 C  
HETATM    6  C   UNL     1      -8.586   4.235  71.992  1.00  0.00    -0.107 C  
HETATM    7  C   UNL     1      -9.882   3.894  71.242  1.00  0.00    -0.227 C  
ENDROOT
BRANCH   5   8
HETATM    8  O   UNL     1      -9.422   5.319  69.444  1.00  0.00    -0.122 OA 
BRANCH   8   9
HETATM    9  C   UNL     1     -10.493   6.175  69.063  1.00  0.00    -0.248 C  
BRANCH   9  10
HETATM   10  C   UNL     1      -9.950   6.955  67.857  1.00  0.00    -0.174 A  
HETATM   11  C   UNL     1     -10.607   8.098  67.364  1.00  0.00    -0.325 A  
HETATM   12  C   UNL     1      -8.710   6.617  67.290  1.00  0.00    -0.118 A  
HETATM   13  C   UNL     1     -10.038   8.891  66.364  1.00  0.00    -0.333 A  
HETATM   14  C   UNL     1      -8.134   7.419  66.297  1.00  0.00    -0.117 A  
HETATM   15  C   UNL     1      -8.792   8.558  65.842  1.00  0.00    -0.219 A  
ENDBRANCH   9  10
BRANCH   9  16
HETATM   16  C   UNL     1     -11.020   7.039  70.204  1.00  0.00    -0.306 A  
HETATM   17  C   UNL     1     -12.785   7.752  71.737  1.00  0.00    -0.354 A  
HETATM   18  C   UNL     1     -12.360   7.013  70.626  1.00  0.00    -0.239 A  
HETATM   19  C   UNL     1     -10.564   8.631  72.002  1.00  0.00    -0.421 A  
HETATM   20  C   UNL     1     -10.138   7.882  70.900  1.00  0.00    -0.205 A  
HETATM   21  C   UNL     1     -11.885   8.554  72.432  1.00  0.00    -0.437 A  
ENDBRANCH   9  16
ENDBRANCH   8   9
ENDBRANCH   5   8
TORSDOF 4
ENDMDL
MODEL      136
REMARK 921   NORMALIZED FREE ENERGY PREDICTED BY IDOCK:   -3.67 KCAL/MOL
REMARK 922        TOTAL FREE ENERGY PREDICTED BY IDOCK:   -5.60 KCAL/MOL
REMARK 923 INTER-LIGAND FREE ENERGY PREDICTED BY IDOCK:   -4.45 KCAL/MOL
REMARK 924 INTRA-LIGAND FREE ENERGY PREDICTED BY IDOCK:   -1.15 KCAL/MOL
REMARK 927      BINDING AFFINITY PREDICTED BY RF-SCORE:    0.00 PKD
ROOT
HETATM    1  C   UNL     1     -12.525  10.959  70.171  1.00  0.00    -0.283 C  
HETATM    2  N   UNL     1     -11.983  10.228  71.305  1.00  0.00    -0.373 NA 
HETATM    3  C   UNL     1     -12.958   9.394  72.005  1.00  0.00    -0.423 C  
HETATM    4  C   UNL     1     -13.153   7.973  71.457  1.00  0.00    -0.322 C  
HETATM    5  C   UNL     1     -11.839   7.240  71.147  1.00  0.00    -0.312 C  
HETATM    6  C   UNL     1     -10.757   9.497  70.968  1.00  0.00    -0.340 C  
HETATM    7  C   UNL     1     -11.012   8.166  70.246  1.00  0.00    -0.240 C  
ENDROOT
BRANCH   5   8
HETATM    8  O   UNL     1     -10.955   6.892  72.209  1.00  0.00    -0.227 OA 
BRANCH   8   9
HETATM    9  C   UNL     1      -9.781   6.118  71.983  1.00  0.00    -0.151 C  
BRANCH   9  10
HETATM   10  C   UNL     1     -10.171   4.698  72.415  1.00  0.00    -0.249 A  
HETATM   11  C   UNL     1     -11.215   4.468  73.331  1.00  0.00    -0.404 A  
HETATM   12  C   UNL     1      -9.573   3.580  71.809  1.00  0.00    -0.223 A  
HETATM   13  C   UNL     1     -11.666   3.176  73.612  1.00  0.00     0.095 A  
HETATM   14  C   UNL     1     -10.035   2.285  72.081  1.00  0.00    -0.231 A  
HETATM   15  C   UNL     1     -11.085   2.085  72.973  1.00  0.00    -0.188 A  
ENDBRANCH   9  10
BRANCH   9  16
HETATM   16  C   UNL     1      -8.538   6.680  72.666  1.00  0.00    -0.126 A  
HETATM   17  C   UNL     1      -6.916   6.737  74.493  1.00  0.00    -0.095 A  
HETATM   18  C   UNL     1      -8.113   6.266  73.940  1.00  0.00    -0.105 A  
HETATM   19  C   UNL     1      -6.562   8.113  72.554  1.00  0.00    -0.086 A  
HETATM   20  C   UNL     1      -7.750   7.632  71.997  1.00  0.00    -0.096 A  
HETATM   21  C   UNL     1      -6.134   7.654  73.797  1.00  0.00    -0.069 A  
ENDBRANCH   9  16
ENDBRANCH   8   9
ENDBRANCH   5   8
TORSDOF 4
ENDMDL
MODEL      137
REMARK 921   NORMALIZED FREE ENERGY PREDICTED BY IDOCK:   -3.62 KCAL/MOL
REMARK 922        TOTAL FREE ENERGY PREDICTED BY IDOCK:   -5.54 KCAL/MOL
REMARK 923 INTER-LIGAND FREE ENERGY PREDICTED BY IDOCK:   -4.51 KCAL/MOL
REMARK 924 INTRA-LIGAND FREE ENERGY PREDICTED BY IDOCK:   -1.03 KCAL/MOL
REMARK 927      BINDING AFFINITY PREDICTED BY RF-SCORE:    0.00 PKD
ROOT
HETATM    1  C   UNL     1      -9.860   3.400  74.563  1.00  0.00    -0.135 C  
HETATM    2  N   UNL     1     -10.670   3.485  73.358  1.00  0.00    -0.193 NA 
HETATM    3  C   UNL     1     -11.628   4.588  73.354  1.00  0.00    -0.147 C  
HETATM    4  C   UNL     1     -11.108   5.938  72.841  1.00  0.00    -0.306 C  
HETATM    5  C   UNL     1     -10.294   5.837  71.543  1.00  0.00    -0.220 C  
HETATM    6  C   UNL     1      -9.863   3.437  72.135  1.00  0.00    -0.166 C  
HETATM    7  C   UNL     1      -9.209   4.779  71.775  1.00  0.00    -0.175 C  
ENDROOT
BRANCH   5   8
HETATM    8  O   UNL     1     -10.934   5.433  70.335  1.00  0.00    -0.212 OA 
BRANCH   8   9
HETATM    9  C   UNL     1     -10.986   6.282  69.194  1.00  0.00    -0.377 C  
BRANCH   9  10
HETATM   10  C   UNL     1     -10.407   5.430  68.056  1.00  0.00    -0.215 A  
HETATM   11  C   UNL     1      -9.597   4.307  68.317  1.00  0.00    -0.197 A  
HETATM   12  C   UNL     1     -10.773   5.677  66.723  1.00  0.00    -0.358 A  
HETATM   13  C   UNL     1      -9.192   3.448  67.292  1.00  0.00    -0.222 A  
HETATM   14  C   UNL     1     -10.377   4.808  65.697  1.00  0.00    -0.219 A  
HETATM   15  C   UNL     1      -9.596   3.692  65.983  1.00  0.00    -0.143 A  
ENDBRANCH   9  10
BRANCH   9  16
HETATM   16  C   UNL     1     -10.301   7.628  69.403  1.00  0.00    -0.214 A  
HETATM   17  C   UNL     1      -8.408   9.153  69.142  1.00  0.00    -0.123 A  
HETATM   18  C   UNL     1      -8.972   7.877  69.019  1.00  0.00    -0.145 A  
HETATM   19  C   UNL     1     -10.453   9.963  70.110  1.00  0.00    -0.339 A  
HETATM   20  C   UNL     1     -11.020   8.691  69.973  1.00  0.00    -0.208 A  
HETATM   21  C   UNL     1      -9.151  10.199  69.679  1.00  0.00    -0.195 A  
ENDBRANCH   9  16
ENDBRANCH   8   9
ENDBRANCH   5   8
TORSDOF 4
ENDMDL
MODEL      138
REMARK 921   NORMALIZED FREE ENERGY PREDICTED BY IDOCK:   -3.61 KCAL/MOL
REMARK 922        TOTAL FREE ENERGY PREDICTED BY IDOCK:   -5.53 KCAL/MOL
REMARK 923 INTER-LIGAND FREE ENERGY PREDICTED BY IDOCK:   -4.46 KCAL/MOL
REMARK 924 INTRA-LIGAND FREE ENERGY PREDICTED BY IDOCK:   -1.06 KCAL/MOL
REMARK 927      BINDING AFFINITY PREDICTED BY RF-SCORE:    0.00 PKD
ROOT
HETATM    1  C   UNL     1      -7.185   9.524  63.616  1.00  0.00    -0.106 C  
HETATM    2  N   UNL     1      -7.375   9.962  64.990  1.00  0.00    -0.129 NA 
HETATM    3  C   UNL     1      -8.695  10.522  65.266  1.00  0.00    -0.188 C  
HETATM    4  C   UNL     1      -9.789   9.520  65.662  1.00  0.00    -0.343 C  
HETATM    5  C   UNL     1      -9.337   8.488  66.706  1.00  0.00    -0.182 C  
HETATM    6  C   UNL     1      -6.983   8.939  65.965  1.00  0.00    -0.084 C  
HETATM    7  C   UNL     1      -8.046   7.851  66.178  1.00  0.00    -0.109 C  
ENDROOT
BRANCH   5   8
HETATM    8  O   UNL     1      -9.011   8.912  68.027  1.00  0.00    -0.139 OA 
BRANCH   8   9
HETATM    9  C   UNL     1      -9.475  10.152  68.552  1.00  0.00    -0.158 C  
BRANCH   9  10
HETATM   10  C   UNL     1      -8.195  10.936  68.871  1.00  0.00    -0.141 A  
HETATM   11  C   UNL     1      -7.927  12.181  68.269  1.00  0.00    -0.163 A  
HETATM   12  C   UNL     1      -7.314  10.488  69.868  1.00  0.00    -0.116 A  
HETATM   13  C   UNL     1      -6.839  12.962  68.667  1.00  0.00    -0.099 A  
HETATM   14  C   UNL     1      -6.231  11.277  70.276  1.00  0.00    -0.124 A  
HETATM   15  C   UNL     1      -5.999  12.515  69.683  1.00  0.00    -0.123 A  
ENDBRANCH   9  10
BRANCH   9  16
HETATM   16  C   UNL     1     -10.443   9.996  69.720  1.00  0.00    -0.291 A  
HETATM   17  C   UNL     1     -11.146   8.959  71.819  1.00  0.00    -0.433 A  
HETATM   18  C   UNL     1     -10.291   9.011  70.712  1.00  0.00    -0.305 A  
HETATM   19  C   UNL     1     -12.387  10.824  70.948  1.00  0.00    -0.497 A  
HETATM   20  C   UNL     1     -11.523  10.884  69.850  1.00  0.00    -0.402 A  
HETATM   21  C   UNL     1     -12.189   9.871  71.943  1.00  0.00    -0.333 A  
ENDBRANCH   9  16
ENDBRANCH   8   9
ENDBRANCH   5   8
TORSDOF 4
ENDMDL
MODEL      139
REMARK 921   NORMALIZED FREE ENERGY PREDICTED BY IDOCK:   -3.57 KCAL/MOL
REMARK 922        TOTAL FREE ENERGY PREDICTED BY IDOCK:   -5.48 KCAL/MOL
REMARK 923 INTER-LIGAND FREE ENERGY PREDICTED BY IDOCK:   -4.62 KCAL/MOL
REMARK 924 INTRA-LIGAND FREE ENERGY PREDICTED BY IDOCK:   -0.86 KCAL/MOL
REMARK 927      BINDING AFFINITY PREDICTED BY RF-SCORE:    0.00 PKD
ROOT
HETATM    1  C   UNL     1      -9.691   7.529  73.528  1.00  0.00    -0.303 C  
HETATM    2  N   UNL     1     -10.165   6.618  72.499  1.00  0.00    -0.180 NA 
HETATM    3  C   UNL     1     -11.517   6.901  72.022  1.00  0.00    -0.274 C  
HETATM    4  C   UNL     1     -11.634   7.916  70.875  1.00  0.00    -0.286 C  
HETATM    5  C   UNL     1     -10.625   7.689  69.740  1.00  0.00    -0.244 C  
HETATM    6  C   UNL     1      -9.204   6.459  71.403  1.00  0.00    -0.149 C  
HETATM    7  C   UNL     1      -9.236   7.608  70.384  1.00  0.00    -0.156 C  
ENDROOT
BRANCH   5   8
HETATM    8  O   UNL     1     -10.714   6.515  68.936  1.00  0.00    -0.221 OA 
BRANCH   8   9
HETATM    9  C   UNL     1     -10.752   6.581  67.515  1.00  0.00    -0.321 C  
BRANCH   9  10
HETATM   10  C   UNL     1     -10.245   5.207  67.054  1.00  0.00    -0.265 A  
HETATM   11  C   UNL     1     -10.336   4.803  65.708  1.00  0.00    -0.268 A  
HETATM   12  C   UNL     1      -9.561   4.364  67.946  1.00  0.00    -0.205 A  
HETATM   13  C   UNL     1      -9.745   3.619  65.262  1.00  0.00    -0.144 A  
HETATM   14  C   UNL     1      -8.957   3.183  67.495  1.00  0.00    -0.186 A  
HETATM   15  C   UNL     1      -9.041   2.816  66.155  1.00  0.00    -0.124 A  
ENDBRANCH   9  10
BRANCH   9  16
HETATM   16  C   UNL     1      -9.996   7.773  66.939  1.00  0.00    -0.331 A  
HETATM   17  C   UNL     1      -9.772  10.157  66.448  1.00  0.00    -0.259 A  
HETATM   18  C   UNL     1     -10.532   9.071  66.899  1.00  0.00    -0.293 A  
HETATM   19  C   UNL     1      -7.935   8.677  65.986  1.00  0.00    -0.107 A  
HETATM   20  C   UNL     1      -8.691   7.596  66.450  1.00  0.00    -0.166 A  
HETATM   21  C   UNL     1      -8.469   9.962  65.999  1.00  0.00    -0.135 A  
ENDBRANCH   9  16
ENDBRANCH   8   9
ENDBRANCH   5   8
TORSDOF 4
ENDMDL
MODEL      140
REMARK 921   NORMALIZED FREE ENERGY PREDICTED BY IDOCK:   -3.55 KCAL/MOL
REMARK 922        TOTAL FREE ENERGY PREDICTED BY IDOCK:   -5.46 KCAL/MOL
REMARK 923 INTER-LIGAND FREE ENERGY PREDICTED BY IDOCK:   -4.26 KCAL/MOL
REMARK 924 INTRA-LIGAND FREE ENERGY PREDICTED BY IDOCK:   -1.19 KCAL/MOL
REMARK 927      BINDING AFFINITY PREDICTED BY RF-SCORE:    0.00 PKD
ROOT
HETATM    1  C   UNL     1     -10.995   7.467  70.072  1.00  0.00    -0.240 C  
HETATM    2  N   UNL     1     -10.087   8.578  69.837  1.00  0.00    -0.190 NA 
HETATM    3  C   UNL     1      -9.757   8.800  68.431  1.00  0.00    -0.162 C  
HETATM    4  C   UNL     1     -10.720   9.700  67.643  1.00  0.00    -0.324 C  
HETATM    5  C   UNL     1     -11.115  10.986  68.383  1.00  0.00    -0.251 C  
HETATM    6  C   UNL     1     -10.515   9.807  70.515  1.00  0.00    -0.301 C  
HETATM    7  C   UNL     1     -11.620  10.568  69.769  1.00  0.00    -0.368 C  
ENDROOT
BRANCH   5   8
HETATM    8  O   UNL     1     -10.130  11.982  68.648  1.00  0.00    -0.212 OA 
BRANCH   8   9
HETATM    9  C   UNL     1      -9.283  12.491  67.623  1.00  0.00    -0.190 C  
BRANCH   9  10
HETATM   10  C   UNL     1      -7.924  11.828  67.884  1.00  0.00    -0.141 A  
HETATM   11  C   UNL     1      -6.967  11.685  66.862  1.00  0.00    -0.123 A  
HETATM   12  C   UNL     1      -7.551  11.456  69.187  1.00  0.00    -0.038 A  
HETATM   13  C   UNL     1      -5.678  11.217  67.131  1.00  0.00    -0.077 A  
HETATM   14  C   UNL     1      -6.255  10.999  69.459  1.00  0.00    -0.085 A  
HETATM   15  C   UNL     1      -5.318  10.889  68.435  1.00  0.00    -0.043 A  
ENDBRANCH   9  10
BRANCH   9  16
HETATM   16  C   UNL     1      -9.254  14.014  67.554  1.00  0.00    -0.197 A  
HETATM   17  C   UNL     1      -9.011  16.219  68.581  1.00  0.00    -0.232 A  
HETATM   18  C   UNL     1      -9.128  14.828  68.693  1.00  0.00    -0.186 A  
HETATM   19  C   UNL     1      -9.221  16.044  66.193  1.00  0.00    -0.388 A  
HETATM   20  C   UNL     1      -9.323  14.653  66.305  1.00  0.00    -0.293 A  
HETATM   21  C   UNL     1      -9.048  16.827  67.330  1.00  0.00    -0.221 A  
ENDBRANCH   9  16
ENDBRANCH   8   9
ENDBRANCH   5   8
TORSDOF 4
ENDMDL
MODEL      141
REMARK 921   NORMALIZED FREE ENERGY PREDICTED BY IDOCK:   -3.53 KCAL/MOL
REMARK 922        TOTAL FREE ENERGY PREDICTED BY IDOCK:   -5.43 KCAL/MOL
REMARK 923 INTER-LIGAND FREE ENERGY PREDICTED BY IDOCK:   -4.29 KCAL/MOL
REMARK 924 INTRA-LIGAND FREE ENERGY PREDICTED BY IDOCK:   -1.14 KCAL/MOL
REMARK 927      BINDING AFFINITY PREDICTED BY RF-SCORE:    0.00 PKD
ROOT
HETATM    1  C   UNL     1      -6.786  10.823  69.792  1.00  0.00    -0.151 C  
HETATM    2  N   UNL     1      -7.924   9.918  69.836  1.00  0.00    -0.170 NA 
HETATM    3  C   UNL     1      -8.106   9.121  68.625  1.00  0.00    -0.102 C  
HETATM    4  C   UNL     1      -7.330   7.798  68.561  1.00  0.00    -0.091 C  
HETATM    5  C   UNL     1      -7.409   6.968  69.850  1.00  0.00    -0.085 C  
HETATM    6  C   UNL     1      -7.947   9.103  71.055  1.00  0.00    -0.125 C  
HETATM    7  C   UNL     1      -7.002   7.893  71.004  1.00  0.00    -0.049 C  
ENDROOT
BRANCH   5   8
HETATM    8  O   UNL     1      -8.657   6.413  70.261  1.00  0.00    -0.132 OA 
BRANCH   8   9
HETATM    9  C   UNL     1      -8.936   5.023  70.135  1.00  0.00    -0.111 C  
BRANCH   9  10
HETATM   10  C   UNL     1      -9.601   4.890  68.758  1.00  0.00    -0.219 A  
HETATM   11  C   UNL     1     -10.426   5.907  68.238  1.00  0.00    -0.293 A  
HETATM   12  C   UNL     1      -9.302   3.800  67.924  1.00  0.00    -0.236 A  
HETATM   13  C   UNL     1     -10.911   5.853  66.929  1.00  0.00    -0.376 A  
HETATM   14  C   UNL     1      -9.778   3.753  66.607  1.00  0.00    -0.149 A  
HETATM   15  C   UNL     1     -10.573   4.781  66.108  1.00  0.00    -0.282 A  
ENDBRANCH   9  10
BRANCH   9  16
HETATM   16  C   UNL     1      -9.743   4.454  71.297  1.00  0.00    -0.252 A  
HETATM   17  C   UNL     1     -10.431   2.616  72.754  1.00  0.00    -0.221 A  
HETATM   18  C   UNL     1      -9.752   3.087  71.624  1.00  0.00    -0.228 A  
HETATM   19  C   UNL     1     -11.184   4.849  73.231  1.00  0.00    -0.423 A  
HETATM   20  C   UNL     1     -10.493   5.320  72.110  1.00  0.00    -0.278 A  
HETATM   21  C   UNL     1     -11.140   3.498  73.564  1.00  0.00    -0.317 A  
ENDBRANCH   9  16
ENDBRANCH   8   9
ENDBRANCH   5   8
TORSDOF 4
ENDMDL
MODEL      142
REMARK 921   NORMALIZED FREE ENERGY PREDICTED BY IDOCK:   -3.52 KCAL/MOL
REMARK 922        TOTAL FREE ENERGY PREDICTED BY IDOCK:   -5.41 KCAL/MOL
REMARK 923 INTER-LIGAND FREE ENERGY PREDICTED BY IDOCK:   -4.26 KCAL/MOL
REMARK 924 INTRA-LIGAND FREE ENERGY PREDICTED BY IDOCK:   -1.16 KCAL/MOL
REMARK 927      BINDING AFFINITY PREDICTED BY RF-SCORE:    0.00 PKD
ROOT
HETATM    1  C   UNL     1     -12.737  11.895  63.343  1.00  0.00    -0.366 C  
HETATM    2  N   UNL     1     -11.710  12.756  63.907  1.00  0.00    -0.420 NA 
HETATM    3  C   UNL     1     -12.224  13.843  64.737  1.00  0.00    -0.415 C  
HETATM    4  C   UNL     1     -12.458  13.514  66.218  1.00  0.00    -0.384 C  
HETATM    5  C   UNL     1     -11.301  12.746  66.873  1.00  0.00    -0.321 C  
HETATM    6  C   UNL     1     -10.644  11.999  64.570  1.00  0.00    -0.313 C  
HETATM    7  C   UNL     1     -11.010  11.530  65.986  1.00  0.00    -0.316 C  
ENDROOT
BRANCH   5   8
HETATM    8  O   UNL     1     -10.034  13.378  67.038  1.00  0.00    -0.238 OA 
BRANCH   8   9
HETATM    9  C   UNL     1      -9.473  13.610  68.326  1.00  0.00    -0.213 C  
BRANCH   9  10
HETATM   10  C   UNL     1      -9.739  15.097  68.597  1.00  0.00    -0.216 A  
HETATM   11  C   UNL     1     -10.635  15.513  69.601  1.00  0.00    -0.285 A  
HETATM   12  C   UNL     1      -8.998  16.086  67.931  1.00  0.00    -0.186 A  
HETATM   13  C   UNL     1     -10.766  16.860  69.947  1.00  0.00    -0.016 A  
HETATM   14  C   UNL     1      -9.120  17.436  68.287  1.00  0.00    -0.272 A  
HETATM   15  C   UNL     1      -9.996  17.820  69.299  1.00  0.00    -0.097 A  
ENDBRANCH   9  10
BRANCH   9  16
HETATM   16  C   UNL     1      -8.014  13.184  68.443  1.00  0.00    -0.130 A  
HETATM   17  C   UNL     1      -5.976  12.184  67.536  1.00  0.00    -0.124 A  
HETATM   18  C   UNL     1      -7.342  12.475  67.432  1.00  0.00    -0.147 A  
HETATM   19  C   UNL     1      -5.918  13.231  69.699  1.00  0.00    -0.117 A  
HETATM   20  C   UNL     1      -7.279  13.534  69.588  1.00  0.00     0.376 A  
HETATM   21  C   UNL     1      -5.261  12.570  68.665  1.00  0.00    -0.059 A  
ENDBRANCH   9  16
ENDBRANCH   8   9
ENDBRANCH   5   8
TORSDOF 4
ENDMDL
MODEL      143
REMARK 921   NORMALIZED FREE ENERGY PREDICTED BY IDOCK:   -3.42 KCAL/MOL
REMARK 922        TOTAL FREE ENERGY PREDICTED BY IDOCK:   -5.29 KCAL/MOL
REMARK 923 INTER-LIGAND FREE ENERGY PREDICTED BY IDOCK:   -4.21 KCAL/MOL
REMARK 924 INTRA-LIGAND FREE ENERGY PREDICTED BY IDOCK:   -1.08 KCAL/MOL
REMARK 927      BINDING AFFINITY PREDICTED BY RF-SCORE:    0.00 PKD
ROOT
HETATM    1  C   UNL     1      -8.332   8.040  74.222  1.00  0.00    -0.227 C  
HETATM    2  N   UNL     1      -8.888   7.396  73.043  1.00  0.00    -0.133 NA 
HETATM    3  C   UNL     1     -10.248   7.815  72.714  1.00  0.00    -0.299 C  
HETATM    4  C   UNL     1     -10.378   9.063  71.829  1.00  0.00    -0.407 C  
HETATM    5  C   UNL     1      -9.432   9.068  70.619  1.00  0.00    -0.236 C  
HETATM    6  C   UNL     1      -7.985   7.460  71.890  1.00  0.00    -0.090 C  
HETATM    7  C   UNL     1      -8.019   8.808  71.154  1.00  0.00    -0.170 C  
ENDROOT
BRANCH   5   8
HETATM    8  O   UNL     1      -9.603   8.106  69.581  1.00  0.00    -0.166 OA 
BRANCH   8   9
HETATM    9  C   UNL     1      -8.854   8.167  68.372  1.00  0.00    -0.133 C  
BRANCH   9  10
HETATM   10  C   UNL     1      -9.252   9.509  67.743  1.00  0.00    -0.136 A  
HETATM   11  C   UNL     1     -10.597   9.822  67.466  1.00  0.00    -0.335 A  
HETATM   12  C   UNL     1      -8.292  10.514  67.539  1.00  0.00    -0.118 A  
HETATM   13  C   UNL     1     -10.975  11.095  67.031  1.00  0.00    -0.348 A  
HETATM   14  C   UNL     1      -8.672  11.794  67.115  1.00  0.00    -0.169 A  
HETATM   15  C   UNL     1     -10.012  12.086  66.871  1.00  0.00    -0.218 A  
ENDBRANCH   9  10
BRANCH   9  16
HETATM   16  C   UNL     1      -9.047   6.952  67.472  1.00  0.00    -0.118 A  
HETATM   17  C   UNL     1     -10.286   4.971  66.752  1.00  0.00    -0.290 A  
HETATM   18  C   UNL     1     -10.086   6.023  67.655  1.00  0.00    -0.190 A  
HETATM   19  C   UNL     1      -8.369   5.689  65.492  1.00  0.00    -0.139 A  
HETATM   20  C   UNL     1      -8.179   6.748  66.387  1.00  0.00    -0.117 A  
HETATM   21  C   UNL     1      -9.433   4.809  65.665  1.00  0.00    -0.173 A  
ENDBRANCH   9  16
ENDBRANCH   8   9
ENDBRANCH   5   8
TORSDOF 4
ENDMDL
MODEL      144
REMARK 921   NORMALIZED FREE ENERGY PREDICTED BY IDOCK:   -3.39 KCAL/MOL
REMARK 922        TOTAL FREE ENERGY PREDICTED BY IDOCK:   -5.25 KCAL/MOL
REMARK 923 INTER-LIGAND FREE ENERGY PREDICTED BY IDOCK:   -5.14 KCAL/MOL
REMARK 924 INTRA-LIGAND FREE ENERGY PREDICTED BY IDOCK:   -0.12 KCAL/MOL
REMARK 927      BINDING AFFINITY PREDICTED BY RF-SCORE:    0.00 PKD
ROOT
HETATM    1  C   UNL     1      -5.594  10.703  69.028  1.00  0.00    -0.040 C  
HETATM    2  N   UNL     1      -6.875  11.316  69.340  1.00  0.00    -0.117 NA 
HETATM    3  C   UNL     1      -6.941  12.748  69.056  1.00  0.00    -0.059 C  
HETATM    4  C   UNL     1      -7.345  13.138  67.626  1.00  0.00    -0.155 C  
HETATM    5  C   UNL     1      -8.551  12.356  67.086  1.00  0.00    -0.189 C  
HETATM    6  C   UNL     1      -8.005  10.577  68.769  1.00  0.00    -0.127 C  
HETATM    7  C   UNL     1      -8.242  10.866  67.280  1.00  0.00    -0.123 C  
ENDROOT
BRANCH   5   8
HETATM    8  O   UNL     1      -9.835  12.534  67.680  1.00  0.00    -0.195 OA 
BRANCH   8   9
HETATM    9  C   UNL     1     -10.787  13.447  67.145  1.00  0.00    -0.276 C  
BRANCH   9  10
HETATM   10  C   UNL     1     -11.236  12.803  65.826  1.00  0.00    -0.341 A  
HETATM   11  C   UNL     1     -12.579  12.849  65.405  1.00  0.00    -0.440 A  
HETATM   12  C   UNL     1     -10.291  12.257  64.942  1.00  0.00    -0.319 A  
HETATM   13  C   UNL     1     -12.962  12.394  64.141  1.00  0.00    -0.267 A  
HETATM   14  C   UNL     1     -10.674  11.812  63.669  1.00  0.00    -0.503 A  
HETATM   15  C   UNL     1     -12.004  11.889  63.266  1.00  0.00    -0.441 A  
ENDBRANCH   9  10
BRANCH   9  16
HETATM   16  C   UNL     1     -10.262  14.873  67.019  1.00  0.00    -0.256 A  
HETATM   17  C   UNL     1      -9.833  16.913  65.741  1.00  0.00    -0.166 A  
HETATM   18  C   UNL     1     -10.235  15.573  65.800  1.00  0.00    -0.390 A  
HETATM   19  C   UNL     1      -9.393  16.884  68.104  1.00  0.00    -0.240 A  
HETATM   20  C   UNL     1      -9.809  15.549  68.164  1.00  0.00    -0.216 A  
HETATM   21  C   UNL     1      -9.420  17.572  66.895  1.00  0.00    -0.278 A  
ENDBRANCH   9  16
ENDBRANCH   8   9
ENDBRANCH   5   8
TORSDOF 4
ENDMDL
MODEL      145
REMARK 921   NORMALIZED FREE ENERGY PREDICTED BY IDOCK:   -3.32 KCAL/MOL
REMARK 922        TOTAL FREE ENERGY PREDICTED BY IDOCK:   -5.17 KCAL/MOL
REMARK 923 INTER-LIGAND FREE ENERGY PREDICTED BY IDOCK:   -4.06 KCAL/MOL
REMARK 924 INTRA-LIGAND FREE ENERGY PREDICTED BY IDOCK:   -1.11 KCAL/MOL
REMARK 927      BINDING AFFINITY PREDICTED BY RF-SCORE:    0.00 PKD
ROOT
HETATM    1  C   UNL     1     -12.562  10.189  70.940  1.00  0.00    -0.360 C  
HETATM    2  N   UNL     1     -11.655   9.291  71.638  1.00  0.00    -0.372 NA 
HETATM    3  C   UNL     1     -12.319   8.243  72.409  1.00  0.00    -0.327 C  
HETATM    4  C   UNL     1     -12.664   6.956  71.647  1.00  0.00    -0.396 C  
HETATM    5  C   UNL     1     -11.521   6.429  70.768  1.00  0.00    -0.353 C  
HETATM    6  C   UNL     1     -10.603   8.764  70.762  1.00  0.00    -0.220 C  
HETATM    7  C   UNL     1     -11.064   7.594  69.881  1.00  0.00    -0.160 C  
ENDROOT
BRANCH   5   8
HETATM    8  O   UNL     1     -10.323   5.951  71.374  1.00  0.00    -0.204 OA 
BRANCH   8   9
HETATM    9  C   UNL     1      -9.132   5.747  70.622  1.00  0.00    -0.151 C  
BRANCH   9  10
HETATM   10  C   UNL     1      -9.106   4.238  70.347  1.00  0.00    -0.171 A  
HETATM   11  C   UNL     1      -9.186   3.299  71.393  1.00  0.00    -0.192 A  
HETATM   12  C   UNL     1      -9.125   3.753  69.029  1.00  0.00    -0.199 A  
HETATM   13  C   UNL     1      -9.310   1.931  71.136  1.00  0.00    -0.192 A  
HETATM   14  C   UNL     1      -9.263   2.382  68.771  1.00  0.00    -0.223 A  
HETATM   15  C   UNL     1      -9.365   1.475  69.823  1.00  0.00    -0.158 A  
ENDBRANCH   9  10
BRANCH   9  16
HETATM   16  C   UNL     1      -7.881   6.301  71.296  1.00  0.00    -0.108 A  
HETATM   17  C   UNL     1      -6.742   7.440  73.135  1.00  0.00    -0.065 A  
HETATM   18  C   UNL     1      -7.920   7.029  72.498  1.00  0.00    -0.101 A  
HETATM   19  C   UNL     1      -5.444   6.480  71.355  1.00  0.00    -0.027 A  
HETATM   20  C   UNL     1      -6.620   6.057  70.727  1.00  0.00    -0.048 A  
HETATM   21  C   UNL     1      -5.503   7.157  72.569  1.00  0.00    -0.037 A  
ENDBRANCH   9  16
ENDBRANCH   8   9
ENDBRANCH   5   8
TORSDOF 4
ENDMDL
MODEL      146
REMARK 921   NORMALIZED FREE ENERGY PREDICTED BY IDOCK:   -3.31 KCAL/MOL
REMARK 922        TOTAL FREE ENERGY PREDICTED BY IDOCK:   -5.16 KCAL/MOL
REMARK 923 INTER-LIGAND FREE ENERGY PREDICTED BY IDOCK:   -4.09 KCAL/MOL
REMARK 924 INTRA-LIGAND FREE ENERGY PREDICTED BY IDOCK:   -1.07 KCAL/MOL
REMARK 927      BINDING AFFINITY PREDICTED BY RF-SCORE:    0.00 PKD
ROOT
HETATM    1  C   UNL     1      -5.673   7.546  74.250  1.00  0.00    -0.068 C  
HETATM    2  N   UNL     1      -6.361   8.352  73.254  1.00  0.00    -0.101 NA 
HETATM    3  C   UNL     1      -5.722   8.359  71.940  1.00  0.00    -0.043 C  
HETATM    4  C   UNL     1      -6.121   7.225  70.985  1.00  0.00    -0.036 C  
HETATM    5  C   UNL     1      -7.634   6.968  70.923  1.00  0.00    -0.086 C  
HETATM    6  C   UNL     1      -7.795   8.051  73.181  1.00  0.00    -0.156 C  
HETATM    7  C   UNL     1      -8.118   6.789  72.367  1.00  0.00    -0.102 C  
ENDROOT
BRANCH   5   8
HETATM    8  O   UNL     1      -8.499   7.961  70.377  1.00  0.00    -0.127 OA 
BRANCH   8   9
HETATM    9  C   UNL     1      -9.871   7.693  70.109  1.00  0.00    -0.184 C  
BRANCH   9  10
HETATM   10  C   UNL     1      -9.873   7.078  68.703  1.00  0.00    -0.148 A  
HETATM   11  C   UNL     1     -10.909   6.225  68.275  1.00  0.00    -0.397 A  
HETATM   12  C   UNL     1      -8.901   7.451  67.760  1.00  0.00    -0.128 A  
HETATM   13  C   UNL     1     -10.989   5.784  66.952  1.00  0.00    -0.242 A  
HETATM   14  C   UNL     1      -8.989   7.018  66.430  1.00  0.00    -0.175 A  
HETATM   15  C   UNL     1     -10.036   6.194  66.025  1.00  0.00     0.135 A  
ENDBRANCH   9  10
BRANCH   9  16
HETATM   16  C   UNL     1     -10.776   8.909  70.281  1.00  0.00    -0.248 A  
HETATM   17  C   UNL     1     -11.843  10.943  69.446  1.00  0.00    -0.400 A  
HETATM   18  C   UNL     1     -10.932   9.891  69.288  1.00  0.00    -0.244 A  
HETATM   19  C   UNL     1     -12.420  10.116  71.628  1.00  0.00    -0.506 A  
HETATM   20  C   UNL     1     -11.520   9.057  71.463  1.00  0.00    -0.407 A  
HETATM   21  C   UNL     1     -12.594  11.051  70.613  1.00  0.00    -0.427 A  
ENDBRANCH   9  16
ENDBRANCH   8   9
ENDBRANCH   5   8
TORSDOF 4
ENDMDL
MODEL      147
REMARK 921   NORMALIZED FREE ENERGY PREDICTED BY IDOCK:   -3.29 KCAL/MOL
REMARK 922        TOTAL FREE ENERGY PREDICTED BY IDOCK:   -5.13 KCAL/MOL
REMARK 923 INTER-LIGAND FREE ENERGY PREDICTED BY IDOCK:   -3.93 KCAL/MOL
REMARK 924 INTRA-LIGAND FREE ENERGY PREDICTED BY IDOCK:   -1.20 KCAL/MOL
REMARK 927      BINDING AFFINITY PREDICTED BY RF-SCORE:    0.00 PKD
ROOT
HETATM    1  C   UNL     1      -7.352  10.015  64.055  1.00  0.00    -0.132 C  
HETATM    2  N   UNL     1      -7.494  10.062  65.501  1.00  0.00    -0.130 NA 
HETATM    3  C   UNL     1      -8.745  10.658  65.964  1.00  0.00    -0.177 C  
HETATM    4  C   UNL     1      -9.944   9.707  66.093  1.00  0.00    -0.346 C  
HETATM    5  C   UNL     1      -9.611   8.379  66.788  1.00  0.00    -0.219 C  
HETATM    6  C   UNL     1      -7.220   8.769  66.135  1.00  0.00    -0.085 C  
HETATM    7  C   UNL     1      -8.397   7.785  66.064  1.00  0.00    -0.134 C  
ENDROOT
BRANCH   5   8
HETATM    8  O   UNL     1      -9.242   8.373  68.165  1.00  0.00    -0.138 OA 
BRANCH   8   9
HETATM    9  C   UNL     1      -9.364   7.205  68.969  1.00  0.00    -0.140 C  
BRANCH   9  10
HETATM   10  C   UNL     1     -10.440   7.563  70.004  1.00  0.00    -0.231 A  
HETATM   11  C   UNL     1     -11.642   6.836  70.096  1.00  0.00    -0.397 A  
HETATM   12  C   UNL     1     -10.197   8.552  70.971  1.00  0.00    -0.255 A  
HETATM   13  C   UNL     1     -12.555   7.066  71.129  1.00  0.00    -0.387 A  
HETATM   14  C   UNL     1     -11.106   8.773  72.014  1.00  0.00    -0.441 A  
HETATM   15  C   UNL     1     -12.278   8.025  72.098  1.00  0.00    -0.377 A  
ENDBRANCH   9  10
BRANCH   9  16
HETATM   16  C   UNL     1      -8.041   6.725  69.556  1.00  0.00    -0.126 A  
HETATM   17  C   UNL     1      -5.756   7.113  70.334  1.00  0.00    -0.024 A  
HETATM   18  C   UNL     1      -6.923   7.564  69.705  1.00  0.00    -0.055 A  
HETATM   19  C   UNL     1      -6.750   4.942  70.618  1.00  0.00    -0.036 A  
HETATM   20  C   UNL     1      -7.920   5.399  70.003  1.00  0.00    -0.082 A  
HETATM   21  C   UNL     1      -5.672   5.804  70.799  1.00  0.00    -0.013 A  
ENDBRANCH   9  16
ENDBRANCH   8   9
ENDBRANCH   5   8
TORSDOF 4
ENDMDL
MODEL      148
REMARK 921   NORMALIZED FREE ENERGY PREDICTED BY IDOCK:   -3.25 KCAL/MOL
REMARK 922        TOTAL FREE ENERGY PREDICTED BY IDOCK:   -5.09 KCAL/MOL
REMARK 923 INTER-LIGAND FREE ENERGY PREDICTED BY IDOCK:   -4.42 KCAL/MOL
REMARK 924 INTRA-LIGAND FREE ENERGY PREDICTED BY IDOCK:   -0.67 KCAL/MOL
REMARK 927      BINDING AFFINITY PREDICTED BY RF-SCORE:    0.00 PKD
ROOT
HETATM    1  C   UNL     1      -8.441   4.995  66.164  1.00  0.00    -0.114 C  
HETATM    2  N   UNL     1      -8.539   6.038  67.172  1.00  0.00    -0.107 NA 
HETATM    3  C   UNL     1      -9.582   7.028  66.914  1.00  0.00    -0.168 C  
HETATM    4  C   UNL     1     -10.984   6.689  67.440  1.00  0.00    -0.434 C  
HETATM    5  C   UNL     1     -10.996   6.156  68.880  1.00  0.00    -0.356 C  
HETATM    6  C   UNL     1      -8.599   5.500  68.534  1.00  0.00    -0.102 C  
HETATM    7  C   UNL     1      -9.993   4.998  68.937  1.00  0.00    -0.236 C  
ENDROOT
BRANCH   5   8
HETATM    8  O   UNL     1     -10.615   7.011  69.955  1.00  0.00    -0.214 OA 
BRANCH   8   9
HETATM    9  C   UNL     1      -9.935   8.241  69.729  1.00  0.00    -0.191 C  
BRANCH   9  10
HETATM   10  C   UNL     1      -8.753   8.211  70.707  1.00  0.00    -0.145 A  
HETATM   11  C   UNL     1      -8.619   7.188  71.666  1.00  0.00    -0.114 A  
HETATM   12  C   UNL     1      -7.705   9.139  70.589  1.00  0.00    -0.152 A  
HETATM   13  C   UNL     1      -7.472   7.077  72.457  1.00  0.00    -0.088 A  
HETATM   14  C   UNL     1      -6.550   9.020  71.373  1.00  0.00    -0.081 A  
HETATM   15  C   UNL     1      -6.430   7.986  72.298  1.00  0.00    -0.066 A  
ENDBRANCH   9  10
BRANCH   9  16
HETATM   16  C   UNL     1     -10.834   9.467  69.844  1.00  0.00    -0.259 A  
HETATM   17  C   UNL     1     -12.053  11.351  68.874  1.00  0.00    -0.285 A  
HETATM   18  C   UNL     1     -11.149  10.289  68.748  1.00  0.00    -0.276 A  
HETATM   19  C   UNL     1     -12.304  10.859  71.213  1.00  0.00    -0.448 A  
HETATM   20  C   UNL     1     -11.412   9.789  71.083  1.00  0.00    -0.472 A  
HETATM   21  C   UNL     1     -12.639  11.631  70.105  1.00  0.00    -0.106 A  
ENDBRANCH   9  16
ENDBRANCH   8   9
ENDBRANCH   5   8
TORSDOF 4
ENDMDL
MODEL      149
REMARK 921   NORMALIZED FREE ENERGY PREDICTED BY IDOCK:   -3.20 KCAL/MOL
REMARK 922        TOTAL FREE ENERGY PREDICTED BY IDOCK:   -5.02 KCAL/MOL
REMARK 923 INTER-LIGAND FREE ENERGY PREDICTED BY IDOCK:   -3.93 KCAL/MOL
REMARK 924 INTRA-LIGAND FREE ENERGY PREDICTED BY IDOCK:   -1.09 KCAL/MOL
REMARK 927      BINDING AFFINITY PREDICTED BY RF-SCORE:    0.00 PKD
ROOT
HETATM    1  C   UNL     1     -12.927   9.252  72.193  1.00  0.00    -0.424 C  
HETATM    2  N   UNL     1     -11.816   8.985  71.294  1.00  0.00    -0.296 NA 
HETATM    3  C   UNL     1     -10.506   8.974  71.942  1.00  0.00    -0.303 C  
HETATM    4  C   UNL     1     -10.060   7.635  72.546  1.00  0.00    -0.284 C  
HETATM    5  C   UNL     1     -10.289   6.429  71.623  1.00  0.00    -0.205 C  
HETATM    6  C   UNL     1     -12.040   7.799  70.460  1.00  0.00     0.090 C  
HETATM    7  C   UNL     1     -11.758   6.475  71.184  1.00  0.00    -0.392 C  
ENDROOT
BRANCH   5   8
HETATM    8  O   UNL     1      -9.556   6.318  70.406  1.00  0.00    -0.163 OA 
BRANCH   8   9
HETATM    9  C   UNL     1      -8.721   5.198  70.134  1.00  0.00    -0.111 C  
BRANCH   9  10
HETATM   10  C   UNL     1      -9.095   4.780  68.705  1.00  0.00    -0.151 A  
HETATM   11  C   UNL     1     -10.157   5.394  68.013  1.00  0.00    -0.224 A  
HETATM   12  C   UNL     1      -8.306   3.854  68.004  1.00  0.00    -0.100 A  
HETATM   13  C   UNL     1     -10.404   5.118  66.666  1.00  0.00    -0.325 A  
HETATM   14  C   UNL     1      -8.546   3.587  66.649  1.00  0.00    -0.113 A  
HETATM   15  C   UNL     1      -9.587   4.225  65.980  1.00  0.00    -0.195 A  
ENDBRANCH   9  10
BRANCH   9  16
HETATM   16  C   UNL     1      -8.824   4.091  71.177  1.00  0.00    -0.137 A  
HETATM   17  C   UNL     1      -8.126   3.008  73.254  1.00  0.00    -0.072 A  
HETATM   18  C   UNL     1      -7.942   3.983  72.266  1.00  0.00    -0.081 A  
HETATM   19  C   UNL     1     -10.036   2.162  72.064  1.00  0.00    -0.225 A  
HETATM   20  C   UNL     1      -9.859   3.146  71.085  1.00  0.00    -0.131 A  
HETATM   21  C   UNL     1      -9.179   2.103  73.159  1.00  0.00    -0.090 A  
ENDBRANCH   9  16
ENDBRANCH   8   9
ENDBRANCH   5   8
TORSDOF 4
ENDMDL
MODEL      150
REMARK 921   NORMALIZED FREE ENERGY PREDICTED BY IDOCK:   -3.18 KCAL/MOL
REMARK 922        TOTAL FREE ENERGY PREDICTED BY IDOCK:   -5.00 KCAL/MOL
REMARK 923 INTER-LIGAND FREE ENERGY PREDICTED BY IDOCK:   -3.84 KCAL/MOL
REMARK 924 INTRA-LIGAND FREE ENERGY PREDICTED BY IDOCK:   -1.16 KCAL/MOL
REMARK 927      BINDING AFFINITY PREDICTED BY RF-SCORE:    0.00 PKD
ROOT
HETATM    1  C   UNL     1      -5.235   9.281  74.193  1.00  0.00    -0.122 C  
HETATM    2  N   UNL     1      -5.835   8.061  73.677  1.00  0.00    -0.066 NA 
HETATM    3  C   UNL     1      -7.088   7.684  74.327  1.00  0.00    -0.116 C  
HETATM    4  C   UNL     1      -8.367   8.303  73.745  1.00  0.00    -0.265 C  
HETATM    5  C   UNL     1      -8.440   8.252  72.212  1.00  0.00    -0.187 C  
HETATM    6  C   UNL     1      -5.938   8.061  72.214  1.00  0.00    -0.044 C  
HETATM    7  C   UNL     1      -7.136   8.860  71.681  1.00  0.00    -0.056 C  
ENDROOT
BRANCH   5   8
HETATM    8  O   UNL     1      -8.543   6.995  71.548  1.00  0.00    -0.117 OA 
BRANCH   8   9
HETATM    9  C   UNL     1      -9.802   6.372  71.317  1.00  0.00    -0.181 C  
BRANCH   9  10
HETATM   10  C   UNL     1      -9.858   5.230  72.342  1.00  0.00    -0.198 A  
HETATM   11  C   UNL     1     -11.082   4.655  72.736  1.00  0.00    -0.213 A  
HETATM   12  C   UNL     1      -8.675   4.645  72.822  1.00  0.00    -0.114 A  
HETATM   13  C   UNL     1     -11.124   3.523  73.554  1.00  0.00    -0.317 A  
HETATM   14  C   UNL     1      -8.718   3.502  73.632  1.00  0.00    -0.081 A  
HETATM   15  C   UNL     1      -9.939   2.938  73.989  1.00  0.00    -0.157 A  
ENDBRANCH   9  10
BRANCH   9  16
HETATM   16  C   UNL     1     -10.016   5.947  69.868  1.00  0.00    -0.238 A  
HETATM   17  C   UNL     1     -11.014   6.239  67.656  1.00  0.00    -0.438 A  
HETATM   18  C   UNL     1     -10.914   6.599  69.005  1.00  0.00    -0.332 A  
HETATM   19  C   UNL     1      -9.380   4.509  67.996  1.00  0.00    -0.182 A  
HETATM   20  C   UNL     1      -9.270   4.879  69.341  1.00  0.00    -0.160 A  
HETATM   21  C   UNL     1     -10.241   5.200  67.148  1.00  0.00    -0.254 A  
ENDBRANCH   9  16
ENDBRANCH   8   9
ENDBRANCH   5   8
TORSDOF 4
ENDMDL
MODEL      151
REMARK 921   NORMALIZED FREE ENERGY PREDICTED BY IDOCK:   -3.17 KCAL/MOL
REMARK 922        TOTAL FREE ENERGY PREDICTED BY IDOCK:   -4.98 KCAL/MOL
REMARK 923 INTER-LIGAND FREE ENERGY PREDICTED BY IDOCK:   -4.66 KCAL/MOL
REMARK 924 INTRA-LIGAND FREE ENERGY PREDICTED BY IDOCK:   -0.32 KCAL/MOL
REMARK 927      BINDING AFFINITY PREDICTED BY RF-SCORE:    0.00 PKD
ROOT
HETATM    1  C   UNL     1      -8.638  19.341  67.412  1.00  0.00    -0.292 C  
HETATM    2  N   UNL     1      -8.573  17.997  67.963  1.00  0.00    -0.258 NA 
HETATM    3  C   UNL     1      -9.711  17.636  68.804  1.00  0.00    -0.311 C  
HETATM    4  C   UNL     1     -10.931  17.048  68.080  1.00  0.00    -0.263 C  
HETATM    5  C   UNL     1     -10.579  15.973  67.042  1.00  0.00    -0.302 C  
HETATM    6  C   UNL     1      -8.285  16.985  66.941  1.00  0.00    -0.213 C  
HETATM    7  C   UNL     1      -9.514  16.575  66.117  1.00  0.00    -0.347 C  
ENDROOT
BRANCH   5   8
HETATM    8  O   UNL     1     -10.021  14.732  67.468  1.00  0.00    -0.219 OA 
BRANCH   8   9
HETATM    9  C   UNL     1      -9.084  14.019  66.669  1.00  0.00    -0.200 C  
BRANCH   9  10
HETATM   10  C   UNL     1      -9.947  13.086  65.807  1.00  0.00    -0.260 A  
HETATM   11  C   UNL     1     -10.268  13.406  64.474  1.00  0.00    -0.321 A  
HETATM   12  C   UNL     1     -10.336  11.827  66.291  1.00  0.00    -0.259 A  
HETATM   13  C   UNL     1     -10.927  12.494  63.646  1.00  0.00    -0.507 A  
HETATM   14  C   UNL     1     -10.986  10.907  65.456  1.00  0.00    -0.024 A  
HETATM   15  C   UNL     1     -11.272  11.237  64.134  1.00  0.00    -0.222 A  
ENDBRANCH   9  10
BRANCH   9  16
HETATM   16  C   UNL     1      -7.995  13.323  67.479  1.00  0.00    -0.186 A  
HETATM   17  C   UNL     1      -6.351  11.544  67.808  1.00  0.00    -0.063 A  
HETATM   18  C   UNL     1      -7.412  12.105  67.087  1.00  0.00    -0.129 A  
HETATM   19  C   UNL     1      -6.464  13.356  69.384  1.00  0.00    -0.100 A  
HETATM   20  C   UNL     1      -7.515  13.922  68.655  1.00  0.00    -0.122 A  
HETATM   21  C   UNL     1      -5.870  12.174  68.952  1.00  0.00    -0.061 A  
ENDBRANCH   9  16
ENDBRANCH   8   9
ENDBRANCH   5   8
TORSDOF 4
ENDMDL
MODEL      152
REMARK 921   NORMALIZED FREE ENERGY PREDICTED BY IDOCK:   -3.15 KCAL/MOL
REMARK 922        TOTAL FREE ENERGY PREDICTED BY IDOCK:   -4.96 KCAL/MOL
REMARK 923 INTER-LIGAND FREE ENERGY PREDICTED BY IDOCK:   -5.65 KCAL/MOL
REMARK 924 INTRA-LIGAND FREE ENERGY PREDICTED BY IDOCK:    0.69 KCAL/MOL
REMARK 927      BINDING AFFINITY PREDICTED BY RF-SCORE:    0.00 PKD
ROOT
HETATM    1  C   UNL     1     -10.958  12.168  63.251  1.00  0.00    -0.330 C  
HETATM    2  N   UNL     1     -11.587  12.344  64.550  1.00  0.00    -0.333 NA 
HETATM    3  C   UNL     1     -11.361  11.243  65.482  1.00  0.00     0.096 C  
HETATM    4  C   UNL     1     -10.083  11.322  66.330  1.00  0.00    -0.260 C  
HETATM    5  C   UNL     1      -9.836  12.704  66.953  1.00  0.00    -0.234 C  
HETATM    6  C   UNL     1     -11.293  13.653  65.143  1.00  0.00    -0.309 C  
HETATM    7  C   UNL     1      -9.914  13.729  65.814  1.00  0.00    -0.293 C  
ENDROOT
BRANCH   5   8
HETATM    8  O   UNL     1     -10.729  13.205  67.945  1.00  0.00    -0.227 OA 
BRANCH   8   9
HETATM    9  C   UNL     1     -11.433  12.336  68.826  1.00  0.00    -0.311 C  
BRANCH   9  10
HETATM   10  C   UNL     1     -12.139  13.279  69.810  1.00  0.00    -0.355 A  
HETATM   11  C   UNL     1     -12.702  12.802  71.009  1.00  0.00    -0.331 A  
HETATM   12  C   UNL     1     -12.132  14.667  69.596  1.00  0.00    -0.355 A  
HETATM   13  C   UNL     1     -13.214  13.677  71.971  1.00  0.00    -0.522 A  
HETATM   14  C   UNL     1     -12.634  15.544  70.567  1.00  0.00    -0.462 A  
HETATM   15  C   UNL     1     -13.164  15.050  71.756  1.00  0.00    -0.457 A  
ENDBRANCH   9  10
BRANCH   9  16
HETATM   16  C   UNL     1     -10.548  11.275  69.473  1.00  0.00    -0.083 A  
HETATM   17  C   UNL     1     -10.227   9.217  70.752  1.00  0.00    -0.353 A  
HETATM   18  C   UNL     1     -11.062  10.224  70.252  1.00  0.00    -0.388 A  
HETATM   19  C   UNL     1      -8.322  10.314  69.778  1.00  0.00    -0.099 A  
HETATM   20  C   UNL     1      -9.159  11.311  69.268  1.00  0.00     0.237 A  
HETATM   21  C   UNL     1      -8.858   9.256  70.507  1.00  0.00    -0.285 A  
ENDBRANCH   9  16
ENDBRANCH   8   9
ENDBRANCH   5   8
TORSDOF 4
ENDMDL
MODEL      153
REMARK 921   NORMALIZED FREE ENERGY PREDICTED BY IDOCK:   -3.07 KCAL/MOL
REMARK 922        TOTAL FREE ENERGY PREDICTED BY IDOCK:   -4.86 KCAL/MOL
REMARK 923 INTER-LIGAND FREE ENERGY PREDICTED BY IDOCK:   -4.05 KCAL/MOL
REMARK 924 INTRA-LIGAND FREE ENERGY PREDICTED BY IDOCK:   -0.81 KCAL/MOL
REMARK 927      BINDING AFFINITY PREDICTED BY RF-SCORE:    0.00 PKD
ROOT
HETATM    1  C   UNL     1     -13.437   9.193  72.452  1.00  0.00    -0.476 C  
HETATM    2  N   UNL     1     -12.823   8.727  71.219  1.00  0.00    -0.266 NA 
HETATM    3  C   UNL     1     -11.610   9.448  70.841  1.00  0.00    -0.312 C  
HETATM    4  C   UNL     1     -10.296   8.926  71.440  1.00  0.00    -0.377 C  
HETATM    5  C   UNL     1     -10.142   7.400  71.366  1.00  0.00    -0.186 C  
HETATM    6  C   UNL     1     -12.642   7.272  71.196  1.00  0.00    -0.323 C  
HETATM    7  C   UNL     1     -11.410   6.792  71.977  1.00  0.00    -0.308 C  
ENDROOT
BRANCH   5   8
HETATM    8  O   UNL     1     -10.016   6.762  70.097  1.00  0.00    -0.176 OA 
BRANCH   8   9
HETATM    9  C   UNL     1      -8.774   6.230  69.647  1.00  0.00    -0.136 C  
BRANCH   9  10
HETATM   10  C   UNL     1      -8.290   7.233  68.590  1.00  0.00    -0.125 A  
HETATM   11  C   UNL     1      -9.087   7.573  67.480  1.00  0.00    -0.130 A  
HETATM   12  C   UNL     1      -7.086   7.932  68.770  1.00  0.00    -0.072 A  
HETATM   13  C   UNL     1      -8.712   8.591  66.599  1.00  0.00    -0.139 A  
HETATM   14  C   UNL     1      -6.716   8.961  67.894  1.00  0.00    -0.069 A  
HETATM   15  C   UNL     1      -7.532   9.296  66.817  1.00  0.00    -0.087 A  
ENDBRANCH   9  10
BRANCH   9  16
HETATM   16  C   UNL     1      -8.866   4.785  69.169  1.00  0.00    -0.122 A  
HETATM   17  C   UNL     1      -9.057   3.099  67.409  1.00  0.00    -0.205 A  
HETATM   18  C   UNL     1      -9.071   4.437  67.822  1.00  0.00    -0.149 A  
HETATM   19  C   UNL     1      -8.710   2.401  69.682  1.00  0.00    -0.125 A  
HETATM   20  C   UNL     1      -8.710   3.738  70.092  1.00  0.00    -0.119 A  
HETATM   21  C   UNL     1      -8.867   2.081  68.337  1.00  0.00    -0.147 A  
ENDBRANCH   9  16
ENDBRANCH   8   9
ENDBRANCH   5   8
TORSDOF 4
ENDMDL
MODEL      154
REMARK 921   NORMALIZED FREE ENERGY PREDICTED BY IDOCK:   -2.92 KCAL/MOL
REMARK 922        TOTAL FREE ENERGY PREDICTED BY IDOCK:   -4.68 KCAL/MOL
REMARK 923 INTER-LIGAND FREE ENERGY PREDICTED BY IDOCK:   -3.64 KCAL/MOL
REMARK 924 INTRA-LIGAND FREE ENERGY PREDICTED BY IDOCK:   -1.05 KCAL/MOL
REMARK 927      BINDING AFFINITY PREDICTED BY RF-SCORE:    0.00 PKD
ROOT
HETATM    1  C   UNL     1     -13.189   9.763  71.706  1.00  0.00    -0.436 C  
HETATM    2  N   UNL     1     -11.752   9.562  71.800  1.00  0.00    -0.383 NA 
HETATM    3  C   UNL     1     -11.359   8.218  72.218  1.00  0.00    -0.378 C  
HETATM    4  C   UNL     1     -11.215   7.174  71.101  1.00  0.00    -0.291 C  
HETATM    5  C   UNL     1     -10.440   7.679  69.875  1.00  0.00    -0.231 C  
HETATM    6  C   UNL     1     -11.043  10.006  70.596  1.00  0.00    -0.335 C  
HETATM    7  C   UNL     1     -11.097   8.995  69.441  1.00  0.00    -0.000 C  
ENDROOT
BRANCH   5   8
HETATM    8  O   UNL     1      -9.055   7.993  69.993  1.00  0.00    -0.150 OA 
BRANCH   8   9
HETATM    9  C   UNL     1      -8.053   7.220  69.340  1.00  0.00    -0.130 C  
BRANCH   9  10
HETATM   10  C   UNL     1      -7.206   8.252  68.584  1.00  0.00    -0.087 A  
HETATM   11  C   UNL     1      -5.943   7.921  68.055  1.00  0.00    -0.041 A  
HETATM   12  C   UNL     1      -7.724   9.525  68.292  1.00  0.00    -0.086 A  
HETATM   13  C   UNL     1      -5.237   8.813  67.243  1.00  0.00    -0.033 A  
HETATM   14  C   UNL     1      -7.022  10.414  67.467  1.00  0.00    -0.084 A  
HETATM   15  C   UNL     1      -5.786  10.054  66.937  1.00  0.00    -0.050 A  
ENDBRANCH   9  10
BRANCH   9  16
HETATM   16  C   UNL     1      -8.616   6.094  68.478  1.00  0.00    -0.113 A  
HETATM   17  C   UNL     1      -9.467   3.822  68.179  1.00  0.00    -0.216 A  
HETATM   18  C   UNL     1      -8.863   4.803  68.975  1.00  0.00    -0.121 A  
HETATM   19  C   UNL     1      -9.530   5.362  66.333  1.00  0.00    -0.164 A  
HETATM   20  C   UNL     1      -8.940   6.345  67.135  1.00  0.00    -0.109 A  
HETATM   21  C   UNL     1      -9.810   4.104  66.860  1.00  0.00    -0.197 A  
ENDBRANCH   9  16
ENDBRANCH   8   9
ENDBRANCH   5   8
TORSDOF 4
ENDMDL
MODEL      155
REMARK 921   NORMALIZED FREE ENERGY PREDICTED BY IDOCK:   -2.89 KCAL/MOL
REMARK 922        TOTAL FREE ENERGY PREDICTED BY IDOCK:   -4.64 KCAL/MOL
REMARK 923 INTER-LIGAND FREE ENERGY PREDICTED BY IDOCK:   -4.42 KCAL/MOL
REMARK 924 INTRA-LIGAND FREE ENERGY PREDICTED BY IDOCK:   -0.22 KCAL/MOL
REMARK 927      BINDING AFFINITY PREDICTED BY RF-SCORE:    0.00 PKD
ROOT
HETATM    1  C   UNL     1      -9.075   2.023  73.446  1.00  0.00    -0.069 C  
HETATM    2  N   UNL     1     -10.072   2.477  72.491  1.00  0.00    -0.154 NA 
HETATM    3  C   UNL     1     -10.745   3.719  72.867  1.00  0.00    -0.110 C  
HETATM    4  C   UNL     1     -10.054   5.022  72.439  1.00  0.00    -0.238 C  
HETATM    5  C   UNL     1      -9.563   5.015  70.984  1.00  0.00    -0.170 C  
HETATM    6  C   UNL     1      -9.561   2.509  71.117  1.00  0.00    -0.147 C  
HETATM    7  C   UNL     1      -8.714   3.751  70.803  1.00  0.00    -0.121 C  
ENDROOT
BRANCH   5   8
HETATM    8  O   UNL     1     -10.507   4.966  69.918  1.00  0.00    -0.238 OA 
BRANCH   8   9
HETATM    9  C   UNL     1     -10.901   6.137  69.211  1.00  0.00    -0.351 C  
BRANCH   9  10
HETATM   10  C   UNL     1      -9.687   6.483  68.338  1.00  0.00    -0.132 A  
HETATM   11  C   UNL     1      -8.626   7.267  68.831  1.00  0.00    -0.129 A  
HETATM   12  C   UNL     1      -9.546   5.921  67.059  1.00  0.00    -0.144 A  
HETATM   13  C   UNL     1      -7.457   7.460  68.089  1.00  0.00    -0.105 A  
HETATM   14  C   UNL     1      -8.368   6.103  66.321  1.00  0.00    -0.124 A  
HETATM   15  C   UNL     1      -7.323   6.863  66.840  1.00  0.00    -0.082 A  
ENDBRANCH   9  10
BRANCH   9  16
HETATM   16  C   UNL     1     -11.384   7.264  70.118  1.00  0.00    -0.236 A  
HETATM   17  C   UNL     1     -11.375   9.592  70.862  1.00  0.00    -0.431 A  
HETATM   18  C   UNL     1     -10.842   8.560  70.080  1.00  0.00    -0.238 A  
HETATM   19  C   UNL     1     -12.962   8.055  71.808  1.00  0.00    -0.354 A  
HETATM   20  C   UNL     1     -12.438   7.028  71.016  1.00  0.00    -0.373 A  
HETATM   21  C   UNL     1     -12.441   9.343  71.720  1.00  0.00    -0.471 A  
ENDBRANCH   9  16
ENDBRANCH   8   9
ENDBRANCH   5   8
TORSDOF 4
ENDMDL
MODEL      156
REMARK 921   NORMALIZED FREE ENERGY PREDICTED BY IDOCK:   -2.82 KCAL/MOL
REMARK 922        TOTAL FREE ENERGY PREDICTED BY IDOCK:   -4.56 KCAL/MOL
REMARK 923 INTER-LIGAND FREE ENERGY PREDICTED BY IDOCK:   -3.24 KCAL/MOL
REMARK 924 INTRA-LIGAND FREE ENERGY PREDICTED BY IDOCK:   -1.32 KCAL/MOL
REMARK 927      BINDING AFFINITY PREDICTED BY RF-SCORE:    0.00 PKD
ROOT
HETATM    1  C   UNL     1      -8.527   8.260  72.635  1.00  0.00    -0.183 C  
HETATM    2  N   UNL     1      -8.795   8.300  71.207  1.00  0.00    -0.144 NA 
HETATM    3  C   UNL     1      -7.628   8.040  70.367  1.00  0.00    -0.081 C  
HETATM    4  C   UNL     1      -7.334   6.566  70.052  1.00  0.00    -0.089 C  
HETATM    5  C   UNL     1      -8.573   5.761  69.634  1.00  0.00    -0.116 C  
HETATM    6  C   UNL     1      -9.953   7.483  70.829  1.00  0.00    -0.182 C  
HETATM    7  C   UNL     1      -9.638   5.984  70.715  1.00  0.00    -0.197 C  
ENDROOT
BRANCH   5   8
HETATM    8  O   UNL     1      -9.238   6.066  68.411  1.00  0.00    -0.116 OA 
BRANCH   8   9
HETATM    9  C   UNL     1      -8.517   6.426  67.237  1.00  0.00    -0.111 C  
BRANCH   9  10
HETATM   10  C   UNL     1      -8.947   7.872  66.953  1.00  0.00    -0.157 A  
HETATM   11  C   UNL     1     -10.276   8.295  67.143  1.00  0.00    -0.365 A  
HETATM   12  C   UNL     1      -7.993   8.845  66.612  1.00  0.00    -0.103 A  
HETATM   13  C   UNL     1     -10.636   9.640  67.026  1.00  0.00    -0.267 A  
HETATM   14  C   UNL     1      -8.352  10.196  66.508  1.00  0.00    -0.124 A  
HETATM   15  C   UNL     1      -9.668  10.593  66.724  1.00  0.00    -0.222 A  
ENDBRANCH   9  10
BRANCH   9  16
HETATM   16  C   UNL     1      -8.715   5.456  66.077  1.00  0.00    -0.137 A  
HETATM   17  C   UNL     1      -9.515   3.346  65.139  1.00  0.00    -0.152 A  
HETATM   18  C   UNL     1      -9.262   4.172  66.241  1.00  0.00    -0.156 A  
HETATM   19  C   UNL     1      -8.611   5.024  63.674  1.00  0.00    -0.105 A  
HETATM   20  C   UNL     1      -8.373   5.854  64.774  1.00  0.00    -0.103 A  
HETATM   21  C   UNL     1      -9.198   3.775  63.854  1.00  0.00    -0.131 A  
ENDBRANCH   9  16
ENDBRANCH   8   9
ENDBRANCH   5   8
TORSDOF 4
ENDMDL
MODEL      157
REMARK 921   NORMALIZED FREE ENERGY PREDICTED BY IDOCK:   -2.81 KCAL/MOL
REMARK 922        TOTAL FREE ENERGY PREDICTED BY IDOCK:   -4.54 KCAL/MOL
REMARK 923 INTER-LIGAND FREE ENERGY PREDICTED BY IDOCK:   -3.50 KCAL/MOL
REMARK 924 INTRA-LIGAND FREE ENERGY PREDICTED BY IDOCK:   -1.05 KCAL/MOL
REMARK 927      BINDING AFFINITY PREDICTED BY RF-SCORE:    0.00 PKD
ROOT
HETATM    1  C   UNL     1     -13.051  10.143  71.498  1.00  0.00    -0.429 C  
HETATM    2  N   UNL     1     -11.923   9.340  71.940  1.00  0.00    -0.371 NA 
HETATM    3  C   UNL     1     -12.292   8.046  72.511  1.00  0.00    -0.194 C  
HETATM    4  C   UNL     1     -12.452   6.887  71.517  1.00  0.00    -0.420 C  
HETATM    5  C   UNL     1     -11.319   6.793  70.484  1.00  0.00    -0.343 C  
HETATM    6  C   UNL     1     -10.879   9.226  70.917  1.00  0.00    -0.296 C  
HETATM    7  C   UNL     1     -11.186   8.177  69.837  1.00  0.00    -0.030 C  
ENDROOT
BRANCH   5   8
HETATM    8  O   UNL     1      -9.997   6.471  70.910  1.00  0.00    -0.183 OA 
BRANCH   8   9
HETATM    9  C   UNL     1      -9.410   5.203  70.634  1.00  0.00    -0.159 C  
BRANCH   9  10
HETATM   10  C   UNL     1      -9.188   4.575  72.016  1.00  0.00    -0.170 A  
HETATM   11  C   UNL     1      -9.069   3.182  72.180  1.00  0.00    -0.147 A  
HETATM   12  C   UNL     1      -8.972   5.387  73.142  1.00  0.00    -0.118 A  
HETATM   13  C   UNL     1      -8.722   2.621  73.412  1.00  0.00    -0.078 A  
HETATM   14  C   UNL     1      -8.611   4.825  74.374  1.00  0.00    -0.109 A  
HETATM   15  C   UNL     1      -8.477   3.445  74.505  1.00  0.00    -0.083 A  
ENDBRANCH   9  10
BRANCH   9  16
HETATM   16  C   UNL     1      -8.165   5.285  69.756  1.00  0.00    -0.098 A  
HETATM   17  C   UNL     1      -5.854   4.692  69.224  1.00  0.00    -0.017 A  
HETATM   18  C   UNL     1      -6.947   4.674  70.099  1.00  0.00    -0.048 A  
HETATM   19  C   UNL     1      -7.129   6.002  67.662  1.00  0.00    -0.074 A  
HETATM   20  C   UNL     1      -8.224   5.970  68.531  1.00  0.00    -0.110 A  
HETATM   21  C   UNL     1      -5.947   5.348  68.001  1.00  0.00    -0.018 A  
ENDBRANCH   9  16
ENDBRANCH   8   9
ENDBRANCH   5   8
TORSDOF 4
ENDMDL
MODEL      158
REMARK 921   NORMALIZED FREE ENERGY PREDICTED BY IDOCK:   -2.70 KCAL/MOL
REMARK 922        TOTAL FREE ENERGY PREDICTED BY IDOCK:   -4.41 KCAL/MOL
REMARK 923 INTER-LIGAND FREE ENERGY PREDICTED BY IDOCK:   -5.37 KCAL/MOL
REMARK 924 INTRA-LIGAND FREE ENERGY PREDICTED BY IDOCK:    0.96 KCAL/MOL
REMARK 927      BINDING AFFINITY PREDICTED BY RF-SCORE:    0.00 PKD
ROOT
HETATM    1  C   UNL     1      -7.902  18.096  67.485  1.00  0.00    -0.222 C  
HETATM    2  N   UNL     1      -8.603  16.985  68.107  1.00  0.00    -0.221 NA 
HETATM    3  C   UNL     1      -9.933  17.319  68.611  1.00  0.00    -0.327 C  
HETATM    4  C   UNL     1     -11.088  17.205  67.605  1.00  0.00    -0.025 C  
HETATM    5  C   UNL     1     -11.061  15.915  66.772  1.00  0.00    -0.064 C  
HETATM    6  C   UNL     1      -8.605  15.782  67.268  1.00  0.00    -0.188 C  
HETATM    7  C   UNL     1      -9.662  15.809  66.154  1.00  0.00    -0.351 C  
ENDROOT
BRANCH   5   8
HETATM    8  O   UNL     1     -11.266  14.656  67.408  1.00  0.00    -0.317 OA 
BRANCH   8   9
HETATM    9  C   UNL     1     -10.617  14.320  68.631  1.00  0.00    -0.250 C  
BRANCH   9  10
HETATM   10  C   UNL     1     -10.299  12.825  68.497  1.00  0.00    -0.231 A  
HETATM   11  C   UNL     1     -11.176  11.839  68.990  1.00  0.00    -0.324 A  
HETATM   12  C   UNL     1      -9.178  12.397  67.766  1.00  0.00    -0.193 A  
HETATM   13  C   UNL     1     -10.960  10.482  68.740  1.00  0.00    -0.296 A  
HETATM   14  C   UNL     1      -8.969  11.036  67.505  1.00  0.00    -0.137 A  
HETATM   15  C   UNL     1      -9.863  10.082  67.982  1.00  0.00    -0.164 A  
ENDBRANCH   9  10
BRANCH   9  16
HETATM   16  C   UNL     1     -11.419  14.699  69.871  1.00  0.00    -0.320 A  
HETATM   17  C   UNL     1     -11.651  15.806  72.039  1.00  0.00    -0.541 A  
HETATM   18  C   UNL     1     -10.861  15.393  70.959  1.00  0.00    -0.207 A  
HETATM   19  C   UNL     1     -13.573  14.778  71.024  1.00  0.00    -0.364 A  
HETATM   20  C   UNL     1     -12.785  14.380  69.939  1.00  0.00    -0.107 A  
HETATM   21  C   UNL     1     -13.009  15.506  72.068  1.00  0.00    -0.517 A  
ENDBRANCH   9  16
ENDBRANCH   8   9
ENDBRANCH   5   8
TORSDOF 4
ENDMDL
MODEL      159
REMARK 921   NORMALIZED FREE ENERGY PREDICTED BY IDOCK:   -2.68 KCAL/MOL
REMARK 922        TOTAL FREE ENERGY PREDICTED BY IDOCK:   -4.38 KCAL/MOL
REMARK 923 INTER-LIGAND FREE ENERGY PREDICTED BY IDOCK:   -3.68 KCAL/MOL
REMARK 924 INTRA-LIGAND FREE ENERGY PREDICTED BY IDOCK:   -0.69 KCAL/MOL
REMARK 927      BINDING AFFINITY PREDICTED BY RF-SCORE:    0.00 PKD
ROOT
HETATM    1  C   UNL     1     -14.033  14.247  72.166  1.00  0.00    -0.523 C  
HETATM    2  N   UNL     1     -12.663  13.861  71.871  1.00  0.00    -0.301 NA 
HETATM    3  C   UNL     1     -12.502  12.462  71.480  1.00  0.00    -0.018 C  
HETATM    4  C   UNL     1     -12.684  12.151  69.987  1.00  0.00     0.250 C  
HETATM    5  C   UNL     1     -11.954  13.129  69.055  1.00  0.00    -0.285 C  
HETATM    6  C   UNL     1     -12.007  14.784  70.940  1.00  0.00    -0.324 C  
HETATM    7  C   UNL     1     -12.378  14.543  69.469  1.00  0.00    -0.247 C  
ENDROOT
BRANCH   5   8
HETATM    8  O   UNL     1     -10.529  13.171  69.047  1.00  0.00    -0.142 OA 
BRANCH   8   9
HETATM    9  C   UNL     1      -9.767  12.548  68.019  1.00  0.00    -0.215 C  
BRANCH   9  10
HETATM   10  C   UNL     1      -9.978  11.045  68.243  1.00  0.00    -0.190 A  
HETATM   11  C   UNL     1     -10.903  10.310  67.475  1.00  0.00    -0.355 A  
HETATM   12  C   UNL     1      -9.162  10.336  69.139  1.00  0.00    -0.203 A  
HETATM   13  C   UNL     1     -10.990   8.919  67.577  1.00  0.00     0.055 A  
HETATM   14  C   UNL     1      -9.241   8.940  69.231  1.00  0.00    -0.145 A  
HETATM   15  C   UNL     1     -10.146   8.233  68.445  1.00  0.00    -0.227 A  
ENDBRANCH   9  10
BRANCH   9  16
HETATM   16  C   UNL     1      -8.310  12.996  67.983  1.00  0.00    -0.169 A  
HETATM   17  C   UNL     1      -6.492  14.493  68.640  1.00  0.00    -0.086 A  
HETATM   18  C   UNL     1      -7.854  14.165  68.616  1.00  0.00    -0.137 A  
HETATM   19  C   UNL     1      -5.999  12.538  67.332  1.00  0.00    -0.147 A  
HETATM   20  C   UNL     1      -7.357  12.203  67.321  1.00  0.00    -0.149 A  
HETATM   21  C   UNL     1      -5.563  13.675  68.005  1.00  0.00    -0.125 A  
ENDBRANCH   9  16
ENDBRANCH   8   9
ENDBRANCH   5   8
TORSDOF 4
ENDMDL
MODEL      160
REMARK 921   NORMALIZED FREE ENERGY PREDICTED BY IDOCK:   -2.67 KCAL/MOL
REMARK 922        TOTAL FREE ENERGY PREDICTED BY IDOCK:   -4.37 KCAL/MOL
REMARK 923 INTER-LIGAND FREE ENERGY PREDICTED BY IDOCK:   -3.38 KCAL/MOL
REMARK 924 INTRA-LIGAND FREE ENERGY PREDICTED BY IDOCK:   -0.99 KCAL/MOL
REMARK 927      BINDING AFFINITY PREDICTED BY RF-SCORE:    0.00 PKD
ROOT
HETATM    1  C   UNL     1      -8.579   8.299  72.598  1.00  0.00    -0.198 C  
HETATM    2  N   UNL     1      -8.625   8.759  71.219  1.00  0.00    -0.188 NA 
HETATM    3  C   UNL     1      -7.523   8.280  70.388  1.00  0.00    -0.067 C  
HETATM    4  C   UNL     1      -7.724   6.916  69.713  1.00  0.00    -0.113 C  
HETATM    5  C   UNL     1      -9.100   6.747  69.052  1.00  0.00    -0.137 C  
HETATM    6  C   UNL     1      -9.935   8.539  70.597  1.00  0.00    -0.189 C  
HETATM    7  C   UNL     1     -10.152   7.099  70.111  1.00  0.00    -0.195 C  
ENDROOT
BRANCH   5   8
HETATM    8  O   UNL     1      -9.448   7.546  67.924  1.00  0.00    -0.141 OA 
BRANCH   8   9
HETATM    9  C   UNL     1      -8.545   8.502  67.377  1.00  0.00    -0.127 C  
BRANCH   9  10
HETATM   10  C   UNL     1      -9.280   9.843  67.510  1.00  0.00    -0.148 A  
HETATM   11  C   UNL     1     -10.657   9.957  67.236  1.00  0.00    -0.316 A  
HETATM   12  C   UNL     1      -8.621  10.968  68.031  1.00  0.00    -0.134 A  
HETATM   13  C   UNL     1     -11.356  11.138  67.498  1.00  0.00    -0.351 A  
HETATM   14  C   UNL     1      -9.325  12.148  68.306  1.00  0.00    -0.198 A  
HETATM   15  C   UNL     1     -10.691  12.230  68.048  1.00  0.00    -0.245 A  
ENDBRANCH   9  10
BRANCH   9  16
HETATM   16  C   UNL     1      -8.078   8.162  65.966  1.00  0.00    -0.112 A  
HETATM   17  C   UNL     1      -7.863   6.633  64.071  1.00  0.00    -0.112 A  
HETATM   18  C   UNL     1      -8.219   6.882  65.402  1.00  0.00    -0.134 A  
HETATM   19  C   UNL     1      -7.137   8.913  63.839  1.00  0.00    -0.091 A  
HETATM   20  C   UNL     1      -7.507   9.164  65.164  1.00  0.00    -0.097 A  
HETATM   21  C   UNL     1      -7.330   7.650  63.285  1.00  0.00    -0.090 A  
ENDBRANCH   9  16
ENDBRANCH   8   9
ENDBRANCH   5   8
TORSDOF 4
ENDMDL
MODEL      161
REMARK 921   NORMALIZED FREE ENERGY PREDICTED BY IDOCK:   -2.66 KCAL/MOL
REMARK 922        TOTAL FREE ENERGY PREDICTED BY IDOCK:   -4.35 KCAL/MOL
REMARK 923 INTER-LIGAND FREE ENERGY PREDICTED BY IDOCK:   -3.04 KCAL/MOL
REMARK 924 INTRA-LIGAND FREE ENERGY PREDICTED BY IDOCK:   -1.32 KCAL/MOL
REMARK 927      BINDING AFFINITY PREDICTED BY RF-SCORE:    0.00 PKD
ROOT
HETATM    1  C   UNL     1      -5.827  10.168  63.877  1.00  0.00    -0.140 C  
HETATM    2  N   UNL     1      -6.675   9.329  64.709  1.00  0.00    -0.078 NA 
HETATM    3  C   UNL     1      -7.912   8.895  64.064  1.00  0.00    -0.153 C  
HETATM    4  C   UNL     1      -7.827   7.610  63.228  1.00  0.00    -0.134 C  
HETATM    5  C   UNL     1      -7.072   6.467  63.921  1.00  0.00    -0.050 C  
HETATM    6  C   UNL     1      -5.938   8.216  65.318  1.00  0.00    -0.045 C  
HETATM    7  C   UNL     1      -5.717   7.030  64.368  1.00  0.00    -0.033 C  
ENDROOT
BRANCH   5   8
HETATM    8  O   UNL     1      -7.614   5.869  65.096  1.00  0.00    -0.079 OA 
BRANCH   8   9
HETATM    9  C   UNL     1      -8.998   5.553  65.205  1.00  0.00    -0.065 C  
BRANCH   9  10
HETATM   10  C   UNL     1      -9.351   5.881  66.662  1.00  0.00    -0.156 A  
HETATM   11  C   UNL     1     -10.682   5.846  67.122  1.00  0.00    -0.387 A  
HETATM   12  C   UNL     1      -8.338   6.103  67.609  1.00  0.00    -0.112 A  
HETATM   13  C   UNL     1     -10.989   6.000  68.476  1.00  0.00    -0.350 A  
HETATM   14  C   UNL     1      -8.645   6.244  68.969  1.00  0.00    -0.123 A  
HETATM   15  C   UNL     1      -9.966   6.183  69.402  1.00  0.00    -0.205 A  
ENDBRANCH   9  10
BRANCH   9  16
HETATM   16  C   UNL     1      -9.337   4.133  64.764  1.00  0.00    -0.164 A  
HETATM   17  C   UNL     1     -10.559   2.537  63.373  1.00  0.00    -0.211 A  
HETATM   18  C   UNL     1     -10.340   3.845  63.823  1.00  0.00    -0.204 A  
HETATM   19  C   UNL     1      -8.833   1.743  64.846  1.00  0.00    -0.115 A  
HETATM   20  C   UNL     1      -8.606   3.052  65.283  1.00  0.00    -0.107 A  
HETATM   21  C   UNL     1      -9.799   1.486  63.878  1.00  0.00    -0.127 A  
ENDBRANCH   9  16
ENDBRANCH   8   9
ENDBRANCH   5   8
TORSDOF 4
ENDMDL
MODEL      162
REMARK 921   NORMALIZED FREE ENERGY PREDICTED BY IDOCK:   -2.60 KCAL/MOL
REMARK 922        TOTAL FREE ENERGY PREDICTED BY IDOCK:   -4.29 KCAL/MOL
REMARK 923 INTER-LIGAND FREE ENERGY PREDICTED BY IDOCK:   -3.38 KCAL/MOL
REMARK 924 INTRA-LIGAND FREE ENERGY PREDICTED BY IDOCK:   -0.91 KCAL/MOL
REMARK 927      BINDING AFFINITY PREDICTED BY RF-SCORE:    0.00 PKD
ROOT
HETATM    1  C   UNL     1      -9.631   5.605  74.247  1.00  0.00    -0.162 C  
HETATM    2  N   UNL     1     -10.062   5.253  72.904  1.00  0.00    -0.169 NA 
HETATM    3  C   UNL     1     -11.360   5.807  72.524  1.00  0.00    -0.307 C  
HETATM    4  C   UNL     1     -11.345   7.218  71.918  1.00  0.00    -0.288 C  
HETATM    5  C   UNL     1     -10.262   7.423  70.849  1.00  0.00    -0.192 C  
HETATM    6  C   UNL     1      -9.027   5.506  71.897  1.00  0.00    -0.135 C  
HETATM    7  C   UNL     1      -8.931   6.978  71.468  1.00  0.00    -0.139 C  
ENDROOT
BRANCH   5   8
HETATM    8  O   UNL     1     -10.338   6.710  69.617  1.00  0.00    -0.180 OA 
BRANCH   8   9
HETATM    9  C   UNL     1     -10.395   7.384  68.364  1.00  0.00    -0.194 C  
BRANCH   9  10
HETATM   10  C   UNL     1      -9.339   6.679  67.502  1.00  0.00    -0.126 A  
HETATM   11  C   UNL     1      -9.299   6.848  66.105  1.00  0.00    -0.089 A  
HETATM   12  C   UNL     1      -8.304   5.943  68.103  1.00  0.00    -0.115 A  
HETATM   13  C   UNL     1      -8.252   6.327  65.338  1.00  0.00    -0.142 A  
HETATM   14  C   UNL     1      -7.249   5.432  67.336  1.00  0.00    -0.075 A  
HETATM   15  C   UNL     1      -7.219   5.632  65.958  1.00  0.00    -0.073 A  
ENDBRANCH   9  10
BRANCH   9  16
HETATM   16  C   UNL     1     -10.231   8.896  68.476  1.00  0.00    -0.223 A  
HETATM   17  C   UNL     1     -11.042  11.117  69.097  1.00  0.00    -0.306 A  
HETATM   18  C   UNL     1     -11.260   9.745  68.919  1.00  0.00    -0.076 A  
HETATM   19  C   UNL     1      -8.781  10.857  68.322  1.00  0.00    -0.140 A  
HETATM   20  C   UNL     1      -8.996   9.485  68.158  1.00  0.00    -0.123 A  
HETATM   21  C   UNL     1      -9.800  11.672  68.807  1.00  0.00    -0.129 A  
ENDBRANCH   9  16
ENDBRANCH   8   9
ENDBRANCH   5   8
TORSDOF 4
ENDMDL
MODEL      163
REMARK 921   NORMALIZED FREE ENERGY PREDICTED BY IDOCK:   -2.59 KCAL/MOL
REMARK 922        TOTAL FREE ENERGY PREDICTED BY IDOCK:   -4.27 KCAL/MOL
REMARK 923 INTER-LIGAND FREE ENERGY PREDICTED BY IDOCK:   -3.17 KCAL/MOL
REMARK 924 INTRA-LIGAND FREE ENERGY PREDICTED BY IDOCK:   -1.11 KCAL/MOL
REMARK 927      BINDING AFFINITY PREDICTED BY RF-SCORE:    0.00 PKD
ROOT
HETATM    1  C   UNL     1     -13.019  11.671  62.835  1.00  0.00     0.819 C  
HETATM    2  N   UNL     1     -12.485  11.884  64.170  1.00  0.00    -0.302 NA 
HETATM    3  C   UNL     1     -11.164  11.301  64.390  1.00  0.00    -0.126 C  
HETATM    4  C   UNL     1      -9.963  12.176  64.004  1.00  0.00    -0.301 C  
HETATM    5  C   UNL     1     -10.072  13.629  64.487  1.00  0.00    -0.088 C  
HETATM    6  C   UNL     1     -12.556  13.289  64.586  1.00  0.00    -0.293 C  
HETATM    7  C   UNL     1     -11.430  14.159  64.010  1.00  0.00    -0.063 C  
ENDROOT
BRANCH   5   8
HETATM    8  O   UNL     1     -10.048  13.916  65.883  1.00  0.00    -0.300 OA 
BRANCH   8   9
HETATM    9  C   UNL     1      -8.942  14.573  66.494  1.00  0.00    -0.180 C  
BRANCH   9  10
HETATM   10  C   UNL     1      -8.224  13.465  67.277  1.00  0.00    -0.162 A  
HETATM   11  C   UNL     1      -8.932  12.388  67.845  1.00  0.00    -0.184 A  
HETATM   12  C   UNL     1      -6.822  13.432  67.341  1.00  0.00    -0.081 A  
HETATM   13  C   UNL     1      -8.268  11.307  68.429  1.00  0.00    -0.149 A  
HETATM   14  C   UNL     1      -6.155  12.341  67.915  1.00  0.00    -0.082 A  
HETATM   15  C   UNL     1      -6.877  11.277  68.449  1.00  0.00    -0.063 A  
ENDBRANCH   9  10
BRANCH   9  16
HETATM   16  C   UNL     1      -9.337  15.792  67.320  1.00  0.00    -0.219 A  
HETATM   17  C   UNL     1      -9.191  18.170  67.867  1.00  0.00    -0.273 A  
HETATM   18  C   UNL     1      -8.737  17.053  67.156  1.00  0.00    -0.226 A  
HETATM   19  C   UNL     1     -10.810  16.796  68.993  1.00  0.00    -0.291 A  
HETATM   20  C   UNL     1     -10.365  15.683  68.271  1.00  0.00    -0.244 A  
HETATM   21  C   UNL     1     -10.234  18.045  68.780  1.00  0.00    -0.362 A  
ENDBRANCH   9  16
ENDBRANCH   8   9
ENDBRANCH   5   8
TORSDOF 4
ENDMDL
MODEL      164
REMARK 921   NORMALIZED FREE ENERGY PREDICTED BY IDOCK:   -2.39 KCAL/MOL
REMARK 922        TOTAL FREE ENERGY PREDICTED BY IDOCK:   -4.02 KCAL/MOL
REMARK 923 INTER-LIGAND FREE ENERGY PREDICTED BY IDOCK:   -3.39 KCAL/MOL
REMARK 924 INTRA-LIGAND FREE ENERGY PREDICTED BY IDOCK:   -0.63 KCAL/MOL
REMARK 927      BINDING AFFINITY PREDICTED BY RF-SCORE:    0.00 PKD
ROOT
HETATM    1  C   UNL     1      -5.612   9.249  73.665  1.00  0.00    -0.020 C  
HETATM    2  N   UNL     1      -5.789   7.807  73.618  1.00  0.00    -0.059 NA 
HETATM    3  C   UNL     1      -7.064   7.339  74.158  1.00  0.00    -0.087 C  
HETATM    4  C   UNL     1      -8.244   7.300  73.175  1.00  0.00    -0.129 C  
HETATM    5  C   UNL     1      -7.898   6.680  71.814  1.00  0.00    -0.102 C  
HETATM    6  C   UNL     1      -5.501   7.248  72.293  1.00  0.00    -0.037 C  
HETATM    7  C   UNL     1      -6.654   7.410  71.292  1.00  0.00    -0.043 C  
ENDROOT
BRANCH   5   8
HETATM    8  O   UNL     1      -7.561   5.298  71.729  1.00  0.00    -0.100 OA 
BRANCH   8   9
HETATM    9  C   UNL     1      -8.441   4.347  71.138  1.00  0.00    -0.094 C  
BRANCH   9  10
HETATM   10  C   UNL     1      -9.268   5.164  70.135  1.00  0.00    -0.188 A  
HETATM   11  C   UNL     1     -10.591   5.555  70.420  1.00  0.00    -0.350 A  
HETATM   12  C   UNL     1      -8.682   5.649  68.955  1.00  0.00    -0.107 A  
HETATM   13  C   UNL     1     -11.292   6.419  69.575  1.00  0.00    -0.460 A  
HETATM   14  C   UNL     1      -9.381   6.526  68.114  1.00  0.00    -0.109 A  
HETATM   15  C   UNL     1     -10.679   6.917  68.429  1.00  0.00    -0.259 A  
ENDBRANCH   9  10
BRANCH   9  16
HETATM   16  C   UNL     1      -9.258   3.557  72.154  1.00  0.00    -0.165 A  
HETATM   17  C   UNL     1     -10.341   3.308  74.331  1.00  0.00    -0.237 A  
HETATM   18  C   UNL     1      -9.509   4.019  73.458  1.00  0.00    -0.121 A  
HETATM   19  C   UNL     1     -10.643   1.607  72.660  1.00  0.00    -0.232 A  
HETATM   20  C   UNL     1      -9.822   2.325  71.783  1.00  0.00    -0.222 A  
HETATM   21  C   UNL     1     -10.916   2.106  73.930  1.00  0.00    -0.269 A  
ENDBRANCH   9  16
ENDBRANCH   8   9
ENDBRANCH   5   8
TORSDOF 4
ENDMDL
MODEL      165
REMARK 921   NORMALIZED FREE ENERGY PREDICTED BY IDOCK:   -2.26 KCAL/MOL
REMARK 922        TOTAL FREE ENERGY PREDICTED BY IDOCK:   -3.87 KCAL/MOL
REMARK 923 INTER-LIGAND FREE ENERGY PREDICTED BY IDOCK:   -4.22 KCAL/MOL
REMARK 924 INTRA-LIGAND FREE ENERGY PREDICTED BY IDOCK:    0.36 KCAL/MOL
REMARK 927      BINDING AFFINITY PREDICTED BY RF-SCORE:    0.00 PKD
ROOT
HETATM    1  C   UNL     1      -5.416  14.389  68.682  1.00  0.00    -0.094 C  
HETATM    2  N   UNL     1      -5.818  13.544  67.569  1.00  0.00    -0.344 NA 
HETATM    3  C   UNL     1      -5.348  12.164  67.659  1.00  0.00    -0.091 C  
HETATM    4  C   UNL     1      -6.243  11.192  68.441  1.00  0.00    -0.045 C  
HETATM    5  C   UNL     1      -7.734  11.302  68.091  1.00  0.00    -0.112 C  
HETATM    6  C   UNL     1      -7.255  13.631  67.288  1.00  0.00     0.026 C  
HETATM    7  C   UNL     1      -8.119  12.780  68.231  1.00  0.00    -0.154 C  
ENDROOT
BRANCH   5   8
HETATM    8  O   UNL     1      -8.185  10.939  66.788  1.00  0.00    -0.130 OA 
BRANCH   8   9
HETATM    9  C   UNL     1      -9.472  10.371  66.573  1.00  0.00    -0.167 C  
BRANCH   9  10
HETATM   10  C   UNL     1     -10.222  11.425  65.746  1.00  0.00    -0.295 A  
HETATM   11  C   UNL     1     -10.039  12.802  65.972  1.00  0.00    -0.277 A  
HETATM   12  C   UNL     1     -11.021  11.040  64.657  1.00  0.00    -0.150 A  
HETATM   13  C   UNL     1     -10.605  13.760  65.127  1.00  0.00    -0.385 A  
HETATM   14  C   UNL     1     -11.578  12.001  63.802  1.00  0.00    -0.565 A  
HETATM   15  C   UNL     1     -11.363  13.357  64.032  1.00  0.00    -0.356 A  
ENDBRANCH   9  10
BRANCH   9  16
HETATM   16  C   UNL     1     -10.173   9.942  67.857  1.00  0.00    -0.234 A  
HETATM   17  C   UNL     1     -11.507  10.412  69.852  1.00  0.00    -0.368 A  
HETATM   18  C   UNL     1     -10.793  10.853  68.730  1.00  0.00    -0.251 A  
HETATM   19  C   UNL     1     -10.944   8.137  69.315  1.00  0.00     0.030 A  
HETATM   20  C   UNL     1     -10.243   8.578  68.187  1.00  0.00    -0.254 A  
HETATM   21  C   UNL     1     -11.591   9.053  70.140  1.00  0.00    -0.007 A  
ENDBRANCH   9  16
ENDBRANCH   8   9
ENDBRANCH   5   8
TORSDOF 4
ENDMDL
MODEL      166
REMARK 921   NORMALIZED FREE ENERGY PREDICTED BY IDOCK:   -2.24 KCAL/MOL
REMARK 922        TOTAL FREE ENERGY PREDICTED BY IDOCK:   -3.84 KCAL/MOL
REMARK 923 INTER-LIGAND FREE ENERGY PREDICTED BY IDOCK:   -3.81 KCAL/MOL
REMARK 924 INTRA-LIGAND FREE ENERGY PREDICTED BY IDOCK:   -0.03 KCAL/MOL
REMARK 927      BINDING AFFINITY PREDICTED BY RF-SCORE:    0.00 PKD
ROOT
HETATM    1  C   UNL     1      -5.591   9.162  74.302  1.00  0.00    -0.117 C  
HETATM    2  N   UNL     1      -5.786   7.937  73.544  1.00  0.00    -0.052 NA 
HETATM    3  C   UNL     1      -7.054   7.261  73.808  1.00  0.00    -0.079 C  
HETATM    4  C   UNL     1      -8.255   7.719  72.967  1.00  0.00    -0.181 C  
HETATM    5  C   UNL     1      -7.946   7.864  71.470  1.00  0.00    -0.099 C  
HETATM    6  C   UNL     1      -5.533   8.116  72.110  1.00  0.00    -0.037 C  
HETATM    7  C   UNL     1      -6.705   8.757  71.353  1.00  0.00    -0.081 C  
ENDROOT
BRANCH   5   8
HETATM    8  O   UNL     1      -7.627   6.709  70.697  1.00  0.00    -0.091 OA 
BRANCH   8   9
HETATM    9  C   UNL     1      -8.638   5.838  70.201  1.00  0.00    -0.128 C  
BRANCH   9  10
HETATM   10  C   UNL     1      -9.202   6.566  68.973  1.00  0.00    -0.130 A  
HETATM   11  C   UNL     1     -10.254   6.019  68.213  1.00  0.00    -0.218 A  
HETATM   12  C   UNL     1      -8.765   7.861  68.649  1.00  0.00    -0.128 A  
HETATM   13  C   UNL     1     -10.865   6.746  67.188  1.00  0.00    -0.462 A  
HETATM   14  C   UNL     1      -9.387   8.594  67.629  1.00  0.00    -0.157 A  
HETATM   15  C   UNL     1     -10.440   8.040  66.907  1.00  0.00    -0.387 A  
ENDBRANCH   9  10
BRANCH   9  16
HETATM   16  C   UNL     1      -9.674   5.445  71.249  1.00  0.00    -0.215 A  
HETATM   17  C   UNL     1     -10.376   4.200  73.232  1.00  0.00    -0.232 A  
HETATM   18  C   UNL     1      -9.435   4.467  72.229  1.00  0.00    -0.183 A  
HETATM   19  C   UNL     1     -11.864   5.822  72.267  1.00  0.00    -0.215 A  
HETATM   20  C   UNL     1     -10.917   6.098  71.274  1.00  0.00    -0.340 A  
HETATM   21  C   UNL     1     -11.587   4.884  73.257  1.00  0.00    -0.276 A  
ENDBRANCH   9  16
ENDBRANCH   8   9
ENDBRANCH   5   8
TORSDOF 4
ENDMDL
MODEL      167
REMARK 921   NORMALIZED FREE ENERGY PREDICTED BY IDOCK:   -2.12 KCAL/MOL
REMARK 922        TOTAL FREE ENERGY PREDICTED BY IDOCK:   -3.69 KCAL/MOL
REMARK 923 INTER-LIGAND FREE ENERGY PREDICTED BY IDOCK:   -3.68 KCAL/MOL
REMARK 924 INTRA-LIGAND FREE ENERGY PREDICTED BY IDOCK:   -0.01 KCAL/MOL
REMARK 927      BINDING AFFINITY PREDICTED BY RF-SCORE:    0.00 PKD
ROOT
HETATM    1  C   UNL     1     -11.751  16.180  71.713  1.00  0.00    -0.488 C  
HETATM    2  N   UNL     1     -11.071  14.974  71.269  1.00  0.00    -0.219 NA 
HETATM    3  C   UNL     1     -11.964  13.863  70.948  1.00  0.00    -0.231 C  
HETATM    4  C   UNL     1     -12.511  13.825  69.514  1.00  0.00    -0.123 C  
HETATM    5  C   UNL     1     -11.447  14.079  68.436  1.00  0.00    -0.306 C  
HETATM    6  C   UNL     1     -10.097  15.238  70.205  1.00  0.00    -0.093 C  
HETATM    7  C   UNL     1     -10.729  15.380  68.812  1.00  0.00    -0.241 C  
ENDROOT
BRANCH   5   8
HETATM    8  O   UNL     1     -10.396  13.135  68.241  1.00  0.00    -0.240 OA 
BRANCH   8   9
HETATM    9  C   UNL     1      -9.381  13.336  67.264  1.00  0.00    -0.226 C  
BRANCH   9  10
HETATM   10  C   UNL     1      -9.610  12.218  66.238  1.00  0.00    -0.248 A  
HETATM   11  C   UNL     1      -9.254  10.884  66.513  1.00  0.00    -0.189 A  
HETATM   12  C   UNL     1     -10.298  12.479  65.042  1.00  0.00    -0.323 A  
HETATM   13  C   UNL     1      -9.595   9.845  65.642  1.00  0.00    -0.320 A  
HETATM   14  C   UNL     1     -10.652  11.436  64.175  1.00  0.00    -0.430 A  
HETATM   15  C   UNL     1     -10.309  10.121  64.480  1.00  0.00     0.208 A  
ENDBRANCH   9  10
BRANCH   9  16
HETATM   16  C   UNL     1      -7.974  13.394  67.849  1.00  0.00    -0.155 A  
HETATM   17  C   UNL     1      -5.546  13.169  67.665  1.00  0.00    -0.088 A  
HETATM   18  C   UNL     1      -6.830  13.014  67.126  1.00  0.00     0.118 A  
HETATM   19  C   UNL     1      -6.504  14.019  69.700  1.00  0.00    -0.122 A  
HETATM   20  C   UNL     1      -7.785  13.876  69.155  1.00  0.00     0.109 A  
HETATM   21  C   UNL     1      -5.382  13.681  68.949  1.00  0.00    -0.074 A  
ENDBRANCH   9  16
ENDBRANCH   8   9
ENDBRANCH   5   8
TORSDOF 4
ENDMDL
MODEL      168
REMARK 921   NORMALIZED FREE ENERGY PREDICTED BY IDOCK:   -1.65 KCAL/MOL
REMARK 922        TOTAL FREE ENERGY PREDICTED BY IDOCK:   -3.12 KCAL/MOL
REMARK 923 INTER-LIGAND FREE ENERGY PREDICTED BY IDOCK:   -2.08 KCAL/MOL
REMARK 924 INTRA-LIGAND FREE ENERGY PREDICTED BY IDOCK:   -1.04 KCAL/MOL
REMARK 927      BINDING AFFINITY PREDICTED BY RF-SCORE:    0.00 PKD
ROOT
HETATM    1  C   UNL     1      -8.272   8.679  72.542  1.00  0.00     0.008 C  
HETATM    2  N   UNL     1      -8.382   8.386  71.122  1.00  0.00    -0.124 NA 
HETATM    3  C   UNL     1      -7.120   8.025  70.483  1.00  0.00    -0.045 C  
HETATM    4  C   UNL     1      -6.730   6.541  70.539  1.00  0.00    -0.057 C  
HETATM    5  C   UNL     1      -7.880   5.583  70.195  1.00  0.00    -0.089 C  
HETATM    6  C   UNL     1      -9.455   7.431  70.828  1.00  0.00    -0.167 C  
HETATM    7  C   UNL     1      -9.066   5.968  71.087  1.00  0.00    -0.153 C  
ENDROOT
BRANCH   5   8
HETATM    8  O   UNL     1      -8.417   5.567  68.875  1.00  0.00    -0.101 OA 
BRANCH   8   9
HETATM    9  C   UNL     1      -7.625   5.206  67.748  1.00  0.00    -0.087 C  
BRANCH   9  10
HETATM   10  C   UNL     1      -7.728   6.412  66.805  1.00  0.00    -0.100 A  
HETATM   11  C   UNL     1      -8.798   7.324  66.893  1.00  0.00    -0.138 A  
HETATM   12  C   UNL     1      -6.689   6.706  65.908  1.00  0.00    -0.048 A  
HETATM   13  C   UNL     1      -8.816   8.499  66.136  1.00  0.00    -0.200 A  
HETATM   14  C   UNL     1      -6.702   7.891  65.159  1.00  0.00    -0.051 A  
HETATM   15  C   UNL     1      -7.758   8.789  65.280  1.00  0.00    -0.098 A  
ENDBRANCH   9  10
BRANCH   9  16
HETATM   16  C   UNL     1      -8.018   3.869  67.129  1.00  0.00    -0.092 A  
HETATM   17  C   UNL     1      -9.089   1.673  67.228  1.00  0.00    -0.135 A  
HETATM   18  C   UNL     1      -8.660   2.850  67.854  1.00  0.00    -0.115 A  
HETATM   19  C   UNL     1      -8.182   2.454  65.143  1.00  0.00    -0.084 A  
HETATM   20  C   UNL     1      -7.767   3.635  65.767  1.00  0.00    -0.085 A  
HETATM   21  C   UNL     1      -8.858   1.478  65.870  1.00  0.00    -0.119 A  
ENDBRANCH   9  16
ENDBRANCH   8   9
ENDBRANCH   5   8
TORSDOF 4
ENDMDL
MODEL      169
REMARK 921   NORMALIZED FREE ENERGY PREDICTED BY IDOCK:   -1.54 KCAL/MOL
REMARK 922        TOTAL FREE ENERGY PREDICTED BY IDOCK:   -2.97 KCAL/MOL
REMARK 923 INTER-LIGAND FREE ENERGY PREDICTED BY IDOCK:   -2.05 KCAL/MOL
REMARK 924 INTRA-LIGAND FREE ENERGY PREDICTED BY IDOCK:   -0.92 KCAL/MOL
REMARK 927      BINDING AFFINITY PREDICTED BY RF-SCORE:    0.00 PKD
ROOT
HETATM    1  C   UNL     1      -5.591   9.162  74.302  1.00  0.00    -0.117 C  
HETATM    2  N   UNL     1      -5.786   7.937  73.544  1.00  0.00    -0.052 NA 
HETATM    3  C   UNL     1      -7.054   7.261  73.808  1.00  0.00    -0.079 C  
HETATM    4  C   UNL     1      -8.255   7.719  72.967  1.00  0.00    -0.181 C  
HETATM    5  C   UNL     1      -7.946   7.864  71.470  1.00  0.00    -0.099 C  
HETATM    6  C   UNL     1      -5.533   8.116  72.110  1.00  0.00    -0.037 C  
HETATM    7  C   UNL     1      -6.705   8.757  71.353  1.00  0.00    -0.081 C  
ENDROOT
BRANCH   5   8
HETATM    8  O   UNL     1      -7.627   6.709  70.697  1.00  0.00    -0.091 OA 
BRANCH   8   9
HETATM    9  C   UNL     1      -8.638   5.838  70.201  1.00  0.00    -0.128 C  
BRANCH   9  10
HETATM   10  C   UNL     1      -8.228   4.448  70.707  1.00  0.00    -0.077 A  
HETATM   11  C   UNL     1      -8.983   3.301  70.398  1.00  0.00    -0.169 A  
HETATM   12  C   UNL     1      -7.015   4.269  71.392  1.00  0.00    -0.035 A  
HETATM   13  C   UNL     1      -8.533   2.021  70.733  1.00  0.00    -0.084 A  
HETATM   14  C   UNL     1      -6.558   2.984  71.717  1.00  0.00    -0.018 A  
HETATM   15  C   UNL     1      -7.311   1.863  71.379  1.00  0.00    -0.032 A  
ENDBRANCH   9  10
BRANCH   9  16
HETATM   16  C   UNL     1      -8.845   5.938  68.693  1.00  0.00    -0.111 A  
HETATM   17  C   UNL     1      -9.658   7.090  66.696  1.00  0.00    -0.220 A  
HETATM   18  C   UNL     1      -9.569   6.981  68.089  1.00  0.00    -0.131 A  
HETATM   19  C   UNL     1      -8.368   5.076  66.456  1.00  0.00    -0.107 A  
HETATM   20  C   UNL     1      -8.268   4.976  67.848  1.00  0.00    -0.097 A  
HETATM   21  C   UNL     1      -9.050   6.143  65.878  1.00  0.00    -0.101 A  
ENDBRANCH   9  16
ENDBRANCH   8   9
ENDBRANCH   5   8
TORSDOF 4
ENDMDL
MODEL      170
REMARK 921   NORMALIZED FREE ENERGY PREDICTED BY IDOCK:   -1.07 KCAL/MOL
REMARK 922        TOTAL FREE ENERGY PREDICTED BY IDOCK:   -2.40 KCAL/MOL
REMARK 923 INTER-LIGAND FREE ENERGY PREDICTED BY IDOCK:   -2.13 KCAL/MOL
REMARK 924 INTRA-LIGAND FREE ENERGY PREDICTED BY IDOCK:   -0.27 KCAL/MOL
REMARK 927      BINDING AFFINITY PREDICTED BY RF-SCORE:    0.00 PKD
ROOT
HETATM    1  C   UNL     1      -7.106  19.031  67.977  1.00  0.00    -0.238 C  
HETATM    2  N   UNL     1      -7.977  18.249  67.115  1.00  0.00    -0.217 NA 
HETATM    3  C   UNL     1      -7.275  17.456  66.109  1.00  0.00    -0.292 C  
HETATM    4  C   UNL     1      -6.812  16.059  66.548  1.00  0.00     0.480 C  
HETATM    5  C   UNL     1      -7.880  15.262  67.311  1.00  0.00    -0.209 C  
HETATM    6  C   UNL     1      -8.955  17.459  67.872  1.00  0.00    -0.251 C  
HETATM    7  C   UNL     1      -8.379  16.158  68.451  1.00  0.00    -0.179 C  
ENDROOT
BRANCH   5   8
HETATM    8  O   UNL     1      -9.067  14.844  66.640  1.00  0.00    -0.252 OA 
BRANCH   8   9
HETATM    9  C   UNL     1      -9.926  13.850  67.188  1.00  0.00    -0.239 C  
BRANCH   9  10
HETATM   10  C   UNL     1      -8.976  12.852  67.863  1.00  0.00    -0.193 A  
HETATM   11  C   UNL     1      -9.240  12.339  69.148  1.00  0.00     0.593 A  
HETATM   12  C   UNL     1      -7.877  12.329  67.163  1.00  0.00    -0.149 A  
HETATM   13  C   UNL     1      -8.457  11.323  69.701  1.00  0.00     0.761 A  
HETATM   14  C   UNL     1      -7.099  11.301  67.713  1.00  0.00    -0.087 A  
HETATM   15  C   UNL     1      -7.395  10.793  68.975  1.00  0.00    -0.109 A  
ENDBRANCH   9  10
BRANCH   9  16
HETATM   16  C   UNL     1     -10.882  13.240  66.168  1.00  0.00    -0.290 A  
HETATM   17  C   UNL     1     -11.433  11.620  64.423  1.00  0.00    -0.302 A  
HETATM   18  C   UNL     1     -10.502  12.219  65.280  1.00  0.00    -0.315 A  
HETATM   19  C   UNL     1     -13.143  13.093  65.251  1.00  0.00     0.064 A  
HETATM   20  C   UNL     1     -12.215  13.681  66.117  1.00  0.00    -0.490 A  
HETATM   21  C   UNL     1     -12.756  12.050  64.414  1.00  0.00    -0.216 A  
ENDBRANCH   9  16
ENDBRANCH   8   9
ENDBRANCH   5   8
TORSDOF 4
ENDMDL
MODEL      171
REMARK 921   NORMALIZED FREE ENERGY PREDICTED BY IDOCK:   -0.92 KCAL/MOL
REMARK 922        TOTAL FREE ENERGY PREDICTED BY IDOCK:   -2.21 KCAL/MOL
REMARK 923 INTER-LIGAND FREE ENERGY PREDICTED BY IDOCK:   -2.15 KCAL/MOL
REMARK 924 INTRA-LIGAND FREE ENERGY PREDICTED BY IDOCK:   -0.06 KCAL/MOL
REMARK 927      BINDING AFFINITY PREDICTED BY RF-SCORE:    0.00 PKD
ROOT
HETATM    1  C   UNL     1      -9.357  17.271  68.054  1.00  0.00    -0.264 C  
HETATM    2  N   UNL     1      -8.563  16.152  68.537  1.00  0.00    -0.192 NA 
HETATM    3  C   UNL     1      -9.338  15.106  69.199  1.00  0.00    -0.215 C  
HETATM    4  C   UNL     1      -9.926  14.018  68.290  1.00  0.00    -0.236 C  
HETATM    5  C   UNL     1      -8.934  13.472  67.252  1.00  0.00    -0.222 C  
HETATM    6  C   UNL     1      -7.661  15.619  67.511  1.00  0.00    -0.175 C  
HETATM    7  C   UNL     1      -8.352  14.681  66.510  1.00  0.00     0.192 C  
ENDROOT
BRANCH   5   8
HETATM    8  O   UNL     1      -7.793  12.735  67.682  1.00  0.00    -0.139 OA 
BRANCH   8   9
HETATM    9  C   UNL     1      -7.684  11.331  67.471  1.00  0.00    -0.122 C  
BRANCH   9  10
HETATM   10  C   UNL     1      -8.606  11.052  66.275  1.00  0.00    -0.167 A  
HETATM   11  C   UNL     1      -8.204  11.336  64.956  1.00  0.00     0.436 A  
HETATM   12  C   UNL     1      -9.830  10.389  66.459  1.00  0.00    -0.256 A  
HETATM   13  C   UNL     1      -8.979  10.948  63.860  1.00  0.00    -0.117 A  
HETATM   14  C   UNL     1     -10.601   9.989  65.358  1.00  0.00     0.231 A  
HETATM   15  C   UNL     1     -10.171  10.260  64.062  1.00  0.00     0.089 A  
ENDBRANCH   9  10
BRANCH   9  16
HETATM   16  C   UNL     1      -7.977  10.501  68.717  1.00  0.00    -0.127 A  
HETATM   17  C   UNL     1      -7.270   9.170  70.641  1.00  0.00    -0.106 A  
HETATM   18  C   UNL     1      -6.974   9.845  69.450  1.00  0.00    -0.063 A  
HETATM   19  C   UNL     1      -9.596   9.715  70.370  1.00  0.00    -0.292 A  
HETATM   20  C   UNL     1      -9.296  10.401  69.189  1.00  0.00    -0.211 A  
HETATM   21  C   UNL     1      -8.580   9.113  71.107  1.00  0.00    -0.196 A  
ENDBRANCH   9  16
ENDBRANCH   8   9
ENDBRANCH   5   8
TORSDOF 4
ENDMDL
MODEL      172
REMARK 921   NORMALIZED FREE ENERGY PREDICTED BY IDOCK:   -0.90 KCAL/MOL
REMARK 922        TOTAL FREE ENERGY PREDICTED BY IDOCK:   -2.19 KCAL/MOL
REMARK 923 INTER-LIGAND FREE ENERGY PREDICTED BY IDOCK:   -1.14 KCAL/MOL
REMARK 924 INTRA-LIGAND FREE ENERGY PREDICTED BY IDOCK:   -1.05 KCAL/MOL
REMARK 927      BINDING AFFINITY PREDICTED BY RF-SCORE:    0.00 PKD
ROOT
HETATM    1  C   UNL     1     -10.590  10.439  63.581  1.00  0.00     0.725 C  
HETATM    2  N   UNL     1      -9.579  11.194  64.304  1.00  0.00    -0.245 NA 
HETATM    3  C   UNL     1      -9.714  12.644  64.189  1.00  0.00     0.114 C  
HETATM    4  C   UNL     1     -10.641  13.322  65.208  1.00  0.00    -0.325 C  
HETATM    5  C   UNL     1     -10.431  12.845  66.652  1.00  0.00    -0.263 C  
HETATM    6  C   UNL     1      -9.435  10.751  65.694  1.00  0.00    -0.209 C  
HETATM    7  C   UNL     1     -10.510  11.314  66.635  1.00  0.00    -0.292 C  
ENDROOT
BRANCH   5   8
HETATM    8  O   UNL     1      -9.206  13.131  67.322  1.00  0.00    -0.204 OA 
BRANCH   8   9
HETATM    9  C   UNL     1      -8.692  14.456  67.410  1.00  0.00    -0.204 C  
BRANCH   9  10
HETATM   10  C   UNL     1      -7.586  14.368  68.470  1.00  0.00    -0.125 A  
HETATM   11  C   UNL     1      -7.326  13.170  69.163  1.00  0.00     0.131 A  
HETATM   12  C   UNL     1      -6.720  15.451  68.689  1.00  0.00    -0.102 A  
HETATM   13  C   UNL     1      -6.228  13.047  70.019  1.00  0.00    -0.062 A  
HETATM   14  C   UNL     1      -5.612  15.324  69.538  1.00  0.00    -0.098 A  
HETATM   15  C   UNL     1      -5.362  14.122  70.194  1.00  0.00    -0.097 A  
ENDBRANCH   9  10
BRANCH   9  16
HETATM   16  C   UNL     1      -9.761  15.509  67.681  1.00  0.00    -0.212 A  
HETATM   17  C   UNL     1     -11.442  16.564  69.108  1.00  0.00    -0.084 A  
HETATM   18  C   UNL     1     -10.536  15.527  68.853  1.00  0.00    -0.223 A  
HETATM   19  C   UNL     1     -10.891  17.564  66.993  1.00  0.00    -0.054 A  
HETATM   20  C   UNL     1      -9.976  16.535  66.746  1.00  0.00    -0.281 A  
HETATM   21  C   UNL     1     -11.614  17.588  68.182  1.00  0.00     0.971 A  
ENDBRANCH   9  16
ENDBRANCH   8   9
ENDBRANCH   5   8
TORSDOF 4
ENDMDL
MODEL      173
REMARK 921   NORMALIZED FREE ENERGY PREDICTED BY IDOCK:   -0.65 KCAL/MOL
REMARK 922        TOTAL FREE ENERGY PREDICTED BY IDOCK:   -1.87 KCAL/MOL
REMARK 923 INTER-LIGAND FREE ENERGY PREDICTED BY IDOCK:   -3.32 KCAL/MOL
REMARK 924 INTRA-LIGAND FREE ENERGY PREDICTED BY IDOCK:    1.44 KCAL/MOL
REMARK 927      BINDING AFFINITY PREDICTED BY RF-SCORE:    0.00 PKD
ROOT
HETATM    1  C   UNL     1     -12.677  11.853  62.822  1.00  0.00     0.719 C  
HETATM    2  N   UNL     1     -11.489  12.562  63.271  1.00  0.00    -0.436 NA 
HETATM    3  C   UNL     1     -11.743  13.576  64.292  1.00  0.00    -0.416 C  
HETATM    4  C   UNL     1     -11.740  13.088  65.748  1.00  0.00    -0.427 C  
HETATM    5  C   UNL     1     -10.563  12.164  66.092  1.00  0.00    -0.255 C  
HETATM    6  C   UNL     1     -10.398  11.654  63.640  1.00  0.00    -0.419 C  
HETATM    7  C   UNL     1     -10.551  11.046  65.042  1.00  0.00    -0.315 C  
ENDROOT
BRANCH   5   8
HETATM    8  O   UNL     1      -9.233  12.677  66.082  1.00  0.00    -0.168 OA 
BRANCH   8   9
HETATM    9  C   UNL     1      -8.128  11.902  66.535  1.00  0.00     0.006 C  
BRANCH   9  10
HETATM   10  C   UNL     1      -8.744  10.554  66.934  1.00  0.00    -0.130 A  
HETATM   11  C   UNL     1      -8.368   9.356  66.297  1.00  0.00    -0.117 A  
HETATM   12  C   UNL     1      -9.612  10.465  68.035  1.00  0.00    -0.156 A  
HETATM   13  C   UNL     1      -8.817   8.115  66.756  1.00  0.00    -0.156 A  
HETATM   14  C   UNL     1     -10.051   9.219  68.503  1.00  0.00    -0.211 A  
HETATM   15  C   UNL     1      -9.647   8.047  67.870  1.00  0.00    -0.178 A  
ENDBRANCH   9  10
BRANCH   9  16
HETATM   16  C   UNL     1      -7.311  12.585  67.627  1.00  0.00    -0.134 A  
HETATM   17  C   UNL     1      -6.704  14.533  68.972  1.00  0.00    -0.105 A  
HETATM   18  C   UNL     1      -7.400  13.960  67.901  1.00  0.00    -0.157 A  
HETATM   19  C   UNL     1      -5.739  12.393  69.488  1.00  0.00    -0.096 A  
HETATM   20  C   UNL     1      -6.447  11.819  68.427  1.00  0.00    -0.053 A  
HETATM   21  C   UNL     1      -5.879  13.748  69.772  1.00  0.00    -0.115 A  
ENDBRANCH   9  16
ENDBRANCH   8   9
ENDBRANCH   5   8
TORSDOF 4
ENDMDL
MODEL      174
REMARK 921   NORMALIZED FREE ENERGY PREDICTED BY IDOCK:    0.38 KCAL/MOL
REMARK 922        TOTAL FREE ENERGY PREDICTED BY IDOCK:   -0.61 KCAL/MOL
REMARK 923 INTER-LIGAND FREE ENERGY PREDICTED BY IDOCK:   -3.09 KCAL/MOL
REMARK 924 INTRA-LIGAND FREE ENERGY PREDICTED BY IDOCK:    2.48 KCAL/MOL
REMARK 927      BINDING AFFINITY PREDICTED BY RF-SCORE:    0.00 PKD
ROOT
HETATM    1  C   UNL     1      -5.203  18.596  66.532  1.00  0.00    -0.138 C  
HETATM    2  N   UNL     1      -5.754  18.106  67.785  1.00  0.00    -0.153 NA 
HETATM    3  C   UNL     1      -6.478  19.112  68.559  1.00  0.00    -0.247 C  
HETATM    4  C   UNL     1      -7.966  19.286  68.220  1.00  0.00    -0.361 C  
HETATM    5  C   UNL     1      -8.731  17.961  68.081  1.00  0.00    -0.268 C  
HETATM    6  C   UNL     1      -6.521  16.868  67.615  1.00  0.00    -0.145 C  
HETATM    7  C   UNL     1      -7.947  17.093  67.090  1.00  0.00    -0.216 C  
ENDROOT
BRANCH   5   8
HETATM    8  O   UNL     1      -8.913  17.125  69.221  1.00  0.00    -0.067 OA 
BRANCH   8   9
HETATM    9  C   UNL     1      -9.373  15.783  69.100  1.00  0.00    -0.258 C  
BRANCH   9  10
HETATM   10  C   UNL     1      -9.868  15.678  67.651  1.00  0.00    -0.227 A  
HETATM   11  C   UNL     1      -9.367  14.698  66.772  1.00  0.00    -0.275 A  
HETATM   12  C   UNL     1     -10.928  16.481  67.200  1.00  0.00    -0.049 A  
HETATM   13  C   UNL     1      -9.919  14.507  65.503  1.00  0.00    -0.373 A  
HETATM   14  C   UNL     1     -11.490  16.281  65.932  1.00  0.00     0.588 A  
HETATM   15  C   UNL     1     -10.993  15.290  65.090  1.00  0.00    -0.428 A  
ENDBRANCH   9  10
BRANCH   9  16
HETATM   16  C   UNL     1     -10.396  15.390  70.160  1.00  0.00    -0.258 A  
HETATM   17  C   UNL     1     -11.929  15.927  71.988  1.00  0.00    -0.602 A  
HETATM   18  C   UNL     1     -10.922  16.304  71.090  1.00  0.00     0.150 A  
HETATM   19  C   UNL     1     -11.868  13.688  71.114  1.00  0.00     0.147 A  
HETATM   20  C   UNL     1     -10.873  14.070  70.208  1.00  0.00     0.491 A  
HETATM   21  C   UNL     1     -12.409  14.621  71.994  1.00  0.00    -0.398 A  
ENDBRANCH   9  16
ENDBRANCH   8   9
ENDBRANCH   5   8
TORSDOF 4
ENDMDL
MODEL      175
REMARK 921   NORMALIZED FREE ENERGY PREDICTED BY IDOCK:    0.69 KCAL/MOL
REMARK 922        TOTAL FREE ENERGY PREDICTED BY IDOCK:   -0.22 KCAL/MOL
REMARK 923 INTER-LIGAND FREE ENERGY PREDICTED BY IDOCK:   -0.76 KCAL/MOL
REMARK 924 INTRA-LIGAND FREE ENERGY PREDICTED BY IDOCK:    0.54 KCAL/MOL
REMARK 927      BINDING AFFINITY PREDICTED BY RF-SCORE:    0.00 PKD
ROOT
HETATM    1  C   UNL     1     -11.357  15.826  71.810  1.00  0.00    -0.308 C  
HETATM    2  N   UNL     1     -11.127  14.492  71.279  1.00  0.00     0.286 NA 
HETATM    3  C   UNL     1     -12.081  13.487  71.741  1.00  0.00     0.504 C  
HETATM    4  C   UNL     1     -13.375  13.354  70.925  1.00  0.00     0.086 C  
HETATM    5  C   UNL     1     -13.152  13.326  69.406  1.00  0.00     1.642 C  
HETATM    6  C   UNL     1     -10.967  14.488  69.821  1.00  0.00    -0.151 C  
HETATM    7  C   UNL     1     -12.297  14.549  69.056  1.00  0.00    -0.122 C  
ENDROOT
BRANCH   5   8
HETATM    8  O   UNL     1     -12.464  12.228  68.811  1.00  0.00     0.038 OA 
BRANCH   8   9
HETATM    9  C   UNL     1     -11.478  11.488  69.523  1.00  0.00    -0.311 C  
BRANCH   9  10
HETATM   10  C   UNL     1     -10.344  11.286  68.508  1.00  0.00    -0.217 A  
HETATM   11  C   UNL     1     -10.455  11.745  67.181  1.00  0.00    -0.250 A  
HETATM   12  C   UNL     1      -9.113  10.747  68.913  1.00  0.00    -0.170 A  
HETATM   13  C   UNL     1      -9.372  11.694  66.300  1.00  0.00    -0.228 A  
HETATM   14  C   UNL     1      -8.023  10.708  68.033  1.00  0.00    -0.107 A  
HETATM   15  C   UNL     1      -8.150  11.189  66.733  1.00  0.00    -0.155 A  
ENDBRANCH   9  10
BRANCH   9  16
HETATM   16  C   UNL     1     -12.013  10.206  70.154  1.00  0.00    -0.262 A  
HETATM   17  C   UNL     1     -11.709   7.969  71.090  1.00  0.00    -0.307 A  
HETATM   18  C   UNL     1     -11.201   9.092  70.425  1.00  0.00    -0.279 A  
HETATM   19  C   UNL     1     -13.880   8.998  71.168  1.00  0.00    -0.128 A  
HETATM   20  C   UNL     1     -13.367  10.125  70.517  1.00  0.00     0.020 A  
HETATM   21  C   UNL     1     -13.046   7.925  71.470  1.00  0.00    -0.343 A  
ENDBRANCH   9  16
ENDBRANCH   8   9
ENDBRANCH   5   8
TORSDOF 4
ENDMDL
MODEL      176
REMARK 921   NORMALIZED FREE ENERGY PREDICTED BY IDOCK:    0.78 KCAL/MOL
REMARK 922        TOTAL FREE ENERGY PREDICTED BY IDOCK:   -0.11 KCAL/MOL
REMARK 923 INTER-LIGAND FREE ENERGY PREDICTED BY IDOCK:   -3.31 KCAL/MOL
REMARK 924 INTRA-LIGAND FREE ENERGY PREDICTED BY IDOCK:    3.20 KCAL/MOL
REMARK 927      BINDING AFFINITY PREDICTED BY RF-SCORE:    0.00 PKD
ROOT
HETATM    1  C   UNL     1      -8.891   8.162  68.425  1.00  0.00    -0.133 C  
HETATM    2  N   UNL     1      -8.580   9.504  68.890  1.00  0.00    -0.125 NA 
HETATM    3  C   UNL     1      -7.987  10.371  67.875  1.00  0.00    -0.102 C  
HETATM    4  C   UNL     1      -8.970  11.141  66.981  1.00  0.00    -0.156 C  
HETATM    5  C   UNL     1     -10.119  11.808  67.752  1.00  0.00    -0.188 C  
HETATM    6  C   UNL     1      -9.710  10.136  69.578  1.00  0.00    -0.229 C  
HETATM    7  C   UNL     1     -10.762  10.723  68.625  1.00  0.00    -0.242 C  
ENDROOT
BRANCH   5   8
HETATM    8  O   UNL     1      -9.841  12.875  68.655  1.00  0.00    -0.177 OA 
BRANCH   8   9
HETATM    9  C   UNL     1      -9.802  14.231  68.224  1.00  0.00    -0.235 C  
BRANCH   9  10
HETATM   10  C   UNL     1     -10.315  14.187  66.778  1.00  0.00    -0.274 A  
HETATM   11  C   UNL     1     -10.209  15.304  65.926  1.00  0.00    -0.353 A  
HETATM   12  C   UNL     1     -10.793  12.987  66.227  1.00  0.00    -0.295 A  
HETATM   13  C   UNL     1     -10.540  15.220  64.571  1.00  0.00     0.055 A  
HETATM   14  C   UNL     1     -11.113  12.900  64.866  1.00  0.00    -0.326 A  
HETATM   15  C   UNL     1     -10.978  14.011  64.038  1.00  0.00     0.189 A  
ENDBRANCH   9  10
BRANCH   9  16
HETATM   16  C   UNL     1      -8.439  14.890  68.403  1.00  0.00    -0.153 A  
HETATM   17  C   UNL     1      -6.246  15.579  67.572  1.00  0.00    -0.141 A  
HETATM   18  C   UNL     1      -7.449  14.883  67.405  1.00  0.00    -0.228 A  
HETATM   19  C   UNL     1      -6.940  16.251  69.773  1.00  0.00     0.034 A  
HETATM   20  C   UNL     1      -8.148  15.568  69.599  1.00  0.00    -0.114 A  
HETATM   21  C   UNL     1      -5.994  16.272  68.752  1.00  0.00    -0.115 A  
ENDBRANCH   9  16
ENDBRANCH   8   9
ENDBRANCH   5   8
TORSDOF 4
ENDMDL
MODEL      177
REMARK 921   NORMALIZED FREE ENERGY PREDICTED BY IDOCK:    1.08 KCAL/MOL
REMARK 922        TOTAL FREE ENERGY PREDICTED BY IDOCK:    0.25 KCAL/MOL
REMARK 923 INTER-LIGAND FREE ENERGY PREDICTED BY IDOCK:   -1.90 KCAL/MOL
REMARK 924 INTRA-LIGAND FREE ENERGY PREDICTED BY IDOCK:    2.16 KCAL/MOL
REMARK 927      BINDING AFFINITY PREDICTED BY RF-SCORE:    0.00 PKD
ROOT
HETATM    1  C   UNL     1      -8.294   8.681  72.545  1.00  0.00    -0.010 C  
HETATM    2  N   UNL     1      -8.654   8.388  71.167  1.00  0.00    -0.140 NA 
HETATM    3  C   UNL     1      -7.567   7.829  70.367  1.00  0.00    -0.087 C  
HETATM    4  C   UNL     1      -7.399   6.304  70.421  1.00  0.00    -0.089 C  
HETATM    5  C   UNL     1      -8.716   5.528  70.280  1.00  0.00    -0.130 C  
HETATM    6  C   UNL     1      -9.889   7.603  71.064  1.00  0.00    -0.174 C  
HETATM    7  C   UNL     1      -9.688   6.102  71.318  1.00  0.00    -0.196 C  
ENDROOT
BRANCH   5   8
HETATM    8  O   UNL     1      -9.439   5.575  69.051  1.00  0.00    -0.120 OA 
BRANCH   8   9
HETATM    9  C   UNL     1      -8.923   4.998  67.857  1.00  0.00    -0.108 C  
BRANCH   9  10
HETATM   10  C   UNL     1      -8.087   3.804  68.338  1.00  0.00    -0.079 A  
HETATM   11  C   UNL     1      -7.587   3.740  69.653  1.00  0.00    -0.052 A  
HETATM   12  C   UNL     1      -7.903   2.683  67.512  1.00  0.00    -0.068 A  
HETATM   13  C   UNL     1      -6.953   2.591  70.136  1.00  0.00    -0.033 A  
HETATM   14  C   UNL     1      -7.279   1.527  68.001  1.00  0.00    -0.039 A  
HETATM   15  C   UNL     1      -6.814   1.479  69.312  1.00  0.00    -0.029 A  
ENDBRANCH   9  10
BRANCH   9  16
HETATM   16  C   UNL     1      -8.177   5.991  66.971  1.00  0.00    -0.105 A  
HETATM   17  C   UNL     1      -6.238   6.672  65.647  1.00  0.00    -0.038 A  
HETATM   18  C   UNL     1      -6.857   5.783  66.535  1.00  0.00    -0.059 A  
HETATM   19  C   UNL     1      -8.207   8.052  65.658  1.00  0.00    -0.135 A  
HETATM   20  C   UNL     1      -8.829   7.155  66.534  1.00  0.00    -0.154 A  
HETATM   21  C   UNL     1      -6.916   7.802  65.201  1.00  0.00    -0.059 A  
ENDBRANCH   9  16
ENDBRANCH   8   9
ENDBRANCH   5   8
TORSDOF 4
ENDMDL
MODEL      178
REMARK 921   NORMALIZED FREE ENERGY PREDICTED BY IDOCK:    7.26 KCAL/MOL
REMARK 922        TOTAL FREE ENERGY PREDICTED BY IDOCK:    7.89 KCAL/MOL
REMARK 923 INTER-LIGAND FREE ENERGY PREDICTED BY IDOCK:    0.15 KCAL/MOL
REMARK 924 INTRA-LIGAND FREE ENERGY PREDICTED BY IDOCK:    7.73 KCAL/MOL
REMARK 927      BINDING AFFINITY PREDICTED BY RF-SCORE:    0.00 PKD
ROOT
HETATM    1  C   UNL     1      -6.985  19.131  69.331  1.00  0.00    -0.237 C  
HETATM    2  N   UNL     1      -7.881  18.301  68.542  1.00  0.00    -0.293 NA 
HETATM    3  C   UNL     1      -7.218  17.219  67.819  1.00  0.00    -0.159 C  
HETATM    4  C   UNL     1      -7.027  15.905  68.590  1.00  0.00    -0.127 C  
HETATM    5  C   UNL     1      -8.277  15.446  69.355  1.00  0.00    -0.250 C  
HETATM    6  C   UNL     1      -9.040  17.836  69.312  1.00  0.00     0.250 C  
HETATM    7  C   UNL     1      -8.736  16.631  70.214  1.00  0.00     2.330 C  
ENDROOT
BRANCH   5   8
HETATM    8  O   UNL     1      -9.443  15.052  68.636  1.00  0.00    -0.198 OA 
BRANCH   8   9
HETATM    9  C   UNL     1      -9.482  13.853  67.871  1.00  0.00    -0.212 C  
BRANCH   9  10
HETATM   10  C   UNL     1      -8.007  13.503  67.632  1.00  0.00    -0.177 A  
HETATM   11  C   UNL     1      -7.613  12.214  67.226  1.00  0.00    -0.156 A  
HETATM   12  C   UNL     1      -7.019  14.500  67.693  1.00  0.00    -0.204 A  
HETATM   13  C   UNL     1      -6.292  11.935  66.867  1.00  0.00    -0.107 A  
HETATM   14  C   UNL     1      -5.697  14.224  67.320  1.00  0.00     0.571 A  
HETATM   15  C   UNL     1      -5.337  12.946  66.899  1.00  0.00     0.659 A  
ENDBRANCH   9  10
BRANCH   9  16
HETATM   16  C   UNL     1     -10.331  13.960  66.609  1.00  0.00    -0.278 A  
HETATM   17  C   UNL     1     -10.650  14.580  64.266  1.00  0.00     0.372 A  
HETATM   18  C   UNL     1      -9.877  14.583  65.434  1.00  0.00    -0.274 A  
HETATM   19  C   UNL     1     -12.394  13.400  65.425  1.00  0.00    -0.522 A  
HETATM   20  C   UNL     1     -11.615  13.391  66.587  1.00  0.00    -0.399 A  
HETATM   21  C   UNL     1     -11.905  13.980  64.258  1.00  0.00    -0.435 A  
ENDBRANCH   9  16
ENDBRANCH   8   9
ENDBRANCH   5   8
TORSDOF 4
ENDMDL
MODEL      179
REMARK 921   NORMALIZED FREE ENERGY PREDICTED BY IDOCK:   35.39 KCAL/MOL
REMARK 922        TOTAL FREE ENERGY PREDICTED BY IDOCK:   42.59 KCAL/MOL
REMARK 923 INTER-LIGAND FREE ENERGY PREDICTED BY IDOCK:   13.42 KCAL/MOL
REMARK 924 INTRA-LIGAND FREE ENERGY PREDICTED BY IDOCK:   29.17 KCAL/MOL
REMARK 927      BINDING AFFINITY PREDICTED BY RF-SCORE:    0.00 PKD
ROOT
HETATM    1  C   UNL     1      -6.765  19.290  69.916  1.00  0.00    -0.066 C  
HETATM    2  N   UNL     1      -7.217  17.909  69.923  1.00  0.00     0.559 NA 
HETATM    3  C   UNL     1      -6.299  16.972  69.278  1.00  0.00    -0.229 C  
HETATM    4  C   UNL     1      -5.190  16.388  70.165  1.00  0.00    -0.176 C  
HETATM    5  C   UNL     1      -5.682  15.907  71.538  1.00  0.00     0.591 C  
HETATM    6  C   UNL     1      -7.633  17.460  71.256  1.00  0.00     6.857 C  
HETATM    7  C   UNL     1      -6.461  17.069  72.168  1.00  0.00     4.518 C  
ENDROOT
BRANCH   5   8
HETATM    8  O   UNL     1      -6.570  14.795  71.623  1.00  0.00     0.589 OA 
BRANCH   8   9
HETATM    9  C   UNL     1      -7.411  14.423  70.536  1.00  0.00     0.906 C  
BRANCH   9  10
HETATM   10  C   UNL     1      -6.819  13.101  70.030  1.00  0.00     0.451 A  
HETATM   11  C   UNL     1      -6.877  12.743  68.669  1.00  0.00    -0.099 A  
HETATM   12  C   UNL     1      -6.091  12.268  70.895  1.00  0.00     0.495 A  
HETATM   13  C   UNL     1      -6.212  11.613  68.184  1.00  0.00    -0.046 A  
HETATM   14  C   UNL     1      -5.414  11.142  70.406  1.00  0.00    -0.112 A  
HETATM   15  C   UNL     1      -5.467  10.822  69.053  1.00  0.00    -0.040 A  
ENDBRANCH   9  10
BRANCH   9  16
HETATM   16  C   UNL     1      -7.557  15.511  69.477  1.00  0.00    -0.200 A  
HETATM   17  C   UNL     1      -6.920  16.574  67.370  1.00  0.00    -0.186 A  
HETATM   18  C   UNL     1      -6.697  15.620  68.371  1.00  0.00    -0.116 A  
HETATM   19  C   UNL     1      -8.824  17.399  68.583  1.00  0.00    -0.258 A  
HETATM   20  C   UNL     1      -8.609  16.436  69.574  1.00  0.00     0.189 A  
HETATM   21  C   UNL     1      -7.989  17.459  67.471  1.00  0.00    -0.205 A  
ENDBRANCH   9  16
ENDBRANCH   8   9
ENDBRANCH   5   8
TORSDOF 4
ENDMDL
