MODEL        1
REMARK 921   NORMALIZED FREE ENERGY PREDICTED BY IDOCK:   -6.60 KCAL/MOL
REMARK 922        TOTAL FREE ENERGY PREDICTED BY IDOCK:  -11.36 KCAL/MOL
REMARK 923 INTER-LIGAND FREE ENERGY PREDICTED BY IDOCK:  -10.08 KCAL/MOL
REMARK 924 INTRA-LIGAND FREE ENERGY PREDICTED BY IDOCK:   -1.28 KCAL/MOL
REMARK 927      BINDING AFFINITY PREDICTED BY RF-SCORE:    0.00 PKD
ROOT
HETATM    1  C   UNL     1     -12.308  15.608  74.322  1.00  0.00    -0.669 C  
HETATM    2  N   UNL     1     -13.469  16.215  73.693  1.00  0.00    -0.894 NA 
HETATM    3  H   UNL     1     -13.263  17.155  73.356  1.00  0.00     0.000 HD 
ENDROOT
BRANCH   2   4
HETATM    4  C   UNL     1     -14.004  15.362  72.618  1.00  0.00    -0.496 C  
BRANCH   4   5
HETATM    5  C   UNL     1     -13.074  14.150  72.348  1.00  0.00    -0.434 C  
HETATM    6  H   UNL     1     -13.198  12.197  72.514  1.00  0.00     0.000 HD 
HETATM    7  O   UNL     1     -13.767  12.940  72.679  1.00  0.00    -0.573 OA 
BRANCH   5   8
HETATM    8  C   UNL     1     -12.588  14.101  70.910  1.00  0.00    -0.433 A  
HETATM    9  C   UNL     1     -12.369  15.271  70.167  1.00  0.00    -0.392 A  
HETATM   10  C   UNL     1     -11.904  15.212  68.843  1.00  0.00    -0.310 A  
HETATM   11  C   UNL     1     -11.629  13.970  68.253  1.00  0.00    -0.329 A  
HETATM   12  C   UNL     1     -11.872  12.801  68.978  1.00  0.00    -0.344 A  
HETATM   13  C   UNL     1     -12.333  12.868  70.297  1.00  0.00    -0.294 A  
BRANCH  10  14
HETATM   14  O   UNL     1     -11.548  16.390  68.148  1.00  0.00    -0.221 OA 
BRANCH  14  15
HETATM   15  C   UNL     1     -10.223  16.853  68.195  1.00  0.00    -0.311 C  
HETATM   16  O   UNL     1      -9.396  16.509  69.027  1.00  0.00    -0.253 OA 
BRANCH  15  17
HETATM   17  C   UNL     1      -9.973  17.809  67.018  1.00  0.00    -0.322 C  
HETATM   18  C   UNL     1      -8.462  18.018  66.814  1.00  0.00    -0.274 C  
HETATM   19  C   UNL     1     -10.544  17.180  65.740  1.00  0.00    -0.201 C  
HETATM   20  C   UNL     1     -10.635  19.163  67.297  1.00  0.00    -0.573 C  
ENDBRANCH  15  17
ENDBRANCH  14  15
ENDBRANCH  10  14
BRANCH  11  21
HETATM   21  O   UNL     1     -11.177  13.922  66.909  1.00  0.00    -0.298 OA 
BRANCH  21  22
HETATM   22  C   UNL     1     -12.056  13.592  65.863  1.00  0.00    -0.439 C  
HETATM   23  O   UNL     1     -13.171  14.076  65.699  1.00  0.00    -0.634 OA 
BRANCH  22  24
HETATM   24  C   UNL     1     -11.454  12.513  64.948  1.00  0.00    -0.367 C  
HETATM   25  C   UNL     1     -10.138  13.035  64.337  1.00  0.00    -0.245 C  
HETATM   26  C   UNL     1     -11.136  11.244  65.748  1.00  0.00    -0.153 C  
HETATM   27  C   UNL     1     -12.438  12.206  63.815  1.00  0.00    -0.620 C  
ENDBRANCH  22  24
ENDBRANCH  21  22
ENDBRANCH  11  21
ENDBRANCH   5   8
ENDBRANCH   4   5
ENDBRANCH   2   4
TORSDOF 9
ENDMDL
MODEL        2
REMARK 921   NORMALIZED FREE ENERGY PREDICTED BY IDOCK:   -6.54 KCAL/MOL
REMARK 922        TOTAL FREE ENERGY PREDICTED BY IDOCK:  -11.26 KCAL/MOL
REMARK 923 INTER-LIGAND FREE ENERGY PREDICTED BY IDOCK:  -10.07 KCAL/MOL
REMARK 924 INTRA-LIGAND FREE ENERGY PREDICTED BY IDOCK:   -1.19 KCAL/MOL
REMARK 927      BINDING AFFINITY PREDICTED BY RF-SCORE:    0.00 PKD
ROOT
HETATM    1  C   UNL     1     -12.406  15.652  74.276  1.00  0.00    -0.669 C  
HETATM    2  N   UNL     1     -13.628  16.189  73.697  1.00  0.00    -0.878 NA 
HETATM    3  H   UNL     1     -13.554  17.193  73.532  1.00  0.00     0.000 HD 
ENDROOT
BRANCH   2   4
HETATM    4  C   UNL     1     -14.002  15.467  72.470  1.00  0.00    -0.543 C  
BRANCH   4   5
HETATM    5  C   UNL     1     -13.319  14.075  72.407  1.00  0.00    -0.518 C  
HETATM    6  H   UNL     1     -13.880  12.205  72.625  1.00  0.00     0.000 HD 
HETATM    7  O   UNL     1     -14.298  13.058  72.664  1.00  0.00    -0.565 OA 
BRANCH   5   8
HETATM    8  C   UNL     1     -12.637  13.823  71.074  1.00  0.00    -0.446 A  
HETATM    9  C   UNL     1     -12.236  14.879  70.242  1.00  0.00    -0.389 A  
HETATM   10  C   UNL     1     -11.590  14.633  69.020  1.00  0.00    -0.298 A  
HETATM   11  C   UNL     1     -11.315  13.315  68.626  1.00  0.00    -0.288 A  
HETATM   12  C   UNL     1     -11.737  12.259  69.437  1.00  0.00    -0.392 A  
HETATM   13  C   UNL     1     -12.377  12.512  70.655  1.00  0.00    -0.369 A  
BRANCH  10  14
HETATM   14  O   UNL     1     -11.060  15.697  68.253  1.00  0.00    -0.304 OA 
BRANCH  14  15
HETATM   15  C   UNL     1      -9.823  16.260  68.605  1.00  0.00    -0.230 C  
HETATM   16  O   UNL     1      -9.091  15.834  69.486  1.00  0.00    -0.264 OA 
BRANCH  15  17
HETATM   17  C   UNL     1      -9.523  17.452  67.683  1.00  0.00    -0.251 C  
HETATM   18  C   UNL     1     -10.286  17.303  66.355  1.00  0.00    -0.333 C  
HETATM   19  C   UNL     1     -10.004  18.739  68.367  1.00  0.00    -0.441 C  
HETATM   20  C   UNL     1      -8.019  17.522  67.395  1.00  0.00    -0.217 C  
ENDBRANCH  15  17
ENDBRANCH  14  15
ENDBRANCH  10  14
BRANCH  11  21
HETATM   21  O   UNL     1     -10.678  13.078  67.381  1.00  0.00    -0.242 OA 
BRANCH  21  22
HETATM   22  C   UNL     1     -11.300  12.300  66.388  1.00  0.00    -0.354 C  
HETATM   23  O   UNL     1     -11.535  11.100  66.477  1.00  0.00    -0.289 OA 
BRANCH  22  24
HETATM   24  C   UNL     1     -11.631  13.143  65.146  1.00  0.00    -0.347 C  
HETATM   25  C   UNL     1     -10.436  14.061  64.817  1.00  0.00    -0.445 C  
HETATM   26  C   UNL     1     -11.883  12.239  63.932  1.00  0.00    -0.553 C  
HETATM   27  C   UNL     1     -12.857  14.012  65.437  1.00  0.00    -0.442 C  
ENDBRANCH  22  24
ENDBRANCH  21  22
ENDBRANCH  11  21
ENDBRANCH   5   8
ENDBRANCH   4   5
ENDBRANCH   2   4
TORSDOF 9
ENDMDL
MODEL        3
REMARK 921   NORMALIZED FREE ENERGY PREDICTED BY IDOCK:   -6.51 KCAL/MOL
REMARK 922        TOTAL FREE ENERGY PREDICTED BY IDOCK:  -11.21 KCAL/MOL
REMARK 923 INTER-LIGAND FREE ENERGY PREDICTED BY IDOCK:  -10.01 KCAL/MOL
REMARK 924 INTRA-LIGAND FREE ENERGY PREDICTED BY IDOCK:   -1.21 KCAL/MOL
REMARK 927      BINDING AFFINITY PREDICTED BY RF-SCORE:    0.00 PKD
ROOT
HETATM    1  C   UNL     1     -12.368  15.718  74.237  1.00  0.00    -0.649 C  
HETATM    2  N   UNL     1     -13.600  16.252  73.680  1.00  0.00    -0.853 NA 
HETATM    3  H   UNL     1     -13.538  17.260  73.533  1.00  0.00     0.000 HD 
ENDROOT
BRANCH   2   4
HETATM    4  C   UNL     1     -13.979  15.549  72.443  1.00  0.00    -0.560 C  
BRANCH   4   5
HETATM    5  C   UNL     1     -13.231  14.196  72.316  1.00  0.00    -0.447 C  
HETATM    6  H   UNL     1     -13.683  12.296  72.526  1.00  0.00     0.000 HD 
HETATM    7  O   UNL     1     -14.141  13.125  72.604  1.00  0.00    -0.701 OA 
BRANCH   5   8
HETATM    8  C   UNL     1     -12.611  14.003  70.943  1.00  0.00    -0.431 A  
HETATM    9  C   UNL     1     -12.362  15.088  70.089  1.00  0.00    -0.380 A  
HETATM   10  C   UNL     1     -11.772  14.898  68.829  1.00  0.00    -0.325 A  
HETATM   11  C   UNL     1     -11.400  13.610  68.418  1.00  0.00    -0.295 A  
HETATM   12  C   UNL     1     -11.671  12.523  69.251  1.00  0.00    -0.379 A  
HETATM   13  C   UNL     1     -12.257  12.720  70.507  1.00  0.00    -0.389 A  
BRANCH  10  14
HETATM   14  O   UNL     1     -11.392  16.003  68.033  1.00  0.00    -0.340 OA 
BRANCH  14  15
HETATM   15  C   UNL     1     -10.162  16.639  68.267  1.00  0.00    -0.281 C  
HETATM   16  O   UNL     1      -9.419  16.391  69.205  1.00  0.00    -0.258 OA 
BRANCH  15  17
HETATM   17  C   UNL     1      -9.885  17.647  67.140  1.00  0.00    -0.306 C  
HETATM   18  C   UNL     1     -10.578  18.987  67.443  1.00  0.00    -0.559 C  
HETATM   19  C   UNL     1      -8.373  17.900  67.065  1.00  0.00    -0.248 C  
HETATM   20  C   UNL     1     -10.409  17.098  65.809  1.00  0.00    -0.253 C  
ENDBRANCH  15  17
ENDBRANCH  14  15
ENDBRANCH  10  14
BRANCH  11  21
HETATM   21  O   UNL     1     -10.821  13.428  67.135  1.00  0.00    -0.271 OA 
BRANCH  21  22
HETATM   22  C   UNL     1     -11.357  12.498  66.227  1.00  0.00    -0.338 C  
HETATM   23  O   UNL     1     -12.488  12.544  65.754  1.00  0.00    -0.626 OA 
BRANCH  22  24
HETATM   24  C   UNL     1     -10.349  11.381  65.912  1.00  0.00    -0.299 C  
HETATM   25  C   UNL     1      -8.925  11.865  66.255  1.00  0.00    -0.157 C  
HETATM   26  C   UNL     1     -10.643  10.134  66.756  1.00  0.00    -0.239 C  
HETATM   27  C   UNL     1     -10.412  11.050  64.418  1.00  0.00    -0.422 C  
ENDBRANCH  22  24
ENDBRANCH  21  22
ENDBRANCH  11  21
ENDBRANCH   5   8
ENDBRANCH   4   5
ENDBRANCH   2   4
TORSDOF 9
ENDMDL
MODEL        4
REMARK 921   NORMALIZED FREE ENERGY PREDICTED BY IDOCK:   -6.23 KCAL/MOL
REMARK 922        TOTAL FREE ENERGY PREDICTED BY IDOCK:  -10.79 KCAL/MOL
REMARK 923 INTER-LIGAND FREE ENERGY PREDICTED BY IDOCK:   -9.88 KCAL/MOL
REMARK 924 INTRA-LIGAND FREE ENERGY PREDICTED BY IDOCK:   -0.90 KCAL/MOL
REMARK 927      BINDING AFFINITY PREDICTED BY RF-SCORE:    0.00 PKD
ROOT
HETATM    1  C   UNL     1     -10.221  16.289  65.749  1.00  0.00    -0.367 C  
HETATM    2  N   UNL     1     -10.863  15.549  64.675  1.00  0.00    -0.660 NA 
HETATM    3  H   UNL     1     -10.445  15.766  63.770  1.00  0.00     0.000 HD 
ENDROOT
BRANCH   2   4
HETATM    4  C   UNL     1     -10.854  14.101  64.940  1.00  0.00    -0.411 C  
BRANCH   4   5
HETATM    5  C   UNL     1     -12.112  13.669  65.739  1.00  0.00    -0.428 C  
HETATM    6  H   UNL     1     -13.765  12.677  65.361  1.00  0.00     0.000 HD 
HETATM    7  O   UNL     1     -12.994  12.942  64.872  1.00  0.00    -0.754 OA 
BRANCH   5   8
HETATM    8  C   UNL     1     -11.765  12.831  66.957  1.00  0.00    -0.440 A  
HETATM    9  C   UNL     1     -12.059  13.268  68.258  1.00  0.00    -0.246 A  
HETATM   10  C   UNL     1     -11.748  12.476  69.375  1.00  0.00    -0.322 A  
HETATM   11  C   UNL     1     -11.156  11.217  69.198  1.00  0.00    -0.248 A  
HETATM   12  C   UNL     1     -10.836  10.789  67.908  1.00  0.00    -0.313 A  
HETATM   13  C   UNL     1     -11.151  11.582  66.799  1.00  0.00    -0.361 A  
BRANCH  10  14
HETATM   14  O   UNL     1     -12.173  12.852  70.670  1.00  0.00    -0.372 OA 
BRANCH  14  15
HETATM   15  C   UNL     1     -12.059  14.191  71.078  1.00  0.00    -0.335 C  
HETATM   16  O   UNL     1     -11.213  14.973  70.668  1.00  0.00    -0.272 OA 
BRANCH  15  17
HETATM   17  C   UNL     1     -13.185  14.521  72.070  1.00  0.00    -0.446 C  
HETATM   18  C   UNL     1     -14.210  15.465  71.417  1.00  0.00    -0.519 C  
HETATM   19  C   UNL     1     -13.908  13.220  72.447  1.00  0.00    -0.630 C  
HETATM   20  C   UNL     1     -12.601  15.196  73.316  1.00  0.00    -0.615 C  
ENDBRANCH  15  17
ENDBRANCH  14  15
ENDBRANCH  10  14
BRANCH  11  21
HETATM   21  O   UNL     1     -10.831  10.433  70.335  1.00  0.00    -0.289 OA 
BRANCH  21  22
HETATM   22  C   UNL     1     -11.718   9.453  70.814  1.00  0.00    -0.282 C  
HETATM   23  O   UNL     1     -12.907   9.634  71.053  1.00  0.00    -0.317 OA 
BRANCH  22  24
HETATM   24  C   UNL     1     -11.001   8.112  71.034  1.00  0.00    -0.273 C  
HETATM   25  C   UNL     1     -12.045   7.014  71.322  1.00  0.00    -0.403 C  
HETATM   26  C   UNL     1     -10.219   7.706  69.778  1.00  0.00    -0.210 C  
HETATM   27  C   UNL     1     -10.064   8.232  72.239  1.00  0.00    -0.370 C  
ENDBRANCH  22  24
ENDBRANCH  21  22
ENDBRANCH  11  21
ENDBRANCH   5   8
ENDBRANCH   4   5
ENDBRANCH   2   4
TORSDOF 9
ENDMDL
MODEL        5
REMARK 921   NORMALIZED FREE ENERGY PREDICTED BY IDOCK:   -6.18 KCAL/MOL
REMARK 922        TOTAL FREE ENERGY PREDICTED BY IDOCK:  -10.71 KCAL/MOL
REMARK 923 INTER-LIGAND FREE ENERGY PREDICTED BY IDOCK:   -9.74 KCAL/MOL
REMARK 924 INTRA-LIGAND FREE ENERGY PREDICTED BY IDOCK:   -0.97 KCAL/MOL
REMARK 927      BINDING AFFINITY PREDICTED BY RF-SCORE:    0.00 PKD
ROOT
HETATM    1  C   UNL     1     -12.342  15.262  74.400  1.00  0.00    -0.561 C  
HETATM    2  N   UNL     1     -13.187  16.178  73.651  1.00  0.00    -0.848 NA 
HETATM    3  H   UNL     1     -12.642  16.933  73.234  1.00  0.00     0.000 HD 
ENDROOT
BRANCH   2   4
HETATM    4  C   UNL     1     -13.985  15.466  72.639  1.00  0.00    -0.496 C  
BRANCH   4   5
HETATM    5  C   UNL     1     -13.189  15.289  71.320  1.00  0.00    -0.488 C  
HETATM    6  H   UNL     1     -11.502  15.967  70.575  1.00  0.00     0.000 HD 
HETATM    7  O   UNL     1     -11.990  16.074  71.383  1.00  0.00    -0.420 OA 
BRANCH   5   8
HETATM    8  C   UNL     1     -12.851  13.836  71.036  1.00  0.00    -0.376 A  
HETATM    9  C   UNL     1     -12.023  13.469  69.965  1.00  0.00    -0.410 A  
HETATM   10  C   UNL     1     -11.705  12.122  69.724  1.00  0.00    -0.310 A  
HETATM   11  C   UNL     1     -12.199  11.124  70.575  1.00  0.00    -0.384 A  
HETATM   12  C   UNL     1     -13.047  11.480  71.626  1.00  0.00    -0.478 A  
HETATM   13  C   UNL     1     -13.357  12.824  71.862  1.00  0.00    -0.510 A  
BRANCH  10  14
HETATM   14  O   UNL     1     -10.758  11.767  68.735  1.00  0.00    -0.211 OA 
BRANCH  14  15
HETATM   15  C   UNL     1     -11.177  11.574  67.409  1.00  0.00    -0.304 C  
HETATM   16  O   UNL     1     -12.151  12.111  66.902  1.00  0.00    -0.600 OA 
BRANCH  15  17
HETATM   17  C   UNL     1     -10.197  10.629  66.696  1.00  0.00    -0.284 C  
HETATM   18  C   UNL     1      -8.746  11.018  67.027  1.00  0.00    -0.141 C  
HETATM   19  C   UNL     1     -10.434   9.199  67.203  1.00  0.00    -0.325 C  
HETATM   20  C   UNL     1     -10.407  10.707  65.180  1.00  0.00    -0.331 C  
ENDBRANCH  15  17
ENDBRANCH  14  15
ENDBRANCH  10  14
BRANCH  11  21
HETATM   21  O   UNL     1     -11.885   9.765  70.311  1.00  0.00    -0.234 OA 
BRANCH  21  22
HETATM   22  C   UNL     1     -11.066   9.030  71.187  1.00  0.00    -0.301 C  
HETATM   23  O   UNL     1      -9.937   9.355  71.536  1.00  0.00    -0.266 OA 
BRANCH  22  24
HETATM   24  C   UNL     1     -11.756   7.733  71.639  1.00  0.00    -0.316 C  
HETATM   25  C   UNL     1     -11.108   7.237  72.947  1.00  0.00    -0.369 C  
HETATM   26  C   UNL     1     -13.246   7.981  71.911  1.00  0.00    -0.327 C  
HETATM   27  C   UNL     1     -11.575   6.662  70.559  1.00  0.00    -0.448 C  
ENDBRANCH  22  24
ENDBRANCH  21  22
ENDBRANCH  11  21
ENDBRANCH   5   8
ENDBRANCH   4   5
ENDBRANCH   2   4
TORSDOF 9
ENDMDL
MODEL        6
REMARK 921   NORMALIZED FREE ENERGY PREDICTED BY IDOCK:   -6.14 KCAL/MOL
REMARK 922        TOTAL FREE ENERGY PREDICTED BY IDOCK:  -10.65 KCAL/MOL
REMARK 923 INTER-LIGAND FREE ENERGY PREDICTED BY IDOCK:   -9.50 KCAL/MOL
REMARK 924 INTRA-LIGAND FREE ENERGY PREDICTED BY IDOCK:   -1.16 KCAL/MOL
REMARK 927      BINDING AFFINITY PREDICTED BY RF-SCORE:    0.00 PKD
ROOT
HETATM    1  C   UNL     1     -12.307  15.363  74.549  1.00  0.00    -0.545 C  
HETATM    2  N   UNL     1     -13.054  16.293  73.717  1.00  0.00    -0.837 NA 
HETATM    3  H   UNL     1     -12.435  16.956  73.250  1.00  0.00     0.000 HD 
ENDROOT
BRANCH   2   4
HETATM    4  C   UNL     1     -13.909  15.581  72.753  1.00  0.00    -0.518 C  
BRANCH   4   5
HETATM    5  C   UNL     1     -13.193  15.410  71.387  1.00  0.00    -0.500 C  
HETATM    6  H   UNL     1     -11.548  16.081  70.550  1.00  0.00     0.000 HD 
HETATM    7  O   UNL     1     -11.987  16.186  71.386  1.00  0.00    -0.442 OA 
BRANCH   5   8
HETATM    8  C   UNL     1     -12.884  13.957  71.074  1.00  0.00    -0.394 A  
HETATM    9  C   UNL     1     -12.132  13.591  69.947  1.00  0.00    -0.408 A  
HETATM   10  C   UNL     1     -11.839  12.244  69.678  1.00  0.00    -0.324 A  
HETATM   11  C   UNL     1     -12.279  11.243  70.555  1.00  0.00    -0.383 A  
HETATM   12  C   UNL     1     -13.051  11.598  71.664  1.00  0.00    -0.456 A  
HETATM   13  C   UNL     1     -13.337  12.943  71.927  1.00  0.00    -0.530 A  
BRANCH  10  14
HETATM   14  O   UNL     1     -10.964  11.890  68.624  1.00  0.00    -0.204 OA 
BRANCH  14  15
HETATM   15  C   UNL     1     -11.270  12.272  67.308  1.00  0.00    -0.300 C  
HETATM   16  O   UNL     1     -12.245  11.885  66.681  1.00  0.00    -0.493 OA 
BRANCH  15  17
HETATM   17  C   UNL     1     -10.220  13.278  66.810  1.00  0.00    -0.254 C  
HETATM   18  C   UNL     1     -10.722  14.717  67.017  1.00  0.00    -0.300 C  
HETATM   19  C   UNL     1      -8.936  13.099  67.632  1.00  0.00    -0.192 C  
HETATM   20  C   UNL     1      -9.945  13.049  65.320  1.00  0.00    -0.186 C  
ENDBRANCH  15  17
ENDBRANCH  14  15
ENDBRANCH  10  14
BRANCH  11  21
HETATM   21  O   UNL     1     -11.991   9.885  70.263  1.00  0.00    -0.228 OA 
BRANCH  21  22
HETATM   22  C   UNL     1     -11.070   9.159  71.039  1.00  0.00    -0.305 C  
HETATM   23  O   UNL     1      -9.942   9.539  71.334  1.00  0.00    -0.225 OA 
BRANCH  22  24
HETATM   24  C   UNL     1     -11.645   7.796  71.457  1.00  0.00    -0.303 C  
HETATM   25  C   UNL     1     -13.165   7.929  71.682  1.00  0.00    -0.367 C  
HETATM   26  C   UNL     1     -11.417   6.753  70.355  1.00  0.00    -0.419 C  
HETATM   27  C   UNL     1     -10.988   7.351  72.767  1.00  0.00    -0.387 C  
ENDBRANCH  22  24
ENDBRANCH  21  22
ENDBRANCH  11  21
ENDBRANCH   5   8
ENDBRANCH   4   5
ENDBRANCH   2   4
TORSDOF 9
ENDMDL
MODEL        7
REMARK 921   NORMALIZED FREE ENERGY PREDICTED BY IDOCK:   -6.11 KCAL/MOL
REMARK 922        TOTAL FREE ENERGY PREDICTED BY IDOCK:  -10.60 KCAL/MOL
REMARK 923 INTER-LIGAND FREE ENERGY PREDICTED BY IDOCK:   -9.82 KCAL/MOL
REMARK 924 INTRA-LIGAND FREE ENERGY PREDICTED BY IDOCK:   -0.77 KCAL/MOL
REMARK 927      BINDING AFFINITY PREDICTED BY RF-SCORE:    0.00 PKD
ROOT
HETATM    1  C   UNL     1      -9.832  10.517  63.097  1.00  0.00    -0.242 C  
HETATM    2  N   UNL     1     -11.032  11.329  63.217  1.00  0.00    -0.814 NA 
HETATM    3  H   UNL     1     -11.795  10.808  63.651  1.00  0.00     0.000 HD 
ENDROOT
BRANCH   2   4
HETATM    4  C   UNL     1     -10.761  12.586  63.934  1.00  0.00    -0.437 C  
BRANCH   4   5
HETATM    5  C   UNL     1     -12.056  13.167  64.559  1.00  0.00    -0.404 C  
HETATM    6  H   UNL     1     -13.973  12.743  64.509  1.00  0.00     0.000 HD 
HETATM    7  O   UNL     1     -13.179  12.387  64.126  1.00  0.00    -0.761 OA 
BRANCH   5   8
HETATM    8  C   UNL     1     -11.999  13.209  66.076  1.00  0.00    -0.488 A  
HETATM    9  C   UNL     1     -11.778  12.051  66.837  1.00  0.00    -0.342 A  
HETATM   10  C   UNL     1     -11.711  12.107  68.238  1.00  0.00    -0.342 A  
HETATM   11  C   UNL     1     -11.841  13.338  68.897  1.00  0.00    -0.327 A  
HETATM   12  C   UNL     1     -12.089  14.490  68.147  1.00  0.00    -0.232 A  
HETATM   13  C   UNL     1     -12.152  14.427  66.750  1.00  0.00    -0.393 A  
BRANCH  10  14
HETATM   14  O   UNL     1     -11.347  10.967  68.992  1.00  0.00    -0.235 OA 
BRANCH  14  15
HETATM   15  C   UNL     1      -9.993  10.615  69.113  1.00  0.00    -0.211 C  
HETATM   16  O   UNL     1      -9.064  11.261  68.651  1.00  0.00    -0.172 OA 
BRANCH  15  17
HETATM   17  C   UNL     1      -9.870   9.333  69.950  1.00  0.00    -0.219 C  
HETATM   18  C   UNL     1     -10.868   9.364  71.121  1.00  0.00    -0.427 C  
HETATM   19  C   UNL     1     -10.216   8.129  69.062  1.00  0.00    -0.228 C  
HETATM   20  C   UNL     1      -8.447   9.206  70.503  1.00  0.00    -0.236 C  
ENDBRANCH  15  17
ENDBRANCH  14  15
ENDBRANCH  10  14
BRANCH  11  21
HETATM   21  O   UNL     1     -11.789  13.380  70.314  1.00  0.00    -0.308 OA 
BRANCH  21  22
HETATM   22  C   UNL     1     -11.973  14.589  71.008  1.00  0.00    -0.332 C  
HETATM   23  O   UNL     1     -11.354  15.626  70.795  1.00  0.00    -0.309 OA 
BRANCH  22  24
HETATM   24  C   UNL     1     -13.041  14.445  72.104  1.00  0.00    -0.450 C  
HETATM   25  C   UNL     1     -14.300  15.240  71.700  1.00  0.00    -0.666 C  
HETATM   26  C   UNL     1     -13.443  12.975  72.277  1.00  0.00    -0.645 C  
HETATM   27  C   UNL     1     -12.497  15.015  73.417  1.00  0.00    -0.603 C  
ENDBRANCH  22  24
ENDBRANCH  21  22
ENDBRANCH  11  21
ENDBRANCH   5   8
ENDBRANCH   4   5
ENDBRANCH   2   4
TORSDOF 9
ENDMDL
MODEL        8
REMARK 921   NORMALIZED FREE ENERGY PREDICTED BY IDOCK:   -6.09 KCAL/MOL
REMARK 922        TOTAL FREE ENERGY PREDICTED BY IDOCK:  -10.58 KCAL/MOL
REMARK 923 INTER-LIGAND FREE ENERGY PREDICTED BY IDOCK:   -9.50 KCAL/MOL
REMARK 924 INTRA-LIGAND FREE ENERGY PREDICTED BY IDOCK:   -1.08 KCAL/MOL
REMARK 927      BINDING AFFINITY PREDICTED BY RF-SCORE:    0.00 PKD
ROOT
HETATM    1  C   UNL     1     -12.327  15.731  74.449  1.00  0.00    -0.648 C  
HETATM    2  N   UNL     1     -13.335  16.279  73.556  1.00  0.00    -0.773 NA 
HETATM    3  H   UNL     1     -13.247  17.292  73.470  1.00  0.00     0.000 HD 
ENDROOT
BRANCH   2   4
HETATM    4  C   UNL     1     -13.302  15.620  72.241  1.00  0.00    -0.478 C  
BRANCH   4   5
HETATM    5  C   UNL     1     -13.104  14.088  72.385  1.00  0.00    -0.443 C  
HETATM    6  H   UNL     1     -14.219  12.551  72.887  1.00  0.00     0.000 HD 
HETATM    7  O   UNL     1     -14.340  13.489  72.798  1.00  0.00    -0.640 OA 
BRANCH   5   8
HETATM    8  C   UNL     1     -12.611  13.444  71.101  1.00  0.00    -0.430 A  
HETATM    9  C   UNL     1     -12.368  12.065  71.016  1.00  0.00    -0.340 A  
HETATM   10  C   UNL     1     -11.928  11.479  69.818  1.00  0.00    -0.346 A  
HETATM   11  C   UNL     1     -11.749  12.273  68.676  1.00  0.00    -0.328 A  
HETATM   12  C   UNL     1     -11.962  13.650  68.762  1.00  0.00    -0.394 A  
HETATM   13  C   UNL     1     -12.403  14.226  69.958  1.00  0.00    -0.403 A  
BRANCH  10  14
HETATM   14  O   UNL     1     -11.822  10.074  69.695  1.00  0.00    -0.115 OA 
BRANCH  14  15
HETATM   15  C   UNL     1     -10.860   9.381  70.447  1.00  0.00    -0.269 C  
HETATM   16  O   UNL     1      -9.694   9.725  70.570  1.00  0.00    -0.249 OA 
BRANCH  15  17
HETATM   17  C   UNL     1     -11.516   8.164  71.119  1.00  0.00    -0.304 C  
HETATM   18  C   UNL     1     -11.525   6.965  70.155  1.00  0.00    -0.354 C  
HETATM   19  C   UNL     1     -10.689   7.777  72.353  1.00  0.00    -0.347 C  
HETATM   20  C   UNL     1     -12.956   8.502  71.517  1.00  0.00    -0.328 C  
ENDBRANCH  15  17
ENDBRANCH  14  15
ENDBRANCH  10  14
BRANCH  11  21
HETATM   21  O   UNL     1     -11.287  11.672  67.476  1.00  0.00    -0.270 OA 
BRANCH  21  22
HETATM   22  C   UNL     1     -11.482  12.301  66.233  1.00  0.00    -0.380 C  
HETATM   23  O   UNL     1     -12.553  12.377  65.641  1.00  0.00    -0.575 OA 
BRANCH  22  24
HETATM   24  C   UNL     1     -10.163  12.868  65.683  1.00  0.00    -0.295 C  
HETATM   25  C   UNL     1     -10.064  12.560  64.175  1.00  0.00    -0.311 C  
HETATM   26  C   UNL     1     -10.113  14.390  65.862  1.00  0.00    -0.344 C  
HETATM   27  C   UNL     1      -8.988  12.199  66.402  1.00  0.00    -0.138 C  
ENDBRANCH  22  24
ENDBRANCH  21  22
ENDBRANCH  11  21
ENDBRANCH   5   8
ENDBRANCH   4   5
ENDBRANCH   2   4
TORSDOF 9
ENDMDL
MODEL        9
REMARK 921   NORMALIZED FREE ENERGY PREDICTED BY IDOCK:   -6.08 KCAL/MOL
REMARK 922        TOTAL FREE ENERGY PREDICTED BY IDOCK:  -10.55 KCAL/MOL
REMARK 923 INTER-LIGAND FREE ENERGY PREDICTED BY IDOCK:   -9.24 KCAL/MOL
REMARK 924 INTRA-LIGAND FREE ENERGY PREDICTED BY IDOCK:   -1.31 KCAL/MOL
REMARK 927      BINDING AFFINITY PREDICTED BY RF-SCORE:    0.00 PKD
ROOT
HETATM    1  C   UNL     1     -13.263  15.750  73.238  1.00  0.00    -0.581 C  
HETATM    2  N   UNL     1     -13.260  14.349  72.851  1.00  0.00    -0.530 NA 
HETATM    3  H   UNL     1     -13.973  13.821  73.354  1.00  0.00     0.000 HD 
ENDROOT
BRANCH   2   4
HETATM    4  C   UNL     1     -13.402  14.195  71.394  1.00  0.00    -0.331 C  
BRANCH   4   5
HETATM    5  C   UNL     1     -12.072  13.727  70.747  1.00  0.00    -0.319 C  
HETATM    6  H   UNL     1     -11.428  12.116  69.825  1.00  0.00     0.000 HD 
HETATM    7  O   UNL     1     -12.242  12.403  70.222  1.00  0.00    -0.327 OA 
BRANCH   5   8
HETATM    8  C   UNL     1     -11.596  14.668  69.654  1.00  0.00    -0.349 A  
HETATM    9  C   UNL     1     -11.456  14.242  68.325  1.00  0.00    -0.334 A  
HETATM   10  C   UNL     1     -11.032  15.127  67.321  1.00  0.00    -0.327 A  
HETATM   11  C   UNL     1     -10.764  16.467  67.637  1.00  0.00    -0.312 A  
HETATM   12  C   UNL     1     -10.875  16.891  68.963  1.00  0.00    -0.255 A  
HETATM   13  C   UNL     1     -11.301  16.003  69.958  1.00  0.00    -0.353 A  
BRANCH  10  14
HETATM   14  O   UNL     1     -11.029  14.734  65.962  1.00  0.00    -0.316 OA 
BRANCH  14  15
HETATM   15  C   UNL     1     -12.060  13.916  65.473  1.00  0.00    -0.407 C  
HETATM   16  O   UNL     1     -13.251  14.179  65.546  1.00  0.00    -0.688 OA 
BRANCH  15  17
HETATM   17  C   UNL     1     -11.452  12.677  64.796  1.00  0.00    -0.364 C  
HETATM   18  C   UNL     1     -12.376  12.177  63.672  1.00  0.00    -0.673 C  
HETATM   19  C   UNL     1     -10.107  13.069  64.167  1.00  0.00    -0.146 C  
HETATM   20  C   UNL     1     -11.262  11.560  65.827  1.00  0.00    -0.228 C  
ENDBRANCH  15  17
ENDBRANCH  14  15
ENDBRANCH  10  14
BRANCH  11  21
HETATM   21  O   UNL     1     -10.319  17.348  66.617  1.00  0.00    -0.317 OA 
BRANCH  21  22
HETATM   22  C   UNL     1      -8.947  17.555  66.391  1.00  0.00    -0.238 C  
HETATM   23  O   UNL     1      -8.162  16.705  65.985  1.00  0.00    -0.386 OA 
BRANCH  22  24
HETATM   24  C   UNL     1      -8.534  18.993  66.746  1.00  0.00    -0.307 C  
HETATM   25  C   UNL     1      -7.465  19.481  65.748  1.00  0.00    -0.276 C  
HETATM   26  C   UNL     1      -9.738  19.939  66.653  1.00  0.00    -0.542 C  
HETATM   27  C   UNL     1      -7.939  19.012  68.157  1.00  0.00    -0.334 C  
ENDBRANCH  22  24
ENDBRANCH  21  22
ENDBRANCH  11  21
ENDBRANCH   5   8
ENDBRANCH   4   5
ENDBRANCH   2   4
TORSDOF 9
ENDMDL
MODEL       10
REMARK 921   NORMALIZED FREE ENERGY PREDICTED BY IDOCK:   -6.07 KCAL/MOL
REMARK 922        TOTAL FREE ENERGY PREDICTED BY IDOCK:  -10.54 KCAL/MOL
REMARK 923 INTER-LIGAND FREE ENERGY PREDICTED BY IDOCK:  -10.07 KCAL/MOL
REMARK 924 INTRA-LIGAND FREE ENERGY PREDICTED BY IDOCK:   -0.47 KCAL/MOL
REMARK 927      BINDING AFFINITY PREDICTED BY RF-SCORE:    0.00 PKD
ROOT
HETATM    1  C   UNL     1      -9.969  11.333  63.224  1.00  0.00    -0.393 C  
HETATM    2  N   UNL     1     -11.399  11.587  63.282  1.00  0.00    -0.831 NA 
HETATM    3  H   UNL     1     -11.885  10.869  63.821  1.00  0.00     0.000 HD 
ENDROOT
BRANCH   2   4
HETATM    4  C   UNL     1     -11.685  12.935  63.800  1.00  0.00    -0.492 C  
BRANCH   4   5
HETATM    5  C   UNL     1     -12.233  12.875  65.250  1.00  0.00    -0.476 C  
HETATM    6  H   UNL     1     -12.214  11.577  66.725  1.00  0.00     0.000 HD 
HETATM    7  O   UNL     1     -11.878  11.615  65.837  1.00  0.00    -0.342 OA 
BRANCH   5   8
HETATM    8  C   UNL     1     -11.723  14.017  66.110  1.00  0.00    -0.395 A  
HETATM    9  C   UNL     1     -11.945  14.052  67.495  1.00  0.00    -0.430 A  
HETATM   10  C   UNL     1     -11.453  15.106  68.282  1.00  0.00    -0.336 A  
HETATM   11  C   UNL     1     -10.707  16.133  67.687  1.00  0.00    -0.318 A  
HETATM   12  C   UNL     1     -10.506  16.119  66.305  1.00  0.00    -0.321 A  
HETATM   13  C   UNL     1     -10.996  15.064  65.528  1.00  0.00    -0.364 A  
BRANCH  10  14
HETATM   14  O   UNL     1     -11.554  15.066  69.692  1.00  0.00    -0.267 OA 
BRANCH  14  15
HETATM   15  C   UNL     1     -12.081  13.925  70.319  1.00  0.00    -0.353 C  
HETATM   16  O   UNL     1     -11.921  12.779  69.925  1.00  0.00    -0.321 OA 
BRANCH  15  17
HETATM   17  C   UNL     1     -12.837  14.344  71.590  1.00  0.00    -0.416 C  
HETATM   18  C   UNL     1     -14.054  15.211  71.223  1.00  0.00    -0.537 C  
HETATM   19  C   UNL     1     -13.348  13.081  72.298  1.00  0.00    -0.606 C  
HETATM   20  C   UNL     1     -11.908  15.142  72.510  1.00  0.00    -0.485 C  
ENDBRANCH  15  17
ENDBRANCH  14  15
ENDBRANCH  10  14
BRANCH  11  21
HETATM   21  O   UNL     1     -10.230  17.202  68.490  1.00  0.00    -0.301 OA 
BRANCH  21  22
HETATM   22  C   UNL     1      -8.857  17.496  68.558  1.00  0.00    -0.282 C  
HETATM   23  O   UNL     1      -7.994  16.739  68.989  1.00  0.00    -0.238 OA 
BRANCH  22  24
HETATM   24  C   UNL     1      -8.565  18.916  68.047  1.00  0.00    -0.330 C  
HETATM   25  C   UNL     1      -9.831  19.784  68.195  1.00  0.00    -0.536 C  
HETATM   26  C   UNL     1      -7.444  19.566  68.868  1.00  0.00    -0.392 C  
HETATM   27  C   UNL     1      -8.181  18.850  66.566  1.00  0.00    -0.306 C  
ENDBRANCH  22  24
ENDBRANCH  21  22
ENDBRANCH  11  21
ENDBRANCH   5   8
ENDBRANCH   4   5
ENDBRANCH   2   4
TORSDOF 9
ENDMDL
MODEL       11
REMARK 921   NORMALIZED FREE ENERGY PREDICTED BY IDOCK:   -5.98 KCAL/MOL
REMARK 922        TOTAL FREE ENERGY PREDICTED BY IDOCK:  -10.40 KCAL/MOL
REMARK 923 INTER-LIGAND FREE ENERGY PREDICTED BY IDOCK:   -9.21 KCAL/MOL
REMARK 924 INTRA-LIGAND FREE ENERGY PREDICTED BY IDOCK:   -1.19 KCAL/MOL
REMARK 927      BINDING AFFINITY PREDICTED BY RF-SCORE:    0.00 PKD
ROOT
HETATM    1  C   UNL     1      -8.988   9.970  62.990  1.00  0.00    -0.260 C  
HETATM    2  N   UNL     1     -10.276  10.641  62.932  1.00  0.00    -0.723 NA 
HETATM    3  H   UNL     1     -11.022   9.996  62.671  1.00  0.00     0.000 HD 
ENDROOT
BRANCH   2   4
HETATM    4  C   UNL     1     -10.578  11.331  64.197  1.00  0.00    -0.373 C  
BRANCH   4   5
HETATM    5  C   UNL     1     -10.885  12.833  63.957  1.00  0.00    -0.424 C  
HETATM    6  H   UNL     1     -12.209  13.868  62.940  1.00  0.00     0.000 HD 
HETATM    7  O   UNL     1     -12.020  12.949  63.088  1.00  0.00    -0.529 OA 
BRANCH   5   8
HETATM    8  C   UNL     1     -11.135  13.587  65.251  1.00  0.00    -0.307 A  
HETATM    9  C   UNL     1     -10.629  14.879  65.459  1.00  0.00    -0.373 A  
HETATM   10  C   UNL     1     -10.882  15.572  66.653  1.00  0.00    -0.285 A  
HETATM   11  C   UNL     1     -11.671  14.983  67.651  1.00  0.00    -0.262 A  
HETATM   12  C   UNL     1     -12.154  13.687  67.462  1.00  0.00    -0.352 A  
HETATM   13  C   UNL     1     -11.901  13.003  66.267  1.00  0.00    -0.466 A  
BRANCH  10  14
HETATM   14  O   UNL     1     -10.493  16.924  66.802  1.00  0.00    -0.307 OA 
BRANCH  14  15
HETATM   15  C   UNL     1      -9.173  17.232  67.168  1.00  0.00    -0.235 C  
HETATM   16  O   UNL     1      -8.241  16.441  67.140  1.00  0.00    -0.159 OA 
BRANCH  15  17
HETATM   17  C   UNL     1      -9.082  18.715  67.558  1.00  0.00    -0.293 C  
HETATM   18  C   UNL     1      -7.856  18.956  68.455  1.00  0.00    -0.373 C  
HETATM   19  C   UNL     1      -8.910  19.552  66.282  1.00  0.00    -0.391 C  
HETATM   20  C   UNL     1     -10.349  19.134  68.312  1.00  0.00    -0.448 C  
ENDBRANCH  15  17
ENDBRANCH  14  15
ENDBRANCH  10  14
BRANCH  11  21
HETATM   21  O   UNL     1     -11.904  15.686  68.861  1.00  0.00    -0.379 OA 
BRANCH  21  22
HETATM   22  C   UNL     1     -11.179  15.379  70.026  1.00  0.00    -0.300 C  
HETATM   23  O   UNL     1      -9.975  15.552  70.174  1.00  0.00    -0.275 OA 
BRANCH  22  24
HETATM   24  C   UNL     1     -12.089  14.763  71.102  1.00  0.00    -0.391 C  
HETATM   25  C   UNL     1     -13.510  15.345  70.966  1.00  0.00    -0.510 C  
HETATM   26  C   UNL     1     -12.179  13.242  70.926  1.00  0.00    -0.346 C  
HETATM   27  C   UNL     1     -11.541  15.115  72.488  1.00  0.00    -0.448 C  
ENDBRANCH  22  24
ENDBRANCH  21  22
ENDBRANCH  11  21
ENDBRANCH   5   8
ENDBRANCH   4   5
ENDBRANCH   2   4
TORSDOF 9
ENDMDL
MODEL       12
REMARK 921   NORMALIZED FREE ENERGY PREDICTED BY IDOCK:   -5.97 KCAL/MOL
REMARK 922        TOTAL FREE ENERGY PREDICTED BY IDOCK:  -10.39 KCAL/MOL
REMARK 923 INTER-LIGAND FREE ENERGY PREDICTED BY IDOCK:   -9.23 KCAL/MOL
REMARK 924 INTRA-LIGAND FREE ENERGY PREDICTED BY IDOCK:   -1.16 KCAL/MOL
REMARK 927      BINDING AFFINITY PREDICTED BY RF-SCORE:    0.00 PKD
ROOT
HETATM    1  C   UNL     1      -7.011  19.752  66.233  1.00  0.00    -0.235 C  
HETATM    2  N   UNL     1      -8.067  20.584  66.787  1.00  0.00    -0.526 NA 
HETATM    3  H   UNL     1      -8.155  21.465  66.279  1.00  0.00     0.000 HD 
ENDROOT
BRANCH   2   4
HETATM    4  C   UNL     1      -9.349  19.861  66.837  1.00  0.00    -0.379 C  
BRANCH   4   5
HETATM    5  C   UNL     1      -9.428  18.947  68.087  1.00  0.00    -0.332 C  
HETATM    6  H   UNL     1     -10.251  19.041  69.868  1.00  0.00     0.000 HD 
HETATM    7  O   UNL     1     -10.202  19.601  69.102  1.00  0.00    -0.394 OA 
BRANCH   5   8
HETATM    8  C   UNL     1     -10.020  17.584  67.771  1.00  0.00    -0.312 A  
HETATM    9  C   UNL     1     -10.895  16.938  68.658  1.00  0.00    -0.314 A  
HETATM   10  C   UNL     1     -11.448  15.686  68.346  1.00  0.00    -0.369 A  
HETATM   11  C   UNL     1     -11.147  15.073  67.122  1.00  0.00    -0.332 A  
HETATM   12  C   UNL     1     -10.255  15.697  66.247  1.00  0.00    -0.312 A  
HETATM   13  C   UNL     1      -9.709  16.947  66.563  1.00  0.00    -0.295 A  
BRANCH  10  14
HETATM   14  O   UNL     1     -12.437  15.105  69.173  1.00  0.00    -0.102 OA 
BRANCH  14  15
HETATM   15  C   UNL     1     -12.067  14.156  70.139  1.00  0.00    -0.346 C  
HETATM   16  O   UNL     1     -11.318  13.211  69.934  1.00  0.00    -0.139 OA 
BRANCH  15  17
HETATM   17  C   UNL     1     -12.708  14.520  71.487  1.00  0.00    -0.409 C  
HETATM   18  C   UNL     1     -11.694  15.262  72.375  1.00  0.00    -0.538 C  
HETATM   19  C   UNL     1     -13.894  15.461  71.231  1.00  0.00    -0.523 C  
HETATM   20  C   UNL     1     -13.171  13.249  72.205  1.00  0.00    -0.567 C  
ENDBRANCH  15  17
ENDBRANCH  14  15
ENDBRANCH  10  14
BRANCH  11  21
HETATM   21  O   UNL     1     -11.698  13.799  66.825  1.00  0.00    -0.349 OA 
BRANCH  21  22
HETATM   22  C   UNL     1     -12.296  13.544  65.579  1.00  0.00    -0.481 C  
HETATM   23  O   UNL     1     -13.260  14.148  65.121  1.00  0.00    -0.743 OA 
BRANCH  22  24
HETATM   24  C   UNL     1     -11.603  12.377  64.857  1.00  0.00    -0.392 C  
HETATM   25  C   UNL     1     -12.579  11.751  63.840  1.00  0.00    -0.356 C  
HETATM   26  C   UNL     1     -10.370  12.873  64.089  1.00  0.00    -0.385 C  
HETATM   27  C   UNL     1     -11.207  11.312  65.884  1.00  0.00    -0.096 C  
ENDBRANCH  22  24
ENDBRANCH  21  22
ENDBRANCH  11  21
ENDBRANCH   5   8
ENDBRANCH   4   5
ENDBRANCH   2   4
TORSDOF 9
ENDMDL
MODEL       13
REMARK 921   NORMALIZED FREE ENERGY PREDICTED BY IDOCK:   -5.96 KCAL/MOL
REMARK 922        TOTAL FREE ENERGY PREDICTED BY IDOCK:  -10.37 KCAL/MOL
REMARK 923 INTER-LIGAND FREE ENERGY PREDICTED BY IDOCK:   -8.88 KCAL/MOL
REMARK 924 INTRA-LIGAND FREE ENERGY PREDICTED BY IDOCK:   -1.48 KCAL/MOL
REMARK 927      BINDING AFFINITY PREDICTED BY RF-SCORE:    0.00 PKD
ROOT
HETATM    1  C   UNL     1     -12.909   9.244  71.894  1.00  0.00    -0.404 C  
HETATM    2  N   UNL     1     -13.344  10.591  72.227  1.00  0.00    -0.577 NA 
HETATM    3  H   UNL     1     -13.178  10.804  73.211  1.00  0.00     0.000 HD 
ENDROOT
BRANCH   2   4
HETATM    4  C   UNL     1     -12.720  11.590  71.345  1.00  0.00    -0.364 C  
BRANCH   4   5
HETATM    5  C   UNL     1     -13.407  12.973  71.489  1.00  0.00    -0.199 C  
HETATM    6  H   UNL     1     -14.077  14.082  72.965  1.00  0.00     0.000 HD 
HETATM    7  O   UNL     1     -13.656  13.235  72.877  1.00  0.00    -0.565 OA 
BRANCH   5   8
HETATM    8  C   UNL     1     -12.583  14.096  70.882  1.00  0.00    -0.433 A  
HETATM    9  C   UNL     1     -12.348  14.173  69.501  1.00  0.00    -0.275 A  
HETATM   10  C   UNL     1     -11.599  15.226  68.952  1.00  0.00    -0.347 A  
HETATM   11  C   UNL     1     -11.093  16.233  69.784  1.00  0.00    -0.337 A  
HETATM   12  C   UNL     1     -11.299  16.147  71.163  1.00  0.00    -0.368 A  
HETATM   13  C   UNL     1     -12.049  15.097  71.703  1.00  0.00    -0.424 A  
BRANCH  10  14
HETATM   14  O   UNL     1     -11.485  15.379  67.550  1.00  0.00    -0.318 OA 
BRANCH  14  15
HETATM   15  C   UNL     1     -10.690  14.485  66.815  1.00  0.00    -0.291 C  
HETATM   16  O   UNL     1      -9.737  13.867  67.269  1.00  0.00    -0.234 OA 
BRANCH  15  17
HETATM   17  C   UNL     1     -11.234  14.375  65.383  1.00  0.00    -0.335 C  
HETATM   18  C   UNL     1     -12.713  13.951  65.407  1.00  0.00    -0.525 C  
HETATM   19  C   UNL     1     -11.145  15.754  64.713  1.00  0.00    -0.413 C  
HETATM   20  C   UNL     1     -10.426  13.338  64.596  1.00  0.00    -0.420 C  
ENDBRANCH  15  17
ENDBRANCH  14  15
ENDBRANCH  10  14
BRANCH  11  21
HETATM   21  O   UNL     1     -10.322  17.283  69.220  1.00  0.00    -0.322 OA 
BRANCH  21  22
HETATM   22  C   UNL     1      -9.020  17.046  68.744  1.00  0.00    -0.249 C  
HETATM   23  O   UNL     1      -8.219  16.262  69.240  1.00  0.00    -0.234 OA 
BRANCH  22  24
HETATM   24  C   UNL     1      -8.705  17.925  67.523  1.00  0.00    -0.243 C  
HETATM   25  C   UNL     1      -7.784  19.086  67.951  1.00  0.00    -0.295 C  
HETATM   26  C   UNL     1      -7.975  17.112  66.446  1.00  0.00    -0.346 C  
HETATM   27  C   UNL     1     -10.009  18.507  66.970  1.00  0.00    -0.365 C  
ENDBRANCH  22  24
ENDBRANCH  21  22
ENDBRANCH  11  21
ENDBRANCH   5   8
ENDBRANCH   4   5
ENDBRANCH   2   4
TORSDOF 9
ENDMDL
MODEL       14
REMARK 921   NORMALIZED FREE ENERGY PREDICTED BY IDOCK:   -5.93 KCAL/MOL
REMARK 922        TOTAL FREE ENERGY PREDICTED BY IDOCK:  -10.32 KCAL/MOL
REMARK 923 INTER-LIGAND FREE ENERGY PREDICTED BY IDOCK:   -9.25 KCAL/MOL
REMARK 924 INTRA-LIGAND FREE ENERGY PREDICTED BY IDOCK:   -1.08 KCAL/MOL
REMARK 927      BINDING AFFINITY PREDICTED BY RF-SCORE:    0.00 PKD
ROOT
HETATM    1  C   UNL     1     -12.629  15.601  74.055  1.00  0.00    -0.628 C  
HETATM    2  N   UNL     1     -13.877  15.945  73.393  1.00  0.00    -0.704 NA 
HETATM    3  H   UNL     1     -13.925  16.942  73.181  1.00  0.00     0.000 HD 
ENDROOT
BRANCH   2   4
HETATM    4  C   UNL     1     -14.088  15.126  72.188  1.00  0.00    -0.554 C  
BRANCH   4   5
HETATM    5  C   UNL     1     -12.786  14.394  71.772  1.00  0.00    -0.347 C  
HETATM    6  H   UNL     1     -12.281  12.562  71.274  1.00  0.00     0.000 HD 
HETATM    7  O   UNL     1     -13.079  13.011  71.530  1.00  0.00    -0.373 OA 
BRANCH   5   8
HETATM    8  C   UNL     1     -12.138  15.016  70.547  1.00  0.00    -0.379 A  
HETATM    9  C   UNL     1     -12.296  14.461  69.268  1.00  0.00    -0.188 A  
HETATM   10  C   UNL     1     -11.705  15.056  68.142  1.00  0.00    -0.312 A  
HETATM   11  C   UNL     1     -10.963  16.237  68.283  1.00  0.00    -0.348 A  
HETATM   12  C   UNL     1     -10.778  16.779  69.557  1.00  0.00    -0.273 A  
HETATM   13  C   UNL     1     -11.372  16.182  70.674  1.00  0.00    -0.394 A  
BRANCH  10  14
HETATM   14  O   UNL     1     -11.983  14.577  66.841  1.00  0.00    -0.403 OA 
BRANCH  14  15
HETATM   15  C   UNL     1     -11.268  13.480  66.335  1.00  0.00    -0.307 C  
HETATM   16  O   UNL     1     -10.612  12.705  67.016  1.00  0.00    -0.237 OA 
BRANCH  15  17
HETATM   17  C   UNL     1     -11.484  13.384  64.817  1.00  0.00    -0.359 C  
HETATM   18  C   UNL     1     -11.732  14.783  64.226  1.00  0.00    -0.272 C  
HETATM   19  C   UNL     1     -10.212  12.814  64.173  1.00  0.00    -0.344 C  
HETATM   20  C   UNL     1     -12.690  12.488  64.517  1.00  0.00    -0.440 C  
ENDBRANCH  15  17
ENDBRANCH  14  15
ENDBRANCH  10  14
BRANCH  11  21
HETATM   21  O   UNL     1     -10.356  16.819  67.140  1.00  0.00    -0.292 OA 
BRANCH  21  22
HETATM   22  C   UNL     1     -10.081  18.197  67.092  1.00  0.00    -0.351 C  
HETATM   23  O   UNL     1     -10.924  19.086  67.119  1.00  0.00    -0.433 OA 
BRANCH  22  24
HETATM   24  C   UNL     1      -8.571  18.460  66.971  1.00  0.00    -0.264 C  
HETATM   25  C   UNL     1      -7.979  18.699  68.375  1.00  0.00    -0.351 C  
HETATM   26  C   UNL     1      -7.859  17.249  66.355  1.00  0.00    -0.345 C  
HETATM   27  C   UNL     1      -8.344  19.712  66.119  1.00  0.00    -0.352 C  
ENDBRANCH  22  24
ENDBRANCH  21  22
ENDBRANCH  11  21
ENDBRANCH   5   8
ENDBRANCH   4   5
ENDBRANCH   2   4
TORSDOF 9
ENDMDL
MODEL       15
REMARK 921   NORMALIZED FREE ENERGY PREDICTED BY IDOCK:   -5.91 KCAL/MOL
REMARK 922        TOTAL FREE ENERGY PREDICTED BY IDOCK:  -10.30 KCAL/MOL
REMARK 923 INTER-LIGAND FREE ENERGY PREDICTED BY IDOCK:   -8.94 KCAL/MOL
REMARK 924 INTRA-LIGAND FREE ENERGY PREDICTED BY IDOCK:   -1.36 KCAL/MOL
REMARK 927      BINDING AFFINITY PREDICTED BY RF-SCORE:    0.00 PKD
ROOT
HETATM    1  C   UNL     1     -12.970   9.324  71.986  1.00  0.00    -0.425 C  
HETATM    2  N   UNL     1     -13.470  10.674  72.191  1.00  0.00    -0.525 NA 
HETATM    3  H   UNL     1     -13.600  10.878  73.183  1.00  0.00     0.000 HD 
ENDROOT
BRANCH   2   4
HETATM    4  C   UNL     1     -12.600  11.671  71.545  1.00  0.00    -0.236 C  
BRANCH   4   5
HETATM    5  C   UNL     1     -13.229  13.088  71.606  1.00  0.00    -0.336 C  
HETATM    6  H   UNL     1     -13.626  14.409  73.005  1.00  0.00     0.000 HD 
HETATM    7  O   UNL     1     -13.241  13.541  72.967  1.00  0.00    -0.493 OA 
BRANCH   5   8
HETATM    8  C   UNL     1     -12.497  14.086  70.726  1.00  0.00    -0.442 A  
HETATM    9  C   UNL     1     -12.314  13.861  69.353  1.00  0.00    -0.240 A  
HETATM   10  C   UNL     1     -11.650  14.800  68.548  1.00  0.00    -0.321 A  
HETATM   11  C   UNL     1     -11.178  15.995  69.110  1.00  0.00    -0.342 A  
HETATM   12  C   UNL     1     -11.332  16.212  70.481  1.00  0.00    -0.392 A  
HETATM   13  C   UNL     1     -11.997  15.273  71.277  1.00  0.00    -0.409 A  
BRANCH  10  14
HETATM   14  O   UNL     1     -11.594  14.639  67.144  1.00  0.00    -0.363 OA 
BRANCH  14  15
HETATM   15  C   UNL     1     -10.564  13.874  66.572  1.00  0.00    -0.279 C  
HETATM   16  O   UNL     1      -9.371  14.068  66.755  1.00  0.00    -0.259 OA 
BRANCH  15  17
HETATM   17  C   UNL     1     -11.175  12.742  65.732  1.00  0.00    -0.341 C  
HETATM   18  C   UNL     1     -10.325  12.496  64.473  1.00  0.00    -0.362 C  
HETATM   19  C   UNL     1     -11.174  11.453  66.566  1.00  0.00    -0.276 C  
HETATM   20  C   UNL     1     -12.601  13.113  65.313  1.00  0.00    -0.531 C  
ENDBRANCH  15  17
ENDBRANCH  14  15
ENDBRANCH  10  14
BRANCH  11  21
HETATM   21  O   UNL     1     -10.493  16.928  68.289  1.00  0.00    -0.314 OA 
BRANCH  21  22
HETATM   22  C   UNL     1      -9.138  17.228  68.514  1.00  0.00    -0.269 C  
HETATM   23  O   UNL     1      -8.291  16.427  68.895  1.00  0.00    -0.218 OA 
BRANCH  22  24
HETATM   24  C   UNL     1      -8.844  18.713  68.247  1.00  0.00    -0.353 C  
HETATM   25  C   UNL     1      -8.848  18.971  66.727  1.00  0.00    -0.321 C  
HETATM   26  C   UNL     1      -9.923  19.599  68.882  1.00  0.00    -0.524 C  
HETATM   27  C   UNL     1      -7.461  19.062  68.805  1.00  0.00    -0.369 C  
ENDBRANCH  22  24
ENDBRANCH  21  22
ENDBRANCH  11  21
ENDBRANCH   5   8
ENDBRANCH   4   5
ENDBRANCH   2   4
TORSDOF 9
ENDMDL
MODEL       16
REMARK 921   NORMALIZED FREE ENERGY PREDICTED BY IDOCK:   -5.84 KCAL/MOL
REMARK 922        TOTAL FREE ENERGY PREDICTED BY IDOCK:  -10.19 KCAL/MOL
REMARK 923 INTER-LIGAND FREE ENERGY PREDICTED BY IDOCK:   -9.26 KCAL/MOL
REMARK 924 INTRA-LIGAND FREE ENERGY PREDICTED BY IDOCK:   -0.93 KCAL/MOL
REMARK 927      BINDING AFFINITY PREDICTED BY RF-SCORE:    0.00 PKD
ROOT
HETATM    1  C   UNL     1     -12.502  15.897  74.091  1.00  0.00    -0.643 C  
HETATM    2  N   UNL     1     -13.776  16.201  73.460  1.00  0.00    -0.843 NA 
HETATM    3  H   UNL     1     -13.879  17.201  73.289  1.00  0.00     0.000 HD 
ENDROOT
BRANCH   2   4
HETATM    4  C   UNL     1     -13.964  15.419  72.227  1.00  0.00    -0.562 C  
BRANCH   4   5
HETATM    5  C   UNL     1     -13.221  14.060  72.305  1.00  0.00    -0.464 C  
HETATM    6  H   UNL     1     -13.663  12.228  72.859  1.00  0.00     0.000 HD 
HETATM    7  O   UNL     1     -14.117  13.061  72.811  1.00  0.00    -0.573 OA 
BRANCH   5   8
HETATM    8  C   UNL     1     -12.657  13.630  70.963  1.00  0.00    -0.441 A  
HETATM    9  C   UNL     1     -12.302  12.297  70.706  1.00  0.00    -0.383 A  
HETATM   10  C   UNL     1     -11.798  11.909  69.455  1.00  0.00    -0.327 A  
HETATM   11  C   UNL     1     -11.664  12.857  68.430  1.00  0.00    -0.345 A  
HETATM   12  C   UNL     1     -11.990  14.191  68.687  1.00  0.00    -0.373 A  
HETATM   13  C   UNL     1     -12.495  14.569  69.936  1.00  0.00    -0.300 A  
BRANCH  10  14
HETATM   14  O   UNL     1     -11.576  10.545  69.154  1.00  0.00    -0.261 OA 
BRANCH  14  15
HETATM   15  C   UNL     1     -10.655   9.806  69.913  1.00  0.00    -0.265 C  
HETATM   16  O   UNL     1     -10.754   9.596  71.113  1.00  0.00    -0.329 OA 
BRANCH  15  17
HETATM   17  C   UNL     1      -9.547   9.271  68.993  1.00  0.00    -0.159 C  
HETATM   18  C   UNL     1     -10.049   9.198  67.541  1.00  0.00    -0.284 C  
HETATM   19  C   UNL     1      -8.357  10.240  69.038  1.00  0.00    -0.148 C  
HETATM   20  C   UNL     1      -9.121   7.871  69.450  1.00  0.00    -0.145 C  
ENDBRANCH  15  17
ENDBRANCH  14  15
ENDBRANCH  10  14
BRANCH  11  21
HETATM   21  O   UNL     1     -11.137  12.457  67.175  1.00  0.00    -0.253 OA 
BRANCH  21  22
HETATM   22  C   UNL     1     -10.536  13.392  66.314  1.00  0.00    -0.289 C  
HETATM   23  O   UNL     1      -9.547  14.066  66.583  1.00  0.00    -0.270 OA 
BRANCH  22  24
HETATM   24  C   UNL     1     -11.295  13.491  64.981  1.00  0.00    -0.334 C  
HETATM   25  C   UNL     1     -10.446  12.858  63.859  1.00  0.00    -0.333 C  
HETATM   26  C   UNL     1     -12.624  12.728  65.059  1.00  0.00    -0.538 C  
HETATM   27  C   UNL     1     -11.538  14.965  64.646  1.00  0.00    -0.395 C  
ENDBRANCH  22  24
ENDBRANCH  21  22
ENDBRANCH  11  21
ENDBRANCH   5   8
ENDBRANCH   4   5
ENDBRANCH   2   4
TORSDOF 9
ENDMDL
MODEL       17
REMARK 921   NORMALIZED FREE ENERGY PREDICTED BY IDOCK:   -5.83 KCAL/MOL
REMARK 922        TOTAL FREE ENERGY PREDICTED BY IDOCK:  -10.18 KCAL/MOL
REMARK 923 INTER-LIGAND FREE ENERGY PREDICTED BY IDOCK:   -9.14 KCAL/MOL
REMARK 924 INTRA-LIGAND FREE ENERGY PREDICTED BY IDOCK:   -1.04 KCAL/MOL
REMARK 927      BINDING AFFINITY PREDICTED BY RF-SCORE:    0.00 PKD
ROOT
HETATM    1  C   UNL     1     -12.487  12.304  63.475  1.00  0.00    -0.534 C  
HETATM    2  N   UNL     1     -11.482  11.256  63.554  1.00  0.00    -0.656 NA 
HETATM    3  H   UNL     1     -11.327  10.818  62.646  1.00  0.00     0.000 HD 
ENDROOT
BRANCH   2   4
HETATM    4  C   UNL     1     -10.225  11.761  64.131  1.00  0.00    -0.322 C  
BRANCH   4   5
HETATM    5  C   UNL     1     -10.340  11.924  65.669  1.00  0.00    -0.247 C  
HETATM    6  H   UNL     1      -9.243  11.467  67.233  1.00  0.00     0.000 HD 
HETATM    7  O   UNL     1      -9.173  11.367  66.291  1.00  0.00    -0.196 OA 
BRANCH   5   8
HETATM    8  C   UNL     1     -10.517  13.373  66.087  1.00  0.00    -0.295 A  
HETATM    9  C   UNL     1     -11.263  13.727  67.221  1.00  0.00    -0.329 A  
HETATM   10  C   UNL     1     -11.404  15.070  67.606  1.00  0.00    -0.334 A  
HETATM   11  C   UNL     1     -10.775  16.080  66.865  1.00  0.00    -0.262 A  
HETATM   12  C   UNL     1     -10.053  15.737  65.719  1.00  0.00    -0.399 A  
HETATM   13  C   UNL     1      -9.914  14.396  65.343  1.00  0.00    -0.344 A  
BRANCH  10  14
HETATM   14  O   UNL     1     -12.035  15.411  68.825  1.00  0.00    -0.331 OA 
BRANCH  14  15
HETATM   15  C   UNL     1     -11.349  15.231  70.037  1.00  0.00    -0.290 C  
HETATM   16  O   UNL     1     -10.168  15.493  70.213  1.00  0.00    -0.294 OA 
BRANCH  15  17
HETATM   17  C   UNL     1     -12.324  14.706  71.103  1.00  0.00    -0.403 C  
HETATM   18  C   UNL     1     -12.404  13.170  71.040  1.00  0.00    -0.355 C  
HETATM   19  C   UNL     1     -11.797  15.099  72.490  1.00  0.00    -0.485 C  
HETATM   20  C   UNL     1     -13.719  15.293  70.868  1.00  0.00    -0.363 C  
ENDBRANCH  15  17
ENDBRANCH  14  15
ENDBRANCH  10  14
BRANCH  11  21
HETATM   21  O   UNL     1     -10.939  17.435  67.253  1.00  0.00    -0.190 OA 
BRANCH  21  22
HETATM   22  C   UNL     1     -10.446  18.480  66.453  1.00  0.00    -0.406 C  
HETATM   23  O   UNL     1     -10.867  18.776  65.340  1.00  0.00    -0.563 OA 
BRANCH  22  24
HETATM   24  C   UNL     1      -9.276  19.203  67.139  1.00  0.00    -0.340 C  
HETATM   25  C   UNL     1      -9.662  20.674  67.394  1.00  0.00    -0.552 C  
HETATM   26  C   UNL     1      -8.959  18.554  68.493  1.00  0.00    -0.348 C  
HETATM   27  C   UNL     1      -8.051  19.165  66.221  1.00  0.00    -0.308 C  
ENDBRANCH  22  24
ENDBRANCH  21  22
ENDBRANCH  11  21
ENDBRANCH   5   8
ENDBRANCH   4   5
ENDBRANCH   2   4
TORSDOF 9
ENDMDL
MODEL       18
REMARK 921   NORMALIZED FREE ENERGY PREDICTED BY IDOCK:   -5.81 KCAL/MOL
REMARK 922        TOTAL FREE ENERGY PREDICTED BY IDOCK:  -10.15 KCAL/MOL
REMARK 923 INTER-LIGAND FREE ENERGY PREDICTED BY IDOCK:   -9.05 KCAL/MOL
REMARK 924 INTRA-LIGAND FREE ENERGY PREDICTED BY IDOCK:   -1.10 KCAL/MOL
REMARK 927      BINDING AFFINITY PREDICTED BY RF-SCORE:    0.00 PKD
ROOT
HETATM    1  C   UNL     1     -13.295   9.858  71.389  1.00  0.00    -0.365 C  
HETATM    2  N   UNL     1     -13.029  11.210  71.850  1.00  0.00    -0.441 NA 
HETATM    3  H   UNL     1     -12.474  11.211  72.706  1.00  0.00     0.000 HD 
ENDROOT
BRANCH   2   4
HETATM    4  C   UNL     1     -12.398  12.022  70.797  1.00  0.00    -0.308 C  
BRANCH   4   5
HETATM    5  C   UNL     1     -12.876  13.496  70.861  1.00  0.00    -0.226 C  
HETATM    6  H   UNL     1     -12.958  14.905  72.227  1.00  0.00     0.000 HD 
HETATM    7  O   UNL     1     -12.666  14.002  72.187  1.00  0.00    -0.314 OA 
BRANCH   5   8
HETATM    8  C   UNL     1     -12.173  14.378  69.844  1.00  0.00    -0.394 A  
HETATM    9  C   UNL     1     -11.845  13.908  68.564  1.00  0.00    -0.401 A  
HETATM   10  C   UNL     1     -11.211  14.740  67.627  1.00  0.00    -0.323 A  
HETATM   11  C   UNL     1     -10.918  16.071  67.958  1.00  0.00    -0.341 A  
HETATM   12  C   UNL     1     -11.217  16.536  69.240  1.00  0.00    -0.213 A  
HETATM   13  C   UNL     1     -11.851  15.703  70.168  1.00  0.00    -0.381 A  
BRANCH  10  14
HETATM   14  O   UNL     1     -11.011  14.310  66.295  1.00  0.00    -0.308 OA 
BRANCH  14  15
HETATM   15  C   UNL     1     -12.076  13.734  65.583  1.00  0.00    -0.418 C  
HETATM   16  O   UNL     1     -13.198  14.212  65.504  1.00  0.00    -0.688 OA 
BRANCH  15  17
HETATM   17  C   UNL     1     -11.592  12.452  64.888  1.00  0.00    -0.392 C  
HETATM   18  C   UNL     1     -10.402  12.763  63.964  1.00  0.00    -0.392 C  
HETATM   19  C   UNL     1     -11.118  11.459  65.958  1.00  0.00    -0.235 C  
HETATM   20  C   UNL     1     -12.730  11.848  64.057  1.00  0.00    -0.350 C  
ENDBRANCH  15  17
ENDBRANCH  14  15
ENDBRANCH  10  14
BRANCH  11  21
HETATM   21  O   UNL     1     -10.261  16.896  67.009  1.00  0.00    -0.286 OA 
BRANCH  21  22
HETATM   22  C   UNL     1      -9.237  17.775  67.404  1.00  0.00    -0.248 C  
HETATM   23  O   UNL     1      -8.179  17.438  67.925  1.00  0.00    -0.215 OA 
BRANCH  22  24
HETATM   24  C   UNL     1      -9.620  19.238  67.125  1.00  0.00    -0.397 C  
HETATM   25  C   UNL     1     -10.361  19.815  68.348  1.00  0.00    -0.513 C  
HETATM   26  C   UNL     1      -8.366  20.088  66.884  1.00  0.00    -0.376 C  
HETATM   27  C   UNL     1     -10.552  19.292  65.911  1.00  0.00    -0.521 C  
ENDBRANCH  22  24
ENDBRANCH  21  22
ENDBRANCH  11  21
ENDBRANCH   5   8
ENDBRANCH   4   5
ENDBRANCH   2   4
TORSDOF 9
ENDMDL
MODEL       19
REMARK 921   NORMALIZED FREE ENERGY PREDICTED BY IDOCK:   -5.75 KCAL/MOL
REMARK 922        TOTAL FREE ENERGY PREDICTED BY IDOCK:  -10.06 KCAL/MOL
REMARK 923 INTER-LIGAND FREE ENERGY PREDICTED BY IDOCK:   -8.89 KCAL/MOL
REMARK 924 INTRA-LIGAND FREE ENERGY PREDICTED BY IDOCK:   -1.17 KCAL/MOL
REMARK 927      BINDING AFFINITY PREDICTED BY RF-SCORE:    0.00 PKD
ROOT
HETATM    1  C   UNL     1     -10.547   8.228  69.958  1.00  0.00    -0.235 C  
HETATM    2  N   UNL     1     -11.747   9.021  70.173  1.00  0.00    -0.463 NA 
HETATM    3  H   UNL     1     -12.442   8.507  70.716  1.00  0.00     0.000 HD 
ENDROOT
BRANCH   2   4
HETATM    4  C   UNL     1     -11.428  10.317  70.793  1.00  0.00    -0.351 C  
BRANCH   4   5
HETATM    5  C   UNL     1     -12.647  11.275  70.748  1.00  0.00    -0.332 C  
HETATM    6  H   UNL     1     -13.874  12.078  72.055  1.00  0.00     0.000 HD 
HETATM    7  O   UNL     1     -13.128  11.491  72.082  1.00  0.00    -0.466 OA 
BRANCH   5   8
HETATM    8  C   UNL     1     -12.318  12.602  70.087  1.00  0.00    -0.222 A  
HETATM    9  C   UNL     1     -11.898  12.675  68.750  1.00  0.00    -0.341 A  
HETATM   10  C   UNL     1     -11.613  13.910  68.146  1.00  0.00    -0.335 A  
HETATM   11  C   UNL     1     -11.770  15.098  68.874  1.00  0.00    -0.333 A  
HETATM   12  C   UNL     1     -12.160  15.030  70.213  1.00  0.00    -0.378 A  
HETATM   13  C   UNL     1     -12.445  13.796  70.808  1.00  0.00    -0.441 A  
BRANCH  10  14
HETATM   14  O   UNL     1     -11.330  13.991  66.763  1.00  0.00    -0.312 OA 
BRANCH  14  15
HETATM   15  C   UNL     1     -12.262  13.505  65.832  1.00  0.00    -0.460 C  
HETATM   16  O   UNL     1     -13.433  13.853  65.774  1.00  0.00    -0.464 OA 
BRANCH  15  17
HETATM   17  C   UNL     1     -11.568  12.517  64.881  1.00  0.00    -0.386 C  
HETATM   18  C   UNL     1     -12.525  12.110  63.746  1.00  0.00    -0.620 C  
HETATM   19  C   UNL     1     -10.351  13.210  64.252  1.00  0.00    -0.361 C  
HETATM   20  C   UNL     1     -11.139  11.265  65.652  1.00  0.00    -0.141 C  
ENDBRANCH  15  17
ENDBRANCH  14  15
ENDBRANCH  10  14
BRANCH  11  21
HETATM   21  O   UNL     1     -11.462  16.338  68.258  1.00  0.00    -0.333 OA 
BRANCH  21  22
HETATM   22  C   UNL     1     -10.130  16.774  68.140  1.00  0.00    -0.282 C  
HETATM   23  O   UNL     1      -9.214  16.458  68.891  1.00  0.00    -0.241 OA 
BRANCH  22  24
HETATM   24  C   UNL     1      -9.962  17.734  66.951  1.00  0.00    -0.332 C  
HETATM   25  C   UNL     1      -8.468  18.071  66.772  1.00  0.00    -0.274 C  
HETATM   26  C   UNL     1     -10.461  17.082  65.655  1.00  0.00    -0.229 C  
HETATM   27  C   UNL     1     -10.729  19.029  67.235  1.00  0.00    -0.556 C  
ENDBRANCH  22  24
ENDBRANCH  21  22
ENDBRANCH  11  21
ENDBRANCH   5   8
ENDBRANCH   4   5
ENDBRANCH   2   4
TORSDOF 9
ENDMDL
MODEL       20
REMARK 921   NORMALIZED FREE ENERGY PREDICTED BY IDOCK:   -5.74 KCAL/MOL
REMARK 922        TOTAL FREE ENERGY PREDICTED BY IDOCK:  -10.04 KCAL/MOL
REMARK 923 INTER-LIGAND FREE ENERGY PREDICTED BY IDOCK:   -8.85 KCAL/MOL
REMARK 924 INTRA-LIGAND FREE ENERGY PREDICTED BY IDOCK:   -1.19 KCAL/MOL
REMARK 927      BINDING AFFINITY PREDICTED BY RF-SCORE:    0.00 PKD
ROOT
HETATM    1  C   UNL     1     -12.558  15.785  74.474  1.00  0.00    -0.468 C  
HETATM    2  N   UNL     1     -13.497  15.370  73.445  1.00  0.00    -0.609 NA 
HETATM    3  H   UNL     1     -13.904  16.173  72.964  1.00  0.00     0.000 HD 
ENDROOT
BRANCH   2   4
HETATM    4  C   UNL     1     -12.873  14.433  72.497  1.00  0.00    -0.368 C  
BRANCH   4   5
HETATM    5  C   UNL     1     -12.442  15.156  71.194  1.00  0.00    -0.352 C  
HETATM    6  H   UNL     1     -11.001  16.377  70.655  1.00  0.00     0.000 HD 
HETATM    7  O   UNL     1     -11.265  15.933  71.453  1.00  0.00    -0.346 OA 
BRANCH   5   8
HETATM    8  C   UNL     1     -12.192  14.189  70.050  1.00  0.00    -0.418 A  
HETATM    9  C   UNL     1     -12.032  12.813  70.271  1.00  0.00    -0.358 A  
HETATM   10  C   UNL     1     -11.818  11.928  69.202  1.00  0.00    -0.311 A  
HETATM   11  C   UNL     1     -11.785  12.413  67.887  1.00  0.00    -0.360 A  
HETATM   12  C   UNL     1     -11.915  13.785  67.663  1.00  0.00    -0.392 A  
HETATM   13  C   UNL     1     -12.131  14.661  68.733  1.00  0.00    -0.237 A  
BRANCH  10  14
HETATM   14  O   UNL     1     -11.800  10.529  69.412  1.00  0.00    -0.261 OA 
BRANCH  14  15
HETATM   15  C   UNL     1     -10.631   9.911  69.885  1.00  0.00    -0.273 C  
HETATM   16  O   UNL     1      -9.497  10.229  69.558  1.00  0.00    -0.214 OA 
BRANCH  15  17
HETATM   17  C   UNL     1     -11.004   8.821  70.901  1.00  0.00    -0.315 C  
HETATM   18  C   UNL     1     -10.008   8.825  72.074  1.00  0.00    -0.391 C  
HETATM   19  C   UNL     1     -12.401   9.124  71.461  1.00  0.00    -0.421 C  
HETATM   20  C   UNL     1     -10.979   7.447  70.223  1.00  0.00    -0.272 C  
ENDBRANCH  15  17
ENDBRANCH  14  15
ENDBRANCH  10  14
BRANCH  11  21
HETATM   21  O   UNL     1     -11.550  11.511  66.817  1.00  0.00    -0.492 OA 
BRANCH  21  22
HETATM   22  C   UNL     1     -10.424  11.653  65.988  1.00  0.00    -0.251 C  
HETATM   23  O   UNL     1      -9.266  11.430  66.325  1.00  0.00    -0.196 OA 
BRANCH  22  24
HETATM   24  C   UNL     1     -10.820  12.157  64.591  1.00  0.00    -0.351 C  
HETATM   25  C   UNL     1     -10.474  13.656  64.470  1.00  0.00    -0.411 C  
HETATM   26  C   UNL     1     -10.045  11.402  63.503  1.00  0.00    -0.437 C  
HETATM   27  C   UNL     1     -12.330  11.981  64.400  1.00  0.00    -0.346 C  
ENDBRANCH  22  24
ENDBRANCH  21  22
ENDBRANCH  11  21
ENDBRANCH   5   8
ENDBRANCH   4   5
ENDBRANCH   2   4
TORSDOF 9
ENDMDL
MODEL       21
REMARK 921   NORMALIZED FREE ENERGY PREDICTED BY IDOCK:   -5.74 KCAL/MOL
REMARK 922        TOTAL FREE ENERGY PREDICTED BY IDOCK:  -10.04 KCAL/MOL
REMARK 923 INTER-LIGAND FREE ENERGY PREDICTED BY IDOCK:   -8.89 KCAL/MOL
REMARK 924 INTRA-LIGAND FREE ENERGY PREDICTED BY IDOCK:   -1.15 KCAL/MOL
REMARK 927      BINDING AFFINITY PREDICTED BY RF-SCORE:    0.00 PKD
ROOT
HETATM    1  C   UNL     1     -13.426   8.976  72.096  1.00  0.00    -0.459 C  
HETATM    2  N   UNL     1     -13.596  10.377  72.444  1.00  0.00    -0.517 NA 
HETATM    3  H   UNL     1     -13.299  10.563  73.402  1.00  0.00     0.000 HD 
ENDROOT
BRANCH   2   4
HETATM    4  C   UNL     1     -12.906  11.255  71.485  1.00  0.00    -0.414 C  
BRANCH   4   5
HETATM    5  C   UNL     1     -13.408  12.718  71.601  1.00  0.00    -0.254 C  
HETATM    6  H   UNL     1     -13.533  14.071  73.020  1.00  0.00     0.000 HD 
HETATM    7  O   UNL     1     -13.225  13.175  72.948  1.00  0.00    -0.386 OA 
BRANCH   5   8
HETATM    8  C   UNL     1     -12.706  13.651  70.630  1.00  0.00    -0.303 A  
HETATM    9  C   UNL     1     -11.921  13.161  69.576  1.00  0.00    -0.354 A  
HETATM   10  C   UNL     1     -11.291  14.035  68.675  1.00  0.00    -0.276 A  
HETATM   11  C   UNL     1     -11.462  15.420  68.808  1.00  0.00    -0.341 A  
HETATM   12  C   UNL     1     -12.220  15.915  69.872  1.00  0.00    -0.189 A  
HETATM   13  C   UNL     1     -12.847  15.039  70.764  1.00  0.00    -0.447 A  
BRANCH  10  14
HETATM   14  O   UNL     1     -10.620  13.538  67.534  1.00  0.00    -0.242 OA 
BRANCH  14  15
HETATM   15  C   UNL     1     -11.301  12.699  66.637  1.00  0.00    -0.326 C  
HETATM   16  O   UNL     1     -11.734  11.590  66.915  1.00  0.00    -0.533 OA 
BRANCH  15  17
HETATM   17  C   UNL     1     -11.453  13.412  65.284  1.00  0.00    -0.318 C  
HETATM   18  C   UNL     1     -10.309  14.422  65.083  1.00  0.00    -0.447 C  
HETATM   19  C   UNL     1     -11.367  12.366  64.163  1.00  0.00    -0.442 C  
HETATM   20  C   UNL     1     -12.793  14.152  65.232  1.00  0.00    -0.370 C  
ENDBRANCH  15  17
ENDBRANCH  14  15
ENDBRANCH  10  14
BRANCH  11  21
HETATM   21  O   UNL     1     -10.806  16.294  67.902  1.00  0.00    -0.325 OA 
BRANCH  21  22
HETATM   22  C   UNL     1      -9.597  16.920  68.252  1.00  0.00    -0.258 C  
HETATM   23  O   UNL     1      -8.736  16.437  68.980  1.00  0.00    -0.248 OA 
BRANCH  22  24
HETATM   24  C   UNL     1      -9.492  18.319  67.623  1.00  0.00    -0.275 C  
HETATM   25  C   UNL     1     -10.191  19.345  68.539  1.00  0.00    -0.492 C  
HETATM   26  C   UNL     1      -8.023  18.737  67.476  1.00  0.00    -0.260 C  
HETATM   27  C   UNL     1     -10.192  18.314  66.261  1.00  0.00    -0.414 C  
ENDBRANCH  22  24
ENDBRANCH  21  22
ENDBRANCH  11  21
ENDBRANCH   5   8
ENDBRANCH   4   5
ENDBRANCH   2   4
TORSDOF 9
ENDMDL
MODEL       22
REMARK 921   NORMALIZED FREE ENERGY PREDICTED BY IDOCK:   -5.71 KCAL/MOL
REMARK 922        TOTAL FREE ENERGY PREDICTED BY IDOCK:  -10.00 KCAL/MOL
REMARK 923 INTER-LIGAND FREE ENERGY PREDICTED BY IDOCK:   -9.13 KCAL/MOL
REMARK 924 INTRA-LIGAND FREE ENERGY PREDICTED BY IDOCK:   -0.86 KCAL/MOL
REMARK 927      BINDING AFFINITY PREDICTED BY RF-SCORE:    0.00 PKD
ROOT
HETATM    1  C   UNL     1      -7.073  20.088  65.408  1.00  0.00    -0.278 C  
HETATM    2  N   UNL     1      -8.402  19.736  65.881  1.00  0.00    -0.430 NA 
HETATM    3  H   UNL     1      -9.025  19.505  65.107  1.00  0.00     0.000 HD 
ENDROOT
BRANCH   2   4
HETATM    4  C   UNL     1      -8.348  18.650  66.873  1.00  0.00    -0.264 C  
BRANCH   4   5
HETATM    5  C   UNL     1      -9.603  18.661  67.785  1.00  0.00    -0.304 C  
HETATM    6  H   UNL     1     -11.309  19.632  67.846  1.00  0.00     0.000 HD 
HETATM    7  O   UNL     1     -10.540  19.625  67.288  1.00  0.00    -0.451 OA 
BRANCH   5   8
HETATM    8  C   UNL     1     -10.258  17.294  67.885  1.00  0.00    -0.332 A  
HETATM    9  C   UNL     1     -11.016  16.921  69.005  1.00  0.00    -0.179 A  
HETATM   10  C   UNL     1     -11.631  15.661  69.077  1.00  0.00    -0.386 A  
HETATM   11  C   UNL     1     -11.511  14.762  68.008  1.00  0.00    -0.331 A  
HETATM   12  C   UNL     1     -10.735  15.116  66.902  1.00  0.00    -0.308 A  
HETATM   13  C   UNL     1     -10.127  16.375  66.836  1.00  0.00    -0.281 A  
BRANCH  10  14
HETATM   14  O   UNL     1     -12.509  15.343  70.139  1.00  0.00    -0.368 OA 
BRANCH  14  15
HETATM   15  C   UNL     1     -11.987  15.044  71.408  1.00  0.00    -0.341 C  
HETATM   16  O   UNL     1     -10.795  15.004  71.677  1.00  0.00    -0.096 OA 
BRANCH  15  17
HETATM   17  C   UNL     1     -13.141  14.827  72.398  1.00  0.00    -0.463 C  
HETATM   18  C   UNL     1     -12.782  15.419  73.773  1.00  0.00    -0.723 C  
HETATM   19  C   UNL     1     -14.385  15.559  71.875  1.00  0.00    -0.580 C  
HETATM   20  C   UNL     1     -13.421  13.328  72.553  1.00  0.00    -0.620 C  
ENDBRANCH  15  17
ENDBRANCH  14  15
ENDBRANCH  10  14
BRANCH  11  21
HETATM   21  O   UNL     1     -12.122  13.484  68.100  1.00  0.00    -0.346 OA 
BRANCH  21  22
HETATM   22  C   UNL     1     -11.665  12.408  67.318  1.00  0.00    -0.349 C  
HETATM   23  O   UNL     1     -12.000  12.185  66.160  1.00  0.00    -0.593 OA 
BRANCH  22  24
HETATM   24  C   UNL     1     -10.701  11.513  68.113  1.00  0.00    -0.242 C  
HETATM   25  C   UNL     1     -11.233  11.335  69.549  1.00  0.00    -0.337 C  
HETATM   26  C   UNL     1     -10.599  10.124  67.468  1.00  0.00    -0.327 C  
HETATM   27  C   UNL     1      -9.325  12.183  68.174  1.00  0.00    -0.204 C  
ENDBRANCH  22  24
ENDBRANCH  21  22
ENDBRANCH  11  21
ENDBRANCH   5   8
ENDBRANCH   4   5
ENDBRANCH   2   4
TORSDOF 9
ENDMDL
MODEL       23
REMARK 921   NORMALIZED FREE ENERGY PREDICTED BY IDOCK:   -5.71 KCAL/MOL
REMARK 922        TOTAL FREE ENERGY PREDICTED BY IDOCK:   -9.99 KCAL/MOL
REMARK 923 INTER-LIGAND FREE ENERGY PREDICTED BY IDOCK:   -8.85 KCAL/MOL
REMARK 924 INTRA-LIGAND FREE ENERGY PREDICTED BY IDOCK:   -1.14 KCAL/MOL
REMARK 927      BINDING AFFINITY PREDICTED BY RF-SCORE:    0.00 PKD
ROOT
HETATM    1  C   UNL     1     -13.030   7.045  71.579  1.00  0.00    -0.359 C  
HETATM    2  N   UNL     1     -12.075   7.121  70.485  1.00  0.00    -0.569 NA 
HETATM    3  H   UNL     1     -12.342   7.833  69.805  1.00  0.00     0.000 HD 
ENDROOT
BRANCH   2   4
HETATM    4  C   UNL     1     -10.706   7.335  70.982  1.00  0.00    -0.231 C  
BRANCH   4   5
HETATM    5  C   UNL     1     -10.473   8.821  71.361  1.00  0.00    -0.284 C  
HETATM    6  H   UNL     1      -8.940   9.929  71.891  1.00  0.00     0.000 HD 
HETATM    7  O   UNL     1      -9.084   9.019  71.659  1.00  0.00    -0.300 OA 
BRANCH   5   8
HETATM    8  C   UNL     1     -10.917   9.775  70.266  1.00  0.00    -0.352 A  
HETATM    9  C   UNL     1     -11.713  10.896  70.545  1.00  0.00    -0.441 A  
HETATM   10  C   UNL     1     -12.102  11.780  69.526  1.00  0.00    -0.250 A  
HETATM   11  C   UNL     1     -11.675  11.560  68.209  1.00  0.00    -0.301 A  
HETATM   12  C   UNL     1     -10.906  10.431  67.920  1.00  0.00    -0.331 A  
HETATM   13  C   UNL     1     -10.519   9.556  68.941  1.00  0.00    -0.235 A  
BRANCH  10  14
HETATM   14  O   UNL     1     -12.781  12.982  69.830  1.00  0.00     0.070 OA 
BRANCH  14  15
HETATM   15  C   UNL     1     -12.118  13.996  70.541  1.00  0.00    -0.353 C  
HETATM   16  O   UNL     1     -11.037  14.471  70.226  1.00  0.00    -0.166 OA 
BRANCH  15  17
HETATM   17  C   UNL     1     -12.983  14.436  71.732  1.00  0.00    -0.419 C  
HETATM   18  C   UNL     1     -12.109  15.108  72.805  1.00  0.00    -0.486 C  
HETATM   19  C   UNL     1     -14.011  15.466  71.241  1.00  0.00    -0.491 C  
HETATM   20  C   UNL     1     -13.686  13.220  72.343  1.00  0.00    -0.678 C  
ENDBRANCH  15  17
ENDBRANCH  14  15
ENDBRANCH  10  14
BRANCH  11  21
HETATM   21  O   UNL     1     -12.090  12.450  67.184  1.00  0.00    -0.532 OA 
BRANCH  21  22
HETATM   22  C   UNL     1     -11.170  13.312  66.561  1.00  0.00    -0.304 C  
HETATM   23  O   UNL     1     -10.240  13.879  67.124  1.00  0.00    -0.254 OA 
BRANCH  22  24
HETATM   24  C   UNL     1     -11.492  13.485  65.068  1.00  0.00    -0.334 C  
HETATM   25  C   UNL     1     -12.746  12.659  64.715  1.00  0.00    -0.460 C  
HETATM   26  C   UNL     1     -11.786  14.956  64.745  1.00  0.00    -0.402 C  
HETATM   27  C   UNL     1     -10.313  12.973  64.235  1.00  0.00    -0.385 C  
ENDBRANCH  22  24
ENDBRANCH  21  22
ENDBRANCH  11  21
ENDBRANCH   5   8
ENDBRANCH   4   5
ENDBRANCH   2   4
TORSDOF 9
ENDMDL
MODEL       24
REMARK 921   NORMALIZED FREE ENERGY PREDICTED BY IDOCK:   -5.70 KCAL/MOL
REMARK 922        TOTAL FREE ENERGY PREDICTED BY IDOCK:   -9.98 KCAL/MOL
REMARK 923 INTER-LIGAND FREE ENERGY PREDICTED BY IDOCK:   -9.05 KCAL/MOL
REMARK 924 INTRA-LIGAND FREE ENERGY PREDICTED BY IDOCK:   -0.93 KCAL/MOL
REMARK 927      BINDING AFFINITY PREDICTED BY RF-SCORE:    0.00 PKD
ROOT
HETATM    1  C   UNL     1     -12.489  12.076  63.399  1.00  0.00    -0.509 C  
HETATM    2  N   UNL     1     -11.192  11.427  63.306  1.00  0.00    -0.838 NA 
HETATM    3  H   UNL     1     -10.758  11.586  62.396  1.00  0.00     0.000 HD 
ENDROOT
BRANCH   2   4
HETATM    4  C   UNL     1     -10.305  11.841  64.406  1.00  0.00    -0.307 C  
BRANCH   4   5
HETATM    5  C   UNL     1     -10.267  10.772  65.529  1.00  0.00    -0.266 C  
HETATM    6  H   UNL     1      -8.894   9.666  66.395  1.00  0.00     0.000 HD 
HETATM    7  O   UNL     1      -8.918  10.321  65.706  1.00  0.00    -0.151 OA 
BRANCH   5   8
HETATM    8  C   UNL     1     -10.824  11.293  66.843  1.00  0.00    -0.333 A  
HETATM    9  C   UNL     1     -10.715  10.556  68.032  1.00  0.00    -0.287 A  
HETATM   10  C   UNL     1     -11.219  11.057  69.243  1.00  0.00    -0.257 A  
HETATM   11  C   UNL     1     -11.821  12.322  69.281  1.00  0.00    -0.306 A  
HETATM   12  C   UNL     1     -11.958  13.048  68.096  1.00  0.00    -0.322 A  
HETATM   13  C   UNL     1     -11.451  12.545  66.893  1.00  0.00    -0.416 A  
BRANCH  10  14
HETATM   14  O   UNL     1     -10.982  10.379  70.461  1.00  0.00    -0.299 OA 
BRANCH  14  15
HETATM   15  C   UNL     1     -11.910   9.432  70.923  1.00  0.00    -0.294 C  
HETATM   16  O   UNL     1     -13.122   9.592  70.929  1.00  0.00    -0.277 OA 
BRANCH  15  17
HETATM   17  C   UNL     1     -11.168   8.161  71.366  1.00  0.00    -0.297 C  
HETATM   18  C   UNL     1     -10.038   8.520  72.346  1.00  0.00    -0.365 C  
HETATM   19  C   UNL     1     -12.157   7.241  72.095  1.00  0.00    -0.287 C  
HETATM   20  C   UNL     1     -10.571   7.454  70.145  1.00  0.00    -0.240 C  
ENDBRANCH  15  17
ENDBRANCH  14  15
ENDBRANCH  10  14
BRANCH  11  21
HETATM   21  O   UNL     1     -12.343  12.810  70.507  1.00  0.00    -0.339 OA 
BRANCH  21  22
HETATM   22  C   UNL     1     -12.146  14.147  70.894  1.00  0.00    -0.344 C  
HETATM   23  O   UNL     1     -11.278  14.890  70.450  1.00  0.00    -0.250 OA 
BRANCH  22  24
HETATM   24  C   UNL     1     -13.150  14.566  71.980  1.00  0.00    -0.425 C  
HETATM   25  C   UNL     1     -13.824  13.309  72.567  1.00  0.00    -0.554 C  
HETATM   26  C   UNL     1     -12.435  15.299  73.122  1.00  0.00    -0.571 C  
HETATM   27  C   UNL     1     -14.227  15.458  71.355  1.00  0.00    -0.519 C  
ENDBRANCH  22  24
ENDBRANCH  21  22
ENDBRANCH  11  21
ENDBRANCH   5   8
ENDBRANCH   4   5
ENDBRANCH   2   4
TORSDOF 9
ENDMDL
MODEL       25
REMARK 921   NORMALIZED FREE ENERGY PREDICTED BY IDOCK:   -5.67 KCAL/MOL
REMARK 922        TOTAL FREE ENERGY PREDICTED BY IDOCK:   -9.92 KCAL/MOL
REMARK 923 INTER-LIGAND FREE ENERGY PREDICTED BY IDOCK:   -9.15 KCAL/MOL
REMARK 924 INTRA-LIGAND FREE ENERGY PREDICTED BY IDOCK:   -0.78 KCAL/MOL
REMARK 927      BINDING AFFINITY PREDICTED BY RF-SCORE:    0.00 PKD
ROOT
HETATM    1  C   UNL     1     -13.532  12.292  72.182  1.00  0.00    -0.327 C  
HETATM    2  N   UNL     1     -13.616  13.744  72.212  1.00  0.00    -0.510 NA 
HETATM    3  H   UNL     1     -14.084  14.074  73.055  1.00  0.00     0.000 HD 
ENDROOT
BRANCH   2   4
HETATM    4  C   UNL     1     -12.288  14.360  72.055  1.00  0.00    -0.247 C  
BRANCH   4   5
HETATM    5  C   UNL     1     -12.340  15.564  71.078  1.00  0.00    -0.416 C  
HETATM    6  H   UNL     1     -11.569  17.369  71.003  1.00  0.00     0.000 HD 
HETATM    7  O   UNL     1     -11.538  16.631  71.601  1.00  0.00    -0.316 OA 
BRANCH   5   8
HETATM    8  C   UNL     1     -11.878  15.196  69.679  1.00  0.00    -0.362 A  
HETATM    9  C   UNL     1     -11.073  16.058  68.919  1.00  0.00    -0.331 A  
HETATM   10  C   UNL     1     -10.639  15.697  67.633  1.00  0.00    -0.294 A  
HETATM   11  C   UNL     1     -10.989  14.449  67.100  1.00  0.00    -0.303 A  
HETATM   12  C   UNL     1     -11.812  13.598  67.840  1.00  0.00    -0.402 A  
HETATM   13  C   UNL     1     -12.240  13.962  69.122  1.00  0.00    -0.305 A  
BRANCH  10  14
HETATM   14  O   UNL     1      -9.714  16.503  66.929  1.00  0.00    -0.237 OA 
BRANCH  14  15
HETATM   15  C   UNL     1     -10.175  17.588  66.167  1.00  0.00    -0.335 C  
HETATM   16  O   UNL     1     -10.771  17.488  65.104  1.00  0.00    -0.673 OA 
BRANCH  15  17
HETATM   17  C   UNL     1      -9.858  18.901  66.900  1.00  0.00    -0.371 C  
HETATM   18  C   UNL     1      -8.595  18.735  67.765  1.00  0.00    -0.305 C  
HETATM   19  C   UNL     1      -9.582  19.994  65.859  1.00  0.00    -0.326 C  
HETATM   20  C   UNL     1     -11.035  19.294  67.799  1.00  0.00    -0.304 C  
ENDBRANCH  15  17
ENDBRANCH  14  15
ENDBRANCH  10  14
BRANCH  11  21
HETATM   21  O   UNL     1     -10.558  14.103  65.793  1.00  0.00    -0.283 OA 
BRANCH  21  22
HETATM   22  C   UNL     1     -11.488  13.775  64.790  1.00  0.00    -0.356 C  
HETATM   23  O   UNL     1     -12.337  14.536  64.339  1.00  0.00    -0.568 OA 
BRANCH  22  24
HETATM   24  C   UNL     1     -11.327  12.315  64.338  1.00  0.00    -0.396 C  
HETATM   25  C   UNL     1     -12.619  11.852  63.634  1.00  0.00    -0.555 C  
HETATM   26  C   UNL     1     -10.168  12.182  63.342  1.00  0.00    -0.422 C  
HETATM   27  C   UNL     1     -11.089  11.430  65.566  1.00  0.00    -0.203 C  
ENDBRANCH  22  24
ENDBRANCH  21  22
ENDBRANCH  11  21
ENDBRANCH   5   8
ENDBRANCH   4   5
ENDBRANCH   2   4
TORSDOF 9
ENDMDL
MODEL       26
REMARK 921   NORMALIZED FREE ENERGY PREDICTED BY IDOCK:   -5.65 KCAL/MOL
REMARK 922        TOTAL FREE ENERGY PREDICTED BY IDOCK:   -9.91 KCAL/MOL
REMARK 923 INTER-LIGAND FREE ENERGY PREDICTED BY IDOCK:   -8.47 KCAL/MOL
REMARK 924 INTRA-LIGAND FREE ENERGY PREDICTED BY IDOCK:   -1.44 KCAL/MOL
REMARK 927      BINDING AFFINITY PREDICTED BY RF-SCORE:    0.00 PKD
ROOT
HETATM    1  C   UNL     1     -12.267  16.665  74.550  1.00  0.00    -0.221 C  
HETATM    2  N   UNL     1     -13.340  16.167  73.705  1.00  0.00    -0.889 NA 
HETATM    3  H   UNL     1     -13.495  16.774  72.900  1.00  0.00     0.000 HD 
ENDROOT
BRANCH   2   4
HETATM    4  C   UNL     1     -13.095  14.775  73.291  1.00  0.00    -0.436 C  
BRANCH   4   5
HETATM    5  C   UNL     1     -13.639  14.510  71.863  1.00  0.00    -0.396 C  
HETATM    6  H   UNL     1     -13.714  15.494  70.165  1.00  0.00     0.000 HD 
HETATM    7  O   UNL     1     -13.381  15.656  71.040  1.00  0.00    -0.545 OA 
BRANCH   5   8
HETATM    8  C   UNL     1     -13.036  13.266  71.235  1.00  0.00    -0.353 A  
HETATM    9  C   UNL     1     -12.216  13.338  70.099  1.00  0.00    -0.376 A  
HETATM   10  C   UNL     1     -11.651  12.181  69.538  1.00  0.00    -0.315 A  
HETATM   11  C   UNL     1     -11.884  10.931  70.130  1.00  0.00    -0.353 A  
HETATM   12  C   UNL     1     -12.721  10.849  71.244  1.00  0.00    -0.542 A  
HETATM   13  C   UNL     1     -13.279  12.007  71.800  1.00  0.00    -0.421 A  
BRANCH  10  14
HETATM   14  O   UNL     1     -10.714  12.271  68.483  1.00  0.00    -0.223 OA 
BRANCH  14  15
HETATM   15  C   UNL     1     -11.161  12.518  67.175  1.00  0.00    -0.276 C  
HETATM   16  O   UNL     1     -12.113  11.961  66.648  1.00  0.00    -0.587 OA 
BRANCH  15  17
HETATM   17  C   UNL     1     -10.301  13.623  66.541  1.00  0.00    -0.282 C  
HETATM   18  C   UNL     1     -10.359  13.528  65.006  1.00  0.00    -0.379 C  
HETATM   19  C   UNL     1     -10.867  14.988  66.956  1.00  0.00    -0.311 C  
HETATM   20  C   UNL     1      -8.846  13.479  67.000  1.00  0.00    -0.219 C  
ENDBRANCH  15  17
ENDBRANCH  14  15
ENDBRANCH  10  14
BRANCH  11  21
HETATM   21  O   UNL     1     -11.322   9.767  69.544  1.00  0.00    -0.190 OA 
BRANCH  21  22
HETATM   22  C   UNL     1     -10.013   9.362  69.857  1.00  0.00    -0.212 C  
HETATM   23  O   UNL     1      -9.508   9.407  70.973  1.00  0.00    -0.254 OA 
BRANCH  22  24
HETATM   24  C   UNL     1      -9.267   8.873  68.604  1.00  0.00    -0.137 C  
HETATM   25  C   UNL     1      -8.158   9.882  68.242  1.00  0.00    -0.104 C  
HETATM   26  C   UNL     1      -8.606   7.514  68.866  1.00  0.00    -0.129 C  
HETATM   27  C   UNL     1     -10.252   8.779  67.435  1.00  0.00    -0.318 C  
ENDBRANCH  22  24
ENDBRANCH  21  22
ENDBRANCH  11  21
ENDBRANCH   5   8
ENDBRANCH   4   5
ENDBRANCH   2   4
TORSDOF 9
ENDMDL
MODEL       27
REMARK 921   NORMALIZED FREE ENERGY PREDICTED BY IDOCK:   -5.63 KCAL/MOL
REMARK 922        TOTAL FREE ENERGY PREDICTED BY IDOCK:   -9.87 KCAL/MOL
REMARK 923 INTER-LIGAND FREE ENERGY PREDICTED BY IDOCK:   -9.06 KCAL/MOL
REMARK 924 INTRA-LIGAND FREE ENERGY PREDICTED BY IDOCK:   -0.80 KCAL/MOL
REMARK 927      BINDING AFFINITY PREDICTED BY RF-SCORE:    0.00 PKD
ROOT
HETATM    1  C   UNL     1     -11.120  11.831  63.300  1.00  0.00    -0.286 C  
HETATM    2  N   UNL     1     -11.471  13.220  63.545  1.00  0.00    -0.638 NA 
HETATM    3  H   UNL     1     -12.479  13.338  63.654  1.00  0.00     0.000 HD 
ENDROOT
BRANCH   2   4
HETATM    4  C   UNL     1     -10.736  13.763  64.700  1.00  0.00    -0.414 C  
BRANCH   4   5
HETATM    5  C   UNL     1     -11.705  14.173  65.839  1.00  0.00    -0.365 C  
HETATM    6  H   UNL     1     -13.641  14.450  66.029  1.00  0.00     0.000 HD 
HETATM    7  O   UNL     1     -13.047  14.199  65.332  1.00  0.00    -0.743 OA 
BRANCH   5   8
HETATM    8  C   UNL     1     -11.615  13.247  67.039  1.00  0.00    -0.404 A  
HETATM    9  C   UNL     1     -11.510  13.744  68.347  1.00  0.00    -0.351 A  
HETATM   10  C   UNL     1     -11.444  12.876  69.448  1.00  0.00    -0.260 A  
HETATM   11  C   UNL     1     -11.507  11.489  69.251  1.00  0.00    -0.305 A  
HETATM   12  C   UNL     1     -11.583  10.987  67.950  1.00  0.00    -0.306 A  
HETATM   13  C   UNL     1     -11.652  11.858  66.857  1.00  0.00    -0.358 A  
BRANCH  10  14
HETATM   14  O   UNL     1     -11.483  13.378  70.770  1.00  0.00     0.201 OA 
BRANCH  14  15
HETATM   15  C   UNL     1     -12.709  13.451  71.451  1.00  0.00    -0.322 C  
HETATM   16  O   UNL     1     -13.459  12.503  71.635  1.00  0.00    -0.285 OA 
BRANCH  15  17
HETATM   17  C   UNL     1     -12.926  14.883  71.963  1.00  0.00    -0.414 C  
HETATM   18  C   UNL     1     -12.861  14.915  73.500  1.00  0.00    -0.594 C  
HETATM   19  C   UNL     1     -11.802  15.777  71.420  1.00  0.00    -0.503 C  
HETATM   20  C   UNL     1     -14.295  15.398  71.505  1.00  0.00    -0.572 C  
ENDBRANCH  15  17
ENDBRANCH  14  15
ENDBRANCH  10  14
BRANCH  11  21
HETATM   21  O   UNL     1     -11.422  10.621  70.371  1.00  0.00    -0.306 OA 
BRANCH  21  22
HETATM   22  C   UNL     1     -10.288   9.816  70.575  1.00  0.00    -0.283 C  
HETATM   23  O   UNL     1      -9.187  10.006  70.071  1.00  0.00    -0.208 OA 
BRANCH  22  24
HETATM   24  C   UNL     1     -10.606   8.630  71.501  1.00  0.00    -0.352 C  
HETATM   25  C   UNL     1     -11.967   8.867  72.187  1.00  0.00    -0.419 C  
HETATM   26  C   UNL     1     -10.700   7.327  70.697  1.00  0.00    -0.252 C  
HETATM   27  C   UNL     1      -9.521   8.525  72.577  1.00  0.00    -0.328 C  
ENDBRANCH  22  24
ENDBRANCH  21  22
ENDBRANCH  11  21
ENDBRANCH   5   8
ENDBRANCH   4   5
ENDBRANCH   2   4
TORSDOF 9
ENDMDL
MODEL       28
REMARK 921   NORMALIZED FREE ENERGY PREDICTED BY IDOCK:   -5.62 KCAL/MOL
REMARK 922        TOTAL FREE ENERGY PREDICTED BY IDOCK:   -9.86 KCAL/MOL
REMARK 923 INTER-LIGAND FREE ENERGY PREDICTED BY IDOCK:   -9.05 KCAL/MOL
REMARK 924 INTRA-LIGAND FREE ENERGY PREDICTED BY IDOCK:   -0.81 KCAL/MOL
REMARK 927      BINDING AFFINITY PREDICTED BY RF-SCORE:    0.00 PKD
ROOT
HETATM    1  C   UNL     1     -14.034   8.608  71.771  1.00  0.00    -0.434 C  
HETATM    2  N   UNL     1     -13.018   8.032  70.906  1.00  0.00    -0.503 NA 
HETATM    3  H   UNL     1     -13.179   8.274  69.928  1.00  0.00     0.000 HD 
ENDROOT
BRANCH   2   4
HETATM    4  C   UNL     1     -11.664   8.413  71.340  1.00  0.00    -0.287 C  
BRANCH   4   5
HETATM    5  C   UNL     1     -10.755   8.734  70.126  1.00  0.00    -0.224 C  
HETATM    6  H   UNL     1     -10.254   7.842  68.449  1.00  0.00     0.000 HD 
HETATM    7  O   UNL     1     -10.811   7.646  69.193  1.00  0.00    -0.180 OA 
BRANCH   5   8
HETATM    8  C   UNL     1     -11.140  10.034  69.441  1.00  0.00    -0.265 A  
HETATM    9  C   UNL     1     -11.521  11.168  70.174  1.00  0.00    -0.361 A  
HETATM   10  C   UNL     1     -11.858  12.368  69.528  1.00  0.00    -0.303 A  
HETATM   11  C   UNL     1     -11.794  12.453  68.130  1.00  0.00    -0.315 A  
HETATM   12  C   UNL     1     -11.443  11.319  67.393  1.00  0.00    -0.300 A  
HETATM   13  C   UNL     1     -11.105  10.127  68.043  1.00  0.00    -0.302 A  
BRANCH  10  14
HETATM   14  O   UNL     1     -12.101  13.546  70.271  1.00  0.00    -0.335 OA 
BRANCH  14  15
HETATM   15  C   UNL     1     -12.893  13.487  71.430  1.00  0.00    -0.355 C  
HETATM   16  O   UNL     1     -13.434  12.475  71.851  1.00  0.00    -0.433 OA 
BRANCH  15  17
HETATM   17  C   UNL     1     -12.926  14.871  72.098  1.00  0.00    -0.415 C  
HETATM   18  C   UNL     1     -14.366  15.411  72.130  1.00  0.00    -0.642 C  
HETATM   19  C   UNL     1     -12.437  14.731  73.546  1.00  0.00    -0.514 C  
HETATM   20  C   UNL     1     -12.039  15.847  71.319  1.00  0.00    -0.487 C  
ENDBRANCH  15  17
ENDBRANCH  14  15
ENDBRANCH  10  14
BRANCH  11  21
HETATM   21  O   UNL     1     -12.155  13.666  67.488  1.00  0.00    -0.369 OA 
BRANCH  21  22
HETATM   22  C   UNL     1     -11.184  14.467  66.861  1.00  0.00    -0.334 C  
HETATM   23  O   UNL     1     -10.329  15.125  67.443  1.00  0.00    -0.239 OA 
BRANCH  22  24
HETATM   24  C   UNL     1     -11.343  14.441  65.332  1.00  0.00    -0.339 C  
HETATM   25  C   UNL     1     -10.326  13.451  64.728  1.00  0.00    -0.397 C  
HETATM   26  C   UNL     1     -12.751  13.972  64.943  1.00  0.00    -0.303 C  
HETATM   27  C   UNL     1     -11.064  15.839  64.772  1.00  0.00    -0.413 C  
ENDBRANCH  22  24
ENDBRANCH  21  22
ENDBRANCH  11  21
ENDBRANCH   5   8
ENDBRANCH   4   5
ENDBRANCH   2   4
TORSDOF 9
ENDMDL
MODEL       29
REMARK 921   NORMALIZED FREE ENERGY PREDICTED BY IDOCK:   -5.62 KCAL/MOL
REMARK 922        TOTAL FREE ENERGY PREDICTED BY IDOCK:   -9.86 KCAL/MOL
REMARK 923 INTER-LIGAND FREE ENERGY PREDICTED BY IDOCK:   -8.65 KCAL/MOL
REMARK 924 INTRA-LIGAND FREE ENERGY PREDICTED BY IDOCK:   -1.21 KCAL/MOL
REMARK 927      BINDING AFFINITY PREDICTED BY RF-SCORE:    0.00 PKD
ROOT
HETATM    1  C   UNL     1     -12.535  16.265  73.861  1.00  0.00    -0.553 C  
HETATM    2  N   UNL     1     -13.850  16.180  73.245  1.00  0.00    -0.728 NA 
HETATM    3  H   UNL     1     -14.261  17.104  73.114  1.00  0.00     0.000 HD 
ENDROOT
BRANCH   2   4
HETATM    4  C   UNL     1     -13.804  15.425  71.983  1.00  0.00    -0.522 C  
BRANCH   4   5
HETATM    5  C   UNL     1     -13.240  13.996  72.203  1.00  0.00    -0.435 C  
HETATM    6  H   UNL     1     -13.927  12.287  72.884  1.00  0.00     0.000 HD 
HETATM    7  O   UNL     1     -14.271  13.162  72.749  1.00  0.00    -0.608 OA 
BRANCH   5   8
HETATM    8  C   UNL     1     -12.691  13.386  70.926  1.00  0.00    -0.349 A  
HETATM    9  C   UNL     1     -12.384  12.020  70.835  1.00  0.00    -0.384 A  
HETATM   10  C   UNL     1     -11.893  11.466  69.642  1.00  0.00    -0.362 A  
HETATM   11  C   UNL     1     -11.725  12.276  68.511  1.00  0.00    -0.331 A  
HETATM   12  C   UNL     1     -12.003  13.642  68.602  1.00  0.00    -0.395 A  
HETATM   13  C   UNL     1     -12.495  14.187  69.793  1.00  0.00    -0.266 A  
BRANCH  10  14
HETATM   14  O   UNL     1     -11.720  10.068  69.511  1.00  0.00    -0.131 OA 
BRANCH  14  15
HETATM   15  C   UNL     1     -10.720   9.418  70.252  1.00  0.00    -0.253 C  
HETATM   16  O   UNL     1      -9.545   9.754  70.279  1.00  0.00    -0.249 OA 
BRANCH  15  17
HETATM   17  C   UNL     1     -11.344   8.263  71.050  1.00  0.00    -0.299 C  
HETATM   18  C   UNL     1     -11.259   6.953  70.246  1.00  0.00    -0.363 C  
HETATM   19  C   UNL     1     -10.551   8.075  72.351  1.00  0.00    -0.373 C  
HETATM   20  C   UNL     1     -12.814   8.573  71.353  1.00  0.00    -0.277 C  
ENDBRANCH  15  17
ENDBRANCH  14  15
ENDBRANCH  10  14
BRANCH  11  21
HETATM   21  O   UNL     1     -11.211  11.708  67.316  1.00  0.00    -0.271 OA 
BRANCH  21  22
HETATM   22  C   UNL     1      -9.833  11.479  67.161  1.00  0.00    -0.191 C  
HETATM   23  O   UNL     1      -8.949  12.023  67.813  1.00  0.00    -0.163 OA 
BRANCH  22  24
HETATM   24  C   UNL     1      -9.560  10.467  66.036  1.00  0.00    -0.242 C  
HETATM   25  C   UNL     1     -10.121   9.089  66.439  1.00  0.00    -0.351 C  
HETATM   26  C   UNL     1     -10.254  10.902  64.739  1.00  0.00    -0.398 C  
HETATM   27  C   UNL     1      -8.048  10.344  65.825  1.00  0.00    -0.155 C  
ENDBRANCH  22  24
ENDBRANCH  21  22
ENDBRANCH  11  21
ENDBRANCH   5   8
ENDBRANCH   4   5
ENDBRANCH   2   4
TORSDOF 9
ENDMDL
MODEL       30
REMARK 921   NORMALIZED FREE ENERGY PREDICTED BY IDOCK:   -5.57 KCAL/MOL
REMARK 922        TOTAL FREE ENERGY PREDICTED BY IDOCK:   -9.79 KCAL/MOL
REMARK 923 INTER-LIGAND FREE ENERGY PREDICTED BY IDOCK:   -8.95 KCAL/MOL
REMARK 924 INTRA-LIGAND FREE ENERGY PREDICTED BY IDOCK:   -0.84 KCAL/MOL
REMARK 927      BINDING AFFINITY PREDICTED BY RF-SCORE:    0.00 PKD
ROOT
HETATM    1  C   UNL     1     -12.521  12.229  63.458  1.00  0.00    -0.534 C  
HETATM    2  N   UNL     1     -11.335  11.390  63.424  1.00  0.00    -0.801 NA 
HETATM    3  H   UNL     1     -11.120  11.084  62.475  1.00  0.00     0.000 HD 
ENDROOT
BRANCH   2   4
HETATM    4  C   UNL     1     -10.183  12.063  64.047  1.00  0.00    -0.365 C  
BRANCH   4   5
HETATM    5  C   UNL     1      -9.933  11.533  65.483  1.00  0.00    -0.242 C  
HETATM    6  H   UNL     1      -8.366  11.131  66.597  1.00  0.00     0.000 HD 
HETATM    7  O   UNL     1      -8.520  11.456  65.718  1.00  0.00    -0.089 OA 
BRANCH   5   8
HETATM    8  C   UNL     1     -10.595  12.395  66.543  1.00  0.00    -0.261 A  
HETATM    9  C   UNL     1     -10.332  13.769  66.644  1.00  0.00    -0.279 A  
HETATM   10  C   UNL     1     -10.964  14.558  67.619  1.00  0.00    -0.288 A  
HETATM   11  C   UNL     1     -11.893  13.978  68.494  1.00  0.00    -0.364 A  
HETATM   12  C   UNL     1     -12.138  12.606  68.417  1.00  0.00    -0.135 A  
HETATM   13  C   UNL     1     -11.507  11.826  67.442  1.00  0.00    -0.375 A  
BRANCH  10  14
HETATM   14  O   UNL     1     -10.806  15.964  67.626  1.00  0.00    -0.310 OA 
BRANCH  14  15
HETATM   15  C   UNL     1     -10.240  16.607  66.514  1.00  0.00    -0.310 C  
HETATM   16  O   UNL     1     -10.534  16.371  65.351  1.00  0.00    -0.515 OA 
BRANCH  15  17
HETATM   17  C   UNL     1      -9.242  17.673  66.992  1.00  0.00    -0.254 C  
HETATM   18  C   UNL     1      -9.872  19.073  66.894  1.00  0.00    -0.385 C  
HETATM   19  C   UNL     1      -8.902  17.406  68.465  1.00  0.00    -0.277 C  
HETATM   20  C   UNL     1      -7.977  17.628  66.128  1.00  0.00    -0.248 C  
ENDBRANCH  15  17
ENDBRANCH  14  15
ENDBRANCH  10  14
BRANCH  11  21
HETATM   21  O   UNL     1     -12.512  14.782  69.486  1.00  0.00    -0.220 OA 
BRANCH  21  22
HETATM   22  C   UNL     1     -11.989  14.850  70.790  1.00  0.00    -0.314 C  
HETATM   23  O   UNL     1     -10.838  15.162  71.073  1.00  0.00    -0.248 OA 
BRANCH  22  24
HETATM   24  C   UNL     1     -13.045  14.452  71.834  1.00  0.00    -0.433 C  
HETATM   25  C   UNL     1     -13.189  12.917  71.857  1.00  0.00    -0.521 C  
HETATM   26  C   UNL     1     -12.618  14.910  73.235  1.00  0.00    -0.586 C  
HETATM   27  C   UNL     1     -14.393  15.069  71.450  1.00  0.00    -0.594 C  
ENDBRANCH  22  24
ENDBRANCH  21  22
ENDBRANCH  11  21
ENDBRANCH   5   8
ENDBRANCH   4   5
ENDBRANCH   2   4
TORSDOF 9
ENDMDL
MODEL       31
REMARK 921   NORMALIZED FREE ENERGY PREDICTED BY IDOCK:   -5.57 KCAL/MOL
REMARK 922        TOTAL FREE ENERGY PREDICTED BY IDOCK:   -9.77 KCAL/MOL
REMARK 923 INTER-LIGAND FREE ENERGY PREDICTED BY IDOCK:   -8.57 KCAL/MOL
REMARK 924 INTRA-LIGAND FREE ENERGY PREDICTED BY IDOCK:   -1.21 KCAL/MOL
REMARK 927      BINDING AFFINITY PREDICTED BY RF-SCORE:    0.00 PKD
ROOT
HETATM    1  C   UNL     1      -7.913  20.302  67.148  1.00  0.00    -0.339 C  
HETATM    2  N   UNL     1      -7.020  19.197  66.837  1.00  0.00    -0.199 NA 
HETATM    3  H   UNL     1      -6.653  18.764  67.685  1.00  0.00     0.000 HD 
ENDROOT
BRANCH   2   4
HETATM    4  C   UNL     1      -7.675  18.208  65.965  1.00  0.00    -0.169 C  
BRANCH   4   5
HETATM    5  C   UNL     1      -7.584  16.781  66.568  1.00  0.00    -0.298 C  
HETATM    6  H   UNL     1      -6.398  15.838  67.818  1.00  0.00     0.000 HD 
HETATM    7  O   UNL     1      -6.454  16.712  67.448  1.00  0.00    -0.139 OA 
BRANCH   5   8
HETATM    8  C   UNL     1      -8.850  16.383  67.307  1.00  0.00    -0.203 A  
HETATM    9  C   UNL     1      -9.860  15.635  66.684  1.00  0.00    -0.258 A  
HETATM   10  C   UNL     1     -11.018  15.258  67.384  1.00  0.00    -0.321 A  
HETATM   11  C   UNL     1     -11.166  15.610  68.733  1.00  0.00    -0.332 A  
HETATM   12  C   UNL     1     -10.177  16.379  69.350  1.00  0.00    -0.273 A  
HETATM   13  C   UNL     1      -9.025  16.748  68.648  1.00  0.00    -0.251 A  
BRANCH  10  14
HETATM   14  O   UNL     1     -11.966  14.386  66.800  1.00  0.00    -0.411 OA 
BRANCH  14  15
HETATM   15  C   UNL     1     -12.045  14.280  65.402  1.00  0.00    -0.396 C  
HETATM   16  O   UNL     1     -12.376  15.189  64.654  1.00  0.00    -0.301 OA 
BRANCH  15  17
HETATM   17  C   UNL     1     -11.608  12.872  64.969  1.00  0.00    -0.367 C  
HETATM   18  C   UNL     1     -12.648  12.262  64.014  1.00  0.00    -0.521 C  
HETATM   19  C   UNL     1     -10.274  12.979  64.216  1.00  0.00    -0.316 C  
HETATM   20  C   UNL     1     -11.463  11.970  66.199  1.00  0.00    -0.401 C  
ENDBRANCH  15  17
ENDBRANCH  14  15
ENDBRANCH  10  14
BRANCH  11  21
HETATM   21  O   UNL     1     -12.349  15.239  69.424  1.00  0.00    -0.238 OA 
BRANCH  21  22
HETATM   22  C   UNL     1     -12.365  14.125  70.281  1.00  0.00    -0.356 C  
HETATM   23  O   UNL     1     -11.927  13.014  70.002  1.00  0.00    -0.330 OA 
BRANCH  22  24
HETATM   24  C   UNL     1     -13.034  14.463  71.623  1.00  0.00    -0.412 C  
HETATM   25  C   UNL     1     -13.466  13.158  72.323  1.00  0.00    -0.665 C  
HETATM   26  C   UNL     1     -12.052  15.195  72.547  1.00  0.00    -0.483 C  
HETATM   27  C   UNL     1     -14.276  15.321  71.366  1.00  0.00    -0.589 C  
ENDBRANCH  22  24
ENDBRANCH  21  22
ENDBRANCH  11  21
ENDBRANCH   5   8
ENDBRANCH   4   5
ENDBRANCH   2   4
TORSDOF 9
ENDMDL
MODEL       32
REMARK 921   NORMALIZED FREE ENERGY PREDICTED BY IDOCK:   -5.56 KCAL/MOL
REMARK 922        TOTAL FREE ENERGY PREDICTED BY IDOCK:   -9.77 KCAL/MOL
REMARK 923 INTER-LIGAND FREE ENERGY PREDICTED BY IDOCK:   -8.32 KCAL/MOL
REMARK 924 INTRA-LIGAND FREE ENERGY PREDICTED BY IDOCK:   -1.45 KCAL/MOL
REMARK 927      BINDING AFFINITY PREDICTED BY RF-SCORE:    0.00 PKD
ROOT
HETATM    1  C   UNL     1     -10.439  16.449  65.664  1.00  0.00    -0.347 C  
HETATM    2  N   UNL     1     -10.955  15.739  64.505  1.00  0.00    -0.820 NA 
HETATM    3  H   UNL     1     -10.436  15.976  63.660  1.00  0.00     0.000 HD 
ENDROOT
BRANCH   2   4
HETATM    4  C   UNL     1     -10.980  14.285  64.734  1.00  0.00    -0.398 C  
BRANCH   4   5
HETATM    5  C   UNL     1     -12.229  13.868  65.555  1.00  0.00    -0.444 C  
HETATM    6  H   UNL     1     -13.898  12.892  65.207  1.00  0.00     0.000 HD 
HETATM    7  O   UNL     1     -13.133  13.148  64.705  1.00  0.00    -0.699 OA 
BRANCH   5   8
HETATM    8  C   UNL     1     -11.870  13.030  66.769  1.00  0.00    -0.451 A  
HETATM    9  C   UNL     1     -11.493  11.684  66.650  1.00  0.00    -0.280 A  
HETATM   10  C   UNL     1     -11.147  10.925  67.780  1.00  0.00    -0.309 A  
HETATM   11  C   UNL     1     -11.154  11.518  69.050  1.00  0.00    -0.245 A  
HETATM   12  C   UNL     1     -11.555  12.850  69.179  1.00  0.00    -0.375 A  
HETATM   13  C   UNL     1     -11.895  13.601  68.048  1.00  0.00    -0.397 A  
BRANCH  10  14
HETATM   14  O   UNL     1     -10.632   9.615  67.642  1.00  0.00    -0.245 OA 
BRANCH  14  15
HETATM   15  C   UNL     1      -9.261   9.429  67.403  1.00  0.00    -0.126 C  
HETATM   16  O   UNL     1      -8.412  10.303  67.504  1.00  0.00    -0.118 OA 
BRANCH  15  17
HETATM   17  C   UNL     1      -8.999   7.957  67.046  1.00  0.00    -0.145 C  
HETATM   18  C   UNL     1      -8.196   7.862  65.737  1.00  0.00    -0.130 C  
HETATM   19  C   UNL     1      -8.163   7.319  68.164  1.00  0.00    -0.124 C  
HETATM   20  C   UNL     1     -10.330   7.217  66.876  1.00  0.00    -0.358 C  
ENDBRANCH  15  17
ENDBRANCH  14  15
ENDBRANCH  10  14
BRANCH  11  21
HETATM   21  O   UNL     1     -10.820  10.737  70.186  1.00  0.00    -0.234 OA 
BRANCH  21  22
HETATM   22  C   UNL     1     -11.760   9.866  70.764  1.00  0.00    -0.341 C  
HETATM   23  O   UNL     1     -12.963  10.084  70.853  1.00  0.00    -0.356 OA 
BRANCH  22  24
HETATM   24  C   UNL     1     -11.084   8.596  71.307  1.00  0.00    -0.336 C  
HETATM   25  C   UNL     1     -11.667   8.259  72.694  1.00  0.00    -0.406 C  
HETATM   26  C   UNL     1     -11.347   7.405  70.378  1.00  0.00    -0.273 C  
HETATM   27  C   UNL     1      -9.580   8.848  71.450  1.00  0.00    -0.359 C  
ENDBRANCH  22  24
ENDBRANCH  21  22
ENDBRANCH  11  21
ENDBRANCH   5   8
ENDBRANCH   4   5
ENDBRANCH   2   4
TORSDOF 9
ENDMDL
MODEL       33
REMARK 921   NORMALIZED FREE ENERGY PREDICTED BY IDOCK:   -5.51 KCAL/MOL
REMARK 922        TOTAL FREE ENERGY PREDICTED BY IDOCK:   -9.69 KCAL/MOL
REMARK 923 INTER-LIGAND FREE ENERGY PREDICTED BY IDOCK:   -8.18 KCAL/MOL
REMARK 924 INTRA-LIGAND FREE ENERGY PREDICTED BY IDOCK:   -1.51 KCAL/MOL
REMARK 927      BINDING AFFINITY PREDICTED BY RF-SCORE:    0.00 PKD
ROOT
HETATM    1  C   UNL     1     -10.274  11.804  63.348  1.00  0.00    -0.449 C  
HETATM    2  N   UNL     1     -11.058  13.020  63.488  1.00  0.00    -0.569 NA 
HETATM    3  H   UNL     1     -12.059  12.828  63.434  1.00  0.00     0.000 HD 
ENDROOT
BRANCH   2   4
HETATM    4  C   UNL     1     -10.713  13.741  64.724  1.00  0.00    -0.416 C  
BRANCH   4   5
HETATM    5  C   UNL     1     -11.931  13.829  65.681  1.00  0.00    -0.388 C  
HETATM    6  H   UNL     1     -13.853  13.439  65.576  1.00  0.00     0.000 HD 
HETATM    7  O   UNL     1     -13.107  13.385  64.990  1.00  0.00    -0.734 OA 
BRANCH   5   8
HETATM    8  C   UNL     1     -11.730  13.020  66.950  1.00  0.00    -0.441 A  
HETATM    9  C   UNL     1     -11.375  11.663  66.910  1.00  0.00    -0.364 A  
HETATM   10  C   UNL     1     -11.176  10.931  68.092  1.00  0.00    -0.301 A  
HETATM   11  C   UNL     1     -11.309  11.562  69.337  1.00  0.00    -0.289 A  
HETATM   12  C   UNL     1     -11.690  12.905  69.384  1.00  0.00    -0.382 A  
HETATM   13  C   UNL     1     -11.884  13.629  68.202  1.00  0.00    -0.407 A  
BRANCH  10  14
HETATM   14  O   UNL     1     -10.680   9.607  68.048  1.00  0.00    -0.240 OA 
BRANCH  14  15
HETATM   15  C   UNL     1      -9.325   9.381  67.757  1.00  0.00    -0.128 C  
HETATM   16  O   UNL     1      -8.394   9.983  68.272  1.00  0.00    -0.108 OA 
BRANCH  15  17
HETATM   17  C   UNL     1      -9.204   8.238  66.738  1.00  0.00    -0.212 C  
HETATM   18  C   UNL     1      -7.967   7.377  67.047  1.00  0.00    -0.116 C  
HETATM   19  C   UNL     1     -10.447   7.343  66.850  1.00  0.00    -0.379 C  
HETATM   20  C   UNL     1      -9.078   8.812  65.323  1.00  0.00    -0.156 C  
ENDBRANCH  15  17
ENDBRANCH  14  15
ENDBRANCH  10  14
BRANCH  11  21
HETATM   21  O   UNL     1     -11.123  10.807  70.524  1.00  0.00    -0.233 OA 
BRANCH  21  22
HETATM   22  C   UNL     1     -12.020   9.784  70.877  1.00  0.00    -0.328 C  
HETATM   23  O   UNL     1     -13.242   9.868  70.823  1.00  0.00    -0.308 OA 
BRANCH  22  24
HETATM   24  C   UNL     1     -11.274   8.535  71.373  1.00  0.00    -0.327 C  
HETATM   25  C   UNL     1     -11.474   7.385  70.365  1.00  0.00    -0.250 C  
HETATM   26  C   UNL     1      -9.769   8.813  71.484  1.00  0.00    -0.361 C  
HETATM   27  C   UNL     1     -11.847   8.110  72.728  1.00  0.00    -0.296 C  
ENDBRANCH  22  24
ENDBRANCH  21  22
ENDBRANCH  11  21
ENDBRANCH   5   8
ENDBRANCH   4   5
ENDBRANCH   2   4
TORSDOF 9
ENDMDL
MODEL       34
REMARK 921   NORMALIZED FREE ENERGY PREDICTED BY IDOCK:   -5.51 KCAL/MOL
REMARK 922        TOTAL FREE ENERGY PREDICTED BY IDOCK:   -9.68 KCAL/MOL
REMARK 923 INTER-LIGAND FREE ENERGY PREDICTED BY IDOCK:   -8.51 KCAL/MOL
REMARK 924 INTRA-LIGAND FREE ENERGY PREDICTED BY IDOCK:   -1.17 KCAL/MOL
REMARK 927      BINDING AFFINITY PREDICTED BY RF-SCORE:    0.00 PKD
ROOT
HETATM    1  C   UNL     1     -11.297   6.359  72.367  1.00  0.00    -0.287 C  
HETATM    2  N   UNL     1     -11.531   7.664  72.964  1.00  0.00    -0.609 NA 
HETATM    3  H   UNL     1     -11.029   7.767  73.847  1.00  0.00     0.000 HD 
ENDROOT
BRANCH   2   4
HETATM    4  C   UNL     1     -11.202   8.749  72.026  1.00  0.00    -0.373 C  
BRANCH   4   5
HETATM    5  C   UNL     1     -12.482   9.342  71.382  1.00  0.00    -0.341 C  
HETATM    6  H   UNL     1     -14.309   9.757  71.971  1.00  0.00     0.000 HD 
HETATM    7  O   UNL     1     -13.525   9.394  72.365  1.00  0.00    -0.457 OA 
BRANCH   5   8
HETATM    8  C   UNL     1     -12.248  10.721  70.791  1.00  0.00    -0.480 A  
HETATM    9  C   UNL     1     -11.452  10.909  69.652  1.00  0.00    -0.377 A  
HETATM   10  C   UNL     1     -11.258  12.188  69.105  1.00  0.00    -0.244 A  
HETATM   11  C   UNL     1     -11.885  13.299  69.686  1.00  0.00    -0.327 A  
HETATM   12  C   UNL     1     -12.656  13.123  70.837  1.00  0.00    -0.377 A  
HETATM   13  C   UNL     1     -12.847  11.845  71.374  1.00  0.00    -0.411 A  
BRANCH  10  14
HETATM   14  O   UNL     1     -10.575  12.355  67.878  1.00  0.00    -0.204 OA 
BRANCH  14  15
HETATM   15  C   UNL     1     -11.163  11.902  66.687  1.00  0.00    -0.328 C  
HETATM   16  O   UNL     1     -12.276  12.224  66.295  1.00  0.00    -0.628 OA 
BRANCH  15  17
HETATM   17  C   UNL     1     -10.176  10.990  65.943  1.00  0.00    -0.309 C  
HETATM   18  C   UNL     1      -8.728  11.375  66.293  1.00  0.00    -0.173 C  
HETATM   19  C   UNL     1     -10.406   9.541  66.395  1.00  0.00    -0.243 C  
HETATM   20  C   UNL     1     -10.381  11.123  64.430  1.00  0.00    -0.407 C  
ENDBRANCH  15  17
ENDBRANCH  14  15
ENDBRANCH  10  14
BRANCH  11  21
HETATM   21  O   UNL     1     -11.667  14.589  69.136  1.00  0.00    -0.280 OA 
BRANCH  21  22
HETATM   22  C   UNL     1     -10.808  15.507  69.767  1.00  0.00    -0.296 C  
HETATM   23  O   UNL     1     -10.726  15.679  70.978  1.00  0.00    -0.234 OA 
BRANCH  22  24
HETATM   24  C   UNL     1      -9.991  16.303  68.736  1.00  0.00    -0.237 C  
HETATM   25  C   UNL     1     -10.264  17.810  68.920  1.00  0.00    -0.345 C  
HETATM   26  C   UNL     1      -8.489  16.065  68.938  1.00  0.00    -0.232 C  
HETATM   27  C   UNL     1     -10.420  15.891  67.325  1.00  0.00    -0.310 C  
ENDBRANCH  22  24
ENDBRANCH  21  22
ENDBRANCH  11  21
ENDBRANCH   5   8
ENDBRANCH   4   5
ENDBRANCH   2   4
TORSDOF 9
ENDMDL
MODEL       35
REMARK 921   NORMALIZED FREE ENERGY PREDICTED BY IDOCK:   -5.47 KCAL/MOL
REMARK 922        TOTAL FREE ENERGY PREDICTED BY IDOCK:   -9.62 KCAL/MOL
REMARK 923 INTER-LIGAND FREE ENERGY PREDICTED BY IDOCK:   -9.02 KCAL/MOL
REMARK 924 INTRA-LIGAND FREE ENERGY PREDICTED BY IDOCK:   -0.60 KCAL/MOL
REMARK 927      BINDING AFFINITY PREDICTED BY RF-SCORE:    0.00 PKD
ROOT
HETATM    1  C   UNL     1     -12.542  16.052  74.485  1.00  0.00    -0.437 C  
HETATM    2  N   UNL     1     -13.452  15.382  73.570  1.00  0.00    -0.634 NA 
HETATM    3  H   UNL     1     -14.024  16.052  73.055  1.00  0.00     0.000 HD 
ENDROOT
BRANCH   2   4
HETATM    4  C   UNL     1     -12.729  14.478  72.661  1.00  0.00    -0.357 C  
BRANCH   4   5
HETATM    5  C   UNL     1     -12.208  15.237  71.413  1.00  0.00    -0.352 C  
HETATM    6  H   UNL     1     -10.616  16.291  70.951  1.00  0.00     0.000 HD 
HETATM    7  O   UNL     1     -10.935  15.826  71.716  1.00  0.00    -0.119 OA 
BRANCH   5   8
HETATM    8  C   UNL     1     -12.093  14.338  70.194  1.00  0.00    -0.403 A  
HETATM    9  C   UNL     1     -12.122  12.940  70.305  1.00  0.00    -0.377 A  
HETATM   10  C   UNL     1     -12.033  12.121  69.168  1.00  0.00    -0.255 A  
HETATM   11  C   UNL     1     -11.936  12.699  67.894  1.00  0.00    -0.249 A  
HETATM   12  C   UNL     1     -11.879  14.090  67.779  1.00  0.00    -0.419 A  
HETATM   13  C   UNL     1     -11.971  14.900  68.916  1.00  0.00    -0.295 A  
BRANCH  10  14
HETATM   14  O   UNL     1     -12.206  10.721  69.269  1.00  0.00    -0.334 OA 
BRANCH  14  15
HETATM   15  C   UNL     1     -11.894  10.066  70.471  1.00  0.00    -0.303 C  
HETATM   16  O   UNL     1     -12.457  10.266  71.537  1.00  0.00    -0.376 OA 
BRANCH  15  17
HETATM   17  C   UNL     1     -10.780   9.037  70.219  1.00  0.00    -0.262 C  
HETATM   18  C   UNL     1     -11.258   7.629  70.613  1.00  0.00    -0.280 C  
HETATM   19  C   UNL     1     -10.448   9.026  68.720  1.00  0.00    -0.230 C  
HETATM   20  C   UNL     1      -9.541   9.398  71.045  1.00  0.00    -0.272 C  
ENDBRANCH  15  17
ENDBRANCH  14  15
ENDBRANCH  10  14
BRANCH  11  21
HETATM   21  O   UNL     1     -11.829  11.861  66.754  1.00  0.00    -0.598 OA 
BRANCH  21  22
HETATM   22  C   UNL     1     -11.978  12.384  65.458  1.00  0.00    -0.391 C  
HETATM   23  O   UNL     1     -13.040  12.735  64.956  1.00  0.00    -0.811 OA 
BRANCH  22  24
HETATM   24  C   UNL     1     -10.630  12.437  64.720  1.00  0.00    -0.331 C  
HETATM   25  C   UNL     1      -9.582  11.627  65.510  1.00  0.00    -0.241 C  
HETATM   26  C   UNL     1     -10.754  11.817  63.322  1.00  0.00    -0.414 C  
HETATM   27  C   UNL     1     -10.162  13.892  64.627  1.00  0.00    -0.278 C  
ENDBRANCH  22  24
ENDBRANCH  21  22
ENDBRANCH  11  21
ENDBRANCH   5   8
ENDBRANCH   4   5
ENDBRANCH   2   4
TORSDOF 9
ENDMDL
MODEL       36
REMARK 921   NORMALIZED FREE ENERGY PREDICTED BY IDOCK:   -5.46 KCAL/MOL
REMARK 922        TOTAL FREE ENERGY PREDICTED BY IDOCK:   -9.61 KCAL/MOL
REMARK 923 INTER-LIGAND FREE ENERGY PREDICTED BY IDOCK:   -8.88 KCAL/MOL
REMARK 924 INTRA-LIGAND FREE ENERGY PREDICTED BY IDOCK:   -0.74 KCAL/MOL
REMARK 927      BINDING AFFINITY PREDICTED BY RF-SCORE:    0.00 PKD
ROOT
HETATM    1  C   UNL     1      -9.449  11.462  62.834  1.00  0.00    -0.345 C  
HETATM    2  N   UNL     1     -10.818  11.171  63.229  1.00  0.00    -0.787 NA 
HETATM    3  H   UNL     1     -11.253  10.496  62.600  1.00  0.00     0.000 HD 
ENDROOT
BRANCH   2   4
HETATM    4  C   UNL     1     -10.888  10.727  64.631  1.00  0.00     0.043 C  
BRANCH   4   5
HETATM    5  C   UNL     1     -11.368  11.874  65.559  1.00  0.00    -0.277 C  
HETATM    6  H   UNL     1     -12.983  12.977  65.739  1.00  0.00     0.000 HD 
HETATM    7  O   UNL     1     -12.689  12.275  65.170  1.00  0.00    -0.571 OA 
BRANCH   5   8
HETATM    8  C   UNL     1     -11.349  11.479  67.025  1.00  0.00    -0.340 A  
HETATM    9  C   UNL     1     -11.899  12.304  68.017  1.00  0.00    -0.368 A  
HETATM   10  C   UNL     1     -11.890  11.918  69.368  1.00  0.00    -0.327 A  
HETATM   11  C   UNL     1     -11.346  10.681  69.738  1.00  0.00    -0.301 A  
HETATM   12  C   UNL     1     -10.771   9.867  68.760  1.00  0.00    -0.247 A  
HETATM   13  C   UNL     1     -10.786  10.256  67.415  1.00  0.00    -0.336 A  
BRANCH  10  14
HETATM   14  O   UNL     1     -12.571  12.683  70.343  1.00  0.00    -0.172 OA 
BRANCH  14  15
HETATM   15  C   UNL     1     -12.120  13.976  70.653  1.00  0.00    -0.354 C  
HETATM   16  O   UNL     1     -11.312  14.608  69.989  1.00  0.00    -0.255 OA 
BRANCH  15  17
HETATM   17  C   UNL     1     -12.835  14.478  71.917  1.00  0.00    -0.410 C  
HETATM   18  C   UNL     1     -13.841  15.585  71.556  1.00  0.00    -0.539 C  
HETATM   19  C   UNL     1     -13.614  13.311  72.540  1.00  0.00    -0.637 C  
HETATM   20  C   UNL     1     -11.809  15.034  72.910  1.00  0.00    -0.370 C  
ENDBRANCH  15  17
ENDBRANCH  14  15
ENDBRANCH  10  14
BRANCH  11  21
HETATM   21  O   UNL     1     -11.326  10.310  71.108  1.00  0.00    -0.314 OA 
BRANCH  21  22
HETATM   22  C   UNL     1     -10.477   9.288  71.567  1.00  0.00    -0.315 C  
HETATM   23  O   UNL     1      -9.253   9.302  71.494  1.00  0.00    -0.305 OA 
BRANCH  22  24
HETATM   24  C   UNL     1     -11.281   8.119  72.157  1.00  0.00    -0.393 C  
HETATM   25  C   UNL     1     -10.642   7.679  73.491  1.00  0.00    -0.250 C  
HETATM   26  C   UNL     1     -12.727   8.546  72.441  1.00  0.00    -0.394 C  
HETATM   27  C   UNL     1     -11.247   6.939  71.181  1.00  0.00    -0.314 C  
ENDBRANCH  22  24
ENDBRANCH  21  22
ENDBRANCH  11  21
ENDBRANCH   5   8
ENDBRANCH   4   5
ENDBRANCH   2   4
TORSDOF 9
ENDMDL
MODEL       37
REMARK 921   NORMALIZED FREE ENERGY PREDICTED BY IDOCK:   -5.36 KCAL/MOL
REMARK 922        TOTAL FREE ENERGY PREDICTED BY IDOCK:   -9.46 KCAL/MOL
REMARK 923 INTER-LIGAND FREE ENERGY PREDICTED BY IDOCK:   -7.96 KCAL/MOL
REMARK 924 INTRA-LIGAND FREE ENERGY PREDICTED BY IDOCK:   -1.50 KCAL/MOL
REMARK 927      BINDING AFFINITY PREDICTED BY RF-SCORE:    0.00 PKD
ROOT
HETATM    1  C   UNL     1     -14.407  15.363  72.013  1.00  0.00    -0.550 C  
HETATM    2  N   UNL     1     -13.689  15.446  70.751  1.00  0.00    -0.845 NA 
HETATM    3  H   UNL     1     -13.303  16.379  70.602  1.00  0.00     0.000 HD 
ENDROOT
BRANCH   2   4
HETATM    4  C   UNL     1     -12.648  14.410  70.657  1.00  0.00    -0.357 C  
BRANCH   4   5
HETATM    5  C   UNL     1     -11.933  14.456  69.281  1.00  0.00    -0.324 C  
HETATM    6  H   UNL     1     -10.301  15.271  68.553  1.00  0.00     0.000 HD 
HETATM    7  O   UNL     1     -10.739  15.242  69.395  1.00  0.00    -0.239 OA 
BRANCH   5   8
HETATM    8  C   UNL     1     -11.602  13.071  68.753  1.00  0.00    -0.350 A  
HETATM    9  C   UNL     1     -11.769  11.923  69.542  1.00  0.00    -0.410 A  
HETATM   10  C   UNL     1     -11.475  10.647  69.036  1.00  0.00    -0.274 A  
HETATM   11  C   UNL     1     -11.029  10.504  67.714  1.00  0.00    -0.313 A  
HETATM   12  C   UNL     1     -10.834  11.645  66.933  1.00  0.00    -0.322 A  
HETATM   13  C   UNL     1     -11.131  12.913  67.443  1.00  0.00    -0.307 A  
BRANCH  10  14
HETATM   14  O   UNL     1     -11.780   9.484  69.781  1.00  0.00    -0.022 OA 
BRANCH  14  15
HETATM   15  C   UNL     1     -10.909   9.062  70.798  1.00  0.00    -0.251 C  
HETATM   16  O   UNL     1      -9.742   9.411  70.903  1.00  0.00    -0.272 OA 
BRANCH  15  17
HETATM   17  C   UNL     1     -11.665   8.144  71.771  1.00  0.00    -0.343 C  
HETATM   18  C   UNL     1     -12.115   6.861  71.050  1.00  0.00    -0.429 C  
HETATM   19  C   UNL     1     -10.716   7.742  72.909  1.00  0.00    -0.446 C  
HETATM   20  C   UNL     1     -12.895   8.870  72.324  1.00  0.00    -0.475 C  
ENDBRANCH  15  17
ENDBRANCH  14  15
ENDBRANCH  10  14
BRANCH  11  21
HETATM   21  O   UNL     1     -10.718   9.211  67.220  1.00  0.00    -0.262 OA 
BRANCH  21  22
HETATM   22  C   UNL     1      -9.474   8.614  67.490  1.00  0.00    -0.149 C  
HETATM   23  O   UNL     1      -8.428   9.223  67.690  1.00  0.00    -0.116 OA 
BRANCH  22  24
HETATM   24  C   UNL     1      -9.577   7.081  67.477  1.00  0.00    -0.155 C  
HETATM   25  C   UNL     1     -11.036   6.668  67.197  1.00  0.00    -0.478 C  
HETATM   26  C   UNL     1      -8.694   6.489  66.371  1.00  0.00    -0.142 C  
HETATM   27  C   UNL     1      -9.163   6.536  68.848  1.00  0.00    -0.129 C  
ENDBRANCH  22  24
ENDBRANCH  21  22
ENDBRANCH  11  21
ENDBRANCH   5   8
ENDBRANCH   4   5
ENDBRANCH   2   4
TORSDOF 9
ENDMDL
MODEL       38
REMARK 921   NORMALIZED FREE ENERGY PREDICTED BY IDOCK:   -5.35 KCAL/MOL
REMARK 922        TOTAL FREE ENERGY PREDICTED BY IDOCK:   -9.45 KCAL/MOL
REMARK 923 INTER-LIGAND FREE ENERGY PREDICTED BY IDOCK:   -8.27 KCAL/MOL
REMARK 924 INTRA-LIGAND FREE ENERGY PREDICTED BY IDOCK:   -1.18 KCAL/MOL
REMARK 927      BINDING AFFINITY PREDICTED BY RF-SCORE:    0.00 PKD
ROOT
HETATM    1  C   UNL     1     -10.582   5.131  66.495  1.00  0.00    -0.260 C  
HETATM    2  N   UNL     1     -11.016   6.492  66.770  1.00  0.00    -0.624 NA 
HETATM    3  H   UNL     1     -11.982   6.642  66.477  1.00  0.00     0.000 HD 
ENDROOT
BRANCH   2   4
HETATM    4  C   UNL     1     -10.821   6.841  68.187  1.00  0.00    -0.228 C  
BRANCH   4   5
HETATM    5  C   UNL     1      -9.838   8.031  68.341  1.00  0.00    -0.171 C  
HETATM    6  H   UNL     1      -8.500   8.925  67.215  1.00  0.00     0.000 HD 
HETATM    7  O   UNL     1      -9.102   8.197  67.121  1.00  0.00    -0.134 OA 
BRANCH   5   8
HETATM    8  C   UNL     1     -10.546   9.324  68.707  1.00  0.00    -0.220 A  
HETATM    9  C   UNL     1     -10.791  10.324  67.755  1.00  0.00    -0.346 A  
HETATM   10  C   UNL     1     -11.462  11.507  68.103  1.00  0.00    -0.315 A  
HETATM   11  C   UNL     1     -11.919  11.692  69.416  1.00  0.00    -0.316 A  
HETATM   12  C   UNL     1     -11.653  10.713  70.375  1.00  0.00    -0.441 A  
HETATM   13  C   UNL     1     -10.987   9.534  70.020  1.00  0.00    -0.284 A  
BRANCH  10  14
HETATM   14  O   UNL     1     -11.833  12.448  67.114  1.00  0.00    -0.470 OA 
BRANCH  14  15
HETATM   15  C   UNL     1     -10.846  13.229  66.491  1.00  0.00    -0.281 C  
HETATM   16  O   UNL     1      -9.722  13.412  66.936  1.00  0.00    -0.238 OA 
BRANCH  15  17
HETATM   17  C   UNL     1     -11.385  13.765  65.156  1.00  0.00    -0.317 C  
HETATM   18  C   UNL     1     -12.914  13.922  65.224  1.00  0.00    -0.341 C  
HETATM   19  C   UNL     1     -10.775  15.150  64.899  1.00  0.00    -0.421 C  
HETATM   20  C   UNL     1     -11.027  12.798  64.023  1.00  0.00    -0.454 C  
ENDBRANCH  15  17
ENDBRANCH  14  15
ENDBRANCH  10  14
BRANCH  11  21
HETATM   21  O   UNL     1     -12.579  12.900  69.760  1.00  0.00     0.011 OA 
BRANCH  21  22
HETATM   22  C   UNL     1     -11.890  13.941  70.407  1.00  0.00    -0.265 C  
HETATM   23  O   UNL     1     -10.808  14.397  70.055  1.00  0.00    -0.087 OA 
BRANCH  22  24
HETATM   24  C   UNL     1     -12.655  14.428  71.649  1.00  0.00    -0.429 C  
HETATM   25  C   UNL     1     -13.310  13.222  72.353  1.00  0.00    -0.616 C  
HETATM   26  C   UNL     1     -11.699  15.098  72.644  1.00  0.00    -0.465 C  
HETATM   27  C   UNL     1     -13.753  15.403  71.214  1.00  0.00    -0.558 C  
ENDBRANCH  22  24
ENDBRANCH  21  22
ENDBRANCH  11  21
ENDBRANCH   5   8
ENDBRANCH   4   5
ENDBRANCH   2   4
TORSDOF 9
ENDMDL
MODEL       39
REMARK 921   NORMALIZED FREE ENERGY PREDICTED BY IDOCK:   -5.33 KCAL/MOL
REMARK 922        TOTAL FREE ENERGY PREDICTED BY IDOCK:   -9.41 KCAL/MOL
REMARK 923 INTER-LIGAND FREE ENERGY PREDICTED BY IDOCK:   -7.96 KCAL/MOL
REMARK 924 INTRA-LIGAND FREE ENERGY PREDICTED BY IDOCK:   -1.45 KCAL/MOL
REMARK 927      BINDING AFFINITY PREDICTED BY RF-SCORE:    0.00 PKD
ROOT
HETATM    1  C   UNL     1     -12.114  12.549  63.499  1.00  0.00    -0.562 C  
HETATM    2  N   UNL     1     -12.945  12.535  64.693  1.00  0.00    -0.844 NA 
HETATM    3  H   UNL     1     -12.882  11.641  65.181  1.00  0.00     0.000 HD 
ENDROOT
BRANCH   2   4
HETATM    4  C   UNL     1     -12.622  13.661  65.584  1.00  0.00    -0.484 C  
BRANCH   4   5
HETATM    5  C   UNL     1     -11.211  13.498  66.206  1.00  0.00    -0.297 C  
HETATM    6  H   UNL     1     -10.026  14.574  67.345  1.00  0.00     0.000 HD 
HETATM    7  O   UNL     1     -10.890  14.673  66.964  1.00  0.00    -0.292 OA 
BRANCH   5   8
HETATM    8  C   UNL     1     -11.103  12.262  67.082  1.00  0.00    -0.330 A  
HETATM    9  C   UNL     1     -10.203  11.227  66.787  1.00  0.00    -0.263 A  
HETATM   10  C   UNL     1     -10.101  10.098  67.615  1.00  0.00    -0.190 A  
HETATM   11  C   UNL     1     -10.889  10.004  68.770  1.00  0.00    -0.219 A  
HETATM   12  C   UNL     1     -11.807  11.017  69.055  1.00  0.00    -0.399 A  
HETATM   13  C   UNL     1     -11.901  12.141  68.227  1.00  0.00    -0.361 A  
BRANCH  10  14
HETATM   14  O   UNL     1      -9.096   9.127  67.395  1.00  0.00    -0.126 OA 
BRANCH  14  15
HETATM   15  C   UNL     1      -9.181   8.277  66.281  1.00  0.00    -0.203 C  
HETATM   16  O   UNL     1      -9.007   8.630  65.123  1.00  0.00    -0.164 OA 
BRANCH  15  17
HETATM   17  C   UNL     1      -9.476   6.845  66.751  1.00  0.00    -0.204 C  
HETATM   18  C   UNL     1      -8.913   5.827  65.743  1.00  0.00    -0.144 C  
HETATM   19  C   UNL     1      -8.779   6.614  68.100  1.00  0.00    -0.117 C  
HETATM   20  C   UNL     1     -10.989   6.640  66.883  1.00  0.00    -0.396 C  
ENDBRANCH  15  17
ENDBRANCH  14  15
ENDBRANCH  10  14
BRANCH  11  21
HETATM   21  O   UNL     1     -10.790   8.849  69.590  1.00  0.00    -0.233 OA 
BRANCH  21  22
HETATM   22  C   UNL     1     -10.495   8.960  70.960  1.00  0.00    -0.248 C  
HETATM   23  O   UNL     1      -9.542   9.572  71.429  1.00  0.00    -0.217 OA 
BRANCH  22  24
HETATM   24  C   UNL     1     -11.512   8.185  71.813  1.00  0.00    -0.337 C  
HETATM   25  C   UNL     1     -10.830   7.700  73.109  1.00  0.00    -0.440 C  
HETATM   26  C   UNL     1     -12.689   9.088  72.205  1.00  0.00    -0.470 C  
HETATM   27  C   UNL     1     -12.005   6.966  71.028  1.00  0.00    -0.422 C  
ENDBRANCH  22  24
ENDBRANCH  21  22
ENDBRANCH  11  21
ENDBRANCH   5   8
ENDBRANCH   4   5
ENDBRANCH   2   4
TORSDOF 9
ENDMDL
MODEL       40
REMARK 921   NORMALIZED FREE ENERGY PREDICTED BY IDOCK:   -5.33 KCAL/MOL
REMARK 922        TOTAL FREE ENERGY PREDICTED BY IDOCK:   -9.41 KCAL/MOL
REMARK 923 INTER-LIGAND FREE ENERGY PREDICTED BY IDOCK:   -8.26 KCAL/MOL
REMARK 924 INTRA-LIGAND FREE ENERGY PREDICTED BY IDOCK:   -1.15 KCAL/MOL
REMARK 927      BINDING AFFINITY PREDICTED BY RF-SCORE:    0.00 PKD
ROOT
HETATM    1  C   UNL     1     -13.864  16.020  73.068  1.00  0.00    -0.318 C  
HETATM    2  N   UNL     1     -12.452  15.820  73.348  1.00  0.00    -0.466 NA 
HETATM    3  H   UNL     1     -12.307  15.069  74.023  1.00  0.00     0.000 HD 
ENDROOT
BRANCH   2   4
HETATM    4  C   UNL     1     -11.687  15.589  72.112  1.00  0.00    -0.476 C  
BRANCH   4   5
HETATM    5  C   UNL     1     -12.595  15.025  70.988  1.00  0.00    -0.350 C  
HETATM    6  H   UNL     1     -12.775  15.272  69.047  1.00  0.00     0.000 HD 
HETATM    7  O   UNL     1     -12.219  15.617  69.736  1.00  0.00    -0.360 OA 
BRANCH   5   8
HETATM    8  C   UNL     1     -12.530  13.511  70.894  1.00  0.00    -0.448 A  
HETATM    9  C   UNL     1     -11.833  12.867  69.861  1.00  0.00    -0.373 A  
HETATM   10  C   UNL     1     -11.766  11.466  69.796  1.00  0.00    -0.344 A  
HETATM   11  C   UNL     1     -12.382  10.689  70.787  1.00  0.00    -0.376 A  
HETATM   12  C   UNL     1     -13.101  11.324  71.803  1.00  0.00    -0.527 A  
HETATM   13  C   UNL     1     -13.161  12.720  71.863  1.00  0.00    -0.474 A  
BRANCH  10  14
HETATM   14  O   UNL     1     -10.947  10.824  68.839  1.00  0.00    -0.206 OA 
BRANCH  14  15
HETATM   15  C   UNL     1     -11.052  11.177  67.484  1.00  0.00    -0.291 C  
HETATM   16  O   UNL     1     -12.030  11.707  66.978  1.00  0.00    -0.593 OA 
BRANCH  15  17
HETATM   17  C   UNL     1      -9.737  10.839  66.764  1.00  0.00    -0.221 C  
HETATM   18  C   UNL     1      -8.586  10.732  67.779  1.00  0.00    -0.127 C  
HETATM   19  C   UNL     1      -9.889   9.477  66.071  1.00  0.00    -0.353 C  
HETATM   20  C   UNL     1      -9.407  11.931  65.741  1.00  0.00    -0.165 C  
ENDBRANCH  15  17
ENDBRANCH  14  15
ENDBRANCH  10  14
BRANCH  11  21
HETATM   21  O   UNL     1     -12.323   9.274  70.701  1.00  0.00    -0.158 OA 
BRANCH  21  22
HETATM   22  C   UNL     1     -11.588   8.524  71.637  1.00  0.00    -0.299 C  
HETATM   23  O   UNL     1     -11.903   8.355  72.809  1.00  0.00    -0.371 OA 
BRANCH  22  24
HETATM   24  C   UNL     1     -10.305   7.954  71.010  1.00  0.00    -0.221 C  
HETATM   25  C   UNL     1     -10.582   7.562  69.544  1.00  0.00    -0.239 C  
HETATM   26  C   UNL     1      -9.187   9.005  71.018  1.00  0.00    -0.331 C  
HETATM   27  C   UNL     1      -9.878   6.703  71.784  1.00  0.00    -0.171 C  
ENDBRANCH  22  24
ENDBRANCH  21  22
ENDBRANCH  11  21
ENDBRANCH   5   8
ENDBRANCH   4   5
ENDBRANCH   2   4
TORSDOF 9
ENDMDL
MODEL       41
REMARK 921   NORMALIZED FREE ENERGY PREDICTED BY IDOCK:   -5.32 KCAL/MOL
REMARK 922        TOTAL FREE ENERGY PREDICTED BY IDOCK:   -9.40 KCAL/MOL
REMARK 923 INTER-LIGAND FREE ENERGY PREDICTED BY IDOCK:   -9.07 KCAL/MOL
REMARK 924 INTRA-LIGAND FREE ENERGY PREDICTED BY IDOCK:   -0.34 KCAL/MOL
REMARK 927      BINDING AFFINITY PREDICTED BY RF-SCORE:    0.00 PKD
ROOT
HETATM    1  C   UNL     1     -10.459   6.635  73.477  1.00  0.00    -0.313 C  
HETATM    2  N   UNL     1     -11.613   5.816  73.145  1.00  0.00    -0.503 NA 
HETATM    3  H   UNL     1     -12.306   5.826  73.893  1.00  0.00     0.000 HD 
ENDROOT
BRANCH   2   4
HETATM    4  C   UNL     1     -12.202   6.217  71.857  1.00  0.00    -0.199 C  
BRANCH   4   5
HETATM    5  C   UNL     1     -11.199   7.049  71.016  1.00  0.00    -0.274 C  
HETATM    6  H   UNL     1     -10.544   7.038  69.164  1.00  0.00     0.000 HD 
HETATM    7  O   UNL     1     -11.158   6.529  69.680  1.00  0.00    -0.309 OA 
BRANCH   5   8
HETATM    8  C   UNL     1     -11.547   8.527  70.993  1.00  0.00    -0.317 A  
HETATM    9  C   UNL     1     -10.879   9.428  70.151  1.00  0.00    -0.287 A  
HETATM   10  C   UNL     1     -11.222  10.789  70.128  1.00  0.00    -0.267 A  
HETATM   11  C   UNL     1     -12.265  11.262  70.938  1.00  0.00    -0.356 A  
HETATM   12  C   UNL     1     -12.915  10.376  71.799  1.00  0.00    -0.580 A  
HETATM   13  C   UNL     1     -12.570   9.020  71.814  1.00  0.00    -0.434 A  
BRANCH  10  14
HETATM   14  O   UNL     1     -10.647  11.665  69.178  1.00  0.00    -0.194 OA 
BRANCH  14  15
HETATM   15  C   UNL     1     -11.149  11.698  67.867  1.00  0.00    -0.247 C  
HETATM   16  O   UNL     1     -11.681  10.753  67.303  1.00  0.00    -0.396 OA 
BRANCH  15  17
HETATM   17  C   UNL     1     -10.970  13.109  67.286  1.00  0.00    -0.288 C  
HETATM   18  C   UNL     1      -9.672  13.743  67.818  1.00  0.00    -0.230 C  
HETATM   19  C   UNL     1     -10.856  13.003  65.758  1.00  0.00    -0.292 C  
HETATM   20  C   UNL     1     -12.159  13.991  67.679  1.00  0.00    -0.344 C  
ENDBRANCH  15  17
ENDBRANCH  14  15
ENDBRANCH  10  14
BRANCH  11  21
HETATM   21  O   UNL     1     -12.591  12.643  70.919  1.00  0.00    -0.338 OA 
BRANCH  21  22
HETATM   22  C   UNL     1     -13.306  13.230  71.978  1.00  0.00    -0.489 C  
HETATM   23  O   UNL     1     -14.134  12.655  72.675  1.00  0.00    -0.356 OA 
BRANCH  22  24
HETATM   24  C   UNL     1     -12.939  14.714  72.142  1.00  0.00    -0.421 C  
HETATM   25  C   UNL     1     -14.142  15.588  71.733  1.00  0.00    -0.570 C  
HETATM   26  C   UNL     1     -12.599  15.028  73.604  1.00  0.00    -0.666 C  
HETATM   27  C   UNL     1     -11.755  15.045  71.228  1.00  0.00    -0.397 C  
ENDBRANCH  22  24
ENDBRANCH  21  22
ENDBRANCH  11  21
ENDBRANCH   5   8
ENDBRANCH   4   5
ENDBRANCH   2   4
TORSDOF 9
ENDMDL
MODEL       42
REMARK 921   NORMALIZED FREE ENERGY PREDICTED BY IDOCK:   -5.31 KCAL/MOL
REMARK 922        TOTAL FREE ENERGY PREDICTED BY IDOCK:   -9.37 KCAL/MOL
REMARK 923 INTER-LIGAND FREE ENERGY PREDICTED BY IDOCK:   -8.16 KCAL/MOL
REMARK 924 INTRA-LIGAND FREE ENERGY PREDICTED BY IDOCK:   -1.21 KCAL/MOL
REMARK 927      BINDING AFFINITY PREDICTED BY RF-SCORE:    0.00 PKD
ROOT
HETATM    1  C   UNL     1     -11.927   6.551  71.899  1.00  0.00    -0.341 C  
HETATM    2  N   UNL     1     -11.800   7.752  72.708  1.00  0.00    -0.598 NA 
HETATM    3  H   UNL     1     -11.202   7.595  73.520  1.00  0.00     0.000 HD 
ENDROOT
BRANCH   2   4
HETATM    4  C   UNL     1     -11.331   8.893  71.905  1.00  0.00    -0.376 C  
BRANCH   4   5
HETATM    5  C   UNL     1     -12.516   9.624  71.222  1.00  0.00    -0.355 C  
HETATM    6  H   UNL     1     -14.235  10.386  71.791  1.00  0.00     0.000 HD 
HETATM    7  O   UNL     1     -13.509   9.938  72.208  1.00  0.00    -0.430 OA 
BRANCH   5   8
HETATM    8  C   UNL     1     -12.079  10.886  70.498  1.00  0.00    -0.464 A  
HETATM    9  C   UNL     1     -11.207  10.839  69.399  1.00  0.00    -0.337 A  
HETATM   10  C   UNL     1     -10.825  12.011  68.728  1.00  0.00    -0.230 A  
HETATM   11  C   UNL     1     -11.335  13.251  69.138  1.00  0.00    -0.282 A  
HETATM   12  C   UNL     1     -12.181  13.307  70.248  1.00  0.00    -0.391 A  
HETATM   13  C   UNL     1     -12.560  12.135  70.911  1.00  0.00    -0.340 A  
BRANCH  10  14
HETATM   14  O   UNL     1     -10.063  11.948  67.538  1.00  0.00    -0.191 OA 
BRANCH  14  15
HETATM   15  C   UNL     1     -10.568  11.258  66.424  1.00  0.00    -0.266 C  
HETATM   16  O   UNL     1     -11.698  11.389  65.979  1.00  0.00    -0.223 OA 
BRANCH  15  17
HETATM   17  C   UNL     1      -9.467  10.360  65.837  1.00  0.00    -0.237 C  
HETATM   18  C   UNL     1      -8.080  10.961  66.126  1.00  0.00    -0.160 C  
HETATM   19  C   UNL     1      -9.540   8.983  66.512  1.00  0.00    -0.286 C  
HETATM   20  C   UNL     1      -9.654  10.230  64.322  1.00  0.00    -0.375 C  
ENDBRANCH  15  17
ENDBRANCH  14  15
ENDBRANCH  10  14
BRANCH  11  21
HETATM   21  O   UNL     1     -10.927  14.431  68.463  1.00  0.00    -0.235 OA 
BRANCH  21  22
HETATM   22  C   UNL     1     -11.450  14.756  67.199  1.00  0.00    -0.364 C  
HETATM   23  O   UNL     1     -12.517  14.351  66.751  1.00  0.00    -0.331 OA 
BRANCH  22  24
HETATM   24  C   UNL     1     -10.495  15.676  66.421  1.00  0.00    -0.309 C  
HETATM   25  C   UNL     1      -9.063  15.109  66.497  1.00  0.00    -0.328 C  
HETATM   26  C   UNL     1     -10.900  15.748  64.943  1.00  0.00    -0.433 C  
HETATM   27  C   UNL     1     -10.509  17.070  67.055  1.00  0.00    -0.279 C  
ENDBRANCH  22  24
ENDBRANCH  21  22
ENDBRANCH  11  21
ENDBRANCH   5   8
ENDBRANCH   4   5
ENDBRANCH   2   4
TORSDOF 9
ENDMDL
MODEL       43
REMARK 921   NORMALIZED FREE ENERGY PREDICTED BY IDOCK:   -5.30 KCAL/MOL
REMARK 922        TOTAL FREE ENERGY PREDICTED BY IDOCK:   -9.37 KCAL/MOL
REMARK 923 INTER-LIGAND FREE ENERGY PREDICTED BY IDOCK:   -8.24 KCAL/MOL
REMARK 924 INTRA-LIGAND FREE ENERGY PREDICTED BY IDOCK:   -1.13 KCAL/MOL
REMARK 927      BINDING AFFINITY PREDICTED BY RF-SCORE:    0.00 PKD
ROOT
HETATM    1  C   UNL     1     -12.180  12.411  63.506  1.00  0.00    -0.563 C  
HETATM    2  N   UNL     1     -11.382  11.261  63.113  1.00  0.00    -0.836 NA 
HETATM    3  H   UNL     1     -11.433  11.097  62.107  1.00  0.00     0.000 HD 
ENDROOT
BRANCH   2   4
HETATM    4  C   UNL     1      -9.989  11.395  63.568  1.00  0.00    -0.388 C  
BRANCH   4   5
HETATM    5  C   UNL     1      -9.517  10.119  64.312  1.00  0.00    -0.305 C  
HETATM    6  H   UNL     1      -7.802   9.223  64.653  1.00  0.00     0.000 HD 
HETATM    7  O   UNL     1      -8.092  10.005  64.197  1.00  0.00    -0.142 OA 
BRANCH   5   8
HETATM    8  C   UNL     1      -9.927  10.115  65.774  1.00  0.00    -0.339 A  
HETATM    9  C   UNL     1     -10.140  11.308  66.482  1.00  0.00    -0.256 A  
HETATM   10  C   UNL     1     -10.536  11.291  67.829  1.00  0.00    -0.201 A  
HETATM   11  C   UNL     1     -10.748  10.067  68.480  1.00  0.00    -0.231 A  
HETATM   12  C   UNL     1     -10.510   8.877  67.790  1.00  0.00    -0.300 A  
HETATM   13  C   UNL     1     -10.119   8.901  66.447  1.00  0.00    -0.333 A  
BRANCH  10  14
HETATM   14  O   UNL     1     -10.888  12.487  68.496  1.00  0.00    -0.227 OA 
BRANCH  14  15
HETATM   15  C   UNL     1     -10.107  13.640  68.314  1.00  0.00    -0.240 C  
HETATM   16  O   UNL     1      -8.890  13.679  68.419  1.00  0.00    -0.179 OA 
BRANCH  15  17
HETATM   17  C   UNL     1     -11.015  14.815  67.918  1.00  0.00    -0.282 C  
HETATM   18  C   UNL     1     -12.130  14.332  66.974  1.00  0.00    -0.424 C  
HETATM   19  C   UNL     1     -11.675  15.377  69.186  1.00  0.00    -0.364 C  
HETATM   20  C   UNL     1     -10.191  15.897  67.213  1.00  0.00    -0.278 C  
ENDBRANCH  15  17
ENDBRANCH  14  15
ENDBRANCH  10  14
BRANCH  11  21
HETATM   21  O   UNL     1     -11.130  10.062  69.847  1.00  0.00    -0.253 OA 
BRANCH  21  22
HETATM   22  C   UNL     1     -10.434   9.284  70.788  1.00  0.00    -0.276 C  
HETATM   23  O   UNL     1      -9.222   9.316  70.971  1.00  0.00    -0.246 OA 
BRANCH  22  24
HETATM   24  C   UNL     1     -11.386   8.353  71.556  1.00  0.00    -0.334 C  
HETATM   25  C   UNL     1     -10.710   7.895  72.864  1.00  0.00    -0.440 C  
HETATM   26  C   UNL     1     -12.682   9.088  71.922  1.00  0.00    -0.450 C  
HETATM   27  C   UNL     1     -11.687   7.121  70.697  1.00  0.00    -0.348 C  
ENDBRANCH  22  24
ENDBRANCH  21  22
ENDBRANCH  11  21
ENDBRANCH   5   8
ENDBRANCH   4   5
ENDBRANCH   2   4
TORSDOF 9
ENDMDL
MODEL       44
REMARK 921   NORMALIZED FREE ENERGY PREDICTED BY IDOCK:   -5.24 KCAL/MOL
REMARK 922        TOTAL FREE ENERGY PREDICTED BY IDOCK:   -9.28 KCAL/MOL
REMARK 923 INTER-LIGAND FREE ENERGY PREDICTED BY IDOCK:   -8.13 KCAL/MOL
REMARK 924 INTRA-LIGAND FREE ENERGY PREDICTED BY IDOCK:   -1.15 KCAL/MOL
REMARK 927      BINDING AFFINITY PREDICTED BY RF-SCORE:    0.00 PKD
ROOT
HETATM    1  C   UNL     1      -8.797  10.481  62.625  1.00  0.00    -0.258 C  
HETATM    2  N   UNL     1     -10.229  10.710  62.521  1.00  0.00    -0.752 NA 
HETATM    3  H   UNL     1     -10.723   9.867  62.227  1.00  0.00     0.000 HD 
ENDROOT
BRANCH   2   4
HETATM    4  C   UNL     1     -10.779  11.248  63.776  1.00  0.00    -0.379 C  
BRANCH   4   5
HETATM    5  C   UNL     1     -11.500  12.600  63.540  1.00  0.00    -0.491 C  
HETATM    6  H   UNL     1     -13.359  13.234  63.509  1.00  0.00     0.000 HD 
HETATM    7  O   UNL     1     -12.917  12.406  63.654  1.00  0.00    -0.758 OA 
BRANCH   5   8
HETATM    8  C   UNL     1     -11.039  13.680  64.503  1.00  0.00    -0.396 A  
HETATM    9  C   UNL     1     -10.122  13.407  65.530  1.00  0.00    -0.279 A  
HETATM   10  C   UNL     1      -9.691  14.419  66.403  1.00  0.00    -0.302 A  
HETATM   11  C   UNL     1     -10.159  15.730  66.240  1.00  0.00    -0.303 A  
HETATM   12  C   UNL     1     -11.093  16.002  65.238  1.00  0.00    -0.219 A  
HETATM   13  C   UNL     1     -11.516  14.990  64.370  1.00  0.00    -0.240 A  
BRANCH  10  14
HETATM   14  O   UNL     1      -8.663  14.174  67.343  1.00  0.00    -0.186 OA 
BRANCH  14  15
HETATM   15  C   UNL     1      -8.619  12.946  68.022  1.00  0.00    -0.186 C  
HETATM   16  O   UNL     1      -9.580  12.414  68.560  1.00  0.00    -0.197 OA 
BRANCH  15  17
HETATM   17  C   UNL     1      -7.199  12.365  67.938  1.00  0.00    -0.110 C  
HETATM   18  C   UNL     1      -7.068  11.455  66.705  1.00  0.00    -0.103 C  
HETATM   19  C   UNL     1      -6.201  13.522  67.785  1.00  0.00    -0.159 C  
HETATM   20  C   UNL     1      -6.893  11.551  69.200  1.00  0.00    -0.112 C  
ENDBRANCH  15  17
ENDBRANCH  14  15
ENDBRANCH  10  14
BRANCH  11  21
HETATM   21  O   UNL     1      -9.730  16.740  67.140  1.00  0.00    -0.242 OA 
BRANCH  21  22
HETATM   22  C   UNL     1      -8.818  17.729  66.733  1.00  0.00    -0.260 C  
HETATM   23  O   UNL     1      -7.886  17.553  65.955  1.00  0.00    -0.519 OA 
BRANCH  22  24
HETATM   24  C   UNL     1      -9.115  19.076  67.413  1.00  0.00    -0.325 C  
HETATM   25  C   UNL     1      -9.739  20.041  66.385  1.00  0.00    -0.557 C  
HETATM   26  C   UNL     1     -10.116  18.891  68.560  1.00  0.00    -0.460 C  
HETATM   27  C   UNL     1      -7.806  19.681  67.928  1.00  0.00    -0.333 C  
ENDBRANCH  22  24
ENDBRANCH  21  22
ENDBRANCH  11  21
ENDBRANCH   5   8
ENDBRANCH   4   5
ENDBRANCH   2   4
TORSDOF 9
ENDMDL
MODEL       45
REMARK 921   NORMALIZED FREE ENERGY PREDICTED BY IDOCK:   -5.24 KCAL/MOL
REMARK 922        TOTAL FREE ENERGY PREDICTED BY IDOCK:   -9.28 KCAL/MOL
REMARK 923 INTER-LIGAND FREE ENERGY PREDICTED BY IDOCK:   -8.03 KCAL/MOL
REMARK 924 INTRA-LIGAND FREE ENERGY PREDICTED BY IDOCK:   -1.24 KCAL/MOL
REMARK 927      BINDING AFFINITY PREDICTED BY RF-SCORE:    0.00 PKD
ROOT
HETATM    1  C   UNL     1     -14.411  14.745  71.691  1.00  0.00    -0.557 C  
HETATM    2  N   UNL     1     -13.599  15.470  70.727  1.00  0.00    -0.847 NA 
HETATM    3  H   UNL     1     -13.496  16.451  70.988  1.00  0.00     0.000 HD 
ENDROOT
BRANCH   2   4
HETATM    4  C   UNL     1     -12.291  14.823  70.532  1.00  0.00    -0.337 C  
BRANCH   4   5
HETATM    5  C   UNL     1     -12.264  13.995  69.221  1.00  0.00    -0.278 C  
HETATM    6  H   UNL     1     -11.386  14.133  67.470  1.00  0.00     0.000 HD 
HETATM    7  O   UNL     1     -11.403  14.640  68.273  1.00  0.00    -0.270 OA 
BRANCH   5   8
HETATM    8  C   UNL     1     -11.815  12.562  69.449  1.00  0.00    -0.368 A  
HETATM    9  C   UNL     1     -10.920  11.923  68.578  1.00  0.00    -0.277 A  
HETATM   10  C   UNL     1     -10.500  10.604  68.810  1.00  0.00    -0.194 A  
HETATM   11  C   UNL     1     -10.958   9.912  69.940  1.00  0.00    -0.281 A  
HETATM   12  C   UNL     1     -11.871  10.532  70.796  1.00  0.00    -0.465 A  
HETATM   13  C   UNL     1     -12.283  11.849  70.560  1.00  0.00    -0.426 A  
BRANCH  10  14
HETATM   14  O   UNL     1      -9.491  10.014  68.013  1.00  0.00    -0.137 OA 
BRANCH  14  15
HETATM   15  C   UNL     1      -9.842   9.346  66.829  1.00  0.00    -0.218 C  
HETATM   16  O   UNL     1     -10.606   8.394  66.768  1.00  0.00    -0.295 OA 
BRANCH  15  17
HETATM   17  C   UNL     1      -9.157  10.029  65.634  1.00  0.00    -0.222 C  
HETATM   18  C   UNL     1      -8.670   8.974  64.626  1.00  0.00    -0.169 C  
HETATM   19  C   UNL     1     -10.180  10.929  64.926  1.00  0.00    -0.381 C  
HETATM   20  C   UNL     1      -7.959  10.851  66.121  1.00  0.00    -0.155 C  
ENDBRANCH  15  17
ENDBRANCH  14  15
ENDBRANCH  10  14
BRANCH  11  21
HETATM   21  O   UNL     1     -10.540   8.573  70.155  1.00  0.00    -0.223 OA 
BRANCH  21  22
HETATM   22  C   UNL     1     -10.622   7.987  71.430  1.00  0.00    -0.216 C  
HETATM   23  O   UNL     1     -10.033   8.386  72.429  1.00  0.00    -0.279 OA 
BRANCH  22  24
HETATM   24  C   UNL     1     -11.532   6.748  71.417  1.00  0.00    -0.336 C  
HETATM   25  C   UNL     1     -11.210   5.864  72.639  1.00  0.00    -0.335 C  
HETATM   26  C   UNL     1     -13.007   7.161  71.504  1.00  0.00    -0.431 C  
HETATM   27  C   UNL     1     -11.270   5.943  70.141  1.00  0.00    -0.338 C  
ENDBRANCH  22  24
ENDBRANCH  21  22
ENDBRANCH  11  21
ENDBRANCH   5   8
ENDBRANCH   4   5
ENDBRANCH   2   4
TORSDOF 9
ENDMDL
MODEL       46
REMARK 921   NORMALIZED FREE ENERGY PREDICTED BY IDOCK:   -5.23 KCAL/MOL
REMARK 922        TOTAL FREE ENERGY PREDICTED BY IDOCK:   -9.26 KCAL/MOL
REMARK 923 INTER-LIGAND FREE ENERGY PREDICTED BY IDOCK:   -8.62 KCAL/MOL
REMARK 924 INTRA-LIGAND FREE ENERGY PREDICTED BY IDOCK:   -0.63 KCAL/MOL
REMARK 927      BINDING AFFINITY PREDICTED BY RF-SCORE:    0.00 PKD
ROOT
HETATM    1  C   UNL     1     -10.607   5.503  67.680  1.00  0.00    -0.164 C  
HETATM    2  N   UNL     1     -10.907   6.858  68.112  1.00  0.00    -0.403 NA 
HETATM    3  H   UNL     1     -11.602   7.298  67.508  1.00  0.00     0.000 HD 
ENDROOT
BRANCH   2   4
HETATM    4  C   UNL     1     -11.321   6.892  69.525  1.00  0.00    -0.167 C  
BRANCH   4   5
HETATM    5  C   UNL     1     -10.443   7.872  70.344  1.00  0.00    -0.218 C  
HETATM    6  H   UNL     1      -8.605   8.559  70.243  1.00  0.00     0.000 HD 
HETATM    7  O   UNL     1      -9.144   7.959  69.741  1.00  0.00    -0.146 OA 
BRANCH   5   8
HETATM    8  C   UNL     1     -11.064   9.254  70.455  1.00  0.00    -0.300 A  
HETATM    9  C   UNL     1     -10.665  10.309  69.621  1.00  0.00    -0.299 A  
HETATM   10  C   UNL     1     -11.259  11.577  69.722  1.00  0.00    -0.161 A  
HETATM   11  C   UNL     1     -12.286  11.796  70.652  1.00  0.00    -0.349 A  
HETATM   12  C   UNL     1     -12.668  10.758  71.504  1.00  0.00    -0.536 A  
HETATM   13  C   UNL     1     -12.073   9.496  71.395  1.00  0.00    -0.459 A  
BRANCH  10  14
HETATM   14  O   UNL     1     -10.957  12.595  68.788  1.00  0.00    -0.238 OA 
BRANCH  14  15
HETATM   15  C   UNL     1     -11.418  12.487  67.467  1.00  0.00    -0.336 C  
HETATM   16  O   UNL     1     -11.947  11.491  66.995  1.00  0.00    -0.556 OA 
BRANCH  15  17
HETATM   17  C   UNL     1     -11.198  13.820  66.736  1.00  0.00    -0.327 C  
HETATM   18  C   UNL     1     -12.251  14.001  65.629  1.00  0.00    -0.462 C  
HETATM   19  C   UNL     1     -11.363  14.968  67.743  1.00  0.00    -0.340 C  
HETATM   20  C   UNL     1      -9.799  13.847  66.111  1.00  0.00    -0.316 C  
ENDBRANCH  15  17
ENDBRANCH  14  15
ENDBRANCH  10  14
BRANCH  11  21
HETATM   21  O   UNL     1     -12.867  13.087  70.757  1.00  0.00    -0.197 OA 
BRANCH  21  22
HETATM   22  C   UNL     1     -13.380  13.550  71.982  1.00  0.00    -0.475 C  
HETATM   23  O   UNL     1     -14.223  12.970  72.657  1.00  0.00    -0.609 OA 
BRANCH  22  24
HETATM   24  C   UNL     1     -12.767  14.907  72.365  1.00  0.00    -0.428 C  
HETATM   25  C   UNL     1     -11.843  14.724  73.586  1.00  0.00    -0.173 C  
HETATM   26  C   UNL     1     -11.926  15.465  71.211  1.00  0.00    -0.431 C  
HETATM   27  C   UNL     1     -13.890  15.880  72.736  1.00  0.00    -0.532 C  
ENDBRANCH  22  24
ENDBRANCH  21  22
ENDBRANCH  11  21
ENDBRANCH   5   8
ENDBRANCH   4   5
ENDBRANCH   2   4
TORSDOF 9
ENDMDL
MODEL       47
REMARK 921   NORMALIZED FREE ENERGY PREDICTED BY IDOCK:   -5.20 KCAL/MOL
REMARK 922        TOTAL FREE ENERGY PREDICTED BY IDOCK:   -9.21 KCAL/MOL
REMARK 923 INTER-LIGAND FREE ENERGY PREDICTED BY IDOCK:   -7.67 KCAL/MOL
REMARK 924 INTRA-LIGAND FREE ENERGY PREDICTED BY IDOCK:   -1.54 KCAL/MOL
REMARK 927      BINDING AFFINITY PREDICTED BY RF-SCORE:    0.00 PKD
ROOT
HETATM    1  C   UNL     1      -9.040  10.629  62.728  1.00  0.00    -0.294 C  
HETATM    2  N   UNL     1      -9.644  11.914  63.038  1.00  0.00    -0.617 NA 
HETATM    3  H   UNL     1      -9.563  12.564  62.255  1.00  0.00     0.000 HD 
ENDROOT
BRANCH   2   4
HETATM    4  C   UNL     1     -11.044  11.760  63.467  1.00  0.00    -0.422 C  
BRANCH   4   5
HETATM    5  C   UNL     1     -11.228  12.189  64.946  1.00  0.00    -0.323 C  
HETATM    6  H   UNL     1     -10.545  11.605  66.692  1.00  0.00     0.000 HD 
HETATM    7  O   UNL     1     -10.432  11.342  65.786  1.00  0.00    -0.249 OA 
BRANCH   5   8
HETATM    8  C   UNL     1     -10.867  13.646  65.176  1.00  0.00    -0.338 A  
HETATM    9  C   UNL     1      -9.726  14.016  65.903  1.00  0.00    -0.250 A  
HETATM   10  C   UNL     1      -9.394  15.367  66.094  1.00  0.00    -0.332 A  
HETATM   11  C   UNL     1     -10.196  16.370  65.533  1.00  0.00    -0.269 A  
HETATM   12  C   UNL     1     -11.349  16.010  64.831  1.00  0.00    -0.232 A  
HETATM   13  C   UNL     1     -11.672  14.661  64.643  1.00  0.00    -0.431 A  
BRANCH  10  14
HETATM   14  O   UNL     1      -8.171  15.733  66.702  1.00  0.00    -0.251 OA 
BRANCH  14  15
HETATM   15  C   UNL     1      -7.996  15.544  68.082  1.00  0.00    -0.131 C  
HETATM   16  O   UNL     1      -8.903  15.338  68.876  1.00  0.00    -0.182 OA 
BRANCH  15  17
HETATM   17  C   UNL     1      -6.498  15.589  68.420  1.00  0.00    -0.114 C  
HETATM   18  C   UNL     1      -5.752  16.482  67.413  1.00  0.00    -0.188 C  
HETATM   19  C   UNL     1      -6.325  16.201  69.817  1.00  0.00    -0.175 C  
HETATM   20  C   UNL     1      -5.910  14.175  68.371  1.00  0.00    -0.104 C  
ENDBRANCH  15  17
ENDBRANCH  14  15
ENDBRANCH  10  14
BRANCH  11  21
HETATM   21  O   UNL     1      -9.861  17.732  65.747  1.00  0.00    -0.541 OA 
BRANCH  21  22
HETATM   22  C   UNL     1     -10.079  18.341  66.995  1.00  0.00    -0.360 C  
HETATM   23  O   UNL     1     -10.972  18.041  67.781  1.00  0.00    -0.317 OA 
BRANCH  22  24
HETATM   24  C   UNL     1      -9.064  19.467  67.251  1.00  0.00    -0.373 C  
HETATM   25  C   UNL     1      -7.960  19.416  66.175  1.00  0.00    -0.320 C  
HETATM   26  C   UNL     1      -9.746  20.839  67.167  1.00  0.00    -0.457 C  
HETATM   27  C   UNL     1      -8.422  19.266  68.627  1.00  0.00    -0.403 C  
ENDBRANCH  22  24
ENDBRANCH  21  22
ENDBRANCH  11  21
ENDBRANCH   5   8
ENDBRANCH   4   5
ENDBRANCH   2   4
TORSDOF 9
ENDMDL
MODEL       48
REMARK 921   NORMALIZED FREE ENERGY PREDICTED BY IDOCK:   -5.16 KCAL/MOL
REMARK 922        TOTAL FREE ENERGY PREDICTED BY IDOCK:   -9.15 KCAL/MOL
REMARK 923 INTER-LIGAND FREE ENERGY PREDICTED BY IDOCK:   -7.87 KCAL/MOL
REMARK 924 INTRA-LIGAND FREE ENERGY PREDICTED BY IDOCK:   -1.28 KCAL/MOL
REMARK 927      BINDING AFFINITY PREDICTED BY RF-SCORE:    0.00 PKD
ROOT
HETATM    1  C   UNL     1     -13.665  15.836  72.644  1.00  0.00    -0.542 C  
HETATM    2  N   UNL     1     -13.464  14.463  73.077  1.00  0.00    -0.625 NA 
HETATM    3  H   UNL     1     -13.901  14.289  73.983  1.00  0.00     0.000 HD 
ENDROOT
BRANCH   2   4
HETATM    4  C   UNL     1     -13.930  13.506  72.061  1.00  0.00    -0.374 C  
BRANCH   4   5
HETATM    5  C   UNL     1     -12.897  12.369  71.844  1.00  0.00    -0.210 C  
HETATM    6  H   UNL     1     -12.902  10.407  71.937  1.00  0.00     0.000 HD 
HETATM    7  O   UNL     1     -13.534  11.104  72.069  1.00  0.00    -0.376 OA 
BRANCH   5   8
HETATM    8  C   UNL     1     -12.276  12.406  70.459  1.00  0.00    -0.382 A  
HETATM    9  C   UNL     1     -12.408  13.525  69.623  1.00  0.00    -0.220 A  
HETATM   10  C   UNL     1     -11.814  13.553  68.351  1.00  0.00    -0.373 A  
HETATM   11  C   UNL     1     -11.056  12.460  67.908  1.00  0.00    -0.239 A  
HETATM   12  C   UNL     1     -10.945  11.332  68.724  1.00  0.00    -0.270 A  
HETATM   13  C   UNL     1     -11.536  11.312  69.992  1.00  0.00    -0.404 A  
BRANCH  10  14
HETATM   14  O   UNL     1     -11.827  14.733  67.571  1.00  0.00    -0.375 OA 
BRANCH  14  15
HETATM   15  C   UNL     1     -10.843  15.713  67.775  1.00  0.00    -0.307 C  
HETATM   16  O   UNL     1     -10.497  16.133  68.870  1.00  0.00    -0.228 OA 
BRANCH  15  17
HETATM   17  C   UNL     1     -10.247  16.130  66.422  1.00  0.00    -0.315 C  
HETATM   18  C   UNL     1     -11.022  15.464  65.271  1.00  0.00    -0.397 C  
HETATM   19  C   UNL     1     -10.382  17.651  66.270  1.00  0.00    -0.342 C  
HETATM   20  C   UNL     1      -8.775  15.708  66.348  1.00  0.00    -0.354 C  
ENDBRANCH  15  17
ENDBRANCH  14  15
ENDBRANCH  10  14
BRANCH  11  21
HETATM   21  O   UNL     1     -10.475  12.492  66.614  1.00  0.00    -0.231 OA 
BRANCH  21  22
HETATM   22  C   UNL     1      -9.208  11.931  66.377  1.00  0.00    -0.215 C  
HETATM   23  O   UNL     1      -8.185  12.214  66.990  1.00  0.00    -0.173 OA 
BRANCH  22  24
HETATM   24  C   UNL     1      -9.254  10.922  65.217  1.00  0.00    -0.236 C  
HETATM   25  C   UNL     1      -7.815  10.535  64.819  1.00  0.00    -0.022 C  
HETATM   26  C   UNL     1      -9.990   9.645  65.641  1.00  0.00    -0.321 C  
HETATM   27  C   UNL     1      -9.943  11.569  64.012  1.00  0.00    -0.341 C  
ENDBRANCH  22  24
ENDBRANCH  21  22
ENDBRANCH  11  21
ENDBRANCH   5   8
ENDBRANCH   4   5
ENDBRANCH   2   4
TORSDOF 9
ENDMDL
MODEL       49
REMARK 921   NORMALIZED FREE ENERGY PREDICTED BY IDOCK:   -5.16 KCAL/MOL
REMARK 922        TOTAL FREE ENERGY PREDICTED BY IDOCK:   -9.15 KCAL/MOL
REMARK 923 INTER-LIGAND FREE ENERGY PREDICTED BY IDOCK:   -8.31 KCAL/MOL
REMARK 924 INTRA-LIGAND FREE ENERGY PREDICTED BY IDOCK:   -0.84 KCAL/MOL
REMARK 927      BINDING AFFINITY PREDICTED BY RF-SCORE:    0.00 PKD
ROOT
HETATM    1  C   UNL     1      -7.720  18.942  67.552  1.00  0.00    -0.233 C  
HETATM    2  N   UNL     1      -9.078  18.573  67.186  1.00  0.00    -0.273 NA 
HETATM    3  H   UNL     1      -9.627  19.388  66.913  1.00  0.00     0.000 HD 
ENDROOT
BRANCH   2   4
HETATM    4  C   UNL     1      -9.089  17.539  66.138  1.00  0.00    -0.127 C  
BRANCH   4   5
HETATM    5  C   UNL     1     -10.463  16.823  66.070  1.00  0.00    -0.293 C  
HETATM    6  H   UNL     1     -11.582  16.025  64.667  1.00  0.00     0.000 HD 
HETATM    7  O   UNL     1     -10.740  16.464  64.709  1.00  0.00    -0.700 OA 
BRANCH   5   8
HETATM    8  C   UNL     1     -10.521  15.595  66.960  1.00  0.00    -0.303 A  
HETATM    9  C   UNL     1     -11.305  15.565  68.124  1.00  0.00    -0.348 A  
HETATM   10  C   UNL     1     -11.363  14.417  68.929  1.00  0.00    -0.274 A  
HETATM   11  C   UNL     1     -10.650  13.267  68.562  1.00  0.00    -0.256 A  
HETATM   12  C   UNL     1      -9.846  13.299  67.420  1.00  0.00    -0.227 A  
HETATM   13  C   UNL     1      -9.795  14.446  66.620  1.00  0.00    -0.287 A  
BRANCH  10  14
HETATM   14  O   UNL     1     -12.262  14.342  70.019  1.00  0.00    -0.323 OA 
BRANCH  14  15
HETATM   15  C   UNL     1     -12.094  15.198  71.119  1.00  0.00    -0.333 C  
HETATM   16  O   UNL     1     -11.354  16.171  71.136  1.00  0.00    -0.387 OA 
BRANCH  15  17
HETATM   17  C   UNL     1     -13.017  14.748  72.263  1.00  0.00    -0.423 C  
HETATM   18  C   UNL     1     -13.139  13.214  72.275  1.00  0.00    -0.458 C  
HETATM   19  C   UNL     1     -12.398  15.187  73.598  1.00  0.00    -0.674 C  
HETATM   20  C   UNL     1     -14.408  15.363  72.083  1.00  0.00    -0.642 C  
ENDBRANCH  15  17
ENDBRANCH  14  15
ENDBRANCH  10  14
BRANCH  11  21
HETATM   21  O   UNL     1     -10.703  12.118  69.393  1.00  0.00    -0.067 OA 
BRANCH  21  22
HETATM   22  C   UNL     1     -11.081  10.868  68.873  1.00  0.00    -0.252 C  
HETATM   23  O   UNL     1     -11.910  10.694  67.987  1.00  0.00    -0.494 OA 
BRANCH  22  24
HETATM   24  C   UNL     1     -10.340   9.723  69.581  1.00  0.00    -0.259 C  
HETATM   25  C   UNL     1     -10.728   8.381  68.928  1.00  0.00    -0.095 C  
HETATM   26  C   UNL     1      -8.822   9.897  69.445  1.00  0.00    -0.195 C  
HETATM   27  C   UNL     1     -10.750   9.691  71.057  1.00  0.00    -0.393 C  
ENDBRANCH  22  24
ENDBRANCH  21  22
ENDBRANCH  11  21
ENDBRANCH   5   8
ENDBRANCH   4   5
ENDBRANCH   2   4
TORSDOF 9
ENDMDL
MODEL       50
REMARK 921   NORMALIZED FREE ENERGY PREDICTED BY IDOCK:   -5.12 KCAL/MOL
REMARK 922        TOTAL FREE ENERGY PREDICTED BY IDOCK:   -9.09 KCAL/MOL
REMARK 923 INTER-LIGAND FREE ENERGY PREDICTED BY IDOCK:   -7.77 KCAL/MOL
REMARK 924 INTRA-LIGAND FREE ENERGY PREDICTED BY IDOCK:   -1.31 KCAL/MOL
REMARK 927      BINDING AFFINITY PREDICTED BY RF-SCORE:    0.00 PKD
ROOT
HETATM    1  C   UNL     1     -14.373  15.478  72.222  1.00  0.00    -0.462 C  
HETATM    2  N   UNL     1     -13.948  15.225  70.855  1.00  0.00    -0.796 NA 
HETATM    3  H   UNL     1     -14.352  15.901  70.207  1.00  0.00     0.000 HD 
ENDROOT
BRANCH   2   4
HETATM    4  C   UNL     1     -12.480  15.186  70.749  1.00  0.00    -0.372 C  
BRANCH   4   5
HETATM    5  C   UNL     1     -12.015  15.473  69.297  1.00  0.00    -0.316 C  
HETATM    6  H   UNL     1     -10.521  16.421  68.444  1.00  0.00     0.000 HD 
HETATM    7  O   UNL     1     -10.806  16.245  69.333  1.00  0.00    -0.286 OA 
BRANCH   5   8
HETATM    8  C   UNL     1     -11.803  14.202  68.494  1.00  0.00    -0.390 A  
HETATM    9  C   UNL     1     -11.616  12.960  69.117  1.00  0.00    -0.375 A  
HETATM   10  C   UNL     1     -11.438  11.789  68.362  1.00  0.00    -0.294 A  
HETATM   11  C   UNL     1     -11.471  11.849  66.962  1.00  0.00    -0.316 A  
HETATM   12  C   UNL     1     -11.629  13.086  66.334  1.00  0.00    -0.413 A  
HETATM   13  C   UNL     1     -11.808  14.248  67.093  1.00  0.00    -0.454 A  
BRANCH  10  14
HETATM   14  O   UNL     1     -11.393  10.523  68.989  1.00  0.00    -0.249 OA 
BRANCH  14  15
HETATM   15  C   UNL     1     -10.270  10.163  69.751  1.00  0.00    -0.247 C  
HETATM   16  O   UNL     1      -9.156  10.648  69.617  1.00  0.00    -0.050 OA 
BRANCH  15  17
HETATM   17  C   UNL     1     -10.675   9.112  70.795  1.00  0.00    -0.327 C  
HETATM   18  C   UNL     1     -11.088   7.802  70.101  1.00  0.00    -0.216 C  
HETATM   19  C   UNL     1      -9.464   8.814  71.692  1.00  0.00    -0.358 C  
HETATM   20  C   UNL     1     -11.850   9.632  71.630  1.00  0.00    -0.457 C  
ENDBRANCH  15  17
ENDBRANCH  14  15
ENDBRANCH  10  14
BRANCH  11  21
HETATM   21  O   UNL     1     -11.272  10.662  66.209  1.00  0.00     0.037 OA 
BRANCH  21  22
HETATM   22  C   UNL     1     -10.311  10.610  65.184  1.00  0.00    -0.261 C  
HETATM   23  O   UNL     1     -10.441  11.101  64.069  1.00  0.00    -0.339 OA 
BRANCH  22  24
HETATM   24  C   UNL     1      -9.066   9.824  65.629  1.00  0.00    -0.222 C  
HETATM   25  C   UNL     1      -8.397   9.185  64.395  1.00  0.00    -0.180 C  
HETATM   26  C   UNL     1      -8.046  10.759  66.291  1.00  0.00    -0.159 C  
HETATM   27  C   UNL     1      -9.488   8.713  66.594  1.00  0.00    -0.267 C  
ENDBRANCH  22  24
ENDBRANCH  21  22
ENDBRANCH  11  21
ENDBRANCH   5   8
ENDBRANCH   4   5
ENDBRANCH   2   4
TORSDOF 9
ENDMDL
MODEL       51
REMARK 921   NORMALIZED FREE ENERGY PREDICTED BY IDOCK:   -5.11 KCAL/MOL
REMARK 922        TOTAL FREE ENERGY PREDICTED BY IDOCK:   -9.08 KCAL/MOL
REMARK 923 INTER-LIGAND FREE ENERGY PREDICTED BY IDOCK:   -7.83 KCAL/MOL
REMARK 924 INTRA-LIGAND FREE ENERGY PREDICTED BY IDOCK:   -1.25 KCAL/MOL
REMARK 927      BINDING AFFINITY PREDICTED BY RF-SCORE:    0.00 PKD
ROOT
HETATM    1  C   UNL     1     -11.933   6.750  71.389  1.00  0.00    -0.355 C  
HETATM    2  N   UNL     1     -12.647   7.920  70.905  1.00  0.00    -0.518 NA 
HETATM    3  H   UNL     1     -13.643   7.866  71.120  1.00  0.00     0.000 HD 
ENDROOT
BRANCH   2   4
HETATM    4  C   UNL     1     -12.051   9.164  71.420  1.00  0.00    -0.337 C  
BRANCH   4   5
HETATM    5  C   UNL     1     -12.886  10.402  71.002  1.00  0.00    -0.401 C  
HETATM    6  H   UNL     1     -13.778  11.891  71.921  1.00  0.00     0.000 HD 
HETATM    7  O   UNL     1     -13.266  11.133  72.176  1.00  0.00    -0.481 OA 
BRANCH   5   8
HETATM    8  C   UNL     1     -12.140  11.307  70.038  1.00  0.00    -0.425 A  
HETATM    9  C   UNL     1     -11.456  10.794  68.926  1.00  0.00    -0.362 A  
HETATM   10  C   UNL     1     -10.784  11.644  68.033  1.00  0.00    -0.208 A  
HETATM   11  C   UNL     1     -10.810  13.032  68.234  1.00  0.00    -0.246 A  
HETATM   12  C   UNL     1     -11.465  13.547  69.355  1.00  0.00    -0.340 A  
HETATM   13  C   UNL     1     -12.135  12.694  70.239  1.00  0.00    -0.372 A  
BRANCH  10  14
HETATM   14  O   UNL     1     -10.219  11.139  66.839  1.00  0.00    -0.207 OA 
BRANCH  14  15
HETATM   15  C   UNL     1      -8.898  10.663  66.841  1.00  0.00    -0.138 C  
HETATM   16  O   UNL     1      -8.064  10.932  67.694  1.00  0.00    -0.113 OA 
BRANCH  15  17
HETATM   17  C   UNL     1      -8.690   9.726  65.642  1.00  0.00    -0.168 C  
HETATM   18  C   UNL     1      -8.951   8.267  66.056  1.00  0.00    -0.224 C  
HETATM   19  C   UNL     1      -9.698  10.096  64.544  1.00  0.00    -0.361 C  
HETATM   20  C   UNL     1      -7.254   9.853  65.123  1.00  0.00    -0.133 C  
ENDBRANCH  15  17
ENDBRANCH  14  15
ENDBRANCH  10  14
BRANCH  11  21
HETATM   21  O   UNL     1     -10.112  13.879  67.335  1.00  0.00    -0.240 OA 
BRANCH  21  22
HETATM   22  C   UNL     1     -10.749  14.984  66.743  1.00  0.00    -0.308 C  
HETATM   23  O   UNL     1     -10.837  16.100  67.244  1.00  0.00    -0.309 OA 
BRANCH  22  24
HETATM   24  C   UNL     1     -11.357  14.612  65.381  1.00  0.00    -0.344 C  
HETATM   25  C   UNL     1     -11.523  15.887  64.529  1.00  0.00    -0.287 C  
HETATM   26  C   UNL     1     -10.433  13.651  64.622  1.00  0.00    -0.442 C  
HETATM   27  C   UNL     1     -12.735  13.980  65.599  1.00  0.00    -0.515 C  
ENDBRANCH  22  24
ENDBRANCH  21  22
ENDBRANCH  11  21
ENDBRANCH   5   8
ENDBRANCH   4   5
ENDBRANCH   2   4
TORSDOF 9
ENDMDL
MODEL       52
REMARK 921   NORMALIZED FREE ENERGY PREDICTED BY IDOCK:   -5.10 KCAL/MOL
REMARK 922        TOTAL FREE ENERGY PREDICTED BY IDOCK:   -9.06 KCAL/MOL
REMARK 923 INTER-LIGAND FREE ENERGY PREDICTED BY IDOCK:   -7.62 KCAL/MOL
REMARK 924 INTRA-LIGAND FREE ENERGY PREDICTED BY IDOCK:   -1.44 KCAL/MOL
REMARK 927      BINDING AFFINITY PREDICTED BY RF-SCORE:    0.00 PKD
ROOT
HETATM    1  C   UNL     1      -8.883   9.469  62.549  1.00  0.00    -0.244 C  
HETATM    2  N   UNL     1      -9.922  10.474  62.393  1.00  0.00    -0.757 NA 
HETATM    3  H   UNL     1     -10.833  10.118  62.682  1.00  0.00     0.000 HD 
ENDROOT
BRANCH   2   4
HETATM    4  C   UNL     1      -9.578  11.716  63.103  1.00  0.00    -0.323 C  
BRANCH   4   5
HETATM    5  C   UNL     1     -10.748  12.191  64.003  1.00  0.00    -0.384 C  
HETATM    6  H   UNL     1     -12.697  11.948  64.047  1.00  0.00     0.000 HD 
HETATM    7  O   UNL     1     -11.980  11.658  63.496  1.00  0.00    -0.437 OA 
BRANCH   5   8
HETATM    8  C   UNL     1     -10.561  11.793  65.456  1.00  0.00    -0.323 A  
HETATM    9  C   UNL     1     -10.334  12.748  66.458  1.00  0.00    -0.262 A  
HETATM   10  C   UNL     1     -10.180  12.366  67.801  1.00  0.00    -0.211 A  
HETATM   11  C   UNL     1     -10.276  11.015  68.160  1.00  0.00    -0.182 A  
HETATM   12  C   UNL     1     -10.474  10.056  67.164  1.00  0.00    -0.305 A  
HETATM   13  C   UNL     1     -10.630  10.444  65.828  1.00  0.00    -0.100 A  
BRANCH  10  14
HETATM   14  O   UNL     1     -10.095  13.339  68.825  1.00  0.00    -0.186 OA 
BRANCH  14  15
HETATM   15  C   UNL     1     -11.211  14.138  69.119  1.00  0.00    -0.272 C  
HETATM   16  O   UNL     1     -12.358  13.725  69.208  1.00  0.00    -0.312 OA 
BRANCH  15  17
HETATM   17  C   UNL     1     -10.754  15.586  69.357  1.00  0.00    -0.251 C  
HETATM   18  C   UNL     1      -9.222  15.647  69.486  1.00  0.00    -0.259 C  
HETATM   19  C   UNL     1     -11.164  16.438  68.147  1.00  0.00    -0.273 C  
HETATM   20  C   UNL     1     -11.390  16.129  70.641  1.00  0.00    -0.394 C  
ENDBRANCH  15  17
ENDBRANCH  14  15
ENDBRANCH  10  14
BRANCH  11  21
HETATM   21  O   UNL     1     -10.101  10.640  69.517  1.00  0.00    -0.209 OA 
BRANCH  21  22
HETATM   22  C   UNL     1     -11.177  10.143  70.274  1.00  0.00    -0.318 C  
HETATM   23  O   UNL     1     -12.264  10.695  70.401  1.00  0.00    -0.294 OA 
BRANCH  22  24
HETATM   24  C   UNL     1     -10.812   8.815  70.957  1.00  0.00    -0.321 C  
HETATM   25  C   UNL     1      -9.333   8.854  71.394  1.00  0.00    -0.338 C  
HETATM   26  C   UNL     1     -11.672   8.596  72.208  1.00  0.00    -0.428 C  
HETATM   27  C   UNL     1     -11.003   7.667  69.961  1.00  0.00    -0.237 C  
ENDBRANCH  22  24
ENDBRANCH  21  22
ENDBRANCH  11  21
ENDBRANCH   5   8
ENDBRANCH   4   5
ENDBRANCH   2   4
TORSDOF 9
ENDMDL
MODEL       53
REMARK 921   NORMALIZED FREE ENERGY PREDICTED BY IDOCK:   -5.06 KCAL/MOL
REMARK 922        TOTAL FREE ENERGY PREDICTED BY IDOCK:   -9.00 KCAL/MOL
REMARK 923 INTER-LIGAND FREE ENERGY PREDICTED BY IDOCK:   -8.07 KCAL/MOL
REMARK 924 INTRA-LIGAND FREE ENERGY PREDICTED BY IDOCK:   -0.93 KCAL/MOL
REMARK 927      BINDING AFFINITY PREDICTED BY RF-SCORE:    0.00 PKD
ROOT
HETATM    1  C   UNL     1      -5.443  13.319  71.552  1.00  0.00    -0.131 C  
HETATM    2  N   UNL     1      -6.458  14.019  70.781  1.00  0.00    -0.423 NA 
HETATM    3  H   UNL     1      -7.213  14.359  71.377  1.00  0.00     0.000 HD 
ENDROOT
BRANCH   2   4
HETATM    4  C   UNL     1      -5.869  15.108  69.984  1.00  0.00    -0.136 C  
BRANCH   4   5
HETATM    5  C   UNL     1      -5.967  14.809  68.465  1.00  0.00    -0.096 C  
HETATM    6  H   UNL     1      -5.262  13.450  67.235  1.00  0.00     0.000 HD 
HETATM    7  O   UNL     1      -5.202  13.634  68.165  1.00  0.00    -0.094 OA 
BRANCH   5   8
HETATM    8  C   UNL     1      -7.403  14.633  68.001  1.00  0.00    -0.142 A  
HETATM    9  C   UNL     1      -8.311  15.702  67.998  1.00  0.00    -0.146 A  
HETATM   10  C   UNL     1      -9.631  15.530  67.550  1.00  0.00    -0.212 A  
HETATM   11  C   UNL     1     -10.051  14.280  67.075  1.00  0.00    -0.260 A  
HETATM   12  C   UNL     1      -9.160  13.205  67.101  1.00  0.00    -0.230 A  
HETATM   13  C   UNL     1      -7.845  13.384  67.546  1.00  0.00    -0.181 A  
BRANCH  10  14
HETATM   14  O   UNL     1     -10.500  16.637  67.414  1.00  0.00    -0.309 OA 
BRANCH  14  15
HETATM   15  C   UNL     1     -10.334  17.524  66.337  1.00  0.00    -0.334 C  
HETATM   16  O   UNL     1     -10.678  17.292  65.187  1.00  0.00    -0.687 OA 
BRANCH  15  17
HETATM   17  C   UNL     1      -9.704  18.831  66.843  1.00  0.00    -0.344 C  
HETATM   18  C   UNL     1     -10.309  20.035  66.102  1.00  0.00    -0.570 C  
HETATM   19  C   UNL     1     -10.019  18.985  68.338  1.00  0.00    -0.473 C  
HETATM   20  C   UNL     1      -8.189  18.804  66.610  1.00  0.00    -0.298 C  
ENDBRANCH  15  17
ENDBRANCH  14  15
ENDBRANCH  10  14
BRANCH  11  21
HETATM   21  O   UNL     1     -11.392  14.113  66.641  1.00  0.00    -0.322 OA 
BRANCH  21  22
HETATM   22  C   UNL     1     -11.809  12.921  66.024  1.00  0.00    -0.430 C  
HETATM   23  O   UNL     1     -12.120  11.892  66.614  1.00  0.00    -0.587 OA 
BRANCH  22  24
HETATM   24  C   UNL     1     -11.800  13.054  64.493  1.00  0.00    -0.431 C  
HETATM   25  C   UNL     1     -12.097  14.516  64.104  1.00  0.00    -0.377 C  
HETATM   26  C   UNL     1     -10.424  12.681  63.926  1.00  0.00    -0.441 C  
HETATM   27  C   UNL     1     -12.890  12.154  63.902  1.00  0.00    -0.420 C  
ENDBRANCH  22  24
ENDBRANCH  21  22
ENDBRANCH  11  21
ENDBRANCH   5   8
ENDBRANCH   4   5
ENDBRANCH   2   4
TORSDOF 9
ENDMDL
MODEL       54
REMARK 921   NORMALIZED FREE ENERGY PREDICTED BY IDOCK:   -5.05 KCAL/MOL
REMARK 922        TOTAL FREE ENERGY PREDICTED BY IDOCK:   -8.99 KCAL/MOL
REMARK 923 INTER-LIGAND FREE ENERGY PREDICTED BY IDOCK:   -8.03 KCAL/MOL
REMARK 924 INTRA-LIGAND FREE ENERGY PREDICTED BY IDOCK:   -0.96 KCAL/MOL
REMARK 927      BINDING AFFINITY PREDICTED BY RF-SCORE:    0.00 PKD
ROOT
HETATM    1  C   UNL     1     -12.391  14.923  64.050  1.00  0.00    -0.059 C  
HETATM    2  N   UNL     1     -12.481  13.623  63.405  1.00  0.00    -1.016 NA 
HETATM    3  H   UNL     1     -12.596  13.714  62.396  1.00  0.00     0.000 HD 
ENDROOT
BRANCH   2   4
HETATM    4  C   UNL     1     -11.327  12.775  63.743  1.00  0.00    -0.461 C  
BRANCH   4   5
HETATM    5  C   UNL     1     -11.381  12.317  65.224  1.00  0.00    -0.338 C  
HETATM    6  H   UNL     1     -10.781  10.755  66.252  1.00  0.00     0.000 HD 
HETATM    7  O   UNL     1     -10.748  11.036  65.345  1.00  0.00    -0.236 OA 
BRANCH   5   8
HETATM    8  C   UNL     1     -10.729  13.316  66.164  1.00  0.00    -0.287 A  
HETATM    9  C   UNL     1     -11.205  13.518  67.468  1.00  0.00    -0.307 A  
HETATM   10  C   UNL     1     -10.582  14.433  68.333  1.00  0.00    -0.247 A  
HETATM   11  C   UNL     1      -9.452  15.144  67.904  1.00  0.00    -0.194 A  
HETATM   12  C   UNL     1      -8.991  14.968  66.598  1.00  0.00    -0.313 A  
HETATM   13  C   UNL     1      -9.614  14.052  65.742  1.00  0.00    -0.138 A  
BRANCH  10  14
HETATM   14  O   UNL     1     -10.973  14.530  69.689  1.00  0.00    -0.246 OA 
BRANCH  14  15
HETATM   15  C   UNL     1     -12.115  15.271  70.032  1.00  0.00    -0.352 C  
HETATM   16  O   UNL     1     -12.584  16.178  69.359  1.00  0.00     0.052 OA 
BRANCH  15  17
HETATM   17  C   UNL     1     -12.699  14.732  71.347  1.00  0.00    -0.401 C  
HETATM   18  C   UNL     1     -11.858  15.217  72.541  1.00  0.00    -0.532 C  
HETATM   19  C   UNL     1     -14.124  15.279  71.516  1.00  0.00    -0.625 C  
HETATM   20  C   UNL     1     -12.706  13.200  71.325  1.00  0.00    -0.396 C  
ENDBRANCH  15  17
ENDBRANCH  14  15
ENDBRANCH  10  14
BRANCH  11  21
HETATM   21  O   UNL     1      -8.842  16.078  68.781  1.00  0.00    -0.200 OA 
BRANCH  21  22
HETATM   22  C   UNL     1      -8.934  17.460  68.539  1.00  0.00    -0.276 C  
HETATM   23  O   UNL     1      -9.979  18.099  68.479  1.00  0.00    -0.357 OA 
BRANCH  22  24
HETATM   24  C   UNL     1      -7.544  18.082  68.327  1.00  0.00    -0.278 C  
HETATM   25  C   UNL     1      -6.476  17.184  68.983  1.00  0.00    -0.208 C  
HETATM   26  C   UNL     1      -7.222  18.188  66.831  1.00  0.00    -0.229 C  
HETATM   27  C   UNL     1      -7.503  19.463  68.988  1.00  0.00    -0.385 C  
ENDBRANCH  22  24
ENDBRANCH  21  22
ENDBRANCH  11  21
ENDBRANCH   5   8
ENDBRANCH   4   5
ENDBRANCH   2   4
TORSDOF 9
ENDMDL
MODEL       55
REMARK 921   NORMALIZED FREE ENERGY PREDICTED BY IDOCK:   -5.04 KCAL/MOL
REMARK 922        TOTAL FREE ENERGY PREDICTED BY IDOCK:   -8.97 KCAL/MOL
REMARK 923 INTER-LIGAND FREE ENERGY PREDICTED BY IDOCK:   -7.81 KCAL/MOL
REMARK 924 INTRA-LIGAND FREE ENERGY PREDICTED BY IDOCK:   -1.15 KCAL/MOL
REMARK 927      BINDING AFFINITY PREDICTED BY RF-SCORE:    0.00 PKD
ROOT
HETATM    1  C   UNL     1     -13.534  15.135  72.684  1.00  0.00    -0.475 C  
HETATM    2  N   UNL     1     -13.682  13.692  72.584  1.00  0.00    -0.730 NA 
HETATM    3  H   UNL     1     -14.661  13.412  72.640  1.00  0.00     0.000 HD 
ENDROOT
BRANCH   2   4
HETATM    4  C   UNL     1     -13.040  13.171  71.366  1.00  0.00    -0.266 C  
BRANCH   4   5
HETATM    5  C   UNL     1     -12.473  11.745  71.597  1.00  0.00    -0.017 C  
HETATM    6  H   UNL     1     -13.165  10.029  72.256  1.00  0.00     0.000 HD 
HETATM    7  O   UNL     1     -13.512  10.903  72.115  1.00  0.00    -0.372 OA 
BRANCH   5   8
HETATM    8  C   UNL     1     -11.889  11.142  70.331  1.00  0.00    -0.462 A  
HETATM    9  C   UNL     1     -12.058  11.751  69.079  1.00  0.00    -0.276 A  
HETATM   10  C   UNL     1     -11.498  11.192  67.920  1.00  0.00    -0.284 A  
HETATM   11  C   UNL     1     -10.737  10.018  68.007  1.00  0.00    -0.256 A  
HETATM   12  C   UNL     1     -10.588   9.391  69.246  1.00  0.00    -0.239 A  
HETATM   13  C   UNL     1     -11.147   9.956  70.398  1.00  0.00    -0.382 A  
BRANCH  10  14
HETATM   14  O   UNL     1     -11.548  11.881  66.686  1.00  0.00    -0.465 OA 
BRANCH  14  15
HETATM   15  C   UNL     1     -10.634  12.915  66.429  1.00  0.00    -0.271 C  
HETATM   16  O   UNL     1      -9.420  12.774  66.383  1.00  0.00    -0.246 OA 
BRANCH  15  17
HETATM   17  C   UNL     1     -11.398  14.222  66.169  1.00  0.00    -0.342 C  
HETATM   18  C   UNL     1     -10.615  15.110  65.186  1.00  0.00    -0.447 C  
HETATM   19  C   UNL     1     -12.752  13.883  65.529  1.00  0.00    -0.536 C  
HETATM   20  C   UNL     1     -11.597  14.980  67.485  1.00  0.00    -0.315 C  
ENDBRANCH  15  17
ENDBRANCH  14  15
ENDBRANCH  10  14
BRANCH  11  21
HETATM   21  O   UNL     1     -10.191   9.452  66.825  1.00  0.00    -0.238 OA 
BRANCH  21  22
HETATM   22  C   UNL     1     -10.104   8.058  66.666  1.00  0.00    -0.259 C  
HETATM   23  O   UNL     1     -11.024   7.268  66.851  1.00  0.00    -0.343 OA 
BRANCH  22  24
HETATM   24  C   UNL     1      -8.687   7.631  66.252  1.00  0.00    -0.170 C  
HETATM   25  C   UNL     1      -7.751   7.709  67.475  1.00  0.00    -0.118 C  
HETATM   26  C   UNL     1      -8.685   6.184  65.743  1.00  0.00    -0.151 C  
HETATM   27  C   UNL     1      -8.168   8.585  65.171  1.00  0.00    -0.153 C  
ENDBRANCH  22  24
ENDBRANCH  21  22
ENDBRANCH  11  21
ENDBRANCH   5   8
ENDBRANCH   4   5
ENDBRANCH   2   4
TORSDOF 9
ENDMDL
MODEL       56
REMARK 921   NORMALIZED FREE ENERGY PREDICTED BY IDOCK:   -5.00 KCAL/MOL
REMARK 922        TOTAL FREE ENERGY PREDICTED BY IDOCK:   -8.92 KCAL/MOL
REMARK 923 INTER-LIGAND FREE ENERGY PREDICTED BY IDOCK:   -7.64 KCAL/MOL
REMARK 924 INTRA-LIGAND FREE ENERGY PREDICTED BY IDOCK:   -1.28 KCAL/MOL
REMARK 927      BINDING AFFINITY PREDICTED BY RF-SCORE:    0.00 PKD
ROOT
HETATM    1  C   UNL     1      -8.310  15.726  69.328  1.00  0.00    -0.249 C  
HETATM    2  N   UNL     1      -9.667  16.137  69.003  1.00  0.00    -0.236 NA 
HETATM    3  H   UNL     1      -9.976  15.737  68.116  1.00  0.00     0.000 HD 
ENDROOT
BRANCH   2   4
HETATM    4  C   UNL     1     -10.601  15.814  70.094  1.00  0.00    -0.324 C  
BRANCH   4   5
HETATM    5  C   UNL     1     -11.932  15.241  69.542  1.00  0.00    -0.330 C  
HETATM    6  H   UNL     1     -12.825  15.149  67.795  1.00  0.00     0.000 HD 
HETATM    7  O   UNL     1     -12.010  15.500  68.134  1.00  0.00    -0.233 OA 
BRANCH   5   8
HETATM    8  C   UNL     1     -12.079  13.754  69.812  1.00  0.00    -0.400 A  
HETATM    9  C   UNL     1     -11.730  12.793  68.852  1.00  0.00    -0.370 A  
HETATM   10  C   UNL     1     -11.855  11.421  69.121  1.00  0.00    -0.345 A  
HETATM   11  C   UNL     1     -12.313  10.993  70.375  1.00  0.00    -0.356 A  
HETATM   12  C   UNL     1     -12.689  11.944  71.325  1.00  0.00    -0.401 A  
HETATM   13  C   UNL     1     -12.559  13.310  71.051  1.00  0.00    -0.408 A  
BRANCH  10  14
HETATM   14  O   UNL     1     -11.369  10.457  68.207  1.00  0.00    -0.284 OA 
BRANCH  14  15
HETATM   15  C   UNL     1      -9.986  10.254  68.079  1.00  0.00    -0.153 C  
HETATM   16  O   UNL     1      -9.150  10.641  68.883  1.00  0.00    -0.165 OA 
BRANCH  15  17
HETATM   17  C   UNL     1      -9.704   9.437  66.809  1.00  0.00    -0.257 C  
HETATM   18  C   UNL     1     -10.512   8.128  66.828  1.00  0.00    -0.316 C  
HETATM   19  C   UNL     1     -10.148  10.254  65.588  1.00  0.00    -0.341 C  
HETATM   20  C   UNL     1      -8.210   9.105  66.724  1.00  0.00    -0.119 C  
ENDBRANCH  15  17
ENDBRANCH  14  15
ENDBRANCH  10  14
BRANCH  11  21
HETATM   21  O   UNL     1     -12.452   9.603  70.629  1.00  0.00    -0.212 OA 
BRANCH  21  22
HETATM   22  C   UNL     1     -11.423   8.878  71.255  1.00  0.00    -0.299 C  
HETATM   23  O   UNL     1     -10.339   9.339  71.592  1.00  0.00    -0.340 OA 
BRANCH  22  24
HETATM   24  C   UNL     1     -11.817   7.404  71.445  1.00  0.00    -0.329 C  
HETATM   25  C   UNL     1     -13.353   7.292  71.538  1.00  0.00    -0.435 C  
HETATM   26  C   UNL     1     -11.351   6.562  70.251  1.00  0.00    -0.456 C  
HETATM   27  C   UNL     1     -11.204   6.882  72.748  1.00  0.00    -0.277 C  
ENDBRANCH  22  24
ENDBRANCH  21  22
ENDBRANCH  11  21
ENDBRANCH   5   8
ENDBRANCH   4   5
ENDBRANCH   2   4
TORSDOF 9
ENDMDL
MODEL       57
REMARK 921   NORMALIZED FREE ENERGY PREDICTED BY IDOCK:   -4.96 KCAL/MOL
REMARK 922        TOTAL FREE ENERGY PREDICTED BY IDOCK:   -8.85 KCAL/MOL
REMARK 923 INTER-LIGAND FREE ENERGY PREDICTED BY IDOCK:   -7.52 KCAL/MOL
REMARK 924 INTRA-LIGAND FREE ENERGY PREDICTED BY IDOCK:   -1.33 KCAL/MOL
REMARK 927      BINDING AFFINITY PREDICTED BY RF-SCORE:    0.00 PKD
ROOT
HETATM    1  C   UNL     1      -9.497   8.736  66.230  1.00  0.00    -0.234 C  
HETATM    2  N   UNL     1      -8.787   9.652  67.107  1.00  0.00    -0.131 NA 
HETATM    3  H   UNL     1      -8.222  10.315  66.577  1.00  0.00     0.000 HD 
ENDROOT
BRANCH   2   4
HETATM    4  C   UNL     1      -9.710  10.340  68.024  1.00  0.00    -0.149 C  
BRANCH   4   5
HETATM    5  C   UNL     1     -10.571  11.388  67.270  1.00  0.00    -0.227 C  
HETATM    6  H   UNL     1     -12.487  11.747  67.031  1.00  0.00     0.000 HD 
HETATM    7  O   UNL     1     -11.960  11.105  67.493  1.00  0.00    -0.580 OA 
BRANCH   5   8
HETATM    8  C   UNL     1     -10.251  12.812  67.690  1.00  0.00    -0.219 A  
HETATM    9  C   UNL     1     -10.854  13.402  68.811  1.00  0.00    -0.275 A  
HETATM   10  C   UNL     1     -10.536  14.714  69.198  1.00  0.00    -0.242 A  
HETATM   11  C   UNL     1      -9.584  15.446  68.474  1.00  0.00    -0.201 A  
HETATM   12  C   UNL     1      -9.001  14.874  67.342  1.00  0.00    -0.198 A  
HETATM   13  C   UNL     1      -9.320  13.565  66.963  1.00  0.00    -0.247 A  
BRANCH  10  14
HETATM   14  O   UNL     1     -11.037  15.254  70.405  1.00  0.00    -0.269 OA 
BRANCH  14  15
HETATM   15  C   UNL     1     -12.411  15.508  70.537  1.00  0.00    -0.427 C  
HETATM   16  O   UNL     1     -13.093  16.090  69.705  1.00  0.00     0.194 OA 
BRANCH  15  17
HETATM   17  C   UNL     1     -12.920  14.903  71.854  1.00  0.00    -0.414 C  
HETATM   18  C   UNL     1     -14.363  15.362  72.129  1.00  0.00    -0.642 C  
HETATM   19  C   UNL     1     -12.925  13.373  71.725  1.00  0.00    -0.435 C  
HETATM   20  C   UNL     1     -12.021  15.345  73.013  1.00  0.00    -0.557 C  
ENDBRANCH  15  17
ENDBRANCH  14  15
ENDBRANCH  10  14
BRANCH  11  21
HETATM   21  O   UNL     1      -9.284  16.777  68.865  1.00  0.00    -0.252 OA 
BRANCH  21  22
HETATM   22  C   UNL     1      -9.776  17.872  68.132  1.00  0.00    -0.320 C  
HETATM   23  O   UNL     1     -10.958  18.086  67.892  1.00  0.00    -0.297 OA 
BRANCH  22  24
HETATM   24  C   UNL     1      -8.630  18.769  67.636  1.00  0.00    -0.293 C  
HETATM   25  C   UNL     1      -9.168  20.191  67.377  1.00  0.00    -0.495 C  
HETATM   26  C   UNL     1      -7.522  18.865  68.693  1.00  0.00    -0.355 C  
HETATM   27  C   UNL     1      -8.078  18.203  66.324  1.00  0.00    -0.254 C  
ENDBRANCH  22  24
ENDBRANCH  21  22
ENDBRANCH  11  21
ENDBRANCH   5   8
ENDBRANCH   4   5
ENDBRANCH   2   4
TORSDOF 9
ENDMDL
MODEL       58
REMARK 921   NORMALIZED FREE ENERGY PREDICTED BY IDOCK:   -4.94 KCAL/MOL
REMARK 922        TOTAL FREE ENERGY PREDICTED BY IDOCK:   -8.82 KCAL/MOL
REMARK 923 INTER-LIGAND FREE ENERGY PREDICTED BY IDOCK:   -7.71 KCAL/MOL
REMARK 924 INTRA-LIGAND FREE ENERGY PREDICTED BY IDOCK:   -1.11 KCAL/MOL
REMARK 927      BINDING AFFINITY PREDICTED BY RF-SCORE:    0.00 PKD
ROOT
HETATM    1  C   UNL     1     -12.539  13.558  65.103  1.00  0.00    -0.436 C  
HETATM    2  N   UNL     1     -12.585  14.429  66.266  1.00  0.00    -0.433 NA 
HETATM    3  H   UNL     1     -13.147  14.023  67.014  1.00  0.00     0.000 HD 
ENDROOT
BRANCH   2   4
HETATM    4  C   UNL     1     -11.232  14.774  66.732  1.00  0.00    -0.344 C  
BRANCH   4   5
HETATM    5  C   UNL     1     -11.145  14.734  68.280  1.00  0.00    -0.274 C  
HETATM    6  H   UNL     1     -11.973  15.702  69.776  1.00  0.00     0.000 HD 
HETATM    7  O   UNL     1     -12.025  15.726  68.828  1.00  0.00    -0.374 OA 
BRANCH   5   8
HETATM    8  C   UNL     1     -11.481  13.365  68.845  1.00  0.00    -0.347 A  
HETATM    9  C   UNL     1     -11.206  12.188  68.134  1.00  0.00    -0.320 A  
HETATM   10  C   UNL     1     -11.505  10.927  68.675  1.00  0.00    -0.311 A  
HETATM   11  C   UNL     1     -12.067  10.832  69.956  1.00  0.00    -0.345 A  
HETATM   12  C   UNL     1     -12.368  12.001  70.658  1.00  0.00    -0.394 A  
HETATM   13  C   UNL     1     -12.064  13.253  70.114  1.00  0.00    -0.403 A  
BRANCH  10  14
HETATM   14  O   UNL     1     -11.098   9.742  68.020  1.00  0.00    -0.222 OA 
BRANCH  14  15
HETATM   15  C   UNL     1      -9.746   9.363  68.044  1.00  0.00    -0.145 C  
HETATM   16  O   UNL     1      -8.920   9.784  68.841  1.00  0.00    -0.133 OA 
BRANCH  15  17
HETATM   17  C   UNL     1      -9.490   8.313  66.952  1.00  0.00    -0.240 C  
HETATM   18  C   UNL     1     -10.624   7.273  66.937  1.00  0.00    -0.375 C  
HETATM   19  C   UNL     1      -9.468   9.014  65.587  1.00  0.00    -0.273 C  
HETATM   20  C   UNL     1      -8.158   7.601  67.216  1.00  0.00    -0.119 C  
ENDBRANCH  15  17
ENDBRANCH  14  15
ENDBRANCH  10  14
BRANCH  11  21
HETATM   21  O   UNL     1     -12.381   9.553  70.486  1.00  0.00    -0.145 OA 
BRANCH  21  22
HETATM   22  C   UNL     1     -11.449   8.845  71.264  1.00  0.00    -0.299 C  
HETATM   23  O   UNL     1     -10.384   9.295  71.673  1.00  0.00    -0.340 OA 
BRANCH  22  24
HETATM   24  C   UNL     1     -11.919   7.404  71.523  1.00  0.00    -0.337 C  
HETATM   25  C   UNL     1     -11.330   6.905  72.858  1.00  0.00    -0.199 C  
HETATM   26  C   UNL     1     -13.448   7.345  71.626  1.00  0.00    -0.437 C  
HETATM   27  C   UNL     1     -11.418   6.500  70.393  1.00  0.00    -0.465 C  
ENDBRANCH  22  24
ENDBRANCH  21  22
ENDBRANCH  11  21
ENDBRANCH   5   8
ENDBRANCH   4   5
ENDBRANCH   2   4
TORSDOF 9
ENDMDL
MODEL       59
REMARK 921   NORMALIZED FREE ENERGY PREDICTED BY IDOCK:   -4.94 KCAL/MOL
REMARK 922        TOTAL FREE ENERGY PREDICTED BY IDOCK:   -8.81 KCAL/MOL
REMARK 923 INTER-LIGAND FREE ENERGY PREDICTED BY IDOCK:   -7.71 KCAL/MOL
REMARK 924 INTRA-LIGAND FREE ENERGY PREDICTED BY IDOCK:   -1.10 KCAL/MOL
REMARK 927      BINDING AFFINITY PREDICTED BY RF-SCORE:    0.00 PKD
ROOT
HETATM    1  C   UNL     1     -14.388   7.292  71.674  1.00  0.00    -0.421 C  
HETATM    2  N   UNL     1     -13.796   8.531  71.196  1.00  0.00    -0.590 NA 
HETATM    3  H   UNL     1     -14.509   9.190  70.883  1.00  0.00     0.000 HD 
ENDROOT
BRANCH   2   4
HETATM    4  C   UNL     1     -12.914   9.130  72.211  1.00  0.00    -0.420 C  
BRANCH   4   5
HETATM    5  C   UNL     1     -11.459   9.252  71.689  1.00  0.00    -0.398 C  
HETATM    6  H   UNL     1      -9.949   8.031  71.390  1.00  0.00     0.000 HD 
HETATM    7  O   UNL     1     -10.841   7.957  71.710  1.00  0.00    -0.226 OA 
BRANCH   5   8
HETATM    8  C   UNL     1     -11.391   9.844  70.293  1.00  0.00    -0.357 A  
HETATM    9  C   UNL     1     -10.794   9.153  69.228  1.00  0.00    -0.150 A  
HETATM   10  C   UNL     1     -10.753   9.705  67.938  1.00  0.00    -0.247 A  
HETATM   11  C   UNL     1     -11.336  10.957  67.694  1.00  0.00    -0.270 A  
HETATM   12  C   UNL     1     -11.907  11.662  68.755  1.00  0.00    -0.387 A  
HETATM   13  C   UNL     1     -11.947  11.104  70.038  1.00  0.00    -0.447 A  
BRANCH  10  14
HETATM   14  O   UNL     1     -10.280   8.948  66.841  1.00  0.00    -0.243 OA 
BRANCH  14  15
HETATM   15  C   UNL     1     -10.337   7.546  66.887  1.00  0.00    -0.309 C  
HETATM   16  O   UNL     1     -11.364   6.896  67.022  1.00  0.00    -0.304 OA 
BRANCH  15  17
HETATM   17  C   UNL     1      -8.926   6.970  66.692  1.00  0.00    -0.157 C  
HETATM   18  C   UNL     1      -9.002   5.598  66.000  1.00  0.00    -0.158 C  
HETATM   19  C   UNL     1      -8.127   7.917  65.786  1.00  0.00    -0.123 C  
HETATM   20  C   UNL     1      -8.236   6.812  68.051  1.00  0.00    -0.114 C  
ENDBRANCH  15  17
ENDBRANCH  14  15
ENDBRANCH  10  14
BRANCH  11  21
HETATM   21  O   UNL     1     -11.273  11.513  66.389  1.00  0.00    -0.306 OA 
BRANCH  21  22
HETATM   22  C   UNL     1     -10.382  12.559  66.093  1.00  0.00    -0.253 C  
HETATM   23  O   UNL     1      -9.193  12.580  66.393  1.00  0.00    -0.230 OA 
BRANCH  22  24
HETATM   24  C   UNL     1     -11.095  13.707  65.360  1.00  0.00    -0.304 C  
HETATM   25  C   UNL     1     -11.617  13.200  64.000  1.00  0.00    -0.481 C  
HETATM   26  C   UNL     1     -12.296  14.205  66.175  1.00  0.00    -0.463 C  
HETATM   27  C   UNL     1     -10.099  14.844  65.114  1.00  0.00    -0.354 C  
ENDBRANCH  22  24
ENDBRANCH  21  22
ENDBRANCH  11  21
ENDBRANCH   5   8
ENDBRANCH   4   5
ENDBRANCH   2   4
TORSDOF 9
ENDMDL
MODEL       60
REMARK 921   NORMALIZED FREE ENERGY PREDICTED BY IDOCK:   -4.92 KCAL/MOL
REMARK 922        TOTAL FREE ENERGY PREDICTED BY IDOCK:   -8.79 KCAL/MOL
REMARK 923 INTER-LIGAND FREE ENERGY PREDICTED BY IDOCK:   -7.41 KCAL/MOL
REMARK 924 INTRA-LIGAND FREE ENERGY PREDICTED BY IDOCK:   -1.38 KCAL/MOL
REMARK 927      BINDING AFFINITY PREDICTED BY RF-SCORE:    0.00 PKD
ROOT
HETATM    1  C   UNL     1     -13.400   7.095  71.507  1.00  0.00    -0.344 C  
HETATM    2  N   UNL     1     -14.063   8.241  72.109  1.00  0.00    -0.547 NA 
HETATM    3  H   UNL     1     -14.619   7.968  72.920  1.00  0.00     0.000 HD 
ENDROOT
BRANCH   2   4
HETATM    4  C   UNL     1     -13.099   9.301  72.447  1.00  0.00    -0.406 C  
BRANCH   4   5
HETATM    5  C   UNL     1     -13.139  10.450  71.406  1.00  0.00    -0.413 C  
HETATM    6  H   UNL     1     -13.337  12.404  71.452  1.00  0.00     0.000 HD 
HETATM    7  O   UNL     1     -13.312  11.699  72.089  1.00  0.00    -0.491 OA 
BRANCH   5   8
HETATM    8  C   UNL     1     -11.892  10.492  70.541  1.00  0.00    -0.442 A  
HETATM    9  C   UNL     1     -11.775  11.380  69.461  1.00  0.00    -0.417 A  
HETATM   10  C   UNL     1     -10.610  11.421  68.679  1.00  0.00    -0.199 A  
HETATM   11  C   UNL     1      -9.531  10.581  68.988  1.00  0.00    -0.201 A  
HETATM   12  C   UNL     1      -9.651   9.675  70.043  1.00  0.00    -0.281 A  
HETATM   13  C   UNL     1     -10.815   9.642  70.820  1.00  0.00    -0.400 A  
BRANCH  10  14
HETATM   14  O   UNL     1     -10.439  12.412  67.685  1.00  0.00    -0.211 OA 
BRANCH  14  15
HETATM   15  C   UNL     1     -11.215  12.367  66.516  1.00  0.00    -0.319 C  
HETATM   16  O   UNL     1     -11.668  11.344  66.022  1.00  0.00    -0.223 OA 
BRANCH  15  17
HETATM   17  C   UNL     1     -11.440  13.794  65.995  1.00  0.00    -0.336 C  
HETATM   18  C   UNL     1     -11.160  14.818  67.109  1.00  0.00    -0.333 C  
HETATM   19  C   UNL     1     -10.458  14.061  64.845  1.00  0.00    -0.453 C  
HETATM   20  C   UNL     1     -12.888  13.953  65.518  1.00  0.00    -0.471 C  
ENDBRANCH  15  17
ENDBRANCH  14  15
ENDBRANCH  10  14
BRANCH  11  21
HETATM   21  O   UNL     1      -8.365  10.618  68.179  1.00  0.00    -0.115 OA 
BRANCH  21  22
HETATM   22  C   UNL     1      -7.781   9.433  67.700  1.00  0.00    -0.088 C  
HETATM   23  O   UNL     1      -6.986   8.736  68.322  1.00  0.00    -0.071 OA 
BRANCH  22  24
HETATM   24  C   UNL     1      -8.243   9.123  66.267  1.00  0.00    -0.111 C  
HETATM   25  C   UNL     1      -7.266   8.121  65.619  1.00  0.00    -0.071 C  
HETATM   26  C   UNL     1      -9.640   8.489  66.275  1.00  0.00    -0.306 C  
HETATM   27  C   UNL     1      -8.241  10.417  65.446  1.00  0.00    -0.159 C  
ENDBRANCH  22  24
ENDBRANCH  21  22
ENDBRANCH  11  21
ENDBRANCH   5   8
ENDBRANCH   4   5
ENDBRANCH   2   4
TORSDOF 9
ENDMDL
MODEL       61
REMARK 921   NORMALIZED FREE ENERGY PREDICTED BY IDOCK:   -4.91 KCAL/MOL
REMARK 922        TOTAL FREE ENERGY PREDICTED BY IDOCK:   -8.77 KCAL/MOL
REMARK 923 INTER-LIGAND FREE ENERGY PREDICTED BY IDOCK:   -7.80 KCAL/MOL
REMARK 924 INTRA-LIGAND FREE ENERGY PREDICTED BY IDOCK:   -0.97 KCAL/MOL
REMARK 927      BINDING AFFINITY PREDICTED BY RF-SCORE:    0.00 PKD
ROOT
HETATM    1  C   UNL     1     -12.347  15.955  74.432  1.00  0.00    -0.619 C  
HETATM    2  N   UNL     1     -12.883  15.760  73.094  1.00  0.00    -0.470 NA 
HETATM    3  H   UNL     1     -13.265  16.626  72.714  1.00  0.00     0.000 HD 
ENDROOT
BRANCH   2   4
HETATM    4  C   UNL     1     -11.877  15.173  72.194  1.00  0.00    -0.415 C  
BRANCH   4   5
HETATM    5  C   UNL     1     -12.423  15.048  70.747  1.00  0.00    -0.352 C  
HETATM    6  H   UNL     1     -12.195  16.014  69.053  1.00  0.00     0.000 HD 
HETATM    7  O   UNL     1     -11.861  16.090  69.939  1.00  0.00    -0.315 OA 
BRANCH   5   8
HETATM    8  C   UNL     1     -12.130  13.690  70.133  1.00  0.00    -0.431 A  
HETATM    9  C   UNL     1     -11.766  13.556  68.785  1.00  0.00    -0.373 A  
HETATM   10  C   UNL     1     -11.481  12.296  68.233  1.00  0.00    -0.315 A  
HETATM   11  C   UNL     1     -11.536  11.151  69.040  1.00  0.00    -0.296 A  
HETATM   12  C   UNL     1     -11.924  11.274  70.376  1.00  0.00    -0.471 A  
HETATM   13  C   UNL     1     -12.204  12.533  70.919  1.00  0.00    -0.277 A  
BRANCH  10  14
HETATM   14  O   UNL     1     -10.977  12.179  66.917  1.00  0.00    -0.245 OA 
BRANCH  14  15
HETATM   15  C   UNL     1     -11.828  12.409  65.824  1.00  0.00    -0.406 C  
HETATM   16  O   UNL     1     -12.937  12.916  65.901  1.00  0.00    -0.179 OA 
BRANCH  15  17
HETATM   17  C   UNL     1     -11.126  11.972  64.529  1.00  0.00    -0.384 C  
HETATM   18  C   UNL     1     -10.184  13.083  64.033  1.00  0.00    -0.166 C  
HETATM   19  C   UNL     1     -10.278  10.726  64.822  1.00  0.00    -0.403 C  
HETATM   20  C   UNL     1     -12.168  11.674  63.445  1.00  0.00    -0.319 C  
ENDBRANCH  15  17
ENDBRANCH  14  15
ENDBRANCH  10  14
BRANCH  11  21
HETATM   21  O   UNL     1     -11.263   9.881  68.467  1.00  0.00    -0.181 OA 
BRANCH  21  22
HETATM   22  C   UNL     1     -10.084   9.184  68.785  1.00  0.00    -0.197 C  
HETATM   23  O   UNL     1      -9.075   9.687  69.267  1.00  0.00    -0.152 OA 
BRANCH  22  24
HETATM   24  C   UNL     1     -10.202   7.695  68.422  1.00  0.00    -0.226 C  
HETATM   25  C   UNL     1      -8.856   6.994  68.694  1.00  0.00    -0.128 C  
HETATM   26  C   UNL     1     -11.275   7.014  69.281  1.00  0.00    -0.114 C  
HETATM   27  C   UNL     1     -10.537   7.563  66.933  1.00  0.00    -0.367 C  
ENDBRANCH  22  24
ENDBRANCH  21  22
ENDBRANCH  11  21
ENDBRANCH   5   8
ENDBRANCH   4   5
ENDBRANCH   2   4
TORSDOF 9
ENDMDL
MODEL       62
REMARK 921   NORMALIZED FREE ENERGY PREDICTED BY IDOCK:   -4.90 KCAL/MOL
REMARK 922        TOTAL FREE ENERGY PREDICTED BY IDOCK:   -8.75 KCAL/MOL
REMARK 923 INTER-LIGAND FREE ENERGY PREDICTED BY IDOCK:   -7.70 KCAL/MOL
REMARK 924 INTRA-LIGAND FREE ENERGY PREDICTED BY IDOCK:   -1.05 KCAL/MOL
REMARK 927      BINDING AFFINITY PREDICTED BY RF-SCORE:    0.00 PKD
ROOT
HETATM    1  C   UNL     1     -10.608   7.044  73.609  1.00  0.00    -0.345 C  
HETATM    2  N   UNL     1     -11.646   7.748  72.873  1.00  0.00    -0.603 NA 
HETATM    3  H   UNL     1     -12.331   8.167  73.503  1.00  0.00     0.000 HD 
ENDROOT
BRANCH   2   4
HETATM    4  C   UNL     1     -11.071   8.748  71.959  1.00  0.00    -0.371 C  
BRANCH   4   5
HETATM    5  C   UNL     1     -12.181   9.511  71.191  1.00  0.00    -0.338 C  
HETATM    6  H   UNL     1     -13.700  10.664  71.660  1.00  0.00     0.000 HD 
HETATM    7  O   UNL     1     -13.020  10.197  72.131  1.00  0.00    -0.415 OA 
BRANCH   5   8
HETATM    8  C   UNL     1     -11.617  10.491  70.177  1.00  0.00    -0.408 A  
HETATM    9  C   UNL     1     -10.605  10.120  69.279  1.00  0.00    -0.254 A  
HETATM   10  C   UNL     1     -10.104  11.031  68.336  1.00  0.00    -0.184 A  
HETATM   11  C   UNL     1     -10.632  12.328  68.266  1.00  0.00    -0.227 A  
HETATM   12  C   UNL     1     -11.620  12.712  69.176  1.00  0.00    -0.374 A  
HETATM   13  C   UNL     1     -12.117  11.798  70.111  1.00  0.00    -0.398 A  
BRANCH  10  14
HETATM   14  O   UNL     1      -9.189  10.614  67.341  1.00  0.00    -0.143 OA 
BRANCH  14  15
HETATM   15  C   UNL     1      -9.628   9.787  66.295  1.00  0.00    -0.213 C  
HETATM   16  O   UNL     1     -10.398  10.134  65.410  1.00  0.00    -0.257 OA 
BRANCH  15  17
HETATM   17  C   UNL     1      -8.955   8.411  66.414  1.00  0.00    -0.207 C  
HETATM   18  C   UNL     1      -8.382   7.979  65.052  1.00  0.00    -0.121 C  
HETATM   19  C   UNL     1      -7.791   8.515  67.409  1.00  0.00    -0.098 C  
HETATM   20  C   UNL     1      -9.977   7.369  66.883  1.00  0.00    -0.307 C  
ENDBRANCH  15  17
ENDBRANCH  14  15
ENDBRANCH  10  14
BRANCH  11  21
HETATM   21  O   UNL     1     -10.105  13.245  67.320  1.00  0.00    -0.230 OA 
BRANCH  21  22
HETATM   22  C   UNL     1     -10.806  14.417  66.983  1.00  0.00    -0.297 C  
HETATM   23  O   UNL     1     -11.023  15.353  67.744  1.00  0.00    -0.294 OA 
BRANCH  22  24
HETATM   24  C   UNL     1     -11.302  14.370  65.529  1.00  0.00    -0.334 C  
HETATM   25  C   UNL     1     -10.389  13.439  64.706  1.00  0.00    -0.397 C  
HETATM   26  C   UNL     1     -12.731  13.814  65.463  1.00  0.00    -0.530 C  
HETATM   27  C   UNL     1     -11.242  15.779  64.930  1.00  0.00    -0.358 C  
ENDBRANCH  22  24
ENDBRANCH  21  22
ENDBRANCH  11  21
ENDBRANCH   5   8
ENDBRANCH   4   5
ENDBRANCH   2   4
TORSDOF 9
ENDMDL
MODEL       63
REMARK 921   NORMALIZED FREE ENERGY PREDICTED BY IDOCK:   -4.89 KCAL/MOL
REMARK 922        TOTAL FREE ENERGY PREDICTED BY IDOCK:   -8.74 KCAL/MOL
REMARK 923 INTER-LIGAND FREE ENERGY PREDICTED BY IDOCK:   -7.70 KCAL/MOL
REMARK 924 INTRA-LIGAND FREE ENERGY PREDICTED BY IDOCK:   -1.04 KCAL/MOL
REMARK 927      BINDING AFFINITY PREDICTED BY RF-SCORE:    0.00 PKD
ROOT
HETATM    1  C   UNL     1     -14.224   7.927  71.707  1.00  0.00    -0.451 C  
HETATM    2  N   UNL     1     -13.623   8.818  72.686  1.00  0.00    -0.703 NA 
HETATM    3  H   UNL     1     -13.345   8.315  73.529  1.00  0.00     0.000 HD 
ENDROOT
BRANCH   2   4
HETATM    4  C   UNL     1     -12.496   9.568  72.108  1.00  0.00    -0.301 C  
BRANCH   4   5
HETATM    5  C   UNL     1     -12.992  10.807  71.318  1.00  0.00    -0.402 C  
HETATM    6  H   UNL     1     -13.264  12.716  71.692  1.00  0.00     0.000 HD 
HETATM    7  O   UNL     1     -12.961  11.957  72.175  1.00  0.00    -0.365 OA 
BRANCH   5   8
HETATM    8  C   UNL     1     -12.172  11.063  70.066  1.00  0.00    -0.418 A  
HETATM    9  C   UNL     1     -11.965  12.360  69.574  1.00  0.00    -0.324 A  
HETATM   10  C   UNL     1     -11.190  12.584  68.424  1.00  0.00    -0.272 A  
HETATM   11  C   UNL     1     -10.590  11.503  67.764  1.00  0.00    -0.192 A  
HETATM   12  C   UNL     1     -10.814  10.207  68.233  1.00  0.00    -0.297 A  
HETATM   13  C   UNL     1     -11.585   9.991  69.381  1.00  0.00    -0.084 A  
BRANCH  10  14
HETATM   14  O   UNL     1     -10.866  13.898  68.014  1.00  0.00    -0.239 OA 
BRANCH  14  15
HETATM   15  C   UNL     1      -9.698  14.510  68.496  1.00  0.00    -0.224 C  
HETATM   16  O   UNL     1      -8.600  13.974  68.539  1.00  0.00    -0.169 OA 
BRANCH  15  17
HETATM   17  C   UNL     1     -10.011  15.956  68.909  1.00  0.00    -0.225 C  
HETATM   18  C   UNL     1     -11.004  16.590  67.919  1.00  0.00    -0.288 C  
HETATM   19  C   UNL     1     -10.666  15.943  70.297  1.00  0.00    -0.313 C  
HETATM   20  C   UNL     1      -8.721  16.783  68.928  1.00  0.00    -0.224 C  
ENDBRANCH  15  17
ENDBRANCH  14  15
ENDBRANCH  10  14
BRANCH  11  21
HETATM   21  O   UNL     1      -9.823  11.740  66.593  1.00  0.00    -0.196 OA 
BRANCH  21  22
HETATM   22  C   UNL     1     -10.198  11.178  65.360  1.00  0.00    -0.271 C  
HETATM   23  O   UNL     1     -10.134   9.986  65.079  1.00  0.00    -0.323 OA 
BRANCH  22  24
HETATM   24  C   UNL     1     -10.679  12.259  64.378  1.00  0.00    -0.369 C  
HETATM   25  C   UNL     1     -12.221  12.268  64.342  1.00  0.00    -0.488 C  
HETATM   26  C   UNL     1     -10.207  13.647  64.830  1.00  0.00    -0.363 C  
HETATM   27  C   UNL     1     -10.153  11.938  62.976  1.00  0.00    -0.194 C  
ENDBRANCH  22  24
ENDBRANCH  21  22
ENDBRANCH  11  21
ENDBRANCH   5   8
ENDBRANCH   4   5
ENDBRANCH   2   4
TORSDOF 9
ENDMDL
MODEL       64
REMARK 921   NORMALIZED FREE ENERGY PREDICTED BY IDOCK:   -4.88 KCAL/MOL
REMARK 922        TOTAL FREE ENERGY PREDICTED BY IDOCK:   -8.73 KCAL/MOL
REMARK 923 INTER-LIGAND FREE ENERGY PREDICTED BY IDOCK:   -7.64 KCAL/MOL
REMARK 924 INTRA-LIGAND FREE ENERGY PREDICTED BY IDOCK:   -1.09 KCAL/MOL
REMARK 927      BINDING AFFINITY PREDICTED BY RF-SCORE:    0.00 PKD
ROOT
HETATM    1  C   UNL     1     -10.074   5.420  70.029  1.00  0.00    -0.254 C  
HETATM    2  N   UNL     1     -10.496   5.534  71.416  1.00  0.00    -0.234 NA 
HETATM    3  H   UNL     1      -9.735   5.858  72.013  1.00  0.00     0.000 HD 
ENDROOT
BRANCH   2   4
HETATM    4  C   UNL     1     -11.686   6.391  71.546  1.00  0.00    -0.313 C  
BRANCH   4   5
HETATM    5  C   UNL     1     -11.366   7.678  72.351  1.00  0.00    -0.329 C  
HETATM    6  H   UNL     1      -9.815   8.405  73.312  1.00  0.00     0.000 HD 
HETATM    7  O   UNL     1     -10.011   7.617  72.819  1.00  0.00    -0.197 OA 
BRANCH   5   8
HETATM    8  C   UNL     1     -11.584   8.940  71.536  1.00  0.00    -0.388 A  
HETATM    9  C   UNL     1     -10.722   9.299  70.489  1.00  0.00    -0.313 A  
HETATM   10  C   UNL     1     -10.945  10.460  69.732  1.00  0.00    -0.293 A  
HETATM   11  C   UNL     1     -12.057  11.270  70.004  1.00  0.00    -0.348 A  
HETATM   12  C   UNL     1     -12.903  10.934  71.063  1.00  0.00    -0.472 A  
HETATM   13  C   UNL     1     -12.676   9.773  71.811  1.00  0.00    -0.519 A  
BRANCH  10  14
HETATM   14  O   UNL     1     -10.160  10.742  68.590  1.00  0.00    -0.168 OA 
BRANCH  14  15
HETATM   15  C   UNL     1     -10.620  10.361  67.319  1.00  0.00    -0.267 C  
HETATM   16  O   UNL     1     -11.550  10.891  66.729  1.00  0.00    -0.254 OA 
BRANCH  15  17
HETATM   17  C   UNL     1      -9.744   9.220  66.779  1.00  0.00    -0.260 C  
HETATM   18  C   UNL     1      -8.401   9.180  67.528  1.00  0.00    -0.116 C  
HETATM   19  C   UNL     1     -10.465   7.887  67.022  1.00  0.00    -0.419 C  
HETATM   20  C   UNL     1      -9.481   9.428  65.283  1.00  0.00    -0.296 C  
ENDBRANCH  15  17
ENDBRANCH  14  15
ENDBRANCH  10  14
BRANCH  11  21
HETATM   21  O   UNL     1     -12.262  12.451  69.244  1.00  0.00    -0.195 OA 
BRANCH  21  22
HETATM   22  C   UNL     1     -11.920  13.712  69.764  1.00  0.00    -0.341 C  
HETATM   23  O   UNL     1     -12.098  14.069  70.923  1.00  0.00    -0.333 OA 
BRANCH  22  24
HETATM   24  C   UNL     1     -11.311  14.614  68.679  1.00  0.00    -0.305 C  
HETATM   25  C   UNL     1     -11.904  14.237  67.306  1.00  0.00    -0.444 C  
HETATM   26  C   UNL     1     -11.644  16.087  68.952  1.00  0.00    -0.354 C  
HETATM   27  C   UNL     1      -9.795  14.401  68.637  1.00  0.00    -0.231 C  
ENDBRANCH  22  24
ENDBRANCH  21  22
ENDBRANCH  11  21
ENDBRANCH   5   8
ENDBRANCH   4   5
ENDBRANCH   2   4
TORSDOF 9
ENDMDL
MODEL       65
REMARK 921   NORMALIZED FREE ENERGY PREDICTED BY IDOCK:   -4.84 KCAL/MOL
REMARK 922        TOTAL FREE ENERGY PREDICTED BY IDOCK:   -8.66 KCAL/MOL
REMARK 923 INTER-LIGAND FREE ENERGY PREDICTED BY IDOCK:   -7.34 KCAL/MOL
REMARK 924 INTRA-LIGAND FREE ENERGY PREDICTED BY IDOCK:   -1.32 KCAL/MOL
REMARK 927      BINDING AFFINITY PREDICTED BY RF-SCORE:    0.00 PKD
ROOT
HETATM    1  C   UNL     1     -12.165  13.017  63.501  1.00  0.00    -0.501 C  
HETATM    2  N   UNL     1     -12.951  12.901  64.718  1.00  0.00    -0.788 NA 
HETATM    3  H   UNL     1     -13.183  11.928  64.922  1.00  0.00     0.000 HD 
ENDROOT
BRANCH   2   4
HETATM    4  C   UNL     1     -12.276  13.545  65.856  1.00  0.00    -0.460 C  
BRANCH   4   5
HETATM    5  C   UNL     1     -10.797  13.090  65.962  1.00  0.00    -0.272 C  
HETATM    6  H   UNL     1      -9.188  13.692  66.915  1.00  0.00     0.000 HD 
HETATM    7  O   UNL     1     -10.094  13.970  66.850  1.00  0.00    -0.251 OA 
BRANCH   5   8
HETATM    8  C   UNL     1     -10.665  11.652  66.435  1.00  0.00    -0.316 A  
HETATM    9  C   UNL     1     -11.063  11.262  67.722  1.00  0.00    -0.328 A  
HETATM   10  C   UNL     1     -10.952   9.926  68.141  1.00  0.00    -0.207 A  
HETATM   11  C   UNL     1     -10.459   8.955  67.258  1.00  0.00    -0.277 A  
HETATM   12  C   UNL     1     -10.035   9.342  65.985  1.00  0.00    -0.352 A  
HETATM   13  C   UNL     1     -10.151  10.675  65.574  1.00  0.00    -0.343 A  
BRANCH  10  14
HETATM   14  O   UNL     1     -11.485   9.509  69.383  1.00  0.00    -0.027 OA 
BRANCH  14  15
HETATM   15  C   UNL     1     -10.619   9.229  70.452  1.00  0.00    -0.248 C  
HETATM   16  O   UNL     1      -9.478   9.656  70.553  1.00  0.00    -0.256 OA 
BRANCH  15  17
HETATM   17  C   UNL     1     -11.346   8.351  71.483  1.00  0.00    -0.334 C  
HETATM   18  C   UNL     1     -11.774   7.020  70.840  1.00  0.00    -0.387 C  
HETATM   19  C   UNL     1     -10.380   8.036  72.633  1.00  0.00    -0.398 C  
HETATM   20  C   UNL     1     -12.589   9.081  72.005  1.00  0.00    -0.464 C  
ENDBRANCH  15  17
ENDBRANCH  14  15
ENDBRANCH  10  14
BRANCH  11  21
HETATM   21  O   UNL     1     -10.334   7.611  67.699  1.00  0.00    -0.202 OA 
BRANCH  21  22
HETATM   22  C   UNL     1      -9.072   7.001  67.805  1.00  0.00    -0.126 C  
HETATM   23  O   UNL     1      -8.140   7.421  68.481  1.00  0.00    -0.121 OA 
BRANCH  22  24
HETATM   24  C   UNL     1      -8.990   5.736  66.935  1.00  0.00    -0.114 C  
HETATM   25  C   UNL     1      -8.361   6.092  65.573  1.00  0.00    -0.146 C  
HETATM   26  C   UNL     1      -8.105   4.677  67.605  1.00  0.00    -0.100 C  
HETATM   27  C   UNL     1     -10.402   5.192  66.701  1.00  0.00    -0.325 C  
ENDBRANCH  22  24
ENDBRANCH  21  22
ENDBRANCH  11  21
ENDBRANCH   5   8
ENDBRANCH   4   5
ENDBRANCH   2   4
TORSDOF 9
ENDMDL
MODEL       66
REMARK 921   NORMALIZED FREE ENERGY PREDICTED BY IDOCK:   -4.83 KCAL/MOL
REMARK 922        TOTAL FREE ENERGY PREDICTED BY IDOCK:   -8.65 KCAL/MOL
REMARK 923 INTER-LIGAND FREE ENERGY PREDICTED BY IDOCK:   -7.31 KCAL/MOL
REMARK 924 INTRA-LIGAND FREE ENERGY PREDICTED BY IDOCK:   -1.34 KCAL/MOL
REMARK 927      BINDING AFFINITY PREDICTED BY RF-SCORE:    0.00 PKD
ROOT
HETATM    1  C   UNL     1     -12.382  12.142  63.457  1.00  0.00    -0.574 C  
HETATM    2  N   UNL     1     -13.074  12.488  64.689  1.00  0.00    -0.837 NA 
HETATM    3  H   UNL     1     -13.817  11.822  64.900  1.00  0.00     0.000 HD 
ENDROOT
BRANCH   2   4
HETATM    4  C   UNL     1     -12.133  12.620  65.813  1.00  0.00    -0.423 C  
BRANCH   4   5
HETATM    5  C   UNL     1     -10.884  11.723  65.609  1.00  0.00    -0.292 C  
HETATM    6  H   UNL     1      -8.958  12.005  65.347  1.00  0.00     0.000 HD 
HETATM    7  O   UNL     1      -9.723  12.554  65.472  1.00  0.00    -0.220 OA 
BRANCH   5   8
HETATM    8  C   UNL     1     -10.690  10.733  66.744  1.00  0.00    -0.291 A  
HETATM    9  C   UNL     1     -10.133   9.464  66.526  1.00  0.00    -0.332 A  
HETATM   10  C   UNL     1      -9.943   8.564  67.587  1.00  0.00    -0.198 A  
HETATM   11  C   UNL     1     -10.291   8.938  68.893  1.00  0.00    -0.212 A  
HETATM   12  C   UNL     1     -10.872  10.189  69.112  1.00  0.00    -0.260 A  
HETATM   13  C   UNL     1     -11.056  11.082  68.050  1.00  0.00    -0.343 A  
BRANCH  10  14
HETATM   14  O   UNL     1      -9.252   7.346  67.389  1.00  0.00    -0.129 OA 
BRANCH  14  15
HETATM   15  C   UNL     1      -9.972   6.178  67.089  1.00  0.00    -0.154 C  
HETATM   16  O   UNL     1     -11.104   6.159  66.626  1.00  0.00    -0.284 OA 
BRANCH  15  17
HETATM   17  C   UNL     1      -9.100   4.949  67.386  1.00  0.00    -0.124 C  
HETATM   18  C   UNL     1      -9.426   4.390  68.782  1.00  0.00    -0.227 C  
HETATM   19  C   UNL     1      -9.415   3.859  66.351  1.00  0.00    -0.204 C  
HETATM   20  C   UNL     1      -7.619   5.335  67.330  1.00  0.00    -0.088 C  
ENDBRANCH  15  17
ENDBRANCH  14  15
ENDBRANCH  10  14
BRANCH  11  21
HETATM   21  O   UNL     1     -10.112   8.014  69.954  1.00  0.00    -0.191 OA 
BRANCH  21  22
HETATM   22  C   UNL     1     -11.202   7.300  70.482  1.00  0.00    -0.279 C  
HETATM   23  O   UNL     1     -11.938   6.559  69.840  1.00  0.00    -0.319 OA 
BRANCH  22  24
HETATM   24  C   UNL     1     -11.382   7.587  71.982  1.00  0.00    -0.314 C  
HETATM   25  C   UNL     1     -10.141   8.333  72.513  1.00  0.00    -0.376 C  
HETATM   26  C   UNL     1     -12.609   8.477  72.218  1.00  0.00    -0.438 C  
HETATM   27  C   UNL     1     -11.522   6.262  72.736  1.00  0.00    -0.199 C  
ENDBRANCH  22  24
ENDBRANCH  21  22
ENDBRANCH  11  21
ENDBRANCH   5   8
ENDBRANCH   4   5
ENDBRANCH   2   4
TORSDOF 9
ENDMDL
MODEL       67
REMARK 921   NORMALIZED FREE ENERGY PREDICTED BY IDOCK:   -4.82 KCAL/MOL
REMARK 922        TOTAL FREE ENERGY PREDICTED BY IDOCK:   -8.63 KCAL/MOL
REMARK 923 INTER-LIGAND FREE ENERGY PREDICTED BY IDOCK:   -7.32 KCAL/MOL
REMARK 924 INTRA-LIGAND FREE ENERGY PREDICTED BY IDOCK:   -1.31 KCAL/MOL
REMARK 927      BINDING AFFINITY PREDICTED BY RF-SCORE:    0.00 PKD
ROOT
HETATM    1  C   UNL     1     -11.105   6.114  68.988  1.00  0.00    -0.367 C  
HETATM    2  N   UNL     1     -11.882   6.708  70.063  1.00  0.00    -0.638 NA 
HETATM    3  H   UNL     1     -12.782   6.240  70.176  1.00  0.00     0.000 HD 
ENDROOT
BRANCH   2   4
HETATM    4  C   UNL     1     -11.124   6.731  71.325  1.00  0.00    -0.262 C  
BRANCH   4   5
HETATM    5  C   UNL     1     -11.299   8.086  72.060  1.00  0.00    -0.302 C  
HETATM    6  H   UNL     1     -10.434   9.011  73.562  1.00  0.00     0.000 HD 
HETATM    7  O   UNL     1     -10.327   8.181  73.111  1.00  0.00    -0.289 OA 
BRANCH   5   8
HETATM    8  C   UNL     1     -11.177   9.274  71.123  1.00  0.00    -0.413 A  
HETATM    9  C   UNL     1     -10.060   9.445  70.291  1.00  0.00    -0.288 A  
HETATM   10  C   UNL     1      -9.969  10.539  69.417  1.00  0.00    -0.196 A  
HETATM   11  C   UNL     1     -11.015  11.470  69.348  1.00  0.00    -0.176 A  
HETATM   12  C   UNL     1     -12.117  11.321  70.193  1.00  0.00    -0.448 A  
HETATM   13  C   UNL     1     -12.203  10.226  71.060  1.00  0.00    -0.487 A  
BRANCH  10  14
HETATM   14  O   UNL     1      -8.913  10.632  68.480  1.00  0.00    -0.141 OA 
BRANCH  14  15
HETATM   15  C   UNL     1      -8.952   9.858  67.309  1.00  0.00    -0.135 C  
HETATM   16  O   UNL     1      -9.738   8.945  67.106  1.00  0.00    -0.160 OA 
BRANCH  15  17
HETATM   17  C   UNL     1      -7.893  10.372  66.321  1.00  0.00    -0.132 C  
HETATM   18  C   UNL     1      -8.496  10.493  64.910  1.00  0.00    -0.161 C  
HETATM   19  C   UNL     1      -7.439  11.769  66.766  1.00  0.00    -0.057 C  
HETATM   20  C   UNL     1      -6.705   9.405  66.280  1.00  0.00    -0.075 C  
ENDBRANCH  15  17
ENDBRANCH  14  15
ENDBRANCH  10  14
BRANCH  11  21
HETATM   21  O   UNL     1     -10.903  12.582  68.473  1.00  0.00    -0.227 OA 
BRANCH  21  22
HETATM   22  C   UNL     1     -11.476  12.551  67.190  1.00  0.00    -0.351 C  
HETATM   23  O   UNL     1     -11.882  11.543  66.622  1.00  0.00    -0.470 OA 
BRANCH  22  24
HETATM   24  C   UNL     1     -11.508  13.953  66.560  1.00  0.00    -0.361 C  
HETATM   25  C   UNL     1     -12.719  14.061  65.611  1.00  0.00    -0.515 C  
HETATM   26  C   UNL     1     -11.656  15.029  67.644  1.00  0.00    -0.327 C  
HETATM   27  C   UNL     1     -10.225  14.173  65.752  1.00  0.00    -0.347 C  
ENDBRANCH  22  24
ENDBRANCH  21  22
ENDBRANCH  11  21
ENDBRANCH   5   8
ENDBRANCH   4   5
ENDBRANCH   2   4
TORSDOF 9
ENDMDL
MODEL       68
REMARK 921   NORMALIZED FREE ENERGY PREDICTED BY IDOCK:   -4.82 KCAL/MOL
REMARK 922        TOTAL FREE ENERGY PREDICTED BY IDOCK:   -8.63 KCAL/MOL
REMARK 923 INTER-LIGAND FREE ENERGY PREDICTED BY IDOCK:   -7.43 KCAL/MOL
REMARK 924 INTRA-LIGAND FREE ENERGY PREDICTED BY IDOCK:   -1.20 KCAL/MOL
REMARK 927      BINDING AFFINITY PREDICTED BY RF-SCORE:    0.00 PKD
ROOT
HETATM    1  C   UNL     1     -12.141  14.400  64.371  1.00  0.00    -0.470 C  
HETATM    2  N   UNL     1     -12.712  13.084  64.606  1.00  0.00    -0.709 NA 
HETATM    3  H   UNL     1     -13.405  12.844  63.897  1.00  0.00     0.000 HD 
ENDROOT
BRANCH   2   4
HETATM    4  C   UNL     1     -11.664  12.055  64.706  1.00  0.00    -0.275 C  
BRANCH   4   5
HETATM    5  C   UNL     1     -11.096  11.970  66.147  1.00  0.00    -0.322 C  
HETATM    6  H   UNL     1     -11.787  12.241  67.966  1.00  0.00     0.000 HD 
HETATM    7  O   UNL     1     -12.134  12.292  67.083  1.00  0.00    -0.560 OA 
BRANCH   5   8
HETATM    8  C   UNL     1     -10.512  10.604  66.461  1.00  0.00    -0.285 A  
HETATM    9  C   UNL     1     -10.736   9.972  67.693  1.00  0.00    -0.340 A  
HETATM   10  C   UNL     1     -10.204   8.701  67.964  1.00  0.00    -0.210 A  
HETATM   11  C   UNL     1      -9.455   8.034  66.985  1.00  0.00    -0.174 A  
HETATM   12  C   UNL     1      -9.204   8.668  65.767  1.00  0.00    -0.245 A  
HETATM   13  C   UNL     1      -9.740   9.934  65.503  1.00  0.00    -0.370 A  
BRANCH  10  14
HETATM   14  O   UNL     1     -10.550   8.008  69.147  1.00  0.00    -0.219 OA 
BRANCH  14  15
HETATM   15  C   UNL     1     -10.089   8.478  70.388  1.00  0.00    -0.189 C  
HETATM   16  O   UNL     1      -8.994   8.987  70.575  1.00  0.00    -0.173 OA 
BRANCH  15  17
HETATM   17  C   UNL     1     -11.189   8.294  71.445  1.00  0.00    -0.304 C  
HETATM   18  C   UNL     1     -12.040   9.572  71.555  1.00  0.00    -0.468 C  
HETATM   19  C   UNL     1     -12.109   7.146  71.006  1.00  0.00    -0.391 C  
HETATM   20  C   UNL     1     -10.558   7.991  72.808  1.00  0.00    -0.420 C  
ENDBRANCH  15  17
ENDBRANCH  14  15
ENDBRANCH  10  14
BRANCH  11  21
HETATM   21  O   UNL     1      -8.907   6.757  67.276  1.00  0.00    -0.117 OA 
BRANCH  21  22
HETATM   22  C   UNL     1      -9.701   5.599  67.208  1.00  0.00    -0.135 C  
HETATM   23  O   UNL     1     -10.711   5.475  66.524  1.00  0.00    -0.296 OA 
BRANCH  22  24
HETATM   24  C   UNL     1      -9.158   4.496  68.131  1.00  0.00    -0.155 C  
HETATM   25  C   UNL     1      -9.910   4.538  69.477  1.00  0.00    -0.277 C  
HETATM   26  C   UNL     1      -9.377   3.112  67.507  1.00  0.00    -0.241 C  
HETATM   27  C   UNL     1      -7.668   4.743  68.390  1.00  0.00    -0.081 C  
ENDBRANCH  22  24
ENDBRANCH  21  22
ENDBRANCH  11  21
ENDBRANCH   5   8
ENDBRANCH   4   5
ENDBRANCH   2   4
TORSDOF 9
ENDMDL
MODEL       69
REMARK 921   NORMALIZED FREE ENERGY PREDICTED BY IDOCK:   -4.79 KCAL/MOL
REMARK 922        TOTAL FREE ENERGY PREDICTED BY IDOCK:   -8.58 KCAL/MOL
REMARK 923 INTER-LIGAND FREE ENERGY PREDICTED BY IDOCK:   -7.56 KCAL/MOL
REMARK 924 INTRA-LIGAND FREE ENERGY PREDICTED BY IDOCK:   -1.02 KCAL/MOL
REMARK 927      BINDING AFFINITY PREDICTED BY RF-SCORE:    0.00 PKD
ROOT
HETATM    1  C   UNL     1      -9.676  19.283  68.671  1.00  0.00    -0.429 C  
HETATM    2  N   UNL     1     -10.521  18.149  69.008  1.00  0.00    -0.410 NA 
HETATM    3  H   UNL     1     -11.498  18.328  68.775  1.00  0.00     0.000 HD 
ENDROOT
BRANCH   2   4
HETATM    4  C   UNL     1     -10.034  16.911  68.378  1.00  0.00    -0.275 C  
BRANCH   4   5
HETATM    5  C   UNL     1     -11.154  16.223  67.554  1.00  0.00    -0.140 C  
HETATM    6  H   UNL     1     -11.477  15.808  65.661  1.00  0.00     0.000 HD 
HETATM    7  O   UNL     1     -10.792  16.230  66.166  1.00  0.00    -0.234 OA 
BRANCH   5   8
HETATM    8  C   UNL     1     -11.426  14.802  68.019  1.00  0.00    -0.351 A  
HETATM    9  C   UNL     1     -11.489  13.732  67.114  1.00  0.00    -0.365 A  
HETATM   10  C   UNL     1     -11.724  12.421  67.559  1.00  0.00    -0.357 A  
HETATM   11  C   UNL     1     -11.876  12.163  68.929  1.00  0.00    -0.304 A  
HETATM   12  C   UNL     1     -11.842  13.229  69.831  1.00  0.00    -0.380 A  
HETATM   13  C   UNL     1     -11.605  14.532  69.381  1.00  0.00    -0.343 A  
BRANCH  10  14
HETATM   14  O   UNL     1     -11.645  11.328  66.665  1.00  0.00    -0.385 OA 
BRANCH  14  15
HETATM   15  C   UNL     1     -10.900  11.449  65.481  1.00  0.00    -0.220 C  
HETATM   16  O   UNL     1     -11.238  12.115  64.513  1.00  0.00    -0.308 OA 
BRANCH  15  17
HETATM   17  C   UNL     1      -9.588  10.662  65.619  1.00  0.00    -0.268 C  
HETATM   18  C   UNL     1      -9.866   9.259  66.188  1.00  0.00    -0.363 C  
HETATM   19  C   UNL     1      -8.964  10.495  64.226  1.00  0.00    -0.237 C  
HETATM   20  C   UNL     1      -8.630  11.404  66.556  1.00  0.00    -0.175 C  
ENDBRANCH  15  17
ENDBRANCH  14  15
ENDBRANCH  10  14
BRANCH  11  21
HETATM   21  O   UNL     1     -12.131  10.837  69.365  1.00  0.00    -0.308 OA 
BRANCH  21  22
HETATM   22  C   UNL     1     -11.109  10.054  69.929  1.00  0.00    -0.288 C  
HETATM   23  O   UNL     1      -9.935  10.066  69.576  1.00  0.00    -0.203 OA 
BRANCH  22  24
HETATM   24  C   UNL     1     -11.654   9.144  71.042  1.00  0.00    -0.370 C  
HETATM   25  C   UNL     1     -12.843   9.839  71.735  1.00  0.00    -0.530 C  
HETATM   26  C   UNL     1     -12.154   7.816  70.457  1.00  0.00     0.069 C  
HETATM   27  C   UNL     1     -10.552   8.898  72.077  1.00  0.00    -0.388 C  
ENDBRANCH  22  24
ENDBRANCH  21  22
ENDBRANCH  11  21
ENDBRANCH   5   8
ENDBRANCH   4   5
ENDBRANCH   2   4
TORSDOF 9
ENDMDL
MODEL       70
REMARK 921   NORMALIZED FREE ENERGY PREDICTED BY IDOCK:   -4.79 KCAL/MOL
REMARK 922        TOTAL FREE ENERGY PREDICTED BY IDOCK:   -8.58 KCAL/MOL
REMARK 923 INTER-LIGAND FREE ENERGY PREDICTED BY IDOCK:   -7.09 KCAL/MOL
REMARK 924 INTRA-LIGAND FREE ENERGY PREDICTED BY IDOCK:   -1.50 KCAL/MOL
REMARK 927      BINDING AFFINITY PREDICTED BY RF-SCORE:    0.00 PKD
ROOT
HETATM    1  C   UNL     1     -12.241  15.540  70.752  1.00  0.00    -0.403 C  
HETATM    2  N   UNL     1     -11.262  14.494  70.503  1.00  0.00    -0.491 NA 
HETATM    3  H   UNL     1     -11.616  13.578  70.780  1.00  0.00     0.000 HD 
ENDROOT
BRANCH   2   4
HETATM    4  C   UNL     1     -10.818  14.499  69.100  1.00  0.00    -0.263 C  
BRANCH   4   5
HETATM    5  C   UNL     1     -11.816  13.734  68.192  1.00  0.00    -0.376 C  
HETATM    6  H   UNL     1     -12.644  14.018  66.434  1.00  0.00     0.000 HD 
HETATM    7  O   UNL     1     -12.033  14.486  66.990  1.00  0.00    -0.404 OA 
BRANCH   5   8
HETATM    8  C   UNL     1     -11.337  12.333  67.856  1.00  0.00    -0.356 A  
HETATM    9  C   UNL     1     -11.429  11.282  68.781  1.00  0.00    -0.359 A  
HETATM   10  C   UNL     1     -10.998   9.987  68.451  1.00  0.00    -0.217 A  
HETATM   11  C   UNL     1     -10.488   9.723  67.172  1.00  0.00    -0.250 A  
HETATM   12  C   UNL     1     -10.369  10.771  66.256  1.00  0.00    -0.303 A  
HETATM   13  C   UNL     1     -10.803  12.058  66.590  1.00  0.00    -0.311 A  
BRANCH  10  14
HETATM   14  O   UNL     1     -11.222   8.903  69.331  1.00  0.00    -0.034 OA 
BRANCH  14  15
HETATM   15  C   UNL     1     -10.630   8.906  70.604  1.00  0.00    -0.229 C  
HETATM   16  O   UNL     1      -9.538   9.390  70.862  1.00  0.00    -0.267 OA 
BRANCH  15  17
HETATM   17  C   UNL     1     -11.587   8.256  71.615  1.00  0.00    -0.337 C  
HETATM   18  C   UNL     1     -10.825   7.865  72.894  1.00  0.00    -0.451 C  
HETATM   19  C   UNL     1     -12.669   9.276  71.998  1.00  0.00    -0.479 C  
HETATM   20  C   UNL     1     -12.219   7.002  71.003  1.00  0.00    -0.419 C  
ENDBRANCH  15  17
ENDBRANCH  14  15
ENDBRANCH  10  14
BRANCH  11  21
HETATM   21  O   UNL     1     -10.039   8.414  66.856  1.00  0.00    -0.239 OA 
BRANCH  21  22
HETATM   22  C   UNL     1      -8.875   7.889  67.444  1.00  0.00    -0.127 C  
HETATM   23  O   UNL     1      -7.826   8.503  67.604  1.00  0.00    -0.101 OA 
BRANCH  22  24
HETATM   24  C   UNL     1      -9.069   6.418  67.846  1.00  0.00    -0.112 C  
HETATM   25  C   UNL     1      -8.229   5.519  66.916  1.00  0.00    -0.105 C  
HETATM   26  C   UNL     1      -8.597   6.184  69.287  1.00  0.00    -0.119 C  
HETATM   27  C   UNL     1     -10.547   6.044  67.693  1.00  0.00    -0.336 C  
ENDBRANCH  22  24
ENDBRANCH  21  22
ENDBRANCH  11  21
ENDBRANCH   5   8
ENDBRANCH   4   5
ENDBRANCH   2   4
TORSDOF 9
ENDMDL
MODEL       71
REMARK 921   NORMALIZED FREE ENERGY PREDICTED BY IDOCK:   -4.79 KCAL/MOL
REMARK 922        TOTAL FREE ENERGY PREDICTED BY IDOCK:   -8.58 KCAL/MOL
REMARK 923 INTER-LIGAND FREE ENERGY PREDICTED BY IDOCK:   -7.19 KCAL/MOL
REMARK 924 INTRA-LIGAND FREE ENERGY PREDICTED BY IDOCK:   -1.40 KCAL/MOL
REMARK 927      BINDING AFFINITY PREDICTED BY RF-SCORE:    0.00 PKD
ROOT
HETATM    1  C   UNL     1     -10.272  19.781  67.472  1.00  0.00    -0.436 C  
HETATM    2  N   UNL     1     -10.368  18.755  66.446  1.00  0.00    -0.418 NA 
HETATM    3  H   UNL     1      -9.572  18.786  65.810  1.00  0.00     0.000 HD 
ENDROOT
BRANCH   2   4
HETATM    4  C   UNL     1     -10.533  17.417  67.039  1.00  0.00    -0.284 C  
BRANCH   4   5
HETATM    5  C   UNL     1     -10.203  16.303  66.011  1.00  0.00    -0.358 C  
HETATM    6  H   UNL     1      -8.601  15.662  65.074  1.00  0.00     0.000 HD 
HETATM    7  O   UNL     1      -8.803  16.344  65.704  1.00  0.00    -0.406 OA 
BRANCH   5   8
HETATM    8  C   UNL     1     -10.592  14.922  66.509  1.00  0.00    -0.306 A  
HETATM    9  C   UNL     1      -9.849  13.782  66.170  1.00  0.00    -0.310 A  
HETATM   10  C   UNL     1     -10.209  12.513  66.651  1.00  0.00    -0.230 A  
HETATM   11  C   UNL     1     -11.314  12.375  67.504  1.00  0.00    -0.315 A  
HETATM   12  C   UNL     1     -12.074  13.502  67.822  1.00  0.00    -0.316 A  
HETATM   13  C   UNL     1     -11.707  14.764  67.342  1.00  0.00    -0.371 A  
BRANCH  10  14
HETATM   14  O   UNL     1      -9.379  11.390  66.425  1.00  0.00    -0.192 OA 
BRANCH  14  15
HETATM   15  C   UNL     1      -9.437  10.718  65.194  1.00  0.00    -0.226 C  
HETATM   16  O   UNL     1     -10.372  10.785  64.409  1.00  0.00    -0.353 OA 
BRANCH  15  17
HETATM   17  C   UNL     1      -8.133   9.935  64.976  1.00  0.00    -0.140 C  
HETATM   18  C   UNL     1      -7.573  10.215  63.570  1.00  0.00    -0.138 C  
HETATM   19  C   UNL     1      -7.096  10.408  66.004  1.00  0.00    -0.133 C  
HETATM   20  C   UNL     1      -8.395   8.433  65.124  1.00  0.00    -0.177 C  
ENDBRANCH  15  17
ENDBRANCH  14  15
ENDBRANCH  10  14
BRANCH  11  21
HETATM   21  O   UNL     1     -11.679  11.085  67.969  1.00  0.00    -0.532 OA 
BRANCH  21  22
HETATM   22  C   UNL     1     -11.476  10.718  69.311  1.00  0.00    -0.298 C  
HETATM   23  O   UNL     1     -12.030  11.234  70.275  1.00  0.00    -0.325 OA 
BRANCH  22  24
HETATM   24  C   UNL     1     -10.437   9.591  69.429  1.00  0.00    -0.231 C  
HETATM   25  C   UNL     1      -9.035  10.205  69.618  1.00  0.00    -0.190 C  
HETATM   26  C   UNL     1     -10.736   8.706  70.646  1.00  0.00    -0.259 C  
HETATM   27  C   UNL     1     -10.444   8.761  68.142  1.00  0.00    -0.243 C  
ENDBRANCH  22  24
ENDBRANCH  21  22
ENDBRANCH  11  21
ENDBRANCH   5   8
ENDBRANCH   4   5
ENDBRANCH   2   4
TORSDOF 9
ENDMDL
MODEL       72
REMARK 921   NORMALIZED FREE ENERGY PREDICTED BY IDOCK:   -4.78 KCAL/MOL
REMARK 922        TOTAL FREE ENERGY PREDICTED BY IDOCK:   -8.57 KCAL/MOL
REMARK 923 INTER-LIGAND FREE ENERGY PREDICTED BY IDOCK:   -7.02 KCAL/MOL
REMARK 924 INTRA-LIGAND FREE ENERGY PREDICTED BY IDOCK:   -1.55 KCAL/MOL
REMARK 927      BINDING AFFINITY PREDICTED BY RF-SCORE:    0.00 PKD
ROOT
HETATM    1  C   UNL     1     -13.504  15.232  71.433  1.00  0.00    -0.505 C  
HETATM    2  N   UNL     1     -12.992  15.346  70.077  1.00  0.00    -0.641 NA 
HETATM    3  H   UNL     1     -12.757  16.311  69.846  1.00  0.00     0.000 HD 
ENDROOT
BRANCH   2   4
HETATM    4  C   UNL     1     -11.849  14.444  69.858  1.00  0.00    -0.323 C  
BRANCH   4   5
HETATM    5  C   UNL     1     -12.280  13.170  69.084  1.00  0.00    -0.092 C  
HETATM    6  H   UNL     1     -11.879  12.363  67.339  1.00  0.00     0.000 HD 
HETATM    7  O   UNL     1     -11.616  13.143  67.813  1.00  0.00    -0.296 OA 
BRANCH   5   8
HETATM    8  C   UNL     1     -11.987  11.896  69.857  1.00  0.00    -0.398 A  
HETATM    9  C   UNL     1     -10.930  11.045  69.501  1.00  0.00    -0.297 A  
HETATM   10  C   UNL     1     -10.660   9.879  70.234  1.00  0.00    -0.301 A  
HETATM   11  C   UNL     1     -11.438   9.562  71.357  1.00  0.00    -0.392 A  
HETATM   12  C   UNL     1     -12.509  10.390  71.700  1.00  0.00    -0.471 A  
HETATM   13  C   UNL     1     -12.771  11.553  70.966  1.00  0.00    -0.426 A  
BRANCH  10  14
HETATM   14  O   UNL     1      -9.510   9.102  69.961  1.00  0.00    -0.173 OA 
BRANCH  14  15
HETATM   15  C   UNL     1      -9.484   8.272  68.828  1.00  0.00    -0.148 C  
HETATM   16  O   UNL     1     -10.457   7.690  68.371  1.00  0.00    -0.196 OA 
BRANCH  15  17
HETATM   17  C   UNL     1      -8.066   8.257  68.238  1.00  0.00    -0.124 C  
HETATM   18  C   UNL     1      -7.931   9.336  67.149  1.00  0.00    -0.106 C  
HETATM   19  C   UNL     1      -7.062   8.581  69.354  1.00  0.00    -0.054 C  
HETATM   20  C   UNL     1      -7.770   6.884  67.626  1.00  0.00    -0.111 C  
ENDBRANCH  15  17
ENDBRANCH  14  15
ENDBRANCH  10  14
BRANCH  11  21
HETATM   21  O   UNL     1     -11.166   8.372  72.080  1.00  0.00    -0.287 OA 
BRANCH  21  22
HETATM   22  C   UNL     1     -11.722   7.143  71.681  1.00  0.00    -0.291 C  
HETATM   23  O   UNL     1     -12.846   6.995  71.216  1.00  0.00    -0.377 OA 
BRANCH  22  24
HETATM   24  C   UNL     1     -10.744   5.983  71.930  1.00  0.00    -0.282 C  
HETATM   25  C   UNL     1     -11.291   5.084  73.057  1.00  0.00    -0.374 C  
HETATM   26  C   UNL     1     -10.593   5.124  70.668  1.00  0.00    -0.214 C  
HETATM   27  C   UNL     1      -9.389   6.550  72.363  1.00  0.00    -0.137 C  
ENDBRANCH  22  24
ENDBRANCH  21  22
ENDBRANCH  11  21
ENDBRANCH   5   8
ENDBRANCH   4   5
ENDBRANCH   2   4
TORSDOF 9
ENDMDL
MODEL       73
REMARK 921   NORMALIZED FREE ENERGY PREDICTED BY IDOCK:   -4.78 KCAL/MOL
REMARK 922        TOTAL FREE ENERGY PREDICTED BY IDOCK:   -8.57 KCAL/MOL
REMARK 923 INTER-LIGAND FREE ENERGY PREDICTED BY IDOCK:   -7.15 KCAL/MOL
REMARK 924 INTRA-LIGAND FREE ENERGY PREDICTED BY IDOCK:   -1.42 KCAL/MOL
REMARK 927      BINDING AFFINITY PREDICTED BY RF-SCORE:    0.00 PKD
ROOT
HETATM    1  C   UNL     1     -10.390   4.682  66.187  1.00  0.00    -0.275 C  
HETATM    2  N   UNL     1      -9.490   5.345  65.258  1.00  0.00    -0.364 NA 
HETATM    3  H   UNL     1      -9.994   5.973  64.632  1.00  0.00     0.000 HD 
ENDROOT
BRANCH   2   4
HETATM    4  C   UNL     1      -8.407   6.046  65.968  1.00  0.00    -0.134 C  
BRANCH   4   5
HETATM    5  C   UNL     1      -8.067   7.394  65.282  1.00  0.00    -0.131 C  
HETATM    6  H   UNL     1      -7.894   8.048  63.438  1.00  0.00     0.000 HD 
HETATM    7  O   UNL     1      -8.102   7.222  63.859  1.00  0.00    -0.107 OA 
BRANCH   5   8
HETATM    8  C   UNL     1      -9.007   8.511  65.700  1.00  0.00    -0.209 A  
HETATM    9  C   UNL     1      -9.665   8.495  66.939  1.00  0.00    -0.286 A  
HETATM   10  C   UNL     1     -10.519   9.542  67.320  1.00  0.00    -0.262 A  
HETATM   11  C   UNL     1     -10.706  10.638  66.466  1.00  0.00    -0.151 A  
HETATM   12  C   UNL     1     -10.076  10.648  65.220  1.00  0.00    -0.363 A  
HETATM   13  C   UNL     1      -9.224   9.602  64.848  1.00  0.00    -0.306 A  
BRANCH  10  14
HETATM   14  O   UNL     1     -11.066   9.593  68.623  1.00  0.00    -0.153 OA 
BRANCH  14  15
HETATM   15  C   UNL     1     -10.211   9.616  69.736  1.00  0.00    -0.237 C  
HETATM   16  O   UNL     1      -9.132  10.190  69.772  1.00  0.00    -0.203 OA 
BRANCH  15  17
HETATM   17  C   UNL     1     -10.865   8.856  70.900  1.00  0.00    -0.308 C  
HETATM   18  C   UNL     1      -9.843   8.625  72.027  1.00  0.00    -0.396 C  
HETATM   19  C   UNL     1     -12.011   9.708  71.465  1.00  0.00    -0.485 C  
HETATM   20  C   UNL     1     -11.390   7.502  70.410  1.00  0.00    -0.253 C  
ENDBRANCH  15  17
ENDBRANCH  14  15
ENDBRANCH  10  14
BRANCH  11  21
HETATM   21  O   UNL     1     -11.585  11.682  66.854  1.00  0.00    -0.507 OA 
BRANCH  21  22
HETATM   22  C   UNL     1     -11.091  12.862  67.438  1.00  0.00    -0.273 C  
HETATM   23  O   UNL     1     -10.573  12.938  68.547  1.00  0.00    -0.245 OA 
BRANCH  22  24
HETATM   24  C   UNL     1     -11.306  14.073  66.515  1.00  0.00    -0.343 C  
HETATM   25  C   UNL     1     -10.049  14.285  65.648  1.00  0.00    -0.364 C  
HETATM   26  C   UNL     1     -12.496  13.832  65.577  1.00  0.00    -0.548 C  
HETATM   27  C   UNL     1     -11.535  15.324  67.369  1.00  0.00    -0.246 C  
ENDBRANCH  22  24
ENDBRANCH  21  22
ENDBRANCH  11  21
ENDBRANCH   5   8
ENDBRANCH   4   5
ENDBRANCH   2   4
TORSDOF 9
ENDMDL
MODEL       74
REMARK 921   NORMALIZED FREE ENERGY PREDICTED BY IDOCK:   -4.76 KCAL/MOL
REMARK 922        TOTAL FREE ENERGY PREDICTED BY IDOCK:   -8.54 KCAL/MOL
REMARK 923 INTER-LIGAND FREE ENERGY PREDICTED BY IDOCK:   -7.26 KCAL/MOL
REMARK 924 INTRA-LIGAND FREE ENERGY PREDICTED BY IDOCK:   -1.28 KCAL/MOL
REMARK 927      BINDING AFFINITY PREDICTED BY RF-SCORE:    0.00 PKD
ROOT
HETATM    1  C   UNL     1     -12.156  14.818  64.398  1.00  0.00    -0.440 C  
HETATM    2  N   UNL     1     -12.980  13.787  65.008  1.00  0.00    -0.755 NA 
HETATM    3  H   UNL     1     -13.876  13.694  64.529  1.00  0.00     0.000 HD 
ENDROOT
BRANCH   2   4
HETATM    4  C   UNL     1     -12.267  12.501  65.076  1.00  0.00    -0.456 C  
BRANCH   4   5
HETATM    5  C   UNL     1     -11.332  12.442  66.312  1.00  0.00    -0.340 C  
HETATM    6  H   UNL     1     -11.491  12.816  68.234  1.00  0.00     0.000 HD 
HETATM    7  O   UNL     1     -12.063  12.852  67.476  1.00  0.00    -0.330 OA 
BRANCH   5   8
HETATM    8  C   UNL     1     -10.737  11.061  66.524  1.00  0.00    -0.298 A  
HETATM    9  C   UNL     1     -10.951  10.342  67.709  1.00  0.00    -0.360 A  
HETATM   10  C   UNL     1     -10.409   9.058  67.885  1.00  0.00    -0.235 A  
HETATM   11  C   UNL     1      -9.661   8.467  66.857  1.00  0.00    -0.197 A  
HETATM   12  C   UNL     1      -9.421   9.190  65.685  1.00  0.00    -0.309 A  
HETATM   13  C   UNL     1      -9.967  10.467  65.516  1.00  0.00    -0.348 A  
BRANCH  10  14
HETATM   14  O   UNL     1     -10.743   8.280  69.017  1.00  0.00    -0.184 OA 
BRANCH  14  15
HETATM   15  C   UNL     1     -10.242   8.637  70.279  1.00  0.00    -0.194 C  
HETATM   16  O   UNL     1      -9.126   9.093  70.480  1.00  0.00    -0.199 OA 
BRANCH  15  17
HETATM   17  C   UNL     1     -11.327   8.411  71.344  1.00  0.00    -0.317 C  
HETATM   18  C   UNL     1     -12.165   7.168  70.994  1.00  0.00    -0.384 C  
HETATM   19  C   UNL     1     -10.647   8.160  72.697  1.00  0.00    -0.414 C  
HETATM   20  C   UNL     1     -12.247   9.634  71.419  1.00  0.00    -0.471 C  
ENDBRANCH  15  17
ENDBRANCH  14  15
ENDBRANCH  10  14
BRANCH  11  21
HETATM   21  O   UNL     1      -9.103   7.177  67.053  1.00  0.00    -0.126 OA 
BRANCH  21  22
HETATM   22  C   UNL     1      -9.721   6.035  66.514  1.00  0.00    -0.149 C  
HETATM   23  O   UNL     1     -10.908   5.752  66.632  1.00  0.00    -0.297 OA 
BRANCH  22  24
HETATM   24  C   UNL     1      -8.706   5.152  65.769  1.00  0.00    -0.139 C  
HETATM   25  C   UNL     1      -9.327   3.765  65.508  1.00  0.00    -0.160 C  
HETATM   26  C   UNL     1      -8.343   5.773  64.413  1.00  0.00    -0.073 C  
HETATM   27  C   UNL     1      -7.455   4.979  66.636  1.00  0.00    -0.087 C  
ENDBRANCH  22  24
ENDBRANCH  21  22
ENDBRANCH  11  21
ENDBRANCH   5   8
ENDBRANCH   4   5
ENDBRANCH   2   4
TORSDOF 9
ENDMDL
MODEL       75
REMARK 921   NORMALIZED FREE ENERGY PREDICTED BY IDOCK:   -4.73 KCAL/MOL
REMARK 922        TOTAL FREE ENERGY PREDICTED BY IDOCK:   -8.49 KCAL/MOL
REMARK 923 INTER-LIGAND FREE ENERGY PREDICTED BY IDOCK:   -7.51 KCAL/MOL
REMARK 924 INTRA-LIGAND FREE ENERGY PREDICTED BY IDOCK:   -0.98 KCAL/MOL
REMARK 927      BINDING AFFINITY PREDICTED BY RF-SCORE:    0.00 PKD
ROOT
HETATM    1  C   UNL     1     -12.615  15.884  73.658  1.00  0.00    -0.591 C  
HETATM    2  N   UNL     1     -13.848  15.239  73.238  1.00  0.00    -0.557 NA 
HETATM    3  H   UNL     1     -14.659  15.832  73.416  1.00  0.00     0.000 HD 
ENDROOT
BRANCH   2   4
HETATM    4  C   UNL     1     -13.783  14.823  71.828  1.00  0.00    -0.421 C  
BRANCH   4   5
HETATM    5  C   UNL     1     -12.494  14.009  71.542  1.00  0.00    -0.322 C  
HETATM    6  H   UNL     1     -12.061  12.158  71.044  1.00  0.00     0.000 HD 
HETATM    7  O   UNL     1     -12.850  12.658  71.219  1.00  0.00    -0.355 OA 
BRANCH   5   8
HETATM    8  C   UNL     1     -11.662  14.614  70.425  1.00  0.00    -0.355 A  
HETATM    9  C   UNL     1     -11.069  13.817  69.435  1.00  0.00    -0.206 A  
HETATM   10  C   UNL     1     -10.316  14.390  68.398  1.00  0.00    -0.244 A  
HETATM   11  C   UNL     1     -10.168  15.783  68.328  1.00  0.00    -0.225 A  
HETATM   12  C   UNL     1     -10.732  16.580  69.327  1.00  0.00    -0.331 A  
HETATM   13  C   UNL     1     -11.483  16.001  70.356  1.00  0.00    -0.392 A  
BRANCH  10  14
HETATM   14  O   UNL     1      -9.841  13.601  67.325  1.00  0.00    -0.233 OA 
BRANCH  14  15
HETATM   15  C   UNL     1      -8.917  12.573  67.573  1.00  0.00    -0.185 C  
HETATM   16  O   UNL     1      -7.798  12.741  68.035  1.00  0.00    -0.126 OA 
BRANCH  15  17
HETATM   17  C   UNL     1      -9.551  11.219  67.220  1.00  0.00    -0.188 C  
HETATM   18  C   UNL     1     -11.012  11.414  66.777  1.00  0.00    -0.347 C  
HETATM   19  C   UNL     1      -8.777  10.602  66.046  1.00  0.00    -0.186 C  
HETATM   20  C   UNL     1      -9.513  10.292  68.439  1.00  0.00    -0.149 C  
ENDBRANCH  15  17
ENDBRANCH  14  15
ENDBRANCH  10  14
BRANCH  11  21
HETATM   21  O   UNL     1      -9.390  16.350  67.286  1.00  0.00    -0.218 OA 
BRANCH  21  22
HETATM   22  C   UNL     1      -9.562  17.693  66.905  1.00  0.00    -0.286 C  
HETATM   23  O   UNL     1     -10.504  18.125  66.251  1.00  0.00    -0.392 OA 
BRANCH  22  24
HETATM   24  C   UNL     1      -8.392  18.564  67.391  1.00  0.00    -0.264 C  
HETATM   25  C   UNL     1      -7.924  19.480  66.242  1.00  0.00    -0.332 C  
HETATM   26  C   UNL     1      -8.832  19.455  68.560  1.00  0.00    -0.411 C  
HETATM   27  C   UNL     1      -7.229  17.659  67.808  1.00  0.00    -0.196 C  
ENDBRANCH  22  24
ENDBRANCH  21  22
ENDBRANCH  11  21
ENDBRANCH   5   8
ENDBRANCH   4   5
ENDBRANCH   2   4
TORSDOF 9
ENDMDL
MODEL       76
REMARK 921   NORMALIZED FREE ENERGY PREDICTED BY IDOCK:   -4.73 KCAL/MOL
REMARK 922        TOTAL FREE ENERGY PREDICTED BY IDOCK:   -8.49 KCAL/MOL
REMARK 923 INTER-LIGAND FREE ENERGY PREDICTED BY IDOCK:   -7.58 KCAL/MOL
REMARK 924 INTRA-LIGAND FREE ENERGY PREDICTED BY IDOCK:   -0.92 KCAL/MOL
REMARK 927      BINDING AFFINITY PREDICTED BY RF-SCORE:    0.00 PKD
ROOT
HETATM    1  C   UNL     1     -10.865  16.452  70.011  1.00  0.00    -0.305 C  
HETATM    2  N   UNL     1     -11.526  16.068  71.247  1.00  0.00    -0.425 NA 
HETATM    3  H   UNL     1     -11.614  16.859  71.885  1.00  0.00     0.000 HD 
ENDROOT
BRANCH   2   4
HETATM    4  C   UNL     1     -12.831  15.438  70.985  1.00  0.00    -0.463 C  
BRANCH   4   5
HETATM    5  C   UNL     1     -12.996  14.129  71.800  1.00  0.00    -0.348 C  
HETATM    6  H   UNL     1     -14.478  13.161  72.651  1.00  0.00     0.000 HD 
HETATM    7  O   UNL     1     -14.376  13.963  72.151  1.00  0.00    -0.520 OA 
BRANCH   5   8
HETATM    8  C   UNL     1     -12.495  12.910  71.046  1.00  0.00    -0.374 A  
HETATM    9  C   UNL     1     -12.752  11.607  71.499  1.00  0.00    -0.423 A  
HETATM   10  C   UNL     1     -12.298  10.488  70.782  1.00  0.00    -0.378 A  
HETATM   11  C   UNL     1     -11.596  10.664  69.581  1.00  0.00    -0.296 A  
HETATM   12  C   UNL     1     -11.313  11.958  69.139  1.00  0.00    -0.338 A  
HETATM   13  C   UNL     1     -11.772  13.069  69.857  1.00  0.00    -0.326 A  
BRANCH  10  14
HETATM   14  O   UNL     1     -12.679   9.181  71.164  1.00  0.00    -0.295 OA 
BRANCH  14  15
HETATM   15  C   UNL     1     -11.735   8.325  71.754  1.00  0.00    -0.302 C  
HETATM   16  O   UNL     1     -10.766   8.698  72.398  1.00  0.00    -0.339 OA 
BRANCH  15  17
HETATM   17  C   UNL     1     -12.142   6.864  71.503  1.00  0.00    -0.401 C  
HETATM   18  C   UNL     1     -11.525   5.949  72.575  1.00  0.00    -0.347 C  
HETATM   19  C   UNL     1     -13.670   6.753  71.604  1.00  0.00    -0.173 C  
HETATM   20  C   UNL     1     -11.657   6.418  70.120  1.00  0.00    -0.449 C  
ENDBRANCH  15  17
ENDBRANCH  14  15
ENDBRANCH  10  14
BRANCH  11  21
HETATM   21  O   UNL     1     -11.127   9.526  68.875  1.00  0.00    -0.142 OA 
BRANCH  21  22
HETATM   22  C   UNL     1     -10.293   9.666  67.752  1.00  0.00    -0.236 C  
HETATM   23  O   UNL     1     -10.659  10.040  66.644  1.00  0.00    -0.198 OA 
BRANCH  22  24
HETATM   24  C   UNL     1      -8.846   9.261  68.079  1.00  0.00    -0.128 C  
HETATM   25  C   UNL     1      -8.343   8.260  67.019  1.00  0.00    -0.122 C  
HETATM   26  C   UNL     1      -7.923  10.486  68.053  1.00  0.00    -0.106 C  
HETATM   27  C   UNL     1      -8.809   8.585  69.453  1.00  0.00    -0.141 C  
ENDBRANCH  22  24
ENDBRANCH  21  22
ENDBRANCH  11  21
ENDBRANCH   5   8
ENDBRANCH   4   5
ENDBRANCH   2   4
TORSDOF 9
ENDMDL
MODEL       77
REMARK 921   NORMALIZED FREE ENERGY PREDICTED BY IDOCK:   -4.71 KCAL/MOL
REMARK 922        TOTAL FREE ENERGY PREDICTED BY IDOCK:   -8.47 KCAL/MOL
REMARK 923 INTER-LIGAND FREE ENERGY PREDICTED BY IDOCK:   -7.11 KCAL/MOL
REMARK 924 INTRA-LIGAND FREE ENERGY PREDICTED BY IDOCK:   -1.36 KCAL/MOL
REMARK 927      BINDING AFFINITY PREDICTED BY RF-SCORE:    0.00 PKD
ROOT
HETATM    1  C   UNL     1     -14.287   8.578  72.079  1.00  0.00    -0.447 C  
HETATM    2  N   UNL     1     -13.292   8.762  71.035  1.00  0.00    -0.528 NA 
HETATM    3  H   UNL     1     -13.665   8.524  70.116  1.00  0.00     0.000 HD 
ENDROOT
BRANCH   2   4
HETATM    4  C   UNL     1     -12.738  10.125  71.057  1.00  0.00    -0.386 C  
BRANCH   4   5
HETATM    5  C   UNL     1     -11.194  10.107  70.901  1.00  0.00    -0.307 C  
HETATM    6  H   UNL     1      -9.698   9.103  71.684  1.00  0.00     0.000 HD 
HETATM    7  O   UNL     1     -10.644   9.115  71.779  1.00  0.00    -0.352 OA 
BRANCH   5   8
HETATM    8  C   UNL     1     -10.759   9.842  69.471  1.00  0.00    -0.265 A  
HETATM    9  C   UNL     1     -11.241  10.610  68.401  1.00  0.00    -0.347 A  
HETATM   10  C   UNL     1     -10.817  10.366  67.084  1.00  0.00    -0.238 A  
HETATM   11  C   UNL     1      -9.879   9.356  66.828  1.00  0.00    -0.218 A  
HETATM   12  C   UNL     1      -9.416   8.570  67.885  1.00  0.00    -0.157 A  
HETATM   13  C   UNL     1      -9.841   8.821  69.194  1.00  0.00    -0.181 A  
BRANCH  10  14
HETATM   14  O   UNL     1     -11.194  11.230  66.030  1.00  0.00    -0.190 OA 
BRANCH  14  15
HETATM   15  C   UNL     1     -10.529  12.456  65.864  1.00  0.00    -0.256 C  
HETATM   16  O   UNL     1      -9.378  12.675  66.213  1.00  0.00    -0.228 OA 
BRANCH  15  17
HETATM   17  C   UNL     1     -11.454  13.446  65.140  1.00  0.00    -0.316 C  
HETATM   18  C   UNL     1     -12.656  13.802  66.033  1.00  0.00    -0.458 C  
HETATM   19  C   UNL     1     -10.672  14.737  64.858  1.00  0.00    -0.438 C  
HETATM   20  C   UNL     1     -11.962  12.826  63.834  1.00  0.00    -0.554 C  
ENDBRANCH  15  17
ENDBRANCH  14  15
ENDBRANCH  10  14
BRANCH  11  21
HETATM   21  O   UNL     1      -9.472   9.107  65.491  1.00  0.00    -0.250 OA 
BRANCH  21  22
HETATM   22  C   UNL     1      -8.267   9.635  64.994  1.00  0.00    -0.136 C  
HETATM   23  O   UNL     1      -7.366  10.105  65.680  1.00  0.00    -0.130 OA 
BRANCH  22  24
HETATM   24  C   UNL     1      -8.225   9.576  63.458  1.00  0.00    -0.164 C  
HETATM   25  C   UNL     1      -6.991  10.348  62.950  1.00  0.00    -0.099 C  
HETATM   26  C   UNL     1      -8.109   8.124  62.976  1.00  0.00    -0.135 C  
HETATM   27  C   UNL     1      -9.488  10.234  62.893  1.00  0.00    -0.333 C  
ENDBRANCH  22  24
ENDBRANCH  21  22
ENDBRANCH  11  21
ENDBRANCH   5   8
ENDBRANCH   4   5
ENDBRANCH   2   4
TORSDOF 9
ENDMDL
MODEL       78
REMARK 921   NORMALIZED FREE ENERGY PREDICTED BY IDOCK:   -4.68 KCAL/MOL
REMARK 922        TOTAL FREE ENERGY PREDICTED BY IDOCK:   -8.42 KCAL/MOL
REMARK 923 INTER-LIGAND FREE ENERGY PREDICTED BY IDOCK:   -6.81 KCAL/MOL
REMARK 924 INTRA-LIGAND FREE ENERGY PREDICTED BY IDOCK:   -1.61 KCAL/MOL
REMARK 927      BINDING AFFINITY PREDICTED BY RF-SCORE:    0.00 PKD
ROOT
HETATM    1  C   UNL     1     -11.380  15.767  64.596  1.00  0.00    -0.337 C  
HETATM    2  N   UNL     1     -10.360  14.822  65.020  1.00  0.00    -0.406 NA 
HETATM    3  H   UNL     1     -10.218  14.852  66.030  1.00  0.00     0.000 HD 
ENDROOT
BRANCH   2   4
HETATM    4  C   UNL     1     -10.668  13.458  64.559  1.00  0.00    -0.419 C  
BRANCH   4   5
HETATM    5  C   UNL     1     -11.489  12.679  65.619  1.00  0.00    -0.350 C  
HETATM    6  H   UNL     1     -13.333  12.023  65.789  1.00  0.00     0.000 HD 
HETATM    7  O   UNL     1     -12.829  12.500  65.140  1.00  0.00    -0.685 OA 
BRANCH   5   8
HETATM    8  C   UNL     1     -10.869  11.336  65.961  1.00  0.00    -0.273 A  
HETATM    9  C   UNL     1     -11.073  10.727  67.209  1.00  0.00    -0.339 A  
HETATM   10  C   UNL     1     -10.507   9.477  67.506  1.00  0.00    -0.275 A  
HETATM   11  C   UNL     1      -9.745   8.807  66.539  1.00  0.00    -0.259 A  
HETATM   12  C   UNL     1      -9.515   9.419  65.306  1.00  0.00    -0.296 A  
HETATM   13  C   UNL     1     -10.084  10.664  65.015  1.00  0.00    -0.388 A  
BRANCH  10  14
HETATM   14  O   UNL     1     -10.830   8.803  68.706  1.00  0.00    -0.127 OA 
BRANCH  14  15
HETATM   15  C   UNL     1     -10.175   9.151  69.898  1.00  0.00    -0.205 C  
HETATM   16  O   UNL     1      -9.105   9.739  69.957  1.00  0.00    -0.218 OA 
BRANCH  15  17
HETATM   17  C   UNL     1     -11.034   8.723  71.098  1.00  0.00    -0.334 C  
HETATM   18  C   UNL     1     -12.090   9.798  71.408  1.00  0.00    -0.486 C  
HETATM   19  C   UNL     1     -11.768   7.422  70.741  1.00  0.00    -0.305 C  
HETATM   20  C   UNL     1     -10.144   8.520  72.330  1.00  0.00    -0.386 C  
ENDBRANCH  15  17
ENDBRANCH  14  15
ENDBRANCH  10  14
BRANCH  11  21
HETATM   21  O   UNL     1      -9.163   7.551  66.857  1.00  0.00    -0.136 OA 
BRANCH  21  22
HETATM   22  C   UNL     1      -7.949   7.476  67.561  1.00  0.00    -0.116 C  
HETATM   23  O   UNL     1      -7.016   8.264  67.445  1.00  0.00    -0.072 OA 
BRANCH  22  24
HETATM   24  C   UNL     1      -7.917   6.251  68.488  1.00  0.00    -0.105 C  
HETATM   25  C   UNL     1      -6.927   5.210  67.928  1.00  0.00    -0.062 C  
HETATM   26  C   UNL     1      -7.444   6.648  69.893  1.00  0.00    -0.095 C  
HETATM   27  C   UNL     1      -9.314   5.625  68.545  1.00  0.00    -0.139 C  
ENDBRANCH  22  24
ENDBRANCH  21  22
ENDBRANCH  11  21
ENDBRANCH   5   8
ENDBRANCH   4   5
ENDBRANCH   2   4
TORSDOF 9
ENDMDL
MODEL       79
REMARK 921   NORMALIZED FREE ENERGY PREDICTED BY IDOCK:   -4.67 KCAL/MOL
REMARK 922        TOTAL FREE ENERGY PREDICTED BY IDOCK:   -8.41 KCAL/MOL
REMARK 923 INTER-LIGAND FREE ENERGY PREDICTED BY IDOCK:   -7.42 KCAL/MOL
REMARK 924 INTRA-LIGAND FREE ENERGY PREDICTED BY IDOCK:   -0.99 KCAL/MOL
REMARK 927      BINDING AFFINITY PREDICTED BY RF-SCORE:    0.00 PKD
ROOT
HETATM    1  C   UNL     1      -7.642   9.406  70.207  1.00  0.00    -0.138 C  
HETATM    2  N   UNL     1      -8.439  10.495  69.664  1.00  0.00    -0.375 NA 
HETATM    3  H   UNL     1      -8.521  11.265  70.328  1.00  0.00     0.000 HD 
ENDROOT
BRANCH   2   4
HETATM    4  C   UNL     1      -7.909  10.953  68.370  1.00  0.00    -0.123 C  
BRANCH   4   5
HETATM    5  C   UNL     1      -7.174  12.312  68.513  1.00  0.00    -0.103 C  
HETATM    6  H   UNL     1      -5.678  13.221  67.622  1.00  0.00     0.000 HD 
HETATM    7  O   UNL     1      -6.128  12.389  67.535  1.00  0.00    -0.117 OA 
BRANCH   5   8
HETATM    8  C   UNL     1      -8.114  13.497  68.372  1.00  0.00    -0.145 A  
HETATM    9  C   UNL     1      -9.257  13.437  67.561  1.00  0.00    -0.219 A  
HETATM   10  C   UNL     1     -10.126  14.535  67.453  1.00  0.00    -0.235 A  
HETATM   11  C   UNL     1      -9.870  15.705  68.181  1.00  0.00    -0.212 A  
HETATM   12  C   UNL     1      -8.719  15.780  68.969  1.00  0.00    -0.237 A  
HETATM   13  C   UNL     1      -7.858  14.682  69.074  1.00  0.00    -0.133 A  
BRANCH  10  14
HETATM   14  O   UNL     1     -11.349  14.423  66.751  1.00  0.00    -0.329 OA 
BRANCH  14  15
HETATM   15  C   UNL     1     -11.751  13.176  66.248  1.00  0.00    -0.375 C  
HETATM   16  O   UNL     1     -12.072  12.219  66.937  1.00  0.00    -0.583 OA 
BRANCH  15  17
HETATM   17  C   UNL     1     -11.769  13.225  64.712  1.00  0.00    -0.390 C  
HETATM   18  C   UNL     1     -12.746  12.174  64.157  1.00  0.00    -0.416 C  
HETATM   19  C   UNL     1     -12.258  14.611  64.268  1.00  0.00    -0.432 C  
HETATM   20  C   UNL     1     -10.365  12.946  64.165  1.00  0.00    -0.385 C  
ENDBRANCH  15  17
ENDBRANCH  14  15
ENDBRANCH  10  14
BRANCH  11  21
HETATM   21  O   UNL     1     -10.746  16.813  68.050  1.00  0.00    -0.339 OA 
BRANCH  21  22
HETATM   22  C   UNL     1     -10.249  18.128  68.029  1.00  0.00    -0.380 C  
HETATM   23  O   UNL     1     -10.143  18.859  69.008  1.00  0.00    -0.395 OA 
BRANCH  22  24
HETATM   24  C   UNL     1      -9.872  18.558  66.602  1.00  0.00    -0.370 C  
HETATM   25  C   UNL     1     -10.603  17.657  65.586  1.00  0.00    -0.137 C  
HETATM   26  C   UNL     1     -10.300  20.009  66.344  1.00  0.00    -0.573 C  
HETATM   27  C   UNL     1      -8.361  18.397  66.408  1.00  0.00    -0.272 C  
ENDBRANCH  22  24
ENDBRANCH  21  22
ENDBRANCH  11  21
ENDBRANCH   5   8
ENDBRANCH   4   5
ENDBRANCH   2   4
TORSDOF 9
ENDMDL
MODEL       80
REMARK 921   NORMALIZED FREE ENERGY PREDICTED BY IDOCK:   -4.67 KCAL/MOL
REMARK 922        TOTAL FREE ENERGY PREDICTED BY IDOCK:   -8.40 KCAL/MOL
REMARK 923 INTER-LIGAND FREE ENERGY PREDICTED BY IDOCK:   -7.28 KCAL/MOL
REMARK 924 INTRA-LIGAND FREE ENERGY PREDICTED BY IDOCK:   -1.12 KCAL/MOL
REMARK 927      BINDING AFFINITY PREDICTED BY RF-SCORE:    0.00 PKD
ROOT
HETATM    1  C   UNL     1     -10.248  18.945  68.222  1.00  0.00    -0.380 C  
HETATM    2  N   UNL     1      -9.438  17.753  68.023  1.00  0.00    -0.273 NA 
HETATM    3  H   UNL     1      -8.787  17.610  68.796  1.00  0.00     0.000 HD 
ENDROOT
BRANCH   2   4
HETATM    4  C   UNL     1     -10.279  16.566  67.799  1.00  0.00    -0.278 C  
BRANCH   4   5
HETATM    5  C   UNL     1     -10.534  16.337  66.286  1.00  0.00    -0.308 C  
HETATM    6  H   UNL     1      -9.713  16.923  64.601  1.00  0.00     0.000 HD 
HETATM    7  O   UNL     1      -9.557  17.063  65.527  1.00  0.00    -0.522 OA 
BRANCH   5   8
HETATM    8  C   UNL     1     -10.506  14.866  65.909  1.00  0.00    -0.327 A  
HETATM    9  C   UNL     1     -10.131  13.877  66.831  1.00  0.00    -0.260 A  
HETATM   10  C   UNL     1     -10.126  12.519  66.474  1.00  0.00    -0.238 A  
HETATM   11  C   UNL     1     -10.521  12.132  65.186  1.00  0.00    -0.281 A  
HETATM   12  C   UNL     1     -10.868  13.114  64.255  1.00  0.00    -0.430 A  
HETATM   13  C   UNL     1     -10.874  14.465  64.618  1.00  0.00    -0.363 A  
BRANCH  10  14
HETATM   14  O   UNL     1      -9.887  11.517  67.443  1.00  0.00    -0.184 OA 
BRANCH  14  15
HETATM   15  C   UNL     1     -10.949  11.044  68.231  1.00  0.00    -0.235 C  
HETATM   16  O   UNL     1     -12.120  11.363  68.083  1.00  0.00    -0.623 OA 
BRANCH  15  17
HETATM   17  C   UNL     1     -10.413  10.036  69.260  1.00  0.00    -0.245 C  
HETATM   18  C   UNL     1     -10.592   8.599  68.740  1.00  0.00    -0.169 C  
HETATM   19  C   UNL     1      -8.912  10.286  69.461  1.00  0.00    -0.176 C  
HETATM   20  C   UNL     1     -11.169  10.191  70.584  1.00  0.00    -0.418 C  
ENDBRANCH  15  17
ENDBRANCH  14  15
ENDBRANCH  10  14
BRANCH  11  21
HETATM   21  O   UNL     1     -10.494  10.758  64.832  1.00  0.00    -0.311 OA 
BRANCH  21  22
HETATM   22  C   UNL     1      -9.635  10.290  63.822  1.00  0.00    -0.284 C  
HETATM   23  O   UNL     1      -9.734  10.561  62.630  1.00  0.00    -0.293 OA 
BRANCH  22  24
HETATM   24  C   UNL     1      -8.555   9.359  64.397  1.00  0.00    -0.214 C  
HETATM   25  C   UNL     1      -9.138   8.574  65.590  1.00  0.00    -0.189 C  
HETATM   26  C   UNL     1      -8.096   8.347  63.340  1.00  0.00    -0.145 C  
HETATM   27  C   UNL     1      -7.374  10.201  64.888  1.00  0.00    -0.136 C  
ENDBRANCH  22  24
ENDBRANCH  21  22
ENDBRANCH  11  21
ENDBRANCH   5   8
ENDBRANCH   4   5
ENDBRANCH   2   4
TORSDOF 9
ENDMDL
MODEL       81
REMARK 921   NORMALIZED FREE ENERGY PREDICTED BY IDOCK:   -4.64 KCAL/MOL
REMARK 922        TOTAL FREE ENERGY PREDICTED BY IDOCK:   -8.36 KCAL/MOL
REMARK 923 INTER-LIGAND FREE ENERGY PREDICTED BY IDOCK:   -7.22 KCAL/MOL
REMARK 924 INTRA-LIGAND FREE ENERGY PREDICTED BY IDOCK:   -1.14 KCAL/MOL
REMARK 927      BINDING AFFINITY PREDICTED BY RF-SCORE:    0.00 PKD
ROOT
HETATM    1  C   UNL     1     -10.831   7.707  73.180  1.00  0.00    -0.382 C  
HETATM    2  N   UNL     1     -12.208   8.092  72.916  1.00  0.00    -0.636 NA 
HETATM    3  H   UNL     1     -12.477   8.914  73.458  1.00  0.00     0.000 HD 
ENDROOT
BRANCH   2   4
HETATM    4  C   UNL     1     -12.442   8.295  71.477  1.00  0.00    -0.312 C  
BRANCH   4   5
HETATM    5  C   UNL     1     -11.217   7.844  70.640  1.00  0.00    -0.263 C  
HETATM    6  H   UNL     1     -10.736   6.283  69.549  1.00  0.00     0.000 HD 
HETATM    7  O   UNL     1     -11.486   6.560  70.062  1.00  0.00    -0.380 OA 
BRANCH   5   8
HETATM    8  C   UNL     1     -10.856   8.844  69.555  1.00  0.00    -0.163 A  
HETATM    9  C   UNL     1     -10.761  10.218  69.823  1.00  0.00    -0.328 A  
HETATM   10  C   UNL     1     -10.410  11.129  68.814  1.00  0.00    -0.205 A  
HETATM   11  C   UNL     1     -10.126  10.667  67.521  1.00  0.00    -0.184 A  
HETATM   12  C   UNL     1     -10.247   9.304  67.241  1.00  0.00    -0.315 A  
HETATM   13  C   UNL     1     -10.594   8.401  68.252  1.00  0.00    -0.163 A  
BRANCH  10  14
HETATM   14  O   UNL     1     -10.175  12.490  69.118  1.00  0.00     0.041 OA 
BRANCH  14  15
HETATM   15  C   UNL     1     -11.255  13.385  69.186  1.00  0.00    -0.248 C  
HETATM   16  O   UNL     1     -12.422  13.054  69.337  1.00  0.00    -0.058 OA 
BRANCH  15  17
HETATM   17  C   UNL     1     -10.733  14.827  69.091  1.00  0.00    -0.258 C  
HETATM   18  C   UNL     1     -10.707  15.476  70.486  1.00  0.00    -0.309 C  
HETATM   19  C   UNL     1      -9.295  14.797  68.553  1.00  0.00    -0.199 C  
HETATM   20  C   UNL     1     -11.639  15.649  68.169  1.00  0.00    -0.290 C  
ENDBRANCH  15  17
ENDBRANCH  14  15
ENDBRANCH  10  14
BRANCH  11  21
HETATM   21  O   UNL     1      -9.790  11.600  66.505  1.00  0.00    -0.197 OA 
BRANCH  21  22
HETATM   22  C   UNL     1     -10.338  11.490  65.215  1.00  0.00    -0.272 C  
HETATM   23  O   UNL     1     -10.153  10.553  64.447  1.00  0.00    -0.340 OA 
BRANCH  22  24
HETATM   24  C   UNL     1     -11.189  12.722  64.865  1.00  0.00    -0.331 C  
HETATM   25  C   UNL     1     -12.335  12.860  65.888  1.00  0.00    -0.378 C  
HETATM   26  C   UNL     1     -10.341  13.999  64.925  1.00  0.00    -0.434 C  
HETATM   27  C   UNL     1     -11.792  12.538  63.469  1.00  0.00    -0.616 C  
ENDBRANCH  22  24
ENDBRANCH  21  22
ENDBRANCH  11  21
ENDBRANCH   5   8
ENDBRANCH   4   5
ENDBRANCH   2   4
TORSDOF 9
ENDMDL
MODEL       82
REMARK 921   NORMALIZED FREE ENERGY PREDICTED BY IDOCK:   -4.61 KCAL/MOL
REMARK 922        TOTAL FREE ENERGY PREDICTED BY IDOCK:   -8.31 KCAL/MOL
REMARK 923 INTER-LIGAND FREE ENERGY PREDICTED BY IDOCK:   -7.23 KCAL/MOL
REMARK 924 INTRA-LIGAND FREE ENERGY PREDICTED BY IDOCK:   -1.08 KCAL/MOL
REMARK 927      BINDING AFFINITY PREDICTED BY RF-SCORE:    0.00 PKD
ROOT
HETATM    1  C   UNL     1     -10.435   8.950  69.477  1.00  0.00    -0.226 C  
HETATM    2  N   UNL     1      -9.858   8.719  68.163  1.00  0.00    -0.162 NA 
HETATM    3  H   UNL     1      -9.695   7.726  67.995  1.00  0.00     0.000 HD 
ENDROOT
BRANCH   2   4
HETATM    4  C   UNL     1     -10.685   9.316  67.101  1.00  0.00    -0.152 C  
BRANCH   4   5
HETATM    5  C   UNL     1      -9.897  10.399  66.318  1.00  0.00    -0.218 C  
HETATM    6  H   UNL     1     -10.022  11.250  64.552  1.00  0.00     0.000 HD 
HETATM    7  O   UNL     1     -10.504  10.587  65.033  1.00  0.00    -0.286 OA 
BRANCH   5   8
HETATM    8  C   UNL     1      -9.827  11.719  67.065  1.00  0.00    -0.213 A  
HETATM    9  C   UNL     1     -10.947  12.255  67.719  1.00  0.00    -0.274 A  
HETATM   10  C   UNL     1     -10.864  13.468  68.421  1.00  0.00    -0.267 A  
HETATM   11  C   UNL     1      -9.643  14.152  68.494  1.00  0.00    -0.214 A  
HETATM   12  C   UNL     1      -8.532  13.639  67.822  1.00  0.00    -0.183 A  
HETATM   13  C   UNL     1      -8.620  12.428  67.127  1.00  0.00    -0.189 A  
BRANCH  10  14
HETATM   14  O   UNL     1     -11.952  13.932  69.196  1.00  0.00    -0.329 OA 
BRANCH  14  15
HETATM   15  C   UNL     1     -12.262  13.297  70.410  1.00  0.00    -0.332 C  
HETATM   16  O   UNL     1     -12.108  12.104  70.629  1.00  0.00    -0.365 OA 
BRANCH  15  17
HETATM   17  C   UNL     1     -12.771  14.339  71.417  1.00  0.00    -0.424 C  
HETATM   18  C   UNL     1     -13.754  15.305  70.732  1.00  0.00    -0.255 C  
HETATM   19  C   UNL     1     -13.523  13.613  72.542  1.00  0.00    -0.675 C  
HETATM   20  C   UNL     1     -11.592  15.138  71.983  1.00  0.00    -0.496 C  
ENDBRANCH  15  17
ENDBRANCH  14  15
ENDBRANCH  10  14
BRANCH  11  21
HETATM   21  O   UNL     1      -9.576  15.387  69.191  1.00  0.00    -0.220 OA 
BRANCH  21  22
HETATM   22  C   UNL     1      -8.612  16.354  68.855  1.00  0.00    -0.250 C  
HETATM   23  O   UNL     1      -7.466  16.389  69.290  1.00  0.00    -0.236 OA 
BRANCH  22  24
HETATM   24  C   UNL     1      -9.185  17.397  67.882  1.00  0.00    -0.256 C  
HETATM   25  C   UNL     1      -8.716  18.804  68.304  1.00  0.00    -0.363 C  
HETATM   26  C   UNL     1      -8.683  17.137  66.455  1.00  0.00    -0.293 C  
HETATM   27  C   UNL     1     -10.715  17.349  67.934  1.00  0.00    -0.351 C  
ENDBRANCH  22  24
ENDBRANCH  21  22
ENDBRANCH  11  21
ENDBRANCH   5   8
ENDBRANCH   4   5
ENDBRANCH   2   4
TORSDOF 9
ENDMDL
MODEL       83
REMARK 921   NORMALIZED FREE ENERGY PREDICTED BY IDOCK:   -4.61 KCAL/MOL
REMARK 922        TOTAL FREE ENERGY PREDICTED BY IDOCK:   -8.31 KCAL/MOL
REMARK 923 INTER-LIGAND FREE ENERGY PREDICTED BY IDOCK:   -7.16 KCAL/MOL
REMARK 924 INTRA-LIGAND FREE ENERGY PREDICTED BY IDOCK:   -1.15 KCAL/MOL
REMARK 927      BINDING AFFINITY PREDICTED BY RF-SCORE:    0.00 PKD
ROOT
HETATM    1  C   UNL     1     -10.203   4.155  64.880  1.00  0.00    -0.204 C  
HETATM    2  N   UNL     1      -9.204   5.211  64.854  1.00  0.00    -0.342 NA 
HETATM    3  H   UNL     1      -9.296   5.793  64.022  1.00  0.00     0.000 HD 
ENDROOT
BRANCH   2   4
HETATM    4  C   UNL     1      -9.245   6.018  66.085  1.00  0.00    -0.138 C  
BRANCH   4   5
HETATM    5  C   UNL     1      -8.591   7.407  65.867  1.00  0.00    -0.153 C  
HETATM    6  H   UNL     1      -7.852   8.408  64.347  1.00  0.00     0.000 HD 
HETATM    7  O   UNL     1      -8.252   7.557  64.482  1.00  0.00    -0.122 OA 
BRANCH   5   8
HETATM    8  C   UNL     1      -9.489   8.547  66.314  1.00  0.00    -0.299 A  
HETATM    9  C   UNL     1     -10.111   8.545  67.572  1.00  0.00    -0.282 A  
HETATM   10  C   UNL     1     -10.925   9.613  67.980  1.00  0.00    -0.140 A  
HETATM   11  C   UNL     1     -11.108  10.716  67.134  1.00  0.00    -0.196 A  
HETATM   12  C   UNL     1     -10.516  10.712  65.870  1.00  0.00    -0.243 A  
HETATM   13  C   UNL     1      -9.703   9.645  65.471  1.00  0.00    -0.372 A  
BRANCH  10  14
HETATM   14  O   UNL     1     -11.432   9.675  69.299  1.00  0.00    -0.041 OA 
BRANCH  14  15
HETATM   15  C   UNL     1     -10.612   9.306  70.378  1.00  0.00    -0.248 C  
HETATM   16  O   UNL     1      -9.445   9.644  70.511  1.00  0.00    -0.256 OA 
BRANCH  15  17
HETATM   17  C   UNL     1     -11.424   8.460  71.372  1.00  0.00    -0.328 C  
HETATM   18  C   UNL     1     -11.838   7.128  70.723  1.00  0.00    -0.367 C  
HETATM   19  C   UNL     1     -10.541   8.144  72.587  1.00  0.00    -0.414 C  
HETATM   20  C   UNL     1     -12.681   9.224  71.800  1.00  0.00    -0.462 C  
ENDBRANCH  15  17
ENDBRANCH  14  15
ENDBRANCH  10  14
BRANCH  11  21
HETATM   21  O   UNL     1     -11.948  11.782  67.550  1.00  0.00    -0.607 OA 
BRANCH  21  22
HETATM   22  C   UNL     1     -11.419  12.896  68.226  1.00  0.00    -0.311 C  
HETATM   23  O   UNL     1     -11.078  12.911  69.403  1.00  0.00    -0.183 OA 
BRANCH  22  24
HETATM   24  C   UNL     1     -11.345  14.123  67.303  1.00  0.00    -0.349 C  
HETATM   25  C   UNL     1     -12.394  13.985  66.181  1.00  0.00    -0.491 C  
HETATM   26  C   UNL     1     -11.650  15.407  68.085  1.00  0.00    -0.331 C  
HETATM   27  C   UNL     1      -9.952  14.194  66.670  1.00  0.00    -0.280 C  
ENDBRANCH  22  24
ENDBRANCH  21  22
ENDBRANCH  11  21
ENDBRANCH   5   8
ENDBRANCH   4   5
ENDBRANCH   2   4
TORSDOF 9
ENDMDL
MODEL       84
REMARK 921   NORMALIZED FREE ENERGY PREDICTED BY IDOCK:   -4.61 KCAL/MOL
REMARK 922        TOTAL FREE ENERGY PREDICTED BY IDOCK:   -8.31 KCAL/MOL
REMARK 923 INTER-LIGAND FREE ENERGY PREDICTED BY IDOCK:   -7.32 KCAL/MOL
REMARK 924 INTRA-LIGAND FREE ENERGY PREDICTED BY IDOCK:   -0.98 KCAL/MOL
REMARK 927      BINDING AFFINITY PREDICTED BY RF-SCORE:    0.00 PKD
ROOT
HETATM    1  C   UNL     1     -10.006   4.512  66.792  1.00  0.00    -0.215 C  
HETATM    2  N   UNL     1     -10.071   5.408  65.648  1.00  0.00    -0.393 NA 
HETATM    3  H   UNL     1     -10.790   6.121  65.772  1.00  0.00     0.000 HD 
ENDROOT
BRANCH   2   4
HETATM    4  C   UNL     1      -8.757   6.009  65.364  1.00  0.00    -0.083 C  
BRANCH   4   5
HETATM    5  C   UNL     1      -8.271   6.882  66.550  1.00  0.00    -0.117 C  
HETATM    6  H   UNL     1      -6.643   7.882  67.006  1.00  0.00     0.000 HD 
HETATM    7  O   UNL     1      -6.941   7.347  66.279  1.00  0.00    -0.066 OA 
BRANCH   5   8
HETATM    8  C   UNL     1      -9.194   8.057  66.823  1.00  0.00    -0.206 A  
HETATM    9  C   UNL     1      -9.829   8.222  68.063  1.00  0.00    -0.201 A  
HETATM   10  C   UNL     1     -10.666   9.322  68.307  1.00  0.00    -0.145 A  
HETATM   11  C   UNL     1     -10.859  10.289  67.311  1.00  0.00    -0.250 A  
HETATM   12  C   UNL     1     -10.252  10.117  66.065  1.00  0.00    -0.288 A  
HETATM   13  C   UNL     1      -9.416   9.019  65.830  1.00  0.00    -0.305 A  
BRANCH  10  14
HETATM   14  O   UNL     1     -11.189   9.561  69.599  1.00  0.00    -0.206 OA 
BRANCH  14  15
HETATM   15  C   UNL     1     -10.515   9.063  70.726  1.00  0.00    -0.243 C  
HETATM   16  O   UNL     1      -9.343   9.289  70.990  1.00  0.00    -0.259 OA 
BRANCH  15  17
HETATM   17  C   UNL     1     -11.490   8.242  71.584  1.00  0.00    -0.333 C  
HETATM   18  C   UNL     1     -10.835   7.871  72.926  1.00  0.00    -0.451 C  
HETATM   19  C   UNL     1     -12.730   9.097  71.879  1.00  0.00    -0.464 C  
HETATM   20  C   UNL     1     -11.882   6.959  70.843  1.00  0.00    -0.424 C  
ENDBRANCH  15  17
ENDBRANCH  14  15
ENDBRANCH  10  14
BRANCH  11  21
HETATM   21  O   UNL     1     -11.722  11.387  67.563  1.00  0.00    -0.568 OA 
BRANCH  21  22
HETATM   22  C   UNL     1     -11.780  12.478  66.677  1.00  0.00    -0.387 C  
HETATM   23  O   UNL     1     -12.415  12.502  65.629  1.00  0.00    -0.648 OA 
BRANCH  22  24
HETATM   24  C   UNL     1     -10.915  13.647  67.176  1.00  0.00    -0.299 C  
HETATM   25  C   UNL     1     -10.710  13.519  68.699  1.00  0.00    -0.271 C  
HETATM   26  C   UNL     1      -9.535  13.622  66.506  1.00  0.00    -0.270 C  
HETATM   27  C   UNL     1     -11.635  14.967  66.883  1.00  0.00    -0.229 C  
ENDBRANCH  22  24
ENDBRANCH  21  22
ENDBRANCH  11  21
ENDBRANCH   5   8
ENDBRANCH   4   5
ENDBRANCH   2   4
TORSDOF 9
ENDMDL
MODEL       85
REMARK 921   NORMALIZED FREE ENERGY PREDICTED BY IDOCK:   -4.59 KCAL/MOL
REMARK 922        TOTAL FREE ENERGY PREDICTED BY IDOCK:   -8.28 KCAL/MOL
REMARK 923 INTER-LIGAND FREE ENERGY PREDICTED BY IDOCK:   -6.93 KCAL/MOL
REMARK 924 INTRA-LIGAND FREE ENERGY PREDICTED BY IDOCK:   -1.35 KCAL/MOL
REMARK 927      BINDING AFFINITY PREDICTED BY RF-SCORE:    0.00 PKD
ROOT
HETATM    1  C   UNL     1     -11.594   5.759  72.224  1.00  0.00    -0.241 C  
HETATM    2  N   UNL     1     -11.257   6.592  73.367  1.00  0.00    -0.477 NA 
HETATM    3  H   UNL     1     -10.418   6.256  73.840  1.00  0.00     0.000 HD 
ENDROOT
BRANCH   2   4
HETATM    4  C   UNL     1     -11.130   8.007  72.980  1.00  0.00    -0.233 C  
BRANCH   4   5
HETATM    5  C   UNL     1     -12.280   8.436  72.033  1.00  0.00    -0.362 C  
HETATM    6  H   UNL     1     -14.083   9.189  72.235  1.00  0.00     0.000 HD 
HETATM    7  O   UNL     1     -13.378   8.926  72.815  1.00  0.00    -0.405 OA 
BRANCH   5   8
HETATM    8  C   UNL     1     -11.842   9.486  71.027  1.00  0.00    -0.408 A  
HETATM    9  C   UNL     1     -10.786   9.253  70.133  1.00  0.00    -0.275 A  
HETATM   10  C   UNL     1     -10.402  10.226  69.196  1.00  0.00    -0.223 A  
HETATM   11  C   UNL     1     -11.093  11.444  69.129  1.00  0.00    -0.258 A  
HETATM   12  C   UNL     1     -12.127  11.693  70.035  1.00  0.00    -0.395 A  
HETATM   13  C   UNL     1     -12.506  10.717  70.964  1.00  0.00    -0.522 A  
BRANCH  10  14
HETATM   14  O   UNL     1      -9.436   9.936  68.205  1.00  0.00    -0.138 OA 
BRANCH  14  15
HETATM   15  C   UNL     1      -8.084   9.813  68.566  1.00  0.00    -0.104 C  
HETATM   16  O   UNL     1      -7.505  10.549  69.352  1.00  0.00    -0.114 OA 
BRANCH  15  17
HETATM   17  C   UNL     1      -7.475   8.592  67.859  1.00  0.00    -0.097 C  
HETATM   18  C   UNL     1      -7.079   7.522  68.892  1.00  0.00    -0.080 C  
HETATM   19  C   UNL     1      -8.531   7.984  66.925  1.00  0.00    -0.124 C  
HETATM   20  C   UNL     1      -6.232   9.014  67.068  1.00  0.00    -0.059 C  
ENDBRANCH  15  17
ENDBRANCH  14  15
ENDBRANCH  10  14
BRANCH  11  21
HETATM   21  O   UNL     1     -10.684  12.427  68.190  1.00  0.00    -0.207 OA 
BRANCH  21  22
HETATM   22  C   UNL     1     -11.445  12.682  67.036  1.00  0.00    -0.346 C  
HETATM   23  O   UNL     1     -12.025  11.831  66.370  1.00  0.00    -0.515 OA 
BRANCH  22  24
HETATM   24  C   UNL     1     -11.439  14.179  66.685  1.00  0.00    -0.378 C  
HETATM   25  C   UNL     1     -11.695  15.005  67.962  1.00  0.00    -0.320 C  
HETATM   26  C   UNL     1     -10.077  14.595  66.114  1.00  0.00    -0.316 C  
HETATM   27  C   UNL     1     -12.558  14.465  65.678  1.00  0.00    -0.337 C  
ENDBRANCH  22  24
ENDBRANCH  21  22
ENDBRANCH  11  21
ENDBRANCH   5   8
ENDBRANCH   4   5
ENDBRANCH   2   4
TORSDOF 9
ENDMDL
MODEL       86
REMARK 921   NORMALIZED FREE ENERGY PREDICTED BY IDOCK:   -4.59 KCAL/MOL
REMARK 922        TOTAL FREE ENERGY PREDICTED BY IDOCK:   -8.28 KCAL/MOL
REMARK 923 INTER-LIGAND FREE ENERGY PREDICTED BY IDOCK:   -7.79 KCAL/MOL
REMARK 924 INTRA-LIGAND FREE ENERGY PREDICTED BY IDOCK:   -0.49 KCAL/MOL
REMARK 927      BINDING AFFINITY PREDICTED BY RF-SCORE:    0.00 PKD
ROOT
HETATM    1  C   UNL     1     -10.031  10.713  64.290  1.00  0.00    -0.349 C  
HETATM    2  N   UNL     1     -10.037  12.123  63.933  1.00  0.00    -0.471 NA 
HETATM    3  H   UNL     1      -9.242  12.361  63.339  1.00  0.00     0.000 HD 
ENDROOT
BRANCH   2   4
HETATM    4  C   UNL     1     -11.312  12.514  63.311  1.00  0.00    -0.298 C  
BRANCH   4   5
HETATM    5  C   UNL     1     -12.144  13.418  64.257  1.00  0.00    -0.424 C  
HETATM    6  H   UNL     1     -13.502  13.149  65.651  1.00  0.00     0.000 HD 
HETATM    7  O   UNL     1     -12.992  12.596  65.071  1.00  0.00    -0.812 OA 
BRANCH   5   8
HETATM    8  C   UNL     1     -11.271  14.300  65.132  1.00  0.00    -0.345 A  
HETATM    9  C   UNL     1     -10.568  13.783  66.230  1.00  0.00    -0.289 A  
HETATM   10  C   UNL     1      -9.750  14.606  67.021  1.00  0.00    -0.243 A  
HETATM   11  C   UNL     1      -9.609  15.965  66.702  1.00  0.00    -0.246 A  
HETATM   12  C   UNL     1     -10.328  16.492  65.628  1.00  0.00    -0.342 A  
HETATM   13  C   UNL     1     -11.139  15.665  64.842  1.00  0.00    -0.414 A  
BRANCH  10  14
HETATM   14  O   UNL     1      -8.934  14.056  68.036  1.00  0.00    -0.167 OA 
BRANCH  14  15
HETATM   15  C   UNL     1      -7.694  13.488  67.700  1.00  0.00    -0.176 C  
HETATM   16  O   UNL     1      -6.740  14.113  67.261  1.00  0.00    -0.250 OA 
BRANCH  15  17
HETATM   17  C   UNL     1      -7.718  11.985  68.017  1.00  0.00    -0.132 C  
HETATM   18  C   UNL     1      -6.854  11.688  69.255  1.00  0.00    -0.104 C  
HETATM   19  C   UNL     1      -9.162  11.569  68.332  1.00  0.00    -0.190 C  
HETATM   20  C   UNL     1      -7.176  11.192  66.823  1.00  0.00    -0.146 C  
ENDBRANCH  15  17
ENDBRANCH  14  15
ENDBRANCH  10  14
BRANCH  11  21
HETATM   21  O   UNL     1      -8.794  16.791  67.519  1.00  0.00    -0.198 OA 
BRANCH  21  22
HETATM   22  C   UNL     1      -9.324  17.930  68.149  1.00  0.00    -0.286 C  
HETATM   23  O   UNL     1     -10.274  17.930  68.925  1.00  0.00    -0.374 OA 
BRANCH  22  24
HETATM   24  C   UNL     1      -8.576  19.203  67.721  1.00  0.00    -0.335 C  
HETATM   25  C   UNL     1      -7.591  19.617  68.834  1.00  0.00    -0.344 C  
HETATM   26  C   UNL     1      -7.768  18.950  66.442  1.00  0.00    -0.291 C  
HETATM   27  C   UNL     1      -9.585  20.335  67.508  1.00  0.00    -0.562 C  
ENDBRANCH  22  24
ENDBRANCH  21  22
ENDBRANCH  11  21
ENDBRANCH   5   8
ENDBRANCH   4   5
ENDBRANCH   2   4
TORSDOF 9
ENDMDL
MODEL       87
REMARK 921   NORMALIZED FREE ENERGY PREDICTED BY IDOCK:   -4.58 KCAL/MOL
REMARK 922        TOTAL FREE ENERGY PREDICTED BY IDOCK:   -8.27 KCAL/MOL
REMARK 923 INTER-LIGAND FREE ENERGY PREDICTED BY IDOCK:   -6.70 KCAL/MOL
REMARK 924 INTRA-LIGAND FREE ENERGY PREDICTED BY IDOCK:   -1.57 KCAL/MOL
REMARK 927      BINDING AFFINITY PREDICTED BY RF-SCORE:    0.00 PKD
ROOT
HETATM    1  C   UNL     1      -9.024   5.648  73.150  1.00  0.00    -0.121 C  
HETATM    2  N   UNL     1      -9.361   7.021  73.490  1.00  0.00    -0.162 NA 
HETATM    3  H   UNL     1      -8.791   7.686  72.967  1.00  0.00     0.000 HD 
ENDROOT
BRANCH   2   4
HETATM    4  C   UNL     1     -10.798   7.281  73.307  1.00  0.00    -0.358 C  
BRANCH   4   5
HETATM    5  C   UNL     1     -11.222   7.078  71.829  1.00  0.00    -0.246 C  
HETATM    6  H   UNL     1     -12.880   6.638  70.873  1.00  0.00     0.000 HD 
HETATM    7  O   UNL     1     -12.620   6.762  71.778  1.00  0.00    -0.357 OA 
BRANCH   5   8
HETATM    8  C   UNL     1     -10.927   8.295  70.970  1.00  0.00    -0.280 A  
HETATM    9  C   UNL     1     -10.052   8.228  69.875  1.00  0.00    -0.195 A  
HETATM   10  C   UNL     1      -9.801   9.357  69.078  1.00  0.00    -0.169 A  
HETATM   11  C   UNL     1     -10.448  10.569  69.358  1.00  0.00    -0.240 A  
HETATM   12  C   UNL     1     -11.297  10.650  70.463  1.00  0.00    -0.355 A  
HETATM   13  C   UNL     1     -11.545   9.520  71.251  1.00  0.00    -0.445 A  
BRANCH  10  14
HETATM   14  O   UNL     1      -9.034   9.252  67.894  1.00  0.00    -0.128 OA 
BRANCH  14  15
HETATM   15  C   UNL     1      -9.659   8.892  66.690  1.00  0.00    -0.219 C  
HETATM   16  O   UNL     1     -10.645   8.173  66.606  1.00  0.00    -0.272 OA 
BRANCH  15  17
HETATM   17  C   UNL     1      -8.942   9.577  65.516  1.00  0.00    -0.236 C  
HETATM   18  C   UNL     1      -7.874  10.552  66.042  1.00  0.00    -0.147 C  
HETATM   19  C   UNL     1      -8.236   8.505  64.675  1.00  0.00    -0.162 C  
HETATM   20  C   UNL     1      -9.956  10.350  64.666  1.00  0.00    -0.408 C  
ENDBRANCH  15  17
ENDBRANCH  14  15
ENDBRANCH  10  14
BRANCH  11  21
HETATM   21  O   UNL     1     -10.172  11.707  68.557  1.00  0.00    -0.200 OA 
BRANCH  21  22
HETATM   22  C   UNL     1     -11.107  12.169  67.613  1.00  0.00    -0.268 C  
HETATM   23  O   UNL     1     -12.088  11.543  67.228  1.00  0.00    -0.548 OA 
BRANCH  22  24
HETATM   24  C   UNL     1     -10.729  13.565  67.092  1.00  0.00    -0.282 C  
HETATM   25  C   UNL     1     -11.605  14.626  67.789  1.00  0.00    -0.382 C  
HETATM   26  C   UNL     1      -9.261  13.880  67.406  1.00  0.00    -0.224 C  
HETATM   27  C   UNL     1     -10.985  13.627  65.583  1.00  0.00    -0.294 C  
ENDBRANCH  22  24
ENDBRANCH  21  22
ENDBRANCH  11  21
ENDBRANCH   5   8
ENDBRANCH   4   5
ENDBRANCH   2   4
TORSDOF 9
ENDMDL
MODEL       88
REMARK 921   NORMALIZED FREE ENERGY PREDICTED BY IDOCK:   -4.58 KCAL/MOL
REMARK 922        TOTAL FREE ENERGY PREDICTED BY IDOCK:   -8.27 KCAL/MOL
REMARK 923 INTER-LIGAND FREE ENERGY PREDICTED BY IDOCK:   -8.14 KCAL/MOL
REMARK 924 INTRA-LIGAND FREE ENERGY PREDICTED BY IDOCK:   -0.13 KCAL/MOL
REMARK 927      BINDING AFFINITY PREDICTED BY RF-SCORE:    0.00 PKD
ROOT
HETATM    1  C   UNL     1      -9.227   8.910  71.397  1.00  0.00    -0.258 C  
HETATM    2  N   UNL     1      -8.697   9.344  70.114  1.00  0.00    -0.202 NA 
HETATM    3  H   UNL     1      -8.273   8.569  69.604  1.00  0.00     0.000 HD 
ENDROOT
BRANCH   2   4
HETATM    4  C   UNL     1      -9.728  10.020  69.309  1.00  0.00    -0.215 C  
BRANCH   4   5
HETATM    5  C   UNL     1      -9.107  10.709  68.066  1.00  0.00    -0.147 C  
HETATM    6  H   UNL     1      -9.037  10.361  66.134  1.00  0.00     0.000 HD 
HETATM    7  O   UNL     1      -9.417   9.939  66.896  1.00  0.00    -0.154 OA 
BRANCH   5   8
HETATM    8  C   UNL     1      -9.586  12.140  67.896  1.00  0.00    -0.198 A  
HETATM    9  C   UNL     1     -10.668  12.646  68.632  1.00  0.00    -0.269 A  
HETATM   10  C   UNL     1     -11.091  13.976  68.477  1.00  0.00    -0.257 A  
HETATM   11  C   UNL     1     -10.412  14.827  67.594  1.00  0.00    -0.254 A  
HETATM   12  C   UNL     1      -9.352  14.322  66.838  1.00  0.00    -0.268 A  
HETATM   13  C   UNL     1      -8.935  12.996  66.999  1.00  0.00    -0.225 A  
BRANCH  10  14
HETATM   14  O   UNL     1     -12.086  14.522  69.320  1.00  0.00    -0.321 OA 
BRANCH  14  15
HETATM   15  C   UNL     1     -12.508  13.807  70.453  1.00  0.00    -0.314 C  
HETATM   16  O   UNL     1     -12.467  12.591  70.561  1.00  0.00    -0.277 OA 
BRANCH  15  17
HETATM   17  C   UNL     1     -12.975  14.793  71.535  1.00  0.00    -0.410 C  
HETATM   18  C   UNL     1     -14.386  15.312  71.208  1.00  0.00    -0.488 C  
HETATM   19  C   UNL     1     -13.039  14.055  72.880  1.00  0.00    -0.481 C  
HETATM   20  C   UNL     1     -12.008  15.978  71.614  1.00  0.00    -0.569 C  
ENDBRANCH  15  17
ENDBRANCH  14  15
ENDBRANCH  10  14
BRANCH  11  21
HETATM   21  O   UNL     1     -10.859  16.165  67.433  1.00  0.00    -0.322 OA 
BRANCH  21  22
HETATM   22  C   UNL     1     -10.472  16.926  66.316  1.00  0.00    -0.262 C  
HETATM   23  O   UNL     1     -10.610  16.583  65.147  1.00  0.00    -0.632 OA 
BRANCH  22  24
HETATM   24  C   UNL     1      -9.817  18.249  66.743  1.00  0.00    -0.344 C  
HETATM   25  C   UNL     1     -10.489  19.418  65.994  1.00  0.00    -0.596 C  
HETATM   26  C   UNL     1     -10.001  18.481  68.249  1.00  0.00    -0.409 C  
HETATM   27  C   UNL     1      -8.330  18.218  66.379  1.00  0.00    -0.267 C  
ENDBRANCH  22  24
ENDBRANCH  21  22
ENDBRANCH  11  21
ENDBRANCH   5   8
ENDBRANCH   4   5
ENDBRANCH   2   4
TORSDOF 9
ENDMDL
MODEL       89
REMARK 921   NORMALIZED FREE ENERGY PREDICTED BY IDOCK:   -4.56 KCAL/MOL
REMARK 922        TOTAL FREE ENERGY PREDICTED BY IDOCK:   -8.23 KCAL/MOL
REMARK 923 INTER-LIGAND FREE ENERGY PREDICTED BY IDOCK:   -6.89 KCAL/MOL
REMARK 924 INTRA-LIGAND FREE ENERGY PREDICTED BY IDOCK:   -1.35 KCAL/MOL
REMARK 927      BINDING AFFINITY PREDICTED BY RF-SCORE:    0.00 PKD
ROOT
HETATM    1  C   UNL     1     -10.533   6.919  73.692  1.00  0.00    -0.369 C  
HETATM    2  N   UNL     1     -11.645   7.693  73.163  1.00  0.00    -0.636 NA 
HETATM    3  H   UNL     1     -11.812   8.534  73.716  1.00  0.00     0.000 HD 
ENDROOT
BRANCH   2   4
HETATM    4  C   UNL     1     -11.446   8.014  71.740  1.00  0.00    -0.277 C  
BRANCH   4   5
HETATM    5  C   UNL     1     -12.390   9.159  71.286  1.00  0.00    -0.315 C  
HETATM    6  H   UNL     1     -13.313  10.665  72.144  1.00  0.00     0.000 HD 
HETATM    7  O   UNL     1     -12.735   9.964  72.421  1.00  0.00    -0.277 OA 
BRANCH   5   8
HETATM    8  C   UNL     1     -11.773  10.021  70.198  1.00  0.00    -0.285 A  
HETATM    9  C   UNL     1     -10.710   9.560  69.408  1.00  0.00    -0.244 A  
HETATM   10  C   UNL     1     -10.160  10.361  68.394  1.00  0.00    -0.163 A  
HETATM   11  C   UNL     1     -10.690  11.635  68.144  1.00  0.00    -0.213 A  
HETATM   12  C   UNL     1     -11.730  12.110  68.946  1.00  0.00    -0.381 A  
HETATM   13  C   UNL     1     -12.275  11.305  69.952  1.00  0.00    -0.358 A  
BRANCH  10  14
HETATM   14  O   UNL     1      -9.188   9.842  67.508  1.00  0.00    -0.130 OA 
BRANCH  14  15
HETATM   15  C   UNL     1      -9.593   9.082  66.399  1.00  0.00    -0.244 C  
HETATM   16  O   UNL     1     -10.368   8.139  66.448  1.00  0.00    -0.210 OA 
BRANCH  15  17
HETATM   17  C   UNL     1      -8.949   9.653  65.125  1.00  0.00    -0.249 C  
HETATM   18  C   UNL     1      -7.761  10.559  65.490  1.00  0.00    -0.127 C  
HETATM   19  C   UNL     1      -8.418   8.489  64.276  1.00  0.00    -0.068 C  
HETATM   20  C   UNL     1      -9.982  10.468  64.340  1.00  0.00    -0.410 C  
ENDBRANCH  15  17
ENDBRANCH  14  15
ENDBRANCH  10  14
BRANCH  11  21
HETATM   21  O   UNL     1     -10.115  12.442  67.129  1.00  0.00    -0.211 OA 
BRANCH  21  22
HETATM   22  C   UNL     1      -9.459  13.644  67.448  1.00  0.00    -0.225 C  
HETATM   23  O   UNL     1      -8.651  13.787  68.359  1.00  0.00    -0.166 OA 
BRANCH  22  24
HETATM   24  C   UNL     1      -9.905  14.785  66.520  1.00  0.00    -0.287 C  
HETATM   25  C   UNL     1      -8.760  15.810  66.382  1.00  0.00    -0.372 C  
HETATM   26  C   UNL     1     -10.232  14.247  65.121  1.00  0.00    -0.414 C  
HETATM   27  C   UNL     1     -11.124  15.484  67.129  1.00  0.00    -0.256 C  
ENDBRANCH  22  24
ENDBRANCH  21  22
ENDBRANCH  11  21
ENDBRANCH   5   8
ENDBRANCH   4   5
ENDBRANCH   2   4
TORSDOF 9
ENDMDL
MODEL       90
REMARK 921   NORMALIZED FREE ENERGY PREDICTED BY IDOCK:   -4.56 KCAL/MOL
REMARK 922        TOTAL FREE ENERGY PREDICTED BY IDOCK:   -8.23 KCAL/MOL
REMARK 923 INTER-LIGAND FREE ENERGY PREDICTED BY IDOCK:   -6.99 KCAL/MOL
REMARK 924 INTRA-LIGAND FREE ENERGY PREDICTED BY IDOCK:   -1.24 KCAL/MOL
REMARK 927      BINDING AFFINITY PREDICTED BY RF-SCORE:    0.00 PKD
ROOT
HETATM    1  C   UNL     1      -9.786  15.491  66.096  1.00  0.00    -0.319 C  
HETATM    2  N   UNL     1      -9.663  14.110  65.660  1.00  0.00    -0.523 NA 
HETATM    3  H   UNL     1      -9.493  13.483  66.447  1.00  0.00     0.000 HD 
ENDROOT
BRANCH   2   4
HETATM    4  C   UNL     1     -10.836  13.688  64.878  1.00  0.00    -0.375 C  
BRANCH   4   5
HETATM    5  C   UNL     1     -11.852  12.917  65.761  1.00  0.00    -0.419 C  
HETATM    6  H   UNL     1     -13.573  12.011  65.488  1.00  0.00     0.000 HD 
HETATM    7  O   UNL     1     -12.950  12.483  64.947  1.00  0.00    -0.821 OA 
BRANCH   5   8
HETATM    8  C   UNL     1     -11.221  11.731  66.469  1.00  0.00    -0.380 A  
HETATM    9  C   UNL     1     -11.150  11.661  67.868  1.00  0.00    -0.306 A  
HETATM   10  C   UNL     1     -10.580  10.551  68.511  1.00  0.00    -0.206 A  
HETATM   11  C   UNL     1     -10.092   9.478  67.752  1.00  0.00    -0.198 A  
HETATM   12  C   UNL     1     -10.134   9.553  66.358  1.00  0.00    -0.328 A  
HETATM   13  C   UNL     1     -10.706  10.662  65.724  1.00  0.00    -0.097 A  
BRANCH  10  14
HETATM   14  O   UNL     1     -10.638  10.419  69.918  1.00  0.00    -0.263 OA 
BRANCH  14  15
HETATM   15  C   UNL     1     -11.823   9.974  70.526  1.00  0.00    -0.303 C  
HETATM   16  O   UNL     1     -12.928  10.460  70.333  1.00  0.00    -0.303 OA 
BRANCH  15  17
HETATM   17  C   UNL     1     -11.516   8.764  71.422  1.00  0.00    -0.366 C  
HETATM   18  C   UNL     1     -11.704   7.456  70.633  1.00  0.00    -0.270 C  
HETATM   19  C   UNL     1     -10.049   8.842  71.870  1.00  0.00    -0.409 C  
HETATM   20  C   UNL     1     -12.453   8.761  72.634  1.00  0.00    -0.270 C  
ENDBRANCH  15  17
ENDBRANCH  14  15
ENDBRANCH  10  14
BRANCH  11  21
HETATM   21  O   UNL     1      -9.501   8.369  68.411  1.00  0.00    -0.139 OA 
BRANCH  21  22
HETATM   22  C   UNL     1      -8.264   7.852  67.988  1.00  0.00    -0.127 C  
HETATM   23  O   UNL     1      -7.228   8.498  67.882  1.00  0.00    -0.084 OA 
BRANCH  22  24
HETATM   24  C   UNL     1      -8.374   6.358  67.640  1.00  0.00    -0.117 C  
HETATM   25  C   UNL     1      -6.988   5.697  67.778  1.00  0.00    -0.066 C  
HETATM   26  C   UNL     1      -9.337   5.649  68.602  1.00  0.00    -0.142 C  
HETATM   27  C   UNL     1      -8.851   6.211  66.192  1.00  0.00    -0.158 C  
ENDBRANCH  22  24
ENDBRANCH  21  22
ENDBRANCH  11  21
ENDBRANCH   5   8
ENDBRANCH   4   5
ENDBRANCH   2   4
TORSDOF 9
ENDMDL
MODEL       91
REMARK 921   NORMALIZED FREE ENERGY PREDICTED BY IDOCK:   -4.53 KCAL/MOL
REMARK 922        TOTAL FREE ENERGY PREDICTED BY IDOCK:   -8.19 KCAL/MOL
REMARK 923 INTER-LIGAND FREE ENERGY PREDICTED BY IDOCK:   -7.05 KCAL/MOL
REMARK 924 INTRA-LIGAND FREE ENERGY PREDICTED BY IDOCK:   -1.14 KCAL/MOL
REMARK 927      BINDING AFFINITY PREDICTED BY RF-SCORE:    0.00 PKD
ROOT
HETATM    1  C   UNL     1     -11.543  15.803  69.700  1.00  0.00    -0.358 C  
HETATM    2  N   UNL     1     -12.221  14.916  68.769  1.00  0.00    -0.587 NA 
HETATM    3  H   UNL     1     -12.653  15.435  68.005  1.00  0.00     0.000 HD 
ENDROOT
BRANCH   2   4
HETATM    4  C   UNL     1     -11.313  13.871  68.266  1.00  0.00    -0.294 C  
BRANCH   4   5
HETATM    5  C   UNL     1     -12.088  12.572  67.923  1.00  0.00    -0.058 C  
HETATM    6  H   UNL     1     -12.534  11.571  66.293  1.00  0.00     0.000 HD 
HETATM    7  O   UNL     1     -12.059  12.367  66.504  1.00  0.00    -0.599 OA 
BRANCH   5   8
HETATM    8  C   UNL     1     -11.529  11.357  68.641  1.00  0.00    -0.359 A  
HETATM    9  C   UNL     1     -10.656  10.462  68.004  1.00  0.00    -0.259 A  
HETATM   10  C   UNL     1     -10.132   9.351  68.685  1.00  0.00    -0.190 A  
HETATM   11  C   UNL     1     -10.462   9.137  70.030  1.00  0.00    -0.221 A  
HETATM   12  C   UNL     1     -11.352  10.007  70.662  1.00  0.00    -0.425 A  
HETATM   13  C   UNL     1     -11.868  11.114  69.978  1.00  0.00    -0.441 A  
BRANCH  10  14
HETATM   14  O   UNL     1      -9.145   8.535  68.087  1.00  0.00    -0.138 OA 
BRANCH  14  15
HETATM   15  C   UNL     1      -9.344   8.041  66.787  1.00  0.00    -0.180 C  
HETATM   16  O   UNL     1      -9.355   8.729  65.777  1.00  0.00    -0.225 OA 
BRANCH  15  17
HETATM   17  C   UNL     1      -9.493   6.512  66.838  1.00  0.00    -0.178 C  
HETATM   18  C   UNL     1      -8.806   5.952  68.096  1.00  0.00    -0.110 C  
HETATM   19  C   UNL     1     -10.986   6.164  66.916  1.00  0.00    -0.384 C  
HETATM   20  C   UNL     1      -8.855   5.885  65.594  1.00  0.00    -0.126 C  
ENDBRANCH  15  17
ENDBRANCH  14  15
ENDBRANCH  10  14
BRANCH  11  21
HETATM   21  O   UNL     1      -9.941   8.001  70.703  1.00  0.00    -0.188 OA 
BRANCH  21  22
HETATM   22  C   UNL     1     -10.771   6.916  71.036  1.00  0.00    -0.231 C  
HETATM   23  O   UNL     1     -11.719   6.520  70.366  1.00  0.00    -0.393 OA 
BRANCH  22  24
HETATM   24  C   UNL     1     -10.358   6.290  72.378  1.00  0.00    -0.215 C  
HETATM   25  C   UNL     1     -11.471   5.340  72.865  1.00  0.00    -0.339 C  
HETATM   26  C   UNL     1      -9.071   5.470  72.218  1.00  0.00    -0.149 C  
HETATM   27  C   UNL     1     -10.166   7.400  73.415  1.00  0.00    -0.402 C  
ENDBRANCH  22  24
ENDBRANCH  21  22
ENDBRANCH  11  21
ENDBRANCH   5   8
ENDBRANCH   4   5
ENDBRANCH   2   4
TORSDOF 9
ENDMDL
MODEL       92
REMARK 921   NORMALIZED FREE ENERGY PREDICTED BY IDOCK:   -4.53 KCAL/MOL
REMARK 922        TOTAL FREE ENERGY PREDICTED BY IDOCK:   -8.19 KCAL/MOL
REMARK 923 INTER-LIGAND FREE ENERGY PREDICTED BY IDOCK:   -7.50 KCAL/MOL
REMARK 924 INTRA-LIGAND FREE ENERGY PREDICTED BY IDOCK:   -0.69 KCAL/MOL
REMARK 927      BINDING AFFINITY PREDICTED BY RF-SCORE:    0.00 PKD
ROOT
HETATM    1  C   UNL     1      -7.470   6.043  62.904  1.00  0.00    -0.064 C  
HETATM    2  N   UNL     1      -8.197   7.253  63.251  1.00  0.00    -0.344 NA 
HETATM    3  H   UNL     1      -9.185   7.178  63.009  1.00  0.00     0.000 HD 
ENDROOT
BRANCH   2   4
HETATM    4  C   UNL     1      -8.015   7.600  64.670  1.00  0.00    -0.136 C  
BRANCH   4   5
HETATM    5  C   UNL     1      -8.439   9.066  64.949  1.00  0.00    -0.178 C  
HETATM    6  H   UNL     1      -9.507  10.436  64.033  1.00  0.00     0.000 HD 
HETATM    7  O   UNL     1      -9.247   9.538  63.863  1.00  0.00    -0.213 OA 
BRANCH   5   8
HETATM    8  C   UNL     1      -9.186   9.214  66.263  1.00  0.00    -0.246 A  
HETATM    9  C   UNL     1     -10.101  10.255  66.476  1.00  0.00    -0.290 A  
HETATM   10  C   UNL     1     -10.798  10.371  67.690  1.00  0.00    -0.306 A  
HETATM   11  C   UNL     1     -10.601   9.421  68.702  1.00  0.00    -0.200 A  
HETATM   12  C   UNL     1      -9.671   8.397  68.507  1.00  0.00    -0.169 A  
HETATM   13  C   UNL     1      -8.983   8.287  67.294  1.00  0.00    -0.149 A  
BRANCH  10  14
HETATM   14  O   UNL     1     -11.821  11.334  67.849  1.00  0.00    -0.597 OA 
BRANCH  14  15
HETATM   15  C   UNL     1     -11.863  12.451  66.999  1.00  0.00    -0.297 C  
HETATM   16  O   UNL     1     -12.292  12.437  65.854  1.00  0.00    -0.638 OA 
BRANCH  15  17
HETATM   17  C   UNL     1     -11.337  13.684  67.748  1.00  0.00    -0.336 C  
HETATM   18  C   UNL     1     -11.899  13.717  69.180  1.00  0.00    -0.394 C  
HETATM   19  C   UNL     1      -9.807  13.592  67.839  1.00  0.00    -0.235 C  
HETATM   20  C   UNL     1     -11.758  14.961  67.013  1.00  0.00    -0.274 C  
ENDBRANCH  15  17
ENDBRANCH  14  15
ENDBRANCH  10  14
BRANCH  11  21
HETATM   21  O   UNL     1     -11.298   9.558  69.931  1.00  0.00    -0.217 OA 
BRANCH  21  22
HETATM   22  C   UNL     1     -10.735   9.098  71.135  1.00  0.00    -0.310 C  
HETATM   23  O   UNL     1      -9.630   9.412  71.563  1.00  0.00    -0.250 OA 
BRANCH  22  24
HETATM   24  C   UNL     1     -11.676   8.114  71.849  1.00  0.00    -0.362 C  
HETATM   25  C   UNL     1     -12.999   8.829  72.192  1.00  0.00    -0.457 C  
HETATM   26  C   UNL     1     -12.001   6.921  70.941  1.00  0.00    -0.430 C  
HETATM   27  C   UNL     1     -11.019   7.641  73.149  1.00  0.00    -0.411 C  
ENDBRANCH  22  24
ENDBRANCH  21  22
ENDBRANCH  11  21
ENDBRANCH   5   8
ENDBRANCH   4   5
ENDBRANCH   2   4
TORSDOF 9
ENDMDL
MODEL       93
REMARK 921   NORMALIZED FREE ENERGY PREDICTED BY IDOCK:   -4.52 KCAL/MOL
REMARK 922        TOTAL FREE ENERGY PREDICTED BY IDOCK:   -8.17 KCAL/MOL
REMARK 923 INTER-LIGAND FREE ENERGY PREDICTED BY IDOCK:   -7.20 KCAL/MOL
REMARK 924 INTRA-LIGAND FREE ENERGY PREDICTED BY IDOCK:   -0.97 KCAL/MOL
REMARK 927      BINDING AFFINITY PREDICTED BY RF-SCORE:    0.00 PKD
ROOT
HETATM    1  C   UNL     1     -10.572  17.610  68.422  1.00  0.00    -0.316 C  
HETATM    2  N   UNL     1     -10.724  16.751  69.585  1.00  0.00    -0.316 NA 
HETATM    3  H   UNL     1     -10.493  17.245  70.448  1.00  0.00     0.000 HD 
ENDROOT
BRANCH   2   4
HETATM    4  C   UNL     1     -12.071  16.161  69.644  1.00  0.00     0.036 C  
BRANCH   4   5
HETATM    5  C   UNL     1     -12.072  14.843  70.460  1.00  0.00    -0.320 C  
HETATM    6  H   UNL     1     -13.303  13.933  71.692  1.00  0.00     0.000 HD 
HETATM    7  O   UNL     1     -13.302  14.741  71.191  1.00  0.00    -0.371 OA 
BRANCH   5   8
HETATM    8  C   UNL     1     -11.879  13.618  69.584  1.00  0.00    -0.396 A  
HETATM    9  C   UNL     1     -11.999  12.318  70.098  1.00  0.00    -0.377 A  
HETATM   10  C   UNL     1     -11.834  11.194  69.273  1.00  0.00    -0.352 A  
HETATM   11  C   UNL     1     -11.569  11.362  67.906  1.00  0.00    -0.266 A  
HETATM   12  C   UNL     1     -11.421  12.653  67.394  1.00  0.00    -0.397 A  
HETATM   13  C   UNL     1     -11.589  13.768  68.222  1.00  0.00    -0.373 A  
BRANCH  10  14
HETATM   14  O   UNL     1     -12.096   9.893  69.761  1.00  0.00     0.009 OA 
BRANCH  14  15
HETATM   15  C   UNL     1     -11.237   9.321  70.713  1.00  0.00    -0.288 C  
HETATM   16  O   UNL     1     -10.053   9.599  70.837  1.00  0.00    -0.279 OA 
BRANCH  15  17
HETATM   17  C   UNL     1     -12.028   8.340  71.592  1.00  0.00    -0.346 C  
HETATM   18  C   UNL     1     -11.242   8.024  72.877  1.00  0.00    -0.389 C  
HETATM   19  C   UNL     1     -13.356   8.997  71.994  1.00  0.00    -0.494 C  
HETATM   20  C   UNL     1     -12.280   7.038  70.823  1.00  0.00    -0.343 C  
ENDBRANCH  15  17
ENDBRANCH  14  15
ENDBRANCH  10  14
BRANCH  11  21
HETATM   21  O   UNL     1     -11.388  10.219  67.086  1.00  0.00    -0.230 OA 
BRANCH  21  22
HETATM   22  C   UNL     1     -10.140   9.574  67.012  1.00  0.00    -0.234 C  
HETATM   23  O   UNL     1      -9.730   8.738  67.810  1.00  0.00    -0.148 OA 
BRANCH  22  24
HETATM   24  C   UNL     1      -9.326  10.072  65.808  1.00  0.00    -0.241 C  
HETATM   25  C   UNL     1      -8.640   8.872  65.122  1.00  0.00    -0.208 C  
HETATM   26  C   UNL     1     -10.241  10.748  64.779  1.00  0.00    -0.403 C  
HETATM   27  C   UNL     1      -8.248  11.045  66.295  1.00  0.00    -0.164 C  
ENDBRANCH  22  24
ENDBRANCH  21  22
ENDBRANCH  11  21
ENDBRANCH   5   8
ENDBRANCH   4   5
ENDBRANCH   2   4
TORSDOF 9
ENDMDL
MODEL       94
REMARK 921   NORMALIZED FREE ENERGY PREDICTED BY IDOCK:   -4.52 KCAL/MOL
REMARK 922        TOTAL FREE ENERGY PREDICTED BY IDOCK:   -8.17 KCAL/MOL
REMARK 923 INTER-LIGAND FREE ENERGY PREDICTED BY IDOCK:   -6.95 KCAL/MOL
REMARK 924 INTRA-LIGAND FREE ENERGY PREDICTED BY IDOCK:   -1.22 KCAL/MOL
REMARK 927      BINDING AFFINITY PREDICTED BY RF-SCORE:    0.00 PKD
ROOT
HETATM    1  C   UNL     1     -14.385   7.096  71.595  1.00  0.00    -0.365 C  
HETATM    2  N   UNL     1     -13.652   8.268  71.145  1.00  0.00    -0.551 NA 
HETATM    3  H   UNL     1     -14.230   8.868  70.558  1.00  0.00     0.000 HD 
ENDROOT
BRANCH   2   4
HETATM    4  C   UNL     1     -13.081   9.011  72.280  1.00  0.00    -0.445 C  
BRANCH   4   5
HETATM    5  C   UNL     1     -11.563   8.727  72.431  1.00  0.00    -0.250 C  
HETATM    6  H   UNL     1     -10.449   7.211  72.995  1.00  0.00     0.000 HD 
HETATM    7  O   UNL     1     -11.379   7.386  72.902  1.00  0.00    -0.317 OA 
BRANCH   5   8
HETATM    8  C   UNL     1     -10.802   8.938  71.133  1.00  0.00    -0.352 A  
HETATM    9  C   UNL     1     -10.880  10.144  70.421  1.00  0.00    -0.365 A  
HETATM   10  C   UNL     1     -10.158  10.331  69.232  1.00  0.00    -0.227 A  
HETATM   11  C   UNL     1      -9.325   9.311  68.751  1.00  0.00    -0.139 A  
HETATM   12  C   UNL     1      -9.264   8.098  69.440  1.00  0.00    -0.155 A  
HETATM   13  C   UNL     1      -9.985   7.919  70.627  1.00  0.00    -0.188 A  
BRANCH  10  14
HETATM   14  O   UNL     1     -10.127  11.594  68.595  1.00  0.00    -0.211 OA 
BRANCH  14  15
HETATM   15  C   UNL     1     -11.316  12.155  68.104  1.00  0.00    -0.293 C  
HETATM   16  O   UNL     1     -12.259  11.513  67.666  1.00  0.00    -0.513 OA 
BRANCH  15  17
HETATM   17  C   UNL     1     -11.259  13.684  68.251  1.00  0.00    -0.302 C  
HETATM   18  C   UNL     1     -12.127  14.138  69.437  1.00  0.00    -0.372 C  
HETATM   19  C   UNL     1      -9.808  14.098  68.537  1.00  0.00    -0.230 C  
HETATM   20  C   UNL     1     -11.769  14.350  66.969  1.00  0.00    -0.420 C  
ENDBRANCH  15  17
ENDBRANCH  14  15
ENDBRANCH  10  14
BRANCH  11  21
HETATM   21  O   UNL     1      -8.614   9.506  67.538  1.00  0.00    -0.125 OA 
BRANCH  21  22
HETATM   22  C   UNL     1      -9.210   9.217  66.298  1.00  0.00    -0.186 C  
HETATM   23  O   UNL     1     -10.017   8.317  66.095  1.00  0.00    -0.178 OA 
BRANCH  22  24
HETATM   24  C   UNL     1      -8.699  10.165  65.201  1.00  0.00    -0.189 C  
HETATM   25  C   UNL     1      -8.852   9.485  63.825  1.00  0.00    -0.238 C  
HETATM   26  C   UNL     1      -9.518  11.462  65.183  1.00  0.00    -0.223 C  
HETATM   27  C   UNL     1      -7.217  10.464  65.443  1.00  0.00    -0.121 C  
ENDBRANCH  22  24
ENDBRANCH  21  22
ENDBRANCH  11  21
ENDBRANCH   5   8
ENDBRANCH   4   5
ENDBRANCH   2   4
TORSDOF 9
ENDMDL
MODEL       95
REMARK 921   NORMALIZED FREE ENERGY PREDICTED BY IDOCK:   -4.48 KCAL/MOL
REMARK 922        TOTAL FREE ENERGY PREDICTED BY IDOCK:   -8.11 KCAL/MOL
REMARK 923 INTER-LIGAND FREE ENERGY PREDICTED BY IDOCK:   -6.81 KCAL/MOL
REMARK 924 INTRA-LIGAND FREE ENERGY PREDICTED BY IDOCK:   -1.30 KCAL/MOL
REMARK 927      BINDING AFFINITY PREDICTED BY RF-SCORE:    0.00 PKD
ROOT
HETATM    1  C   UNL     1      -5.252  14.233  73.556  1.00  0.00    -0.340 C  
HETATM    2  N   UNL     1      -5.852  13.776  72.313  1.00  0.00    -0.502 NA 
HETATM    3  H   UNL     1      -6.865  13.693  72.396  1.00  0.00     0.000 HD 
ENDROOT
BRANCH   2   4
HETATM    4  C   UNL     1      -5.471  14.641  71.184  1.00  0.00    -0.145 C  
BRANCH   4   5
HETATM    5  C   UNL     1      -5.304  13.819  69.879  1.00  0.00    -0.098 C  
HETATM    6  H   UNL     1      -5.138  11.920  69.406  1.00  0.00     0.000 HD 
HETATM    7  O   UNL     1      -5.240  12.424  70.205  1.00  0.00    -0.084 OA 
BRANCH   5   8
HETATM    8  C   UNL     1      -6.424  14.076  68.886  1.00  0.00    -0.096 A  
HETATM    9  C   UNL     1      -6.849  15.376  68.576  1.00  0.00    -0.113 A  
HETATM   10  C   UNL     1      -7.874  15.600  67.642  1.00  0.00    -0.154 A  
HETATM   11  C   UNL     1      -8.472  14.515  66.986  1.00  0.00    -0.196 A  
HETATM   12  C   UNL     1      -8.073  13.217  67.311  1.00  0.00    -0.151 A  
HETATM   13  C   UNL     1      -7.049  13.001  68.240  1.00  0.00    -0.103 A  
BRANCH  10  14
HETATM   14  O   UNL     1      -8.202  16.912  67.227  1.00  0.00    -0.176 OA 
BRANCH  14  15
HETATM   15  C   UNL     1      -9.169  17.644  67.934  1.00  0.00    -0.267 C  
HETATM   16  O   UNL     1      -9.638  17.315  69.014  1.00  0.00    -0.249 OA 
BRANCH  15  17
HETATM   17  C   UNL     1      -9.500  18.931  67.163  1.00  0.00    -0.337 C  
HETATM   18  C   UNL     1     -10.142  19.966  68.104  1.00  0.00    -0.569 C  
HETATM   19  C   UNL     1      -8.196  19.529  66.616  1.00  0.00    -0.329 C  
HETATM   20  C   UNL     1     -10.473  18.619  66.020  1.00  0.00    -0.456 C  
ENDBRANCH  15  17
ENDBRANCH  14  15
ENDBRANCH  10  14
BRANCH  11  21
HETATM   21  O   UNL     1      -9.519  14.753  66.058  1.00  0.00    -0.297 OA 
BRANCH  21  22
HETATM   22  C   UNL     1     -10.866  14.619  66.440  1.00  0.00    -0.315 C  
HETATM   23  O   UNL     1     -11.437  15.320  67.268  1.00  0.00    -0.319 OA 
BRANCH  22  24
HETATM   24  C   UNL     1     -11.541  13.452  65.702  1.00  0.00    -0.350 C  
HETATM   25  C   UNL     1     -11.686  12.254  66.663  1.00  0.00    -0.417 C  
HETATM   26  C   UNL     1     -12.943  13.852  65.226  1.00  0.00    -0.341 C  
HETATM   27  C   UNL     1     -10.667  13.032  64.516  1.00  0.00    -0.404 C  
ENDBRANCH  22  24
ENDBRANCH  21  22
ENDBRANCH  11  21
ENDBRANCH   5   8
ENDBRANCH   4   5
ENDBRANCH   2   4
TORSDOF 9
ENDMDL
MODEL       96
REMARK 921   NORMALIZED FREE ENERGY PREDICTED BY IDOCK:   -4.44 KCAL/MOL
REMARK 922        TOTAL FREE ENERGY PREDICTED BY IDOCK:   -8.05 KCAL/MOL
REMARK 923 INTER-LIGAND FREE ENERGY PREDICTED BY IDOCK:   -6.69 KCAL/MOL
REMARK 924 INTRA-LIGAND FREE ENERGY PREDICTED BY IDOCK:   -1.36 KCAL/MOL
REMARK 927      BINDING AFFINITY PREDICTED BY RF-SCORE:    0.00 PKD
ROOT
HETATM    1  C   UNL     1      -5.384  20.628  70.769  1.00  0.00    -0.214 C  
HETATM    2  N   UNL     1      -5.722  20.828  69.368  1.00  0.00    -0.369 NA 
HETATM    3  H   UNL     1      -4.889  21.000  68.804  1.00  0.00     0.000 HD 
ENDROOT
BRANCH   2   4
HETATM    4  C   UNL     1      -6.508  19.700  68.841  1.00  0.00    -0.299 C  
BRANCH   4   5
HETATM    5  C   UNL     1      -7.508  20.174  67.754  1.00  0.00    -0.292 C  
HETATM    6  H   UNL     1      -7.402  21.145  66.050  1.00  0.00     0.000 HD 
HETATM    7  O   UNL     1      -6.789  20.855  66.716  1.00  0.00    -0.281 OA 
BRANCH   5   8
HETATM    8  C   UNL     1      -8.314  19.027  67.169  1.00  0.00    -0.296 A  
HETATM    9  C   UNL     1      -7.863  17.701  67.236  1.00  0.00    -0.222 A  
HETATM   10  C   UNL     1      -8.626  16.648  66.707  1.00  0.00    -0.236 A  
HETATM   11  C   UNL     1      -9.871  16.913  66.119  1.00  0.00    -0.297 A  
HETATM   12  C   UNL     1     -10.313  18.234  66.024  1.00  0.00    -0.377 A  
HETATM   13  C   UNL     1      -9.549  19.278  66.557  1.00  0.00    -0.420 A  
BRANCH  10  14
HETATM   14  O   UNL     1      -8.238  15.302  66.902  1.00  0.00    -0.220 OA 
BRANCH  14  15
HETATM   15  C   UNL     1      -8.067  14.810  68.206  1.00  0.00    -0.139 C  
HETATM   16  O   UNL     1      -8.843  15.006  69.130  1.00  0.00    -0.201 OA 
BRANCH  15  17
HETATM   17  C   UNL     1      -6.790  13.957  68.268  1.00  0.00    -0.108 C  
HETATM   18  C   UNL     1      -6.516  13.514  69.716  1.00  0.00    -0.049 C  
HETATM   19  C   UNL     1      -6.996  12.697  67.415  1.00  0.00    -0.143 C  
HETATM   20  C   UNL     1      -5.596  14.769  67.754  1.00  0.00    -0.067 C  
ENDBRANCH  15  17
ENDBRANCH  14  15
ENDBRANCH  10  14
BRANCH  11  21
HETATM   21  O   UNL     1     -10.626  15.843  65.571  1.00  0.00    -0.363 OA 
BRANCH  21  22
HETATM   22  C   UNL     1     -11.237  14.890  66.405  1.00  0.00    -0.331 C  
HETATM   23  O   UNL     1     -11.743  15.128  67.496  1.00  0.00    -0.322 OA 
BRANCH  22  24
HETATM   24  C   UNL     1     -11.168  13.484  65.787  1.00  0.00    -0.308 C  
HETATM   25  C   UNL     1     -12.553  13.102  65.228  1.00  0.00    -0.531 C  
HETATM   26  C   UNL     1     -10.162  13.451  64.629  1.00  0.00    -0.338 C  
HETATM   27  C   UNL     1     -10.777  12.475  66.871  1.00  0.00    -0.268 C  
ENDBRANCH  22  24
ENDBRANCH  21  22
ENDBRANCH  11  21
ENDBRANCH   5   8
ENDBRANCH   4   5
ENDBRANCH   2   4
TORSDOF 9
ENDMDL
MODEL       97
REMARK 921   NORMALIZED FREE ENERGY PREDICTED BY IDOCK:   -4.38 KCAL/MOL
REMARK 922        TOTAL FREE ENERGY PREDICTED BY IDOCK:   -7.97 KCAL/MOL
REMARK 923 INTER-LIGAND FREE ENERGY PREDICTED BY IDOCK:   -6.52 KCAL/MOL
REMARK 924 INTRA-LIGAND FREE ENERGY PREDICTED BY IDOCK:   -1.45 KCAL/MOL
REMARK 927      BINDING AFFINITY PREDICTED BY RF-SCORE:    0.00 PKD
ROOT
HETATM    1  C   UNL     1     -11.833  15.806  70.929  1.00  0.00    -0.414 C  
HETATM    2  N   UNL     1     -11.190  14.520  70.712  1.00  0.00    -0.509 NA 
HETATM    3  H   UNL     1     -10.640  14.236  71.523  1.00  0.00     0.000 HD 
ENDROOT
BRANCH   2   4
HETATM    4  C   UNL     1     -12.170  13.488  70.335  1.00  0.00    -0.356 C  
BRANCH   4   5
HETATM    5  C   UNL     1     -11.903  12.957  68.903  1.00  0.00    -0.309 C  
HETATM    6  H   UNL     1     -10.738  13.447  67.399  1.00  0.00     0.000 HD 
HETATM    7  O   UNL     1     -10.902  13.772  68.276  1.00  0.00    -0.237 OA 
BRANCH   5   8
HETATM    8  C   UNL     1     -11.475  11.500  68.895  1.00  0.00    -0.352 A  
HETATM    9  C   UNL     1     -11.514  10.715  70.057  1.00  0.00    -0.404 A  
HETATM   10  C   UNL     1     -11.132   9.364  70.032  1.00  0.00    -0.221 A  
HETATM   11  C   UNL     1     -10.724   8.774  68.827  1.00  0.00    -0.077 A  
HETATM   12  C   UNL     1     -10.655   9.558  67.673  1.00  0.00    -0.329 A  
HETATM   13  C   UNL     1     -11.041  10.902  67.705  1.00  0.00    -0.376 A  
BRANCH  10  14
HETATM   14  O   UNL     1     -11.308   8.541  71.168  1.00  0.00    -0.254 OA 
BRANCH  14  15
HETATM   15  C   UNL     1     -10.209   8.246  71.992  1.00  0.00    -0.269 C  
HETATM   16  O   UNL     1      -9.308   9.029  72.254  1.00  0.00    -0.333 OA 
BRANCH  15  17
HETATM   17  C   UNL     1     -10.349   6.818  72.540  1.00  0.00    -0.222 C  
HETATM   18  C   UNL     1     -11.670   6.190  72.060  1.00  0.00    -0.354 C  
HETATM   19  C   UNL     1      -9.193   5.965  71.999  1.00  0.00    -0.154 C  
HETATM   20  C   UNL     1     -10.331   6.843  74.072  1.00  0.00    -0.355 C  
ENDBRANCH  15  17
ENDBRANCH  14  15
ENDBRANCH  10  14
BRANCH  11  21
HETATM   21  O   UNL     1     -10.323   7.413  68.818  1.00  0.00    -0.191 OA 
BRANCH  21  22
HETATM   22  C   UNL     1      -8.969   7.061  68.671  1.00  0.00    -0.130 C  
HETATM   23  O   UNL     1      -8.023   7.679  69.147  1.00  0.00    -0.116 OA 
BRANCH  22  24
HETATM   24  C   UNL     1      -8.813   5.801  67.804  1.00  0.00    -0.105 C  
HETATM   25  C   UNL     1      -9.576   5.994  66.478  1.00  0.00    -0.182 C  
HETATM   26  C   UNL     1      -7.336   5.555  67.471  1.00  0.00    -0.076 C  
HETATM   27  C   UNL     1      -9.408   4.601  68.547  1.00  0.00    -0.190 C  
ENDBRANCH  22  24
ENDBRANCH  21  22
ENDBRANCH  11  21
ENDBRANCH   5   8
ENDBRANCH   4   5
ENDBRANCH   2   4
TORSDOF 9
ENDMDL
MODEL       98
REMARK 921   NORMALIZED FREE ENERGY PREDICTED BY IDOCK:   -4.37 KCAL/MOL
REMARK 922        TOTAL FREE ENERGY PREDICTED BY IDOCK:   -7.95 KCAL/MOL
REMARK 923 INTER-LIGAND FREE ENERGY PREDICTED BY IDOCK:   -6.67 KCAL/MOL
REMARK 924 INTRA-LIGAND FREE ENERGY PREDICTED BY IDOCK:   -1.28 KCAL/MOL
REMARK 927      BINDING AFFINITY PREDICTED BY RF-SCORE:    0.00 PKD
ROOT
HETATM    1  C   UNL     1     -13.685   7.128  71.496  1.00  0.00    -0.309 C  
HETATM    2  N   UNL     1     -14.292   8.443  71.369  1.00  0.00    -0.611 NA 
HETATM    3  H   UNL     1     -15.264   8.439  71.680  1.00  0.00     0.000 HD 
ENDROOT
BRANCH   2   4
HETATM    4  C   UNL     1     -13.504   9.467  72.075  1.00  0.00    -0.443 C  
BRANCH   4   5
HETATM    5  C   UNL     1     -13.138  10.643  71.131  1.00  0.00    -0.322 C  
HETATM    6  H   UNL     1     -12.940  12.590  71.297  1.00  0.00     0.000 HD 
HETATM    7  O   UNL     1     -13.164  11.870  71.874  1.00  0.00    -0.482 OA 
BRANCH   5   8
HETATM    8  C   UNL     1     -11.783  10.456  70.472  1.00  0.00    -0.434 A  
HETATM    9  C   UNL     1     -11.435  11.140  69.298  1.00  0.00    -0.363 A  
HETATM   10  C   UNL     1     -10.172  10.972  68.708  1.00  0.00    -0.198 A  
HETATM   11  C   UNL     1      -9.227  10.127  69.308  1.00  0.00    -0.208 A  
HETATM   12  C   UNL     1      -9.577   9.422  70.461  1.00  0.00    -0.330 A  
HETATM   13  C   UNL     1     -10.836   9.597  71.045  1.00  0.00    -0.412 A  
BRANCH  10  14
HETATM   14  O   UNL     1      -9.773  11.768  67.609  1.00  0.00    -0.177 OA 
BRANCH  14  15
HETATM   15  C   UNL     1     -10.065  13.142  67.603  1.00  0.00    -0.221 C  
HETATM   16  O   UNL     1      -9.734  13.926  68.480  1.00  0.00    -0.221 OA 
BRANCH  15  17
HETATM   17  C   UNL     1     -10.814  13.500  66.310  1.00  0.00    -0.291 C  
HETATM   18  C   UNL     1     -12.251  13.943  66.633  1.00  0.00    -0.465 C  
HETATM   19  C   UNL     1     -10.094  14.675  65.632  1.00  0.00    -0.389 C  
HETATM   20  C   UNL     1     -10.858  12.283  65.379  1.00  0.00    -0.324 C  
ENDBRANCH  15  17
ENDBRANCH  14  15
ENDBRANCH  10  14
BRANCH  11  21
HETATM   21  O   UNL     1      -7.960   9.951  68.693  1.00  0.00    -0.084 OA 
BRANCH  21  22
HETATM   22  C   UNL     1      -7.697   8.826  67.892  1.00  0.00    -0.102 C  
HETATM   23  O   UNL     1      -8.472   8.346  67.072  1.00  0.00    -0.119 OA 
BRANCH  22  24
HETATM   24  C   UNL     1      -6.306   8.242  68.191  1.00  0.00    -0.055 C  
HETATM   25  C   UNL     1      -5.275   8.849  67.218  1.00  0.00    -0.033 C  
HETATM   26  C   UNL     1      -5.872   8.588  69.621  1.00  0.00    -0.029 C  
HETATM   27  C   UNL     1      -6.343   6.724  67.989  1.00  0.00    -0.045 C  
ENDBRANCH  22  24
ENDBRANCH  21  22
ENDBRANCH  11  21
ENDBRANCH   5   8
ENDBRANCH   4   5
ENDBRANCH   2   4
TORSDOF 9
ENDMDL
MODEL       99
REMARK 921   NORMALIZED FREE ENERGY PREDICTED BY IDOCK:   -4.36 KCAL/MOL
REMARK 922        TOTAL FREE ENERGY PREDICTED BY IDOCK:   -7.93 KCAL/MOL
REMARK 923 INTER-LIGAND FREE ENERGY PREDICTED BY IDOCK:   -6.44 KCAL/MOL
REMARK 924 INTRA-LIGAND FREE ENERGY PREDICTED BY IDOCK:   -1.49 KCAL/MOL
REMARK 927      BINDING AFFINITY PREDICTED BY RF-SCORE:    0.00 PKD
ROOT
HETATM    1  C   UNL     1     -10.414  12.158  63.531  1.00  0.00    -0.454 C  
HETATM    2  N   UNL     1      -9.803  12.531  64.797  1.00  0.00    -0.487 NA 
HETATM    3  H   UNL     1     -10.114  13.452  65.106  1.00  0.00     0.000 HD 
ENDROOT
BRANCH   2   4
HETATM    4  C   UNL     1     -10.041  11.508  65.829  1.00  0.00    -0.237 C  
BRANCH   4   5
HETATM    5  C   UNL     1     -10.881  12.077  67.001  1.00  0.00    -0.253 C  
HETATM    6  H   UNL     1     -12.719  12.722  67.251  1.00  0.00     0.000 HD 
HETATM    7  O   UNL     1     -12.204  12.373  66.534  1.00  0.00    -0.586 OA 
BRANCH   5   8
HETATM    8  C   UNL     1     -10.942  11.129  68.185  1.00  0.00    -0.292 A  
HETATM    9  C   UNL     1     -10.010  10.093  68.348  1.00  0.00    -0.173 A  
HETATM   10  C   UNL     1     -10.068   9.233  69.456  1.00  0.00    -0.198 A  
HETATM   11  C   UNL     1     -11.055   9.418  70.435  1.00  0.00    -0.261 A  
HETATM   12  C   UNL     1     -12.003  10.430  70.265  1.00  0.00    -0.387 A  
HETATM   13  C   UNL     1     -11.937  11.285  69.159  1.00  0.00    -0.405 A  
BRANCH  10  14
HETATM   14  O   UNL     1      -9.046   8.283  69.690  1.00  0.00    -0.151 OA 
BRANCH  14  15
HETATM   15  C   UNL     1      -7.788   8.713  70.141  1.00  0.00    -0.098 C  
HETATM   16  O   UNL     1      -7.609   9.482  71.074  1.00  0.00    -0.311 OA 
BRANCH  15  17
HETATM   17  C   UNL     1      -6.688   8.030  69.313  1.00  0.00    -0.040 C  
HETATM   18  C   UNL     1      -5.387   7.937  70.130  1.00  0.00    -0.023 C  
HETATM   19  C   UNL     1      -7.140   6.603  68.973  1.00  0.00    -0.089 C  
HETATM   20  C   UNL     1      -6.423   8.833  68.035  1.00  0.00    -0.057 C  
ENDBRANCH  15  17
ENDBRANCH  14  15
ENDBRANCH  10  14
BRANCH  11  21
HETATM   21  O   UNL     1     -11.114   8.532  71.542  1.00  0.00    -0.244 OA 
BRANCH  21  22
HETATM   22  C   UNL     1     -11.714   7.266  71.421  1.00  0.00    -0.287 C  
HETATM   23  O   UNL     1     -12.829   7.055  70.957  1.00  0.00    -0.349 OA 
BRANCH  22  24
HETATM   24  C   UNL     1     -10.800   6.162  71.975  1.00  0.00    -0.292 C  
HETATM   25  C   UNL     1     -10.230   5.333  70.806  1.00  0.00    -0.317 C  
HETATM   26  C   UNL     1      -9.621   6.772  72.745  1.00  0.00    -0.161 C  
HETATM   27  C   UNL     1     -11.618   5.238  72.883  1.00  0.00    -0.292 C  
ENDBRANCH  22  24
ENDBRANCH  21  22
ENDBRANCH  11  21
ENDBRANCH   5   8
ENDBRANCH   4   5
ENDBRANCH   2   4
TORSDOF 9
ENDMDL
MODEL      100
REMARK 921   NORMALIZED FREE ENERGY PREDICTED BY IDOCK:   -4.34 KCAL/MOL
REMARK 922        TOTAL FREE ENERGY PREDICTED BY IDOCK:   -7.91 KCAL/MOL
REMARK 923 INTER-LIGAND FREE ENERGY PREDICTED BY IDOCK:   -6.60 KCAL/MOL
REMARK 924 INTRA-LIGAND FREE ENERGY PREDICTED BY IDOCK:   -1.30 KCAL/MOL
REMARK 927      BINDING AFFINITY PREDICTED BY RF-SCORE:    0.00 PKD
ROOT
HETATM    1  C   UNL     1     -14.406  14.530  72.006  1.00  0.00    -0.558 C  
HETATM    2  N   UNL     1     -13.840  13.269  72.456  1.00  0.00    -0.719 NA 
HETATM    3  H   UNL     1     -14.539  12.691  72.925  1.00  0.00     0.000 HD 
ENDROOT
BRANCH   2   4
HETATM    4  C   UNL     1     -13.196  12.544  71.349  1.00  0.00    -0.112 C  
BRANCH   4   5
HETATM    5  C   UNL     1     -12.698  11.148  71.806  1.00  0.00    -0.291 C  
HETATM    6  H   UNL     1     -13.520   9.421  72.251  1.00  0.00     0.000 HD 
HETATM    7  O   UNL     1     -13.824  10.276  71.971  1.00  0.00    -0.160 OA 
BRANCH   5   8
HETATM    8  C   UNL     1     -11.702  10.541  70.833  1.00  0.00    -0.431 A  
HETATM    9  C   UNL     1     -11.069   9.317  71.095  1.00  0.00    -0.411 A  
HETATM   10  C   UNL     1     -10.163   8.759  70.179  1.00  0.00    -0.190 A  
HETATM   11  C   UNL     1      -9.897   9.416  68.970  1.00  0.00    -0.169 A  
HETATM   12  C   UNL     1     -10.502  10.648  68.715  1.00  0.00    -0.215 A  
HETATM   13  C   UNL     1     -11.406  11.197  69.631  1.00  0.00    -0.366 A  
BRANCH  10  14
HETATM   14  O   UNL     1      -9.638   7.461  70.380  1.00  0.00    -0.166 OA 
BRANCH  14  15
HETATM   15  C   UNL     1     -10.512   6.369  70.507  1.00  0.00    -0.220 C  
HETATM   16  O   UNL     1     -11.497   6.182  69.808  1.00  0.00    -0.433 OA 
BRANCH  15  17
HETATM   17  C   UNL     1     -10.006   5.436  71.618  1.00  0.00    -0.239 C  
HETATM   18  C   UNL     1      -9.471   4.127  71.011  1.00  0.00    -0.233 C  
HETATM   19  C   UNL     1      -8.849   6.126  72.354  1.00  0.00    -0.136 C  
HETATM   20  C   UNL     1     -11.148   5.113  72.587  1.00  0.00    -0.298 C  
ENDBRANCH  15  17
ENDBRANCH  14  15
ENDBRANCH  10  14
BRANCH  11  21
HETATM   21  O   UNL     1      -8.966   8.850  68.060  1.00  0.00    -0.139 OA 
BRANCH  21  22
HETATM   22  C   UNL     1      -9.392   8.313  66.833  1.00  0.00    -0.176 C  
HETATM   23  O   UNL     1     -10.103   7.322  66.705  1.00  0.00    -0.224 OA 
BRANCH  22  24
HETATM   24  C   UNL     1      -8.826   9.112  65.648  1.00  0.00    -0.222 C  
HETATM   25  C   UNL     1      -7.755  10.098  66.160  1.00  0.00    -0.113 C  
HETATM   26  C   UNL     1      -8.161   8.174  64.632  1.00  0.00    -0.148 C  
HETATM   27  C   UNL     1      -9.957   9.908  64.990  1.00  0.00    -0.236 C  
ENDBRANCH  22  24
ENDBRANCH  21  22
ENDBRANCH  11  21
ENDBRANCH   5   8
ENDBRANCH   4   5
ENDBRANCH   2   4
TORSDOF 9
ENDMDL
MODEL      101
REMARK 921   NORMALIZED FREE ENERGY PREDICTED BY IDOCK:   -4.34 KCAL/MOL
REMARK 922        TOTAL FREE ENERGY PREDICTED BY IDOCK:   -7.90 KCAL/MOL
REMARK 923 INTER-LIGAND FREE ENERGY PREDICTED BY IDOCK:   -6.86 KCAL/MOL
REMARK 924 INTRA-LIGAND FREE ENERGY PREDICTED BY IDOCK:   -1.04 KCAL/MOL
REMARK 927      BINDING AFFINITY PREDICTED BY RF-SCORE:    0.00 PKD
ROOT
HETATM    1  C   UNL     1     -10.280   7.222  73.587  1.00  0.00    -0.346 C  
HETATM    2  N   UNL     1     -11.314   7.877  72.803  1.00  0.00    -0.440 NA 
HETATM    3  H   UNL     1     -12.077   8.208  73.393  1.00  0.00     0.000 HD 
ENDROOT
BRANCH   2   4
HETATM    4  C   UNL     1     -10.757   8.963  71.980  1.00  0.00    -0.319 C  
BRANCH   4   5
HETATM    5  C   UNL     1     -11.843   9.591  71.069  1.00  0.00    -0.330 C  
HETATM    6  H   UNL     1     -12.973  11.198  71.103  1.00  0.00     0.000 HD 
HETATM    7  O   UNL     1     -12.307  10.813  71.661  1.00  0.00    -0.315 OA 
BRANCH   5   8
HETATM    8  C   UNL     1     -11.340   9.848  69.659  1.00  0.00    -0.212 A  
HETATM    9  C   UNL     1     -11.866  10.878  68.866  1.00  0.00    -0.340 A  
HETATM   10  C   UNL     1     -11.380  11.116  67.570  1.00  0.00    -0.278 A  
HETATM   11  C   UNL     1     -10.336  10.332  67.060  1.00  0.00    -0.243 A  
HETATM   12  C   UNL     1      -9.827   9.287  67.834  1.00  0.00    -0.200 A  
HETATM   13  C   UNL     1     -10.314   9.058  69.126  1.00  0.00    -0.229 A  
BRANCH  10  14
HETATM   14  O   UNL     1     -11.811  12.241  66.830  1.00  0.00    -0.524 OA 
BRANCH  14  15
HETATM   15  C   UNL     1     -11.643  13.530  67.362  1.00  0.00    -0.356 C  
HETATM   16  O   UNL     1     -12.252  13.968  68.327  1.00  0.00    -0.328 OA 
BRANCH  15  17
HETATM   17  C   UNL     1     -10.551  14.270  66.574  1.00  0.00    -0.286 C  
HETATM   18  C   UNL     1     -10.660  15.787  66.810  1.00  0.00    -0.309 C  
HETATM   19  C   UNL     1      -9.177  13.807  67.081  1.00  0.00    -0.245 C  
HETATM   20  C   UNL     1     -10.700  13.980  65.077  1.00  0.00    -0.409 C  
ENDBRANCH  15  17
ENDBRANCH  14  15
ENDBRANCH  10  14
BRANCH  11  21
HETATM   21  O   UNL     1      -9.865  10.570  65.743  1.00  0.00    -0.210 OA 
BRANCH  21  22
HETATM   22  C   UNL     1      -8.495  10.474  65.438  1.00  0.00    -0.170 C  
HETATM   23  O   UNL     1      -7.585  10.911  66.134  1.00  0.00    -0.147 OA 
BRANCH  22  24
HETATM   24  C   UNL     1      -8.273   9.770  64.090  1.00  0.00    -0.158 C  
HETATM   25  C   UNL     1      -9.489  10.020  63.174  1.00  0.00    -0.229 C  
HETATM   26  C   UNL     1      -7.027  10.327  63.389  1.00  0.00    -0.088 C  
HETATM   27  C   UNL     1      -8.133   8.263  64.325  1.00  0.00    -0.147 C  
ENDBRANCH  22  24
ENDBRANCH  21  22
ENDBRANCH  11  21
ENDBRANCH   5   8
ENDBRANCH   4   5
ENDBRANCH   2   4
TORSDOF 9
ENDMDL
MODEL      102
REMARK 921   NORMALIZED FREE ENERGY PREDICTED BY IDOCK:   -4.31 KCAL/MOL
REMARK 922        TOTAL FREE ENERGY PREDICTED BY IDOCK:   -7.85 KCAL/MOL
REMARK 923 INTER-LIGAND FREE ENERGY PREDICTED BY IDOCK:   -7.03 KCAL/MOL
REMARK 924 INTRA-LIGAND FREE ENERGY PREDICTED BY IDOCK:   -0.82 KCAL/MOL
REMARK 927      BINDING AFFINITY PREDICTED BY RF-SCORE:    0.00 PKD
ROOT
HETATM    1  C   UNL     1     -13.453  15.788  72.875  1.00  0.00    -0.580 C  
HETATM    2  N   UNL     1     -12.744  14.534  72.677  1.00  0.00    -0.364 NA 
HETATM    3  H   UNL     1     -12.261  14.239  73.527  1.00  0.00     0.000 HD 
ENDROOT
BRANCH   2   4
HETATM    4  C   UNL     1     -13.643  13.483  72.175  1.00  0.00    -0.557 C  
BRANCH   4   5
HETATM    5  C   UNL     1     -12.913  12.117  72.082  1.00  0.00    -0.171 C  
HETATM    6  H   UNL     1     -13.398  10.227  72.306  1.00  0.00     0.000 HD 
HETATM    7  O   UNL     1     -13.845  11.064  72.363  1.00  0.00     0.088 OA 
BRANCH   5   8
HETATM    8  C   UNL     1     -12.266  11.897  70.726  1.00  0.00    -0.401 A  
HETATM    9  C   UNL     1     -11.976  12.968  69.866  1.00  0.00    -0.381 A  
HETATM   10  C   UNL     1     -11.361  12.752  68.622  1.00  0.00    -0.294 A  
HETATM   11  C   UNL     1     -11.007  11.452  68.233  1.00  0.00    -0.216 A  
HETATM   12  C   UNL     1     -11.318  10.380  69.071  1.00  0.00    -0.279 A  
HETATM   13  C   UNL     1     -11.928  10.603  70.311  1.00  0.00    -0.425 A  
BRANCH  10  14
HETATM   14  O   UNL     1     -10.942  13.841  67.823  1.00  0.00    -0.249 OA 
BRANCH  14  15
HETATM   15  C   UNL     1     -11.627  14.136  66.634  1.00  0.00    -0.384 C  
HETATM   16  O   UNL     1     -12.832  14.002  66.474  1.00  0.00    -0.190 OA 
BRANCH  15  17
HETATM   17  C   UNL     1     -10.638  14.693  65.598  1.00  0.00    -0.344 C  
HETATM   18  C   UNL     1     -11.160  16.022  65.025  1.00  0.00    -0.345 C  
HETATM   19  C   UNL     1      -9.298  14.968  66.293  1.00  0.00    -0.341 C  
HETATM   20  C   UNL     1     -10.459  13.687  64.456  1.00  0.00    -0.411 C  
ENDBRANCH  15  17
ENDBRANCH  14  15
ENDBRANCH  10  14
BRANCH  11  21
HETATM   21  O   UNL     1     -10.403  11.245  66.966  1.00  0.00    -0.211 OA 
BRANCH  21  22
HETATM   22  C   UNL     1      -9.776  10.025  66.656  1.00  0.00    -0.194 C  
HETATM   23  O   UNL     1     -10.357   8.961  66.467  1.00  0.00    -0.276 OA 
BRANCH  22  24
HETATM   24  C   UNL     1      -8.248  10.179  66.609  1.00  0.00    -0.123 C  
HETATM   25  C   UNL     1      -7.764  10.049  65.150  1.00  0.00    -0.137 C  
HETATM   26  C   UNL     1      -7.828  11.561  67.126  1.00  0.00    -0.160 C  
HETATM   27  C   UNL     1      -7.602   9.070  67.445  1.00  0.00    -0.088 C  
ENDBRANCH  22  24
ENDBRANCH  21  22
ENDBRANCH  11  21
ENDBRANCH   5   8
ENDBRANCH   4   5
ENDBRANCH   2   4
TORSDOF 9
ENDMDL
MODEL      103
REMARK 921   NORMALIZED FREE ENERGY PREDICTED BY IDOCK:   -4.31 KCAL/MOL
REMARK 922        TOTAL FREE ENERGY PREDICTED BY IDOCK:   -7.85 KCAL/MOL
REMARK 923 INTER-LIGAND FREE ENERGY PREDICTED BY IDOCK:   -6.31 KCAL/MOL
REMARK 924 INTRA-LIGAND FREE ENERGY PREDICTED BY IDOCK:   -1.53 KCAL/MOL
REMARK 927      BINDING AFFINITY PREDICTED BY RF-SCORE:    0.00 PKD
ROOT
HETATM    1  C   UNL     1      -8.090  15.501  69.225  1.00  0.00    -0.248 C  
HETATM    2  N   UNL     1      -6.695  15.345  68.845  1.00  0.00    -0.108 NA 
HETATM    3  H   UNL     1      -6.141  14.955  69.608  1.00  0.00     0.000 HD 
ENDROOT
BRANCH   2   4
HETATM    4  C   UNL     1      -6.560  14.545  67.616  1.00  0.00    -0.153 C  
BRANCH   4   5
HETATM    5  C   UNL     1      -6.035  13.119  67.930  1.00  0.00    -0.134 C  
HETATM    6  H   UNL     1      -4.811  12.310  69.236  1.00  0.00     0.000 HD 
HETATM    7  O   UNL     1      -5.133  13.183  69.044  1.00  0.00    -0.069 OA 
BRANCH   5   8
HETATM    8  C   UNL     1      -7.157  12.138  68.218  1.00  0.00    -0.084 A  
HETATM    9  C   UNL     1      -8.299  12.066  67.406  1.00  0.00    -0.171 A  
HETATM   10  C   UNL     1      -9.322  11.142  67.673  1.00  0.00    -0.165 A  
HETATM   11  C   UNL     1      -9.199  10.256  68.753  1.00  0.00    -0.166 A  
HETATM   12  C   UNL     1      -8.079  10.341  69.582  1.00  0.00    -0.157 A  
HETATM   13  C   UNL     1      -7.062  11.262  69.307  1.00  0.00    -0.112 A  
BRANCH  10  14
HETATM   14  O   UNL     1     -10.400  10.975  66.774  1.00  0.00    -0.220 OA 
BRANCH  14  15
HETATM   15  C   UNL     1     -11.237  12.063  66.481  1.00  0.00    -0.334 C  
HETATM   16  O   UNL     1     -11.863  12.702  67.314  1.00  0.00    -0.365 OA 
BRANCH  15  17
HETATM   17  C   UNL     1     -11.200  12.346  64.971  1.00  0.00    -0.354 C  
HETATM   18  C   UNL     1     -10.483  11.203  64.233  1.00  0.00    -0.427 C  
HETATM   19  C   UNL     1     -12.641  12.421  64.447  1.00  0.00    -0.489 C  
HETATM   20  C   UNL     1     -10.460  13.661  64.705  1.00  0.00    -0.436 C  
ENDBRANCH  15  17
ENDBRANCH  14  15
ENDBRANCH  10  14
BRANCH  11  21
HETATM   21  O   UNL     1     -10.248   9.339  69.024  1.00  0.00    -0.193 OA 
BRANCH  21  22
HETATM   22  C   UNL     1     -11.220   9.621  70.000  1.00  0.00    -0.231 C  
HETATM   23  O   UNL     1     -11.895  10.644  70.048  1.00  0.00    -0.272 OA 
BRANCH  22  24
HETATM   24  C   UNL     1     -11.317   8.488  71.034  1.00  0.00    -0.313 C  
HETATM   25  C   UNL     1     -12.669   8.580  71.769  1.00  0.00    -0.385 C  
HETATM   26  C   UNL     1     -11.244   7.120  70.344  1.00  0.00    -0.320 C  
HETATM   27  C   UNL     1     -10.187   8.639  72.056  1.00  0.00    -0.407 C  
ENDBRANCH  22  24
ENDBRANCH  21  22
ENDBRANCH  11  21
ENDBRANCH   5   8
ENDBRANCH   4   5
ENDBRANCH   2   4
TORSDOF 9
ENDMDL
MODEL      104
REMARK 921   NORMALIZED FREE ENERGY PREDICTED BY IDOCK:   -4.30 KCAL/MOL
REMARK 922        TOTAL FREE ENERGY PREDICTED BY IDOCK:   -7.85 KCAL/MOL
REMARK 923 INTER-LIGAND FREE ENERGY PREDICTED BY IDOCK:   -7.54 KCAL/MOL
REMARK 924 INTRA-LIGAND FREE ENERGY PREDICTED BY IDOCK:   -0.30 KCAL/MOL
REMARK 927      BINDING AFFINITY PREDICTED BY RF-SCORE:    0.00 PKD
ROOT
HETATM    1  C   UNL     1     -10.125  12.047  63.577  1.00  0.00    -0.424 C  
HETATM    2  N   UNL     1      -9.523  10.724  63.572  1.00  0.00    -0.269 NA 
HETATM    3  H   UNL     1      -8.519  10.771  63.392  1.00  0.00     0.000 HD 
ENDROOT
BRANCH   2   4
HETATM    4  C   UNL     1      -9.814   9.997  64.818  1.00  0.00    -0.254 C  
BRANCH   4   5
HETATM    5  C   UNL     1      -8.999  10.569  66.006  1.00  0.00    -0.167 C  
HETATM    6  H   UNL     1      -7.384  11.665  66.225  1.00  0.00     0.000 HD 
HETATM    7  O   UNL     1      -7.884  11.314  65.498  1.00  0.00     0.126 OA 
BRANCH   5   8
HETATM    8  C   UNL     1      -9.841  11.442  66.920  1.00  0.00    -0.218 A  
HETATM    9  C   UNL     1      -9.709  12.839  66.931  1.00  0.00    -0.234 A  
HETATM   10  C   UNL     1     -10.506  13.635  67.768  1.00  0.00    -0.240 A  
HETATM   11  C   UNL     1     -11.468  13.037  68.595  1.00  0.00    -0.307 A  
HETATM   12  C   UNL     1     -11.585  11.646  68.610  1.00  0.00    -0.373 A  
HETATM   13  C   UNL     1     -10.789  10.858  67.770  1.00  0.00    -0.309 A  
BRANCH  10  14
HETATM   14  O   UNL     1     -10.472  15.046  67.673  1.00  0.00    -0.242 OA 
BRANCH  14  15
HETATM   15  C   UNL     1      -9.499  15.768  68.382  1.00  0.00    -0.196 C  
HETATM   16  O   UNL     1      -9.031  15.431  69.460  1.00  0.00    -0.263 OA 
BRANCH  15  17
HETATM   17  C   UNL     1      -9.088  17.006  67.570  1.00  0.00    -0.223 C  
HETATM   18  C   UNL     1      -8.327  16.582  66.302  1.00  0.00    -0.364 C  
HETATM   19  C   UNL     1     -10.356  17.756  67.137  1.00  0.00    -0.354 C  
HETATM   20  C   UNL     1      -8.188  17.911  68.419  1.00  0.00    -0.303 C  
ENDBRANCH  15  17
ENDBRANCH  14  15
ENDBRANCH  10  14
BRANCH  11  21
HETATM   21  O   UNL     1     -12.256  13.851  69.450  1.00  0.00    -0.341 OA 
BRANCH  21  22
HETATM   22  C   UNL     1     -12.489  13.480  70.786  1.00  0.00    -0.353 C  
HETATM   23  O   UNL     1     -12.418  12.337  71.223  1.00  0.00    -0.302 OA 
BRANCH  22  24
HETATM   24  C   UNL     1     -12.877  14.697  71.642  1.00  0.00    -0.403 C  
HETATM   25  C   UNL     1     -11.966  15.888  71.282  1.00  0.00    -0.493 C  
HETATM   26  C   UNL     1     -14.329  15.108  71.369  1.00  0.00    -0.601 C  
HETATM   27  C   UNL     1     -12.680  14.355  73.122  1.00  0.00    -0.436 C  
ENDBRANCH  22  24
ENDBRANCH  21  22
ENDBRANCH  11  21
ENDBRANCH   5   8
ENDBRANCH   4   5
ENDBRANCH   2   4
TORSDOF 9
ENDMDL
MODEL      105
REMARK 921   NORMALIZED FREE ENERGY PREDICTED BY IDOCK:   -4.30 KCAL/MOL
REMARK 922        TOTAL FREE ENERGY PREDICTED BY IDOCK:   -7.84 KCAL/MOL
REMARK 923 INTER-LIGAND FREE ENERGY PREDICTED BY IDOCK:   -6.90 KCAL/MOL
REMARK 924 INTRA-LIGAND FREE ENERGY PREDICTED BY IDOCK:   -0.93 KCAL/MOL
REMARK 927      BINDING AFFINITY PREDICTED BY RF-SCORE:    0.00 PKD
ROOT
HETATM    1  C   UNL     1     -10.089  17.556  68.677  1.00  0.00    -0.361 C  
HETATM    2  N   UNL     1      -9.936  16.118  68.525  1.00  0.00    -0.223 NA 
HETATM    3  H   UNL     1      -8.953  15.852  68.456  1.00  0.00     0.000 HD 
ENDROOT
BRANCH   2   4
HETATM    4  C   UNL     1     -10.617  15.389  69.608  1.00  0.00    -0.279 C  
BRANCH   4   5
HETATM    5  C   UNL     1     -11.794  14.540  69.059  1.00  0.00    -0.318 C  
HETATM    6  H   UNL     1     -12.684  14.297  67.325  1.00  0.00     0.000 HD 
HETATM    7  O   UNL     1     -11.964  14.817  67.662  1.00  0.00    -0.345 OA 
BRANCH   5   8
HETATM    8  C   UNL     1     -11.586  13.052  69.278  1.00  0.00    -0.367 A  
HETATM    9  C   UNL     1     -10.691  12.310  68.493  1.00  0.00    -0.261 A  
HETATM   10  C   UNL     1     -10.496  10.937  68.717  1.00  0.00    -0.200 A  
HETATM   11  C   UNL     1     -11.184  10.294  69.755  1.00  0.00    -0.282 A  
HETATM   12  C   UNL     1     -12.097  11.020  70.522  1.00  0.00    -0.470 A  
HETATM   13  C   UNL     1     -12.284  12.388  70.295  1.00  0.00    -0.345 A  
BRANCH  10  14
HETATM   14  O   UNL     1      -9.492  10.225  68.021  1.00  0.00    -0.144 OA 
BRANCH  14  15
HETATM   15  C   UNL     1      -9.788   9.641  66.779  1.00  0.00    -0.211 C  
HETATM   16  O   UNL     1     -10.296  10.231  65.837  1.00  0.00    -0.237 OA 
BRANCH  15  17
HETATM   17  C   UNL     1      -9.329   8.174  66.781  1.00  0.00    -0.233 C  
HETATM   18  C   UNL     1      -8.621   7.836  65.458  1.00  0.00    -0.126 C  
HETATM   19  C   UNL     1      -8.324   7.973  67.924  1.00  0.00    -0.129 C  
HETATM   20  C   UNL     1     -10.539   7.250  66.956  1.00  0.00    -0.415 C  
ENDBRANCH  15  17
ENDBRANCH  14  15
ENDBRANCH  10  14
BRANCH  11  21
HETATM   21  O   UNL     1     -10.993   8.903  69.961  1.00  0.00    -0.236 OA 
BRANCH  21  22
HETATM   22  C   UNL     1     -11.486   8.269  71.115  1.00  0.00    -0.273 C  
HETATM   23  O   UNL     1     -12.657   8.277  71.479  1.00  0.00    -0.304 OA 
BRANCH  22  24
HETATM   24  C   UNL     1     -10.358   7.576  71.896  1.00  0.00    -0.226 C  
HETATM   25  C   UNL     1      -9.207   8.577  72.129  1.00  0.00    -0.336 C  
HETATM   26  C   UNL     1     -10.860   7.102  73.265  1.00  0.00    -0.378 C  
HETATM   27  C   UNL     1      -9.827   6.396  71.076  1.00  0.00    -0.200 C  
ENDBRANCH  22  24
ENDBRANCH  21  22
ENDBRANCH  11  21
ENDBRANCH   5   8
ENDBRANCH   4   5
ENDBRANCH   2   4
TORSDOF 9
ENDMDL
MODEL      106
REMARK 921   NORMALIZED FREE ENERGY PREDICTED BY IDOCK:   -4.29 KCAL/MOL
REMARK 922        TOTAL FREE ENERGY PREDICTED BY IDOCK:   -7.82 KCAL/MOL
REMARK 923 INTER-LIGAND FREE ENERGY PREDICTED BY IDOCK:   -6.44 KCAL/MOL
REMARK 924 INTRA-LIGAND FREE ENERGY PREDICTED BY IDOCK:   -1.38 KCAL/MOL
REMARK 927      BINDING AFFINITY PREDICTED BY RF-SCORE:    0.00 PKD
ROOT
HETATM    1  C   UNL     1     -10.807  14.987  67.665  1.00  0.00    -0.291 C  
HETATM    2  N   UNL     1     -12.086  14.302  67.756  1.00  0.00    -0.576 NA 
HETATM    3  H   UNL     1     -12.667  14.485  66.937  1.00  0.00     0.000 HD 
ENDROOT
BRANCH   2   4
HETATM    4  C   UNL     1     -11.906  12.858  67.978  1.00  0.00    -0.343 C  
BRANCH   4   5
HETATM    5  C   UNL     1     -11.493  12.563  69.443  1.00  0.00    -0.263 C  
HETATM    6  H   UNL     1     -12.223  12.933  71.229  1.00  0.00     0.000 HD 
HETATM    7  O   UNL     1     -12.476  13.114  70.331  1.00  0.00    -0.289 OA 
BRANCH   5   8
HETATM    8  C   UNL     1     -11.319  11.078  69.709  1.00  0.00    -0.366 A  
HETATM    9  C   UNL     1     -10.558  10.262  68.858  1.00  0.00    -0.242 A  
HETATM   10  C   UNL     1     -10.391   8.894  69.124  1.00  0.00    -0.220 A  
HETATM   11  C   UNL     1     -10.970   8.328  70.269  1.00  0.00    -0.232 A  
HETATM   12  C   UNL     1     -11.752   9.128  71.105  1.00  0.00    -0.380 A  
HETATM   13  C   UNL     1     -11.911  10.492  70.835  1.00  0.00    -0.481 A  
BRANCH  10  14
HETATM   14  O   UNL     1      -9.510   8.107  68.347  1.00  0.00    -0.141 OA 
BRANCH  14  15
HETATM   15  C   UNL     1      -9.821   7.833  67.006  1.00  0.00    -0.219 C  
HETATM   16  O   UNL     1     -10.814   7.225  66.633  1.00  0.00    -0.220 OA 
BRANCH  15  17
HETATM   17  C   UNL     1      -8.752   8.455  66.095  1.00  0.00    -0.175 C  
HETATM   18  C   UNL     1      -7.605   9.037  66.940  1.00  0.00    -0.094 C  
HETATM   19  C   UNL     1      -8.169   7.356  65.195  1.00  0.00    -0.115 C  
HETATM   20  C   UNL     1      -9.372   9.573  65.250  1.00  0.00    -0.317 C  
ENDBRANCH  15  17
ENDBRANCH  14  15
ENDBRANCH  10  14
BRANCH  11  21
HETATM   21  O   UNL     1     -10.809   6.940  70.518  1.00  0.00    -0.234 OA 
BRANCH  21  22
HETATM   22  C   UNL     1      -9.796   6.474  71.374  1.00  0.00    -0.176 C  
HETATM   23  O   UNL     1      -8.595   6.507  71.130  1.00  0.00    -0.129 OA 
BRANCH  22  24
HETATM   24  C   UNL     1     -10.386   5.880  72.664  1.00  0.00    -0.225 C  
HETATM   25  C   UNL     1     -10.321   6.933  73.789  1.00  0.00    -0.409 C  
HETATM   26  C   UNL     1     -11.857   5.495  72.458  1.00  0.00    -0.158 C  
HETATM   27  C   UNL     1      -9.561   4.659  73.081  1.00  0.00    -0.150 C  
ENDBRANCH  22  24
ENDBRANCH  21  22
ENDBRANCH  11  21
ENDBRANCH   5   8
ENDBRANCH   4   5
ENDBRANCH   2   4
TORSDOF 9
ENDMDL
MODEL      107
REMARK 921   NORMALIZED FREE ENERGY PREDICTED BY IDOCK:   -4.28 KCAL/MOL
REMARK 922        TOTAL FREE ENERGY PREDICTED BY IDOCK:   -7.81 KCAL/MOL
REMARK 923 INTER-LIGAND FREE ENERGY PREDICTED BY IDOCK:   -6.49 KCAL/MOL
REMARK 924 INTRA-LIGAND FREE ENERGY PREDICTED BY IDOCK:   -1.32 KCAL/MOL
REMARK 927      BINDING AFFINITY PREDICTED BY RF-SCORE:    0.00 PKD
ROOT
HETATM    1  C   UNL     1      -9.523  19.891  69.954  1.00  0.00     0.588 C  
HETATM    2  N   UNL     1     -10.519  19.958  68.897  1.00  0.00    -0.544 NA 
HETATM    3  H   UNL     1     -11.143  20.756  69.022  1.00  0.00     0.000 HD 
ENDROOT
BRANCH   2   4
HETATM    4  C   UNL     1      -9.890  19.968  67.567  1.00  0.00    -0.416 C  
BRANCH   4   5
HETATM    5  C   UNL     1     -10.704  19.121  66.554  1.00  0.00    -0.366 C  
HETATM    6  H   UNL     1     -11.135  19.218  64.641  1.00  0.00     0.000 HD 
HETATM    7  O   UNL     1     -10.637  19.737  65.261  1.00  0.00    -0.368 OA 
BRANCH   5   8
HETATM    8  C   UNL     1     -10.217  17.684  66.478  1.00  0.00    -0.355 A  
HETATM    9  C   UNL     1     -10.766  16.769  65.567  1.00  0.00    -0.206 A  
HETATM   10  C   UNL     1     -10.295  15.448  65.495  1.00  0.00    -0.387 A  
HETATM   11  C   UNL     1      -9.244  15.033  66.325  1.00  0.00    -0.289 A  
HETATM   12  C   UNL     1      -8.713  15.932  67.253  1.00  0.00    -0.206 A  
HETATM   13  C   UNL     1      -9.185  17.247  67.317  1.00  0.00    -0.233 A  
BRANCH  10  14
HETATM   14  O   UNL     1     -10.750  14.571  64.482  1.00  0.00    -0.356 OA 
BRANCH  14  15
HETATM   15  C   UNL     1     -11.865  13.752  64.720  1.00  0.00    -0.391 C  
HETATM   16  O   UNL     1     -12.934  14.145  65.162  1.00  0.00    -0.729 OA 
BRANCH  15  17
HETATM   17  C   UNL     1     -11.541  12.312  64.294  1.00  0.00    -0.442 C  
HETATM   18  C   UNL     1     -11.379  11.414  65.532  1.00  0.00    -0.067 C  
HETATM   19  C   UNL     1     -12.712  11.768  63.462  1.00  0.00    -0.428 C  
HETATM   20  C   UNL     1     -10.243  12.288  63.480  1.00  0.00    -0.410 C  
ENDBRANCH  15  17
ENDBRANCH  14  15
ENDBRANCH  10  14
BRANCH  11  21
HETATM   21  O   UNL     1      -8.789  13.691  66.255  1.00  0.00     0.025 OA 
BRANCH  21  22
HETATM   22  C   UNL     1      -8.831  12.855  67.385  1.00  0.00    -0.199 C  
HETATM   23  O   UNL     1      -9.697  12.884  68.253  1.00  0.00    -0.219 OA 
BRANCH  22  24
HETATM   24  C   UNL     1      -7.624  11.903  67.419  1.00  0.00    -0.151 C  
HETATM   25  C   UNL     1      -6.322  12.722  67.300  1.00  0.00    -0.062 C  
HETATM   26  C   UNL     1      -7.581  11.132  68.744  1.00  0.00    -0.129 C  
HETATM   27  C   UNL     1      -7.711  10.937  66.233  1.00  0.00    -0.147 C  
ENDBRANCH  22  24
ENDBRANCH  21  22
ENDBRANCH  11  21
ENDBRANCH   5   8
ENDBRANCH   4   5
ENDBRANCH   2   4
TORSDOF 9
ENDMDL
MODEL      108
REMARK 921   NORMALIZED FREE ENERGY PREDICTED BY IDOCK:   -4.28 KCAL/MOL
REMARK 922        TOTAL FREE ENERGY PREDICTED BY IDOCK:   -7.80 KCAL/MOL
REMARK 923 INTER-LIGAND FREE ENERGY PREDICTED BY IDOCK:   -6.25 KCAL/MOL
REMARK 924 INTRA-LIGAND FREE ENERGY PREDICTED BY IDOCK:   -1.55 KCAL/MOL
REMARK 927      BINDING AFFINITY PREDICTED BY RF-SCORE:    0.00 PKD
ROOT
HETATM    1  C   UNL     1     -11.603  14.923  67.441  1.00  0.00    -0.332 C  
HETATM    2  N   UNL     1     -12.272  13.792  66.818  1.00  0.00    -0.420 NA 
HETATM    3  H   UNL     1     -12.220  13.842  65.800  1.00  0.00     0.000 HD 
ENDROOT
BRANCH   2   4
HETATM    4  C   UNL     1     -11.747  12.513  67.323  1.00  0.00    -0.362 C  
BRANCH   4   5
HETATM    5  C   UNL     1     -10.987  11.741  66.213  1.00  0.00    -0.300 C  
HETATM    6  H   UNL     1      -9.393  12.044  65.106  1.00  0.00     0.000 HD 
HETATM    7  O   UNL     1      -9.859  12.517  65.785  1.00  0.00    -0.259 OA 
BRANCH   5   8
HETATM    8  C   UNL     1     -10.535  10.365  66.670  1.00  0.00    -0.279 A  
HETATM    9  C   UNL     1     -10.911   9.843  67.917  1.00  0.00    -0.281 A  
HETATM   10  C   UNL     1     -10.500   8.562  68.320  1.00  0.00    -0.171 A  
HETATM   11  C   UNL     1      -9.721   7.774  67.461  1.00  0.00    -0.158 A  
HETATM   12  C   UNL     1      -9.320   8.299  66.230  1.00  0.00    -0.267 A  
HETATM   13  C   UNL     1      -9.736   9.575  65.834  1.00  0.00    -0.352 A  
BRANCH  10  14
HETATM   14  O   UNL     1     -10.997   7.984  69.511  1.00  0.00    -0.179 OA 
BRANCH  14  15
HETATM   15  C   UNL     1     -10.542   8.452  70.754  1.00  0.00    -0.207 C  
HETATM   16  O   UNL     1      -9.501   9.069  70.926  1.00  0.00    -0.221 OA 
BRANCH  15  17
HETATM   17  C   UNL     1     -11.574   8.109  71.839  1.00  0.00    -0.361 C  
HETATM   18  C   UNL     1     -10.863   7.720  73.147  1.00  0.00    -0.401 C  
HETATM   19  C   UNL     1     -12.432   9.352  72.116  1.00  0.00    -0.396 C  
HETATM   20  C   UNL     1     -12.450   6.940  71.375  1.00  0.00    -0.413 C  
ENDBRANCH  15  17
ENDBRANCH  14  15
ENDBRANCH  10  14
BRANCH  11  21
HETATM   21  O   UNL     1      -9.297   6.489  67.886  1.00  0.00    -0.115 OA 
BRANCH  21  22
HETATM   22  C   UNL     1      -8.237   6.344  68.798  1.00  0.00    -0.121 C  
HETATM   23  O   UNL     1      -7.230   7.043  68.827  1.00  0.00    -0.085 OA 
BRANCH  22  24
HETATM   24  C   UNL     1      -8.481   5.165  69.754  1.00  0.00    -0.097 C  
HETATM   25  C   UNL     1      -9.955   4.721  69.654  1.00  0.00    -0.297 C  
HETATM   26  C   UNL     1      -7.598   3.969  69.374  1.00  0.00    -0.053 C  
HETATM   27  C   UNL     1      -8.196   5.613  71.191  1.00  0.00    -0.121 C  
ENDBRANCH  22  24
ENDBRANCH  21  22
ENDBRANCH  11  21
ENDBRANCH   5   8
ENDBRANCH   4   5
ENDBRANCH   2   4
TORSDOF 9
ENDMDL
MODEL      109
REMARK 921   NORMALIZED FREE ENERGY PREDICTED BY IDOCK:   -4.26 KCAL/MOL
REMARK 922        TOTAL FREE ENERGY PREDICTED BY IDOCK:   -7.78 KCAL/MOL
REMARK 923 INTER-LIGAND FREE ENERGY PREDICTED BY IDOCK:   -6.65 KCAL/MOL
REMARK 924 INTRA-LIGAND FREE ENERGY PREDICTED BY IDOCK:   -1.13 KCAL/MOL
REMARK 927      BINDING AFFINITY PREDICTED BY RF-SCORE:    0.00 PKD
ROOT
HETATM    1  C   UNL     1     -13.933  14.087  72.280  1.00  0.00    -0.553 C  
HETATM    2  N   UNL     1     -13.807  12.694  72.677  1.00  0.00    -0.624 NA 
HETATM    3  H   UNL     1     -14.679  12.337  73.069  1.00  0.00     0.000 HD 
ENDROOT
BRANCH   2   4
HETATM    4  C   UNL     1     -13.335  11.859  71.561  1.00  0.00    -0.033 C  
BRANCH   4   5
HETATM    5  C   UNL     1     -12.786  10.500  72.069  1.00  0.00    -0.316 C  
HETATM    6  H   UNL     1     -13.546   8.768  72.597  1.00  0.00     0.000 HD 
HETATM    7  O   UNL     1     -13.882   9.600  72.285  1.00  0.00    -0.380 OA 
BRANCH   5   8
HETATM    8  C   UNL     1     -11.782   9.885  71.110  1.00  0.00    -0.478 A  
HETATM    9  C   UNL     1     -11.547  10.432  69.840  1.00  0.00    -0.358 A  
HETATM   10  C   UNL     1     -10.603   9.863  68.970  1.00  0.00    -0.220 A  
HETATM   11  C   UNL     1      -9.862   8.745  69.376  1.00  0.00    -0.186 A  
HETATM   12  C   UNL     1     -10.111   8.179  70.628  1.00  0.00    -0.209 A  
HETATM   13  C   UNL     1     -11.051   8.753  71.491  1.00  0.00    -0.377 A  
BRANCH  10  14
HETATM   14  O   UNL     1     -10.266  10.498  67.752  1.00  0.00    -0.175 OA 
BRANCH  14  15
HETATM   15  C   UNL     1      -9.804  11.824  67.763  1.00  0.00    -0.181 C  
HETATM   16  O   UNL     1      -8.863  12.227  68.431  1.00  0.00    -0.184 OA 
BRANCH  15  17
HETATM   17  C   UNL     1     -10.632  12.663  66.777  1.00  0.00    -0.254 C  
HETATM   18  C   UNL     1     -10.786  11.915  65.441  1.00  0.00    -0.343 C  
HETATM   19  C   UNL     1     -12.034  12.877  67.367  1.00  0.00    -0.360 C  
HETATM   20  C   UNL     1      -9.940  14.006  66.525  1.00  0.00    -0.289 C  
ENDBRANCH  15  17
ENDBRANCH  14  15
ENDBRANCH  10  14
BRANCH  11  21
HETATM   21  O   UNL     1      -8.923   8.168  68.481  1.00  0.00    -0.137 OA 
BRANCH  21  22
HETATM   22  C   UNL     1      -8.896   6.780  68.260  1.00  0.00    -0.125 C  
HETATM   23  O   UNL     1      -8.417   5.952  69.028  1.00  0.00    -0.105 OA 
BRANCH  22  24
HETATM   24  C   UNL     1      -9.523   6.419  66.904  1.00  0.00    -0.166 C  
HETATM   25  C   UNL     1      -9.013   5.034  66.456  1.00  0.00    -0.116 C  
HETATM   26  C   UNL     1     -11.051   6.349  67.017  1.00  0.00    -0.405 C  
HETATM   27  C   UNL     1      -9.105   7.461  65.862  1.00  0.00    -0.073 C  
ENDBRANCH  22  24
ENDBRANCH  21  22
ENDBRANCH  11  21
ENDBRANCH   5   8
ENDBRANCH   4   5
ENDBRANCH   2   4
TORSDOF 9
ENDMDL
MODEL      110
REMARK 921   NORMALIZED FREE ENERGY PREDICTED BY IDOCK:   -4.26 KCAL/MOL
REMARK 922        TOTAL FREE ENERGY PREDICTED BY IDOCK:   -7.78 KCAL/MOL
REMARK 923 INTER-LIGAND FREE ENERGY PREDICTED BY IDOCK:   -6.42 KCAL/MOL
REMARK 924 INTRA-LIGAND FREE ENERGY PREDICTED BY IDOCK:   -1.36 KCAL/MOL
REMARK 927      BINDING AFFINITY PREDICTED BY RF-SCORE:    0.00 PKD
ROOT
HETATM    1  C   UNL     1     -13.668  15.605  72.809  1.00  0.00    -0.578 C  
HETATM    2  N   UNL     1     -12.799  14.481  72.501  1.00  0.00    -0.374 NA 
HETATM    3  H   UNL     1     -12.346  14.119  73.341  1.00  0.00     0.000 HD 
ENDROOT
BRANCH   2   4
HETATM    4  C   UNL     1     -13.525  13.423  71.781  1.00  0.00    -0.370 C  
BRANCH   4   5
HETATM    5  C   UNL     1     -12.748  12.081  71.820  1.00  0.00    -0.168 C  
HETATM    6  H   UNL     1     -13.161  10.211  72.254  1.00  0.00     0.000 HD 
HETATM    7  O   UNL     1     -13.636  11.033  72.229  1.00  0.00    -0.247 OA 
BRANCH   5   8
HETATM    8  C   UNL     1     -12.113  11.740  70.484  1.00  0.00    -0.439 A  
HETATM    9  C   UNL     1     -11.580  10.468  70.225  1.00  0.00    -0.417 A  
HETATM   10  C   UNL     1     -11.011  10.161  68.979  1.00  0.00    -0.226 A  
HETATM   11  C   UNL     1     -10.990  11.125  67.962  1.00  0.00    -0.252 A  
HETATM   12  C   UNL     1     -11.493  12.402  68.222  1.00  0.00    -0.360 A  
HETATM   13  C   UNL     1     -12.062  12.700  69.465  1.00  0.00    -0.253 A  
BRANCH  10  14
HETATM   14  O   UNL     1     -10.606   8.840  68.674  1.00  0.00    -0.208 OA 
BRANCH  14  15
HETATM   15  C   UNL     1      -9.476   8.296  69.305  1.00  0.00    -0.155 C  
HETATM   16  O   UNL     1      -8.476   8.930  69.609  1.00  0.00    -0.121 OA 
BRANCH  15  17
HETATM   17  C   UNL     1      -9.717   6.805  69.591  1.00  0.00    -0.160 C  
HETATM   18  C   UNL     1      -9.621   6.531  71.101  1.00  0.00    -0.181 C  
HETATM   19  C   UNL     1     -11.135   6.438  69.129  1.00  0.00    -0.428 C  
HETATM   20  C   UNL     1      -8.673   5.958  68.857  1.00  0.00    -0.116 C  
ENDBRANCH  15  17
ENDBRANCH  14  15
ENDBRANCH  10  14
BRANCH  11  21
HETATM   21  O   UNL     1     -10.396  10.808  66.712  1.00  0.00    -0.225 OA 
BRANCH  21  22
HETATM   22  C   UNL     1      -9.006  10.905  66.529  1.00  0.00    -0.168 C  
HETATM   23  O   UNL     1      -8.257  11.627  67.178  1.00  0.00    -0.151 OA 
BRANCH  22  24
HETATM   24  C   UNL     1      -8.531  10.002  65.379  1.00  0.00    -0.158 C  
HETATM   25  C   UNL     1      -8.732   8.525  65.771  1.00  0.00    -0.210 C  
HETATM   26  C   UNL     1      -9.347  10.272  64.109  1.00  0.00    -0.336 C  
HETATM   27  C   UNL     1      -7.040  10.248  65.127  1.00  0.00    -0.121 C  
ENDBRANCH  22  24
ENDBRANCH  21  22
ENDBRANCH  11  21
ENDBRANCH   5   8
ENDBRANCH   4   5
ENDBRANCH   2   4
TORSDOF 9
ENDMDL
MODEL      111
REMARK 921   NORMALIZED FREE ENERGY PREDICTED BY IDOCK:   -4.26 KCAL/MOL
REMARK 922        TOTAL FREE ENERGY PREDICTED BY IDOCK:   -7.77 KCAL/MOL
REMARK 923 INTER-LIGAND FREE ENERGY PREDICTED BY IDOCK:   -6.58 KCAL/MOL
REMARK 924 INTRA-LIGAND FREE ENERGY PREDICTED BY IDOCK:   -1.19 KCAL/MOL
REMARK 927      BINDING AFFINITY PREDICTED BY RF-SCORE:    0.00 PKD
ROOT
HETATM    1  C   UNL     1      -6.242   9.100  66.700  1.00  0.00    -0.065 C  
HETATM    2  N   UNL     1      -7.278   9.922  67.304  1.00  0.00    -0.086 NA 
HETATM    3  H   UNL     1      -7.440   9.662  68.278  1.00  0.00     0.000 HD 
ENDROOT
BRANCH   2   4
HETATM    4  C   UNL     1      -6.971  11.355  67.171  1.00  0.00    -0.128 C  
BRANCH   4   5
HETATM    5  C   UNL     1      -7.035  12.073  68.545  1.00  0.00    -0.090 C  
HETATM    6  H   UNL     1      -5.765  12.530  69.972  1.00  0.00     0.000 HD 
HETATM    7  O   UNL     1      -5.726  12.091  69.130  1.00  0.00    -0.059 OA 
BRANCH   5   8
HETATM    8  C   UNL     1      -7.581  13.485  68.436  1.00  0.00    -0.133 A  
HETATM    9  C   UNL     1      -8.765  13.765  67.736  1.00  0.00    -0.182 A  
HETATM   10  C   UNL     1      -9.268  15.074  67.657  1.00  0.00    -0.182 A  
HETATM   11  C   UNL     1      -8.597  16.121  68.304  1.00  0.00    -0.182 A  
HETATM   12  C   UNL     1      -7.404  15.854  68.979  1.00  0.00    -0.185 A  
HETATM   13  C   UNL     1      -6.910  14.547  69.056  1.00  0.00    -0.109 A  
BRANCH  10  14
HETATM   14  O   UNL     1     -10.531  15.330  67.075  1.00  0.00    -0.279 OA 
BRANCH  14  15
HETATM   15  C   UNL     1     -10.669  15.314  65.678  1.00  0.00    -0.365 C  
HETATM   16  O   UNL     1     -10.238  16.177  64.927  1.00  0.00    -0.502 OA 
BRANCH  15  17
HETATM   17  C   UNL     1     -11.398  14.031  65.251  1.00  0.00    -0.321 C  
HETATM   18  C   UNL     1     -12.390  14.335  64.115  1.00  0.00    -0.361 C  
HETATM   19  C   UNL     1     -10.363  13.027  64.723  1.00  0.00    -0.356 C  
HETATM   20  C   UNL     1     -12.162  13.443  66.442  1.00  0.00    -0.435 C  
ENDBRANCH  15  17
ENDBRANCH  14  15
ENDBRANCH  10  14
BRANCH  11  21
HETATM   21  O   UNL     1      -9.105  17.443  68.202  1.00  0.00    -0.252 OA 
BRANCH  21  22
HETATM   22  C   UNL     1      -8.655  18.313  67.194  1.00  0.00    -0.248 C  
HETATM   23  O   UNL     1      -7.769  18.059  66.387  1.00  0.00    -0.240 OA 
BRANCH  22  24
HETATM   24  C   UNL     1      -9.402  19.656  67.245  1.00  0.00    -0.429 C  
HETATM   25  C   UNL     1     -10.229  19.734  68.544  1.00  0.00    -0.547 C  
HETATM   26  C   UNL     1      -8.409  20.826  67.242  1.00  0.00    -0.230 C  
HETATM   27  C   UNL     1     -10.352  19.751  66.047  1.00  0.00    -0.612 C  
ENDBRANCH  22  24
ENDBRANCH  21  22
ENDBRANCH  11  21
ENDBRANCH   5   8
ENDBRANCH   4   5
ENDBRANCH   2   4
TORSDOF 9
ENDMDL
MODEL      112
REMARK 921   NORMALIZED FREE ENERGY PREDICTED BY IDOCK:   -4.24 KCAL/MOL
REMARK 922        TOTAL FREE ENERGY PREDICTED BY IDOCK:   -7.75 KCAL/MOL
REMARK 923 INTER-LIGAND FREE ENERGY PREDICTED BY IDOCK:   -6.53 KCAL/MOL
REMARK 924 INTRA-LIGAND FREE ENERGY PREDICTED BY IDOCK:   -1.22 KCAL/MOL
REMARK 927      BINDING AFFINITY PREDICTED BY RF-SCORE:    0.00 PKD
ROOT
HETATM    1  C   UNL     1     -10.663  15.934  65.290  1.00  0.00    -0.424 C  
HETATM    2  N   UNL     1      -9.713  14.857  65.516  1.00  0.00    -0.453 NA 
HETATM    3  H   UNL     1      -9.311  14.904  66.452  1.00  0.00     0.000 HD 
ENDROOT
BRANCH   2   4
HETATM    4  C   UNL     1     -10.322  13.542  65.256  1.00  0.00    -0.331 C  
BRANCH   4   5
HETATM    5  C   UNL     1     -11.302  13.143  66.391  1.00  0.00    -0.315 C  
HETATM    6  H   UNL     1     -13.060  12.276  66.511  1.00  0.00     0.000 HD 
HETATM    7  O   UNL     1     -12.459  12.520  65.817  1.00  0.00    -0.626 OA 
BRANCH   5   8
HETATM    8  C   UNL     1     -10.661  12.220  67.412  1.00  0.00    -0.247 A  
HETATM    9  C   UNL     1     -11.404  11.241  68.088  1.00  0.00    -0.372 A  
HETATM   10  C   UNL     1     -10.795  10.383  69.018  1.00  0.00    -0.234 A  
HETATM   11  C   UNL     1      -9.418  10.482  69.265  1.00  0.00    -0.173 A  
HETATM   12  C   UNL     1      -8.678  11.472  68.616  1.00  0.00    -0.103 A  
HETATM   13  C   UNL     1      -9.291  12.322  67.688  1.00  0.00    -0.186 A  
BRANCH  10  14
HETATM   14  O   UNL     1     -11.514   9.307  69.590  1.00  0.00    -0.039 OA 
BRANCH  14  15
HETATM   15  C   UNL     1     -11.906   9.370  70.936  1.00  0.00    -0.294 C  
HETATM   16  O   UNL     1     -12.103  10.406  71.555  1.00  0.00    -0.353 OA 
BRANCH  15  17
HETATM   17  C   UNL     1     -12.093   7.946  71.482  1.00  0.00    -0.336 C  
HETATM   18  C   UNL     1     -11.498   6.919  70.503  1.00  0.00    -0.390 C  
HETATM   19  C   UNL     1     -11.340   7.825  72.814  1.00  0.00    -0.446 C  
HETATM   20  C   UNL     1     -13.584   7.653  71.676  1.00  0.00    -0.431 C  
ENDBRANCH  15  17
ENDBRANCH  14  15
ENDBRANCH  10  14
BRANCH  11  21
HETATM   21  O   UNL     1      -8.818   9.621  70.220  1.00  0.00    -0.223 OA 
BRANCH  21  22
HETATM   22  C   UNL     1      -8.111   8.475  69.815  1.00  0.00    -0.116 C  
HETATM   23  O   UNL     1      -8.256   7.899  68.742  1.00  0.00    -0.124 OA 
BRANCH  22  24
HETATM   24  C   UNL     1      -7.140   8.004  70.909  1.00  0.00    -0.049 C  
HETATM   25  C   UNL     1      -7.778   8.232  72.294  1.00  0.00    -0.168 C  
HETATM   26  C   UNL     1      -6.846   6.505  70.762  1.00  0.00    -0.063 C  
HETATM   27  C   UNL     1      -5.846   8.819  70.820  1.00  0.00    -0.034 C  
ENDBRANCH  22  24
ENDBRANCH  21  22
ENDBRANCH  11  21
ENDBRANCH   5   8
ENDBRANCH   4   5
ENDBRANCH   2   4
TORSDOF 9
ENDMDL
MODEL      113
REMARK 921   NORMALIZED FREE ENERGY PREDICTED BY IDOCK:   -4.23 KCAL/MOL
REMARK 922        TOTAL FREE ENERGY PREDICTED BY IDOCK:   -7.73 KCAL/MOL
REMARK 923 INTER-LIGAND FREE ENERGY PREDICTED BY IDOCK:   -6.48 KCAL/MOL
REMARK 924 INTRA-LIGAND FREE ENERGY PREDICTED BY IDOCK:   -1.25 KCAL/MOL
REMARK 927      BINDING AFFINITY PREDICTED BY RF-SCORE:    0.00 PKD
ROOT
HETATM    1  C   UNL     1     -10.950   7.638  73.003  1.00  0.00    -0.400 C  
HETATM    2  N   UNL     1     -11.812   6.838  72.148  1.00  0.00    -0.360 NA 
HETATM    3  H   UNL     1     -12.689   6.605  72.615  1.00  0.00     0.000 HD 
ENDROOT
BRANCH   2   4
HETATM    4  C   UNL     1     -12.048   7.500  70.855  1.00  0.00    -0.226 C  
BRANCH   4   5
HETATM    5  C   UNL     1     -10.808   7.382  69.930  1.00  0.00    -0.246 C  
HETATM    6  H   UNL     1     -10.190   6.150  68.531  1.00  0.00     0.000 HD 
HETATM    7  O   UNL     1     -10.949   6.223  69.097  1.00  0.00    -0.306 OA 
BRANCH   5   8
HETATM    8  C   UNL     1     -10.603   8.621  69.076  1.00  0.00    -0.179 A  
HETATM    9  C   UNL     1     -10.239   8.531  67.724  1.00  0.00    -0.283 A  
HETATM   10  C   UNL     1     -10.069   9.684  66.941  1.00  0.00    -0.227 A  
HETATM   11  C   UNL     1     -10.287  10.950  67.503  1.00  0.00    -0.202 A  
HETATM   12  C   UNL     1     -10.622  11.047  68.855  1.00  0.00    -0.239 A  
HETATM   13  C   UNL     1     -10.792   9.894  69.629  1.00  0.00    -0.281 A  
BRANCH  10  14
HETATM   14  O   UNL     1      -9.844   9.586  65.548  1.00  0.00    -0.306 OA 
BRANCH  14  15
HETATM   15  C   UNL     1      -8.537   9.691  65.045  1.00  0.00    -0.162 C  
HETATM   16  O   UNL     1      -7.523   9.571  65.717  1.00  0.00    -0.097 OA 
BRANCH  15  17
HETATM   17  C   UNL     1      -8.590   9.930  63.528  1.00  0.00    -0.201 C  
HETATM   18  C   UNL     1      -8.706   8.589  62.783  1.00  0.00     0.044 C  
HETATM   19  C   UNL     1      -9.836  10.765  63.203  1.00  0.00    -0.378 C  
HETATM   20  C   UNL     1      -7.319  10.652  63.070  1.00  0.00     0.043 C  
ENDBRANCH  15  17
ENDBRANCH  14  15
ENDBRANCH  10  14
BRANCH  11  21
HETATM   21  O   UNL     1     -10.095  12.108  66.706  1.00  0.00    -0.199 OA 
BRANCH  21  22
HETATM   22  C   UNL     1     -11.192  12.820  66.191  1.00  0.00    -0.298 C  
HETATM   23  O   UNL     1     -12.209  12.314  65.731  1.00  0.00    -0.622 OA 
BRANCH  22  24
HETATM   24  C   UNL     1     -10.949  14.337  66.250  1.00  0.00    -0.317 C  
HETATM   25  C   UNL     1     -11.451  14.987  64.945  1.00  0.00    -0.399 C  
HETATM   26  C   UNL     1     -11.721  14.963  67.420  1.00  0.00    -0.311 C  
HETATM   27  C   UNL     1      -9.447  14.603  66.390  1.00  0.00    -0.325 C  
ENDBRANCH  22  24
ENDBRANCH  21  22
ENDBRANCH  11  21
ENDBRANCH   5   8
ENDBRANCH   4   5
ENDBRANCH   2   4
TORSDOF 9
ENDMDL
MODEL      114
REMARK 921   NORMALIZED FREE ENERGY PREDICTED BY IDOCK:   -4.23 KCAL/MOL
REMARK 922        TOTAL FREE ENERGY PREDICTED BY IDOCK:   -7.73 KCAL/MOL
REMARK 923 INTER-LIGAND FREE ENERGY PREDICTED BY IDOCK:   -6.28 KCAL/MOL
REMARK 924 INTRA-LIGAND FREE ENERGY PREDICTED BY IDOCK:   -1.44 KCAL/MOL
REMARK 927      BINDING AFFINITY PREDICTED BY RF-SCORE:    0.00 PKD
ROOT
HETATM    1  C   UNL     1     -12.738  14.888  70.952  1.00  0.00    -0.360 C  
HETATM    2  N   UNL     1     -11.403  14.489  70.536  1.00  0.00    -0.478 NA 
HETATM    3  H   UNL     1     -11.053  13.713  71.098  1.00  0.00     0.000 HD 
ENDROOT
BRANCH   2   4
HETATM    4  C   UNL     1     -11.360  14.178  69.098  1.00  0.00    -0.279 C  
BRANCH   4   5
HETATM    5  C   UNL     1     -12.112  12.857  68.788  1.00  0.00    -0.139 C  
HETATM    6  H   UNL     1     -12.640  11.867  67.176  1.00  0.00     0.000 HD 
HETATM    7  O   UNL     1     -12.180  12.676  67.367  1.00  0.00    -0.406 OA 
BRANCH   5   8
HETATM    8  C   UNL     1     -11.459  11.651  69.441  1.00  0.00    -0.372 A  
HETATM    9  C   UNL     1     -10.257  11.113  68.957  1.00  0.00    -0.194 A  
HETATM   10  C   UNL     1      -9.656  10.008  69.581  1.00  0.00    -0.226 A  
HETATM   11  C   UNL     1     -10.245   9.441  70.719  1.00  0.00    -0.299 A  
HETATM   12  C   UNL     1     -11.456   9.954  71.189  1.00  0.00    -0.459 A  
HETATM   13  C   UNL     1     -12.048  11.057  70.564  1.00  0.00    -0.470 A  
BRANCH  10  14
HETATM   14  O   UNL     1      -8.376   9.559  69.181  1.00  0.00    -0.113 OA 
BRANCH  14  15
HETATM   15  C   UNL     1      -7.276  10.428  69.261  1.00  0.00    -0.100 C  
HETATM   16  O   UNL     1      -6.856  10.923  70.297  1.00  0.00    -0.233 OA 
BRANCH  15  17
HETATM   17  C   UNL     1      -6.668  10.615  67.863  1.00  0.00    -0.064 C  
HETATM   18  C   UNL     1      -7.067  11.985  67.287  1.00  0.00    -0.149 C  
HETATM   19  C   UNL     1      -5.137  10.576  67.981  1.00  0.00    -0.033 C  
HETATM   20  C   UNL     1      -7.166   9.509  66.926  1.00  0.00    -0.087 C  
ENDBRANCH  15  17
ENDBRANCH  14  15
ENDBRANCH  10  14
BRANCH  11  21
HETATM   21  O   UNL     1      -9.637   8.313  71.330  1.00  0.00    -0.156 OA 
BRANCH  21  22
HETATM   22  C   UNL     1     -10.075   7.010  71.038  1.00  0.00    -0.195 C  
HETATM   23  O   UNL     1      -9.885   6.422  69.978  1.00  0.00    -0.166 OA 
BRANCH  22  24
HETATM   24  C   UNL     1     -10.860   6.408  72.215  1.00  0.00    -0.272 C  
HETATM   25  C   UNL     1     -10.511   4.912  72.352  1.00  0.00    -0.269 C  
HETATM   26  C   UNL     1     -10.483   7.107  73.528  1.00  0.00    -0.422 C  
HETATM   27  C   UNL     1     -12.361   6.543  71.942  1.00  0.00    -0.339 C  
ENDBRANCH  22  24
ENDBRANCH  21  22
ENDBRANCH  11  21
ENDBRANCH   5   8
ENDBRANCH   4   5
ENDBRANCH   2   4
TORSDOF 9
ENDMDL
MODEL      115
REMARK 921   NORMALIZED FREE ENERGY PREDICTED BY IDOCK:   -4.19 KCAL/MOL
REMARK 922        TOTAL FREE ENERGY PREDICTED BY IDOCK:   -7.68 KCAL/MOL
REMARK 923 INTER-LIGAND FREE ENERGY PREDICTED BY IDOCK:   -6.46 KCAL/MOL
REMARK 924 INTRA-LIGAND FREE ENERGY PREDICTED BY IDOCK:   -1.22 KCAL/MOL
REMARK 927      BINDING AFFINITY PREDICTED BY RF-SCORE:    0.00 PKD
ROOT
HETATM    1  C   UNL     1     -10.174  15.425  67.542  1.00  0.00    -0.244 C  
HETATM    2  N   UNL     1     -10.339  14.036  67.143  1.00  0.00    -0.264 NA 
HETATM    3  H   UNL     1      -9.460  13.633  66.819  1.00  0.00     0.000 HD 
ENDROOT
BRANCH   2   4
HETATM    4  C   UNL     1     -10.935  13.235  68.225  1.00  0.00    -0.256 C  
BRANCH   4   5
HETATM    5  C   UNL     1     -11.764  12.054  67.658  1.00  0.00    -0.294 C  
HETATM    6  H   UNL     1     -12.712  11.656  65.984  1.00  0.00     0.000 HD 
HETATM    7  O   UNL     1     -12.204  12.379  66.332  1.00  0.00    -0.604 OA 
BRANCH   5   8
HETATM    8  C   UNL     1     -10.985  10.750  67.648  1.00  0.00    -0.365 A  
HETATM    9  C   UNL     1     -10.841   9.970  68.805  1.00  0.00    -0.252 A  
HETATM   10  C   UNL     1     -10.132   8.758  68.778  1.00  0.00    -0.198 A  
HETATM   11  C   UNL     1      -9.575   8.300  67.575  1.00  0.00    -0.154 A  
HETATM   12  C   UNL     1      -9.691   9.086  66.426  1.00  0.00    -0.337 A  
HETATM   13  C   UNL     1     -10.402  10.291  66.460  1.00  0.00    -0.276 A  
BRANCH  10  14
HETATM   14  O   UNL     1     -10.110   7.906  69.906  1.00  0.00    -0.190 OA 
BRANCH  14  15
HETATM   15  C   UNL     1     -11.182   7.029  70.137  1.00  0.00    -0.284 C  
HETATM   16  O   UNL     1     -11.613   6.228  69.319  1.00  0.00    -0.363 OA 
BRANCH  15  17
HETATM   17  C   UNL     1     -11.684   7.202  71.578  1.00  0.00    -0.324 C  
HETATM   18  C   UNL     1     -13.220   7.294  71.599  1.00  0.00    -0.421 C  
HETATM   19  C   UNL     1     -11.270   5.971  72.397  1.00  0.00    -0.338 C  
HETATM   20  C   UNL     1     -11.094   8.479  72.186  1.00  0.00    -0.436 C  
ENDBRANCH  15  17
ENDBRANCH  14  15
ENDBRANCH  10  14
BRANCH  11  21
HETATM   21  O   UNL     1      -8.846   7.082  67.564  1.00  0.00    -0.120 OA 
BRANCH  21  22
HETATM   22  C   UNL     1      -9.184   6.047  66.675  1.00  0.00    -0.142 C  
HETATM   23  O   UNL     1     -10.315   5.606  66.501  1.00  0.00    -0.217 OA 
BRANCH  22  24
HETATM   24  C   UNL     1      -7.940   5.504  65.953  1.00  0.00    -0.106 C  
HETATM   25  C   UNL     1      -6.698   6.302  66.403  1.00  0.00    -0.056 C  
HETATM   26  C   UNL     1      -7.711   4.029  66.306  1.00  0.00    -0.090 C  
HETATM   27  C   UNL     1      -8.117   5.677  64.442  1.00  0.00    -0.128 C  
ENDBRANCH  22  24
ENDBRANCH  21  22
ENDBRANCH  11  21
ENDBRANCH   5   8
ENDBRANCH   4   5
ENDBRANCH   2   4
TORSDOF 9
ENDMDL
MODEL      116
REMARK 921   NORMALIZED FREE ENERGY PREDICTED BY IDOCK:   -4.19 KCAL/MOL
REMARK 922        TOTAL FREE ENERGY PREDICTED BY IDOCK:   -7.67 KCAL/MOL
REMARK 923 INTER-LIGAND FREE ENERGY PREDICTED BY IDOCK:   -6.18 KCAL/MOL
REMARK 924 INTRA-LIGAND FREE ENERGY PREDICTED BY IDOCK:   -1.49 KCAL/MOL
REMARK 927      BINDING AFFINITY PREDICTED BY RF-SCORE:    0.00 PKD
ROOT
HETATM    1  C   UNL     1     -11.402  16.275  64.495  1.00  0.00    -0.202 C  
HETATM    2  N   UNL     1     -12.118  15.204  63.823  1.00  0.00    -0.943 NA 
HETATM    3  H   UNL     1     -12.162  15.358  62.815  1.00  0.00     0.000 HD 
ENDROOT
BRANCH   2   4
HETATM    4  C   UNL     1     -11.540  13.888  64.143  1.00  0.00    -0.298 C  
BRANCH   4   5
HETATM    5  C   UNL     1     -12.392  13.144  65.204  1.00  0.00    -0.473 C  
HETATM    6  H   UNL     1     -13.791  11.765  65.192  1.00  0.00     0.000 HD 
HETATM    7  O   UNL     1     -13.269  12.221  64.543  1.00  0.00    -0.799 OA 
BRANCH   5   8
HETATM    8  C   UNL     1     -11.537  12.415  66.226  1.00  0.00    -0.449 A  
HETATM    9  C   UNL     1     -10.375  11.722  65.855  1.00  0.00    -0.280 A  
HETATM   10  C   UNL     1      -9.585  11.067  66.813  1.00  0.00    -0.190 A  
HETATM   11  C   UNL     1      -9.940  11.120  68.168  1.00  0.00    -0.178 A  
HETATM   12  C   UNL     1     -11.110  11.785  68.541  1.00  0.00    -0.288 A  
HETATM   13  C   UNL     1     -11.892  12.438  67.581  1.00  0.00    -0.363 A  
BRANCH  10  14
HETATM   14  O   UNL     1      -8.342  10.493  66.456  1.00  0.00    -0.133 OA 
BRANCH  14  15
HETATM   15  C   UNL     1      -8.314   9.322  65.681  1.00  0.00    -0.123 C  
HETATM   16  O   UNL     1      -9.116   8.405  65.778  1.00  0.00    -0.185 OA 
BRANCH  15  17
HETATM   17  C   UNL     1      -7.156   9.404  64.674  1.00  0.00    -0.100 C  
HETATM   18  C   UNL     1      -6.134  10.463  65.122  1.00  0.00    -0.124 C  
HETATM   19  C   UNL     1      -6.444   8.044  64.628  1.00  0.00    -0.056 C  
HETATM   20  C   UNL     1      -7.696   9.778  63.289  1.00  0.00    -0.138 C  
ENDBRANCH  15  17
ENDBRANCH  14  15
ENDBRANCH  10  14
BRANCH  11  21
HETATM   21  O   UNL     1      -9.143  10.440  69.124  1.00  0.00    -0.176 OA 
BRANCH  21  22
HETATM   22  C   UNL     1      -9.175   9.037  69.223  1.00  0.00    -0.145 C  
HETATM   23  O   UNL     1     -10.177   8.343  69.097  1.00  0.00    -0.202 OA 
BRANCH  22  24
HETATM   24  C   UNL     1      -7.782   8.470  69.542  1.00  0.00    -0.091 C  
HETATM   25  C   UNL     1      -7.549   7.189  68.715  1.00  0.00    -0.108 C  
HETATM   26  C   UNL     1      -6.689   9.481  69.172  1.00  0.00    -0.049 C  
HETATM   27  C   UNL     1      -7.710   8.117  71.031  1.00  0.00    -0.088 C  
ENDBRANCH  22  24
ENDBRANCH  21  22
ENDBRANCH  11  21
ENDBRANCH   5   8
ENDBRANCH   4   5
ENDBRANCH   2   4
TORSDOF 9
ENDMDL
MODEL      117
REMARK 921   NORMALIZED FREE ENERGY PREDICTED BY IDOCK:   -4.18 KCAL/MOL
REMARK 922        TOTAL FREE ENERGY PREDICTED BY IDOCK:   -7.66 KCAL/MOL
REMARK 923 INTER-LIGAND FREE ENERGY PREDICTED BY IDOCK:   -6.39 KCAL/MOL
REMARK 924 INTRA-LIGAND FREE ENERGY PREDICTED BY IDOCK:   -1.27 KCAL/MOL
REMARK 927      BINDING AFFINITY PREDICTED BY RF-SCORE:    0.00 PKD
ROOT
HETATM    1  C   UNL     1      -7.076  19.310  68.949  1.00  0.00    -0.350 C  
HETATM    2  N   UNL     1      -8.406  19.314  68.362  1.00  0.00    -0.337 NA 
HETATM    3  H   UNL     1      -8.772  20.263  68.273  1.00  0.00     0.000 HD 
ENDROOT
BRANCH   2   4
HETATM    4  C   UNL     1      -8.426  18.605  67.072  1.00  0.00    -0.271 C  
BRANCH   4   5
HETATM    5  C   UNL     1      -9.776  17.873  66.855  1.00  0.00    -0.309 C  
HETATM    6  H   UNL     1     -10.948  17.475  65.330  1.00  0.00     0.000 HD 
HETATM    7  O   UNL     1     -10.121  17.923  65.464  1.00  0.00    -0.530 OA 
BRANCH   5   8
HETATM    8  C   UNL     1      -9.737  16.433  67.335  1.00  0.00    -0.238 A  
HETATM    9  C   UNL     1     -10.029  15.362  66.476  1.00  0.00    -0.282 A  
HETATM   10  C   UNL     1      -9.973  14.034  66.928  1.00  0.00    -0.263 A  
HETATM   11  C   UNL     1      -9.599  13.761  68.252  1.00  0.00    -0.219 A  
HETATM   12  C   UNL     1      -9.335  14.823  69.119  1.00  0.00    -0.102 A  
HETATM   13  C   UNL     1      -9.389  16.144  68.661  1.00  0.00    -0.222 A  
BRANCH  10  14
HETATM   14  O   UNL     1     -10.127  12.955  66.027  1.00  0.00    -0.275 OA 
BRANCH  14  15
HETATM   15  C   UNL     1     -11.408  12.610  65.567  1.00  0.00    -0.321 C  
HETATM   16  O   UNL     1     -12.346  12.304  66.289  1.00  0.00    -0.556 OA 
BRANCH  15  17
HETATM   17  C   UNL     1     -11.450  12.725  64.036  1.00  0.00    -0.476 C  
HETATM   18  C   UNL     1     -12.285  11.579  63.439  1.00  0.00    -0.129 C  
HETATM   19  C   UNL     1     -12.124  14.052  63.659  1.00  0.00    -0.156 C  
HETATM   20  C   UNL     1     -10.028  12.660  63.469  1.00  0.00     0.218 C  
ENDBRANCH  15  17
ENDBRANCH  14  15
ENDBRANCH  10  14
BRANCH  11  21
HETATM   21  O   UNL     1      -9.563  12.416  68.702  1.00  0.00    -0.147 OA 
BRANCH  21  22
HETATM   22  C   UNL     1     -10.709  11.805  69.242  1.00  0.00    -0.069 C  
HETATM   23  O   UNL     1     -11.734  12.393  69.570  1.00  0.00    -0.298 OA 
BRANCH  22  24
HETATM   24  C   UNL     1     -10.509  10.290  69.402  1.00  0.00    -0.259 C  
HETATM   25  C   UNL     1     -11.520   9.746  70.433  1.00  0.00    -0.347 C  
HETATM   26  C   UNL     1     -10.755   9.569  68.070  1.00  0.00    -0.266 C  
HETATM   27  C   UNL     1      -9.090  10.018  69.911  1.00  0.00    -0.188 C  
ENDBRANCH  22  24
ENDBRANCH  21  22
ENDBRANCH  11  21
ENDBRANCH   5   8
ENDBRANCH   4   5
ENDBRANCH   2   4
TORSDOF 9
ENDMDL
MODEL      118
REMARK 921   NORMALIZED FREE ENERGY PREDICTED BY IDOCK:   -4.18 KCAL/MOL
REMARK 922        TOTAL FREE ENERGY PREDICTED BY IDOCK:   -7.66 KCAL/MOL
REMARK 923 INTER-LIGAND FREE ENERGY PREDICTED BY IDOCK:   -6.21 KCAL/MOL
REMARK 924 INTRA-LIGAND FREE ENERGY PREDICTED BY IDOCK:   -1.44 KCAL/MOL
REMARK 927      BINDING AFFINITY PREDICTED BY RF-SCORE:    0.00 PKD
ROOT
HETATM    1  C   UNL     1     -10.445  18.592  66.135  1.00  0.00    -0.430 C  
HETATM    2  N   UNL     1      -9.659  17.372  66.058  1.00  0.00    -0.504 NA 
HETATM    3  H   UNL     1      -8.739  17.492  66.483  1.00  0.00     0.000 HD 
ENDROOT
BRANCH   2   4
HETATM    4  C   UNL     1     -10.381  16.231  66.646  1.00  0.00    -0.302 C  
BRANCH   4   5
HETATM    5  C   UNL     1      -9.449  15.384  67.552  1.00  0.00    -0.205 C  
HETATM    6  H   UNL     1      -8.469  15.655  69.232  1.00  0.00     0.000 HD 
HETATM    7  O   UNL     1      -9.040  16.173  68.677  1.00  0.00    -0.198 OA 
BRANCH   5   8
HETATM    8  C   UNL     1     -10.109  14.100  68.022  1.00  0.00    -0.233 A  
HETATM    9  C   UNL     1      -9.495  12.851  67.849  1.00  0.00    -0.208 A  
HETATM   10  C   UNL     1     -10.109  11.673  68.304  1.00  0.00    -0.202 A  
HETATM   11  C   UNL     1     -11.343  11.737  68.966  1.00  0.00    -0.278 A  
HETATM   12  C   UNL     1     -11.972  12.975  69.117  1.00  0.00    -0.320 A  
HETATM   13  C   UNL     1     -11.354  14.145  68.663  1.00  0.00    -0.306 A  
BRANCH  10  14
HETATM   14  O   UNL     1      -9.426  10.435  68.256  1.00  0.00    -0.143 OA 
BRANCH  14  15
HETATM   15  C   UNL     1      -9.458   9.668  67.081  1.00  0.00    -0.148 C  
HETATM   16  O   UNL     1     -10.302   9.776  66.203  1.00  0.00    -0.231 OA 
BRANCH  15  17
HETATM   17  C   UNL     1      -8.249   8.720  67.055  1.00  0.00    -0.103 C  
HETATM   18  C   UNL     1      -7.171   9.256  66.097  1.00  0.00    -0.091 C  
HETATM   19  C   UNL     1      -7.643   8.654  68.465  1.00  0.00    -0.095 C  
HETATM   20  C   UNL     1      -8.688   7.327  66.591  1.00  0.00    -0.136 C  
ENDBRANCH  15  17
ENDBRANCH  14  15
ENDBRANCH  10  14
BRANCH  11  21
HETATM   21  O   UNL     1     -11.962  10.538  69.406  1.00  0.00    -0.246 OA 
BRANCH  21  22
HETATM   22  C   UNL     1     -12.059  10.237  70.775  1.00  0.00    -0.353 C  
HETATM   23  O   UNL     1     -12.631  10.928  71.611  1.00  0.00    -0.375 OA 
BRANCH  22  24
HETATM   24  C   UNL     1     -11.326   8.928  71.111  1.00  0.00    -0.357 C  
HETATM   25  C   UNL     1     -11.384   7.982  69.895  1.00  0.00     0.052 C  
HETATM   26  C   UNL     1      -9.851   9.202  71.431  1.00  0.00    -0.354 C  
HETATM   27  C   UNL     1     -12.020   8.251  72.297  1.00  0.00    -0.448 C  
ENDBRANCH  22  24
ENDBRANCH  21  22
ENDBRANCH  11  21
ENDBRANCH   5   8
ENDBRANCH   4   5
ENDBRANCH   2   4
TORSDOF 9
ENDMDL
MODEL      119
REMARK 921   NORMALIZED FREE ENERGY PREDICTED BY IDOCK:   -4.18 KCAL/MOL
REMARK 922        TOTAL FREE ENERGY PREDICTED BY IDOCK:   -7.65 KCAL/MOL
REMARK 923 INTER-LIGAND FREE ENERGY PREDICTED BY IDOCK:   -6.39 KCAL/MOL
REMARK 924 INTRA-LIGAND FREE ENERGY PREDICTED BY IDOCK:   -1.27 KCAL/MOL
REMARK 927      BINDING AFFINITY PREDICTED BY RF-SCORE:    0.00 PKD
ROOT
HETATM    1  C   UNL     1     -10.447  19.586  67.603  1.00  0.00    -0.467 C  
HETATM    2  N   UNL     1     -10.025  18.387  66.898  1.00  0.00    -0.333 NA 
HETATM    3  H   UNL     1      -9.008  18.309  66.867  1.00  0.00     0.000 HD 
ENDROOT
BRANCH   2   4
HETATM    4  C   UNL     1     -10.641  17.181  67.475  1.00  0.00    -0.323 C  
BRANCH   4   5
HETATM    5  C   UNL     1      -9.769  16.598  68.618  1.00  0.00    -0.248 C  
HETATM    6  H   UNL     1      -9.992  16.248  70.538  1.00  0.00     0.000 HD 
HETATM    7  O   UNL     1     -10.525  16.605  69.838  1.00  0.00    -0.230 OA 
BRANCH   5   8
HETATM    8  C   UNL     1      -9.276  15.195  68.314  1.00  0.00    -0.188 A  
HETATM    9  C   UNL     1      -9.889  14.394  67.339  1.00  0.00    -0.224 A  
HETATM   10  C   UNL     1      -9.412  13.104  67.055  1.00  0.00    -0.242 A  
HETATM   11  C   UNL     1      -8.291  12.608  67.735  1.00  0.00    -0.172 A  
HETATM   12  C   UNL     1      -7.693  13.389  68.726  1.00  0.00    -0.037 A  
HETATM   13  C   UNL     1      -8.172  14.675  69.001  1.00  0.00    -0.110 A  
BRANCH  10  14
HETATM   14  O   UNL     1      -9.941  12.358  65.977  1.00  0.00    -0.246 OA 
BRANCH  14  15
HETATM   15  C   UNL     1     -11.327  12.343  65.754  1.00  0.00    -0.352 C  
HETATM   16  O   UNL     1     -12.165  12.093  66.608  1.00  0.00    -0.566 OA 
BRANCH  15  17
HETATM   17  C   UNL     1     -11.615  12.734  64.296  1.00  0.00    -0.433 C  
HETATM   18  C   UNL     1     -10.412  12.384  63.403  1.00  0.00    -0.353 C  
HETATM   19  C   UNL     1     -12.827  11.932  63.800  1.00  0.00    -0.396 C  
HETATM   20  C   UNL     1     -11.889  14.239  64.205  1.00  0.00    -0.401 C  
ENDBRANCH  15  17
ENDBRANCH  14  15
ENDBRANCH  10  14
BRANCH  11  21
HETATM   21  O   UNL     1      -7.828  11.296  67.452  1.00  0.00    -0.118 OA 
BRANCH  21  22
HETATM   22  C   UNL     1      -8.375  10.181  68.111  1.00  0.00    -0.117 C  
HETATM   23  O   UNL     1      -8.633  10.125  69.308  1.00  0.00    -0.151 OA 
BRANCH  22  24
HETATM   24  C   UNL     1      -8.587   9.009  67.139  1.00  0.00    -0.119 C  
HETATM   25  C   UNL     1      -8.166   9.438  65.719  1.00  0.00    -0.116 C  
HETATM   26  C   UNL     1      -7.726   7.806  67.547  1.00  0.00    -0.117 C  
HETATM   27  C   UNL     1     -10.071   8.630  67.122  1.00  0.00    -0.329 C  
ENDBRANCH  22  24
ENDBRANCH  21  22
ENDBRANCH  11  21
ENDBRANCH   5   8
ENDBRANCH   4   5
ENDBRANCH   2   4
TORSDOF 9
ENDMDL
MODEL      120
REMARK 921   NORMALIZED FREE ENERGY PREDICTED BY IDOCK:   -4.15 KCAL/MOL
REMARK 922        TOTAL FREE ENERGY PREDICTED BY IDOCK:   -7.60 KCAL/MOL
REMARK 923 INTER-LIGAND FREE ENERGY PREDICTED BY IDOCK:   -6.73 KCAL/MOL
REMARK 924 INTRA-LIGAND FREE ENERGY PREDICTED BY IDOCK:   -0.88 KCAL/MOL
REMARK 927      BINDING AFFINITY PREDICTED BY RF-SCORE:    0.00 PKD
ROOT
HETATM    1  C   UNL     1      -5.907  20.130  70.344  1.00  0.00    -0.343 C  
HETATM    2  N   UNL     1      -6.684  20.318  69.130  1.00  0.00    -0.234 NA 
HETATM    3  H   UNL     1      -6.389  21.152  68.622  1.00  0.00     0.000 HD 
ENDROOT
BRANCH   2   4
HETATM    4  C   UNL     1      -6.639  19.121  68.274  1.00  0.00    -0.244 C  
BRANCH   4   5
HETATM    5  C   UNL     1      -8.054  18.744  67.761  1.00  0.00    -0.255 C  
HETATM    6  H   UNL     1      -9.061  18.948  66.088  1.00  0.00     0.000 HD 
HETATM    7  O   UNL     1      -8.195  19.179  66.402  1.00  0.00    -0.294 OA 
BRANCH   5   8
HETATM    8  C   UNL     1      -8.331  17.255  67.868  1.00  0.00    -0.220 A  
HETATM    9  C   UNL     1      -9.100  16.722  68.913  1.00  0.00    -0.230 A  
HETATM   10  C   UNL     1      -9.363  15.345  68.990  1.00  0.00    -0.232 A  
HETATM   11  C   UNL     1      -8.874  14.482  67.999  1.00  0.00    -0.175 A  
HETATM   12  C   UNL     1      -8.084  15.002  66.971  1.00  0.00    -0.225 A  
HETATM   13  C   UNL     1      -7.829  16.376  66.899  1.00  0.00    -0.273 A  
BRANCH  10  14
HETATM   14  O   UNL     1     -10.254  14.831  69.961  1.00  0.00    -0.005 OA 
BRANCH  14  15
HETATM   15  C   UNL     1     -11.640  14.926  69.753  1.00  0.00    -0.303 C  
HETATM   16  O   UNL     1     -12.171  15.061  68.660  1.00  0.00    -0.190 OA 
BRANCH  15  17
HETATM   17  C   UNL     1     -12.370  14.783  71.097  1.00  0.00    -0.397 C  
HETATM   18  C   UNL     1     -13.747  15.467  71.030  1.00  0.00    -0.420 C  
HETATM   19  C   UNL     1     -12.593  13.291  71.383  1.00  0.00    -0.365 C  
HETATM   20  C   UNL     1     -11.540  15.429  72.212  1.00  0.00    -0.554 C  
ENDBRANCH  15  17
ENDBRANCH  14  15
ENDBRANCH  10  14
BRANCH  11  21
HETATM   21  O   UNL     1      -9.131  13.090  68.097  1.00  0.00    -0.196 OA 
BRANCH  21  22
HETATM   22  C   UNL     1      -8.990  12.250  66.979  1.00  0.00    -0.204 C  
HETATM   23  O   UNL     1      -7.921  11.903  66.488  1.00  0.00    -0.090 OA 
BRANCH  22  24
HETATM   24  C   UNL     1     -10.359  11.832  66.419  1.00  0.00    -0.257 C  
HETATM   25  C   UNL     1     -11.104  13.081  65.904  1.00  0.00    -0.303 C  
HETATM   26  C   UNL     1     -10.189  10.862  65.244  1.00  0.00    -0.351 C  
HETATM   27  C   UNL     1     -11.187  11.189  67.536  1.00  0.00    -0.369 C  
ENDBRANCH  22  24
ENDBRANCH  21  22
ENDBRANCH  11  21
ENDBRANCH   5   8
ENDBRANCH   4   5
ENDBRANCH   2   4
TORSDOF 9
ENDMDL
MODEL      121
REMARK 921   NORMALIZED FREE ENERGY PREDICTED BY IDOCK:   -4.14 KCAL/MOL
REMARK 922        TOTAL FREE ENERGY PREDICTED BY IDOCK:   -7.60 KCAL/MOL
REMARK 923 INTER-LIGAND FREE ENERGY PREDICTED BY IDOCK:   -8.15 KCAL/MOL
REMARK 924 INTRA-LIGAND FREE ENERGY PREDICTED BY IDOCK:    0.55 KCAL/MOL
REMARK 927      BINDING AFFINITY PREDICTED BY RF-SCORE:    0.00 PKD
ROOT
HETATM    1  C   UNL     1     -12.805  16.064  73.738  1.00  0.00    -0.572 C  
HETATM    2  N   UNL     1     -12.756  14.611  73.700  1.00  0.00    -0.432 NA 
HETATM    3  H   UNL     1     -13.049  14.204  74.588  1.00  0.00     0.000 HD 
ENDROOT
BRANCH   2   4
HETATM    4  C   UNL     1     -13.543  14.078  72.576  1.00  0.00    -0.566 C  
BRANCH   4   5
HETATM    5  C   UNL     1     -13.205  14.816  71.254  1.00  0.00    -0.382 C  
HETATM    6  H   UNL     1     -12.316  16.493  70.749  1.00  0.00     0.000 HD 
HETATM    7  O   UNL     1     -12.524  16.040  71.558  1.00  0.00    -0.449 OA 
BRANCH   5   8
HETATM    8  C   UNL     1     -12.366  13.967  70.314  1.00  0.00    -0.425 A  
HETATM    9  C   UNL     1     -11.699  14.527  69.214  1.00  0.00    -0.350 A  
HETATM   10  C   UNL     1     -10.913  13.734  68.363  1.00  0.00    -0.254 A  
HETATM   11  C   UNL     1     -10.767  12.363  68.621  1.00  0.00    -0.232 A  
HETATM   12  C   UNL     1     -11.451  11.795  69.698  1.00  0.00    -0.341 A  
HETATM   13  C   UNL     1     -12.230  12.592  70.544  1.00  0.00    -0.382 A  
BRANCH  10  14
HETATM   14  O   UNL     1     -10.130  14.322  67.344  1.00  0.00    -0.243 OA 
BRANCH  14  15
HETATM   15  C   UNL     1     -10.644  15.401  66.606  1.00  0.00    -0.306 C  
HETATM   16  O   UNL     1     -10.544  16.575  66.930  1.00  0.00    -0.302 OA 
BRANCH  15  17
HETATM   17  C   UNL     1     -11.299  14.874  65.320  1.00  0.00    -0.358 C  
HETATM   18  C   UNL     1     -11.576  16.036  64.349  1.00  0.00    -0.212 C  
HETATM   19  C   UNL     1     -10.330  13.901  64.634  1.00  0.00    -0.366 C  
HETATM   20  C   UNL     1     -12.620  14.173  65.657  1.00  0.00    -0.495 C  
ENDBRANCH  15  17
ENDBRANCH  14  15
ENDBRANCH  10  14
BRANCH  11  21
HETATM   21  O   UNL     1      -9.984  11.569  67.744  1.00  0.00    -0.177 OA 
BRANCH  21  22
HETATM   22  C   UNL     1     -10.567  10.932  66.634  1.00  0.00    -0.249 C  
HETATM   23  O   UNL     1     -11.746  11.018  66.309  1.00  0.00     0.001 OA 
BRANCH  22  24
HETATM   24  C   UNL     1      -9.537  10.076  65.879  1.00  0.00    -0.283 C  
HETATM   25  C   UNL     1      -9.789  10.192  64.361  1.00  0.00    -0.307 C  
HETATM   26  C   UNL     1      -8.112  10.570  66.162  1.00  0.00    -0.145 C  
HETATM   27  C   UNL     1      -9.695   8.611  66.296  1.00  0.00    -0.322 C  
ENDBRANCH  22  24
ENDBRANCH  21  22
ENDBRANCH  11  21
ENDBRANCH   5   8
ENDBRANCH   4   5
ENDBRANCH   2   4
TORSDOF 9
ENDMDL
MODEL      122
REMARK 921   NORMALIZED FREE ENERGY PREDICTED BY IDOCK:   -4.11 KCAL/MOL
REMARK 922        TOTAL FREE ENERGY PREDICTED BY IDOCK:   -7.56 KCAL/MOL
REMARK 923 INTER-LIGAND FREE ENERGY PREDICTED BY IDOCK:   -6.02 KCAL/MOL
REMARK 924 INTRA-LIGAND FREE ENERGY PREDICTED BY IDOCK:   -1.53 KCAL/MOL
REMARK 927      BINDING AFFINITY PREDICTED BY RF-SCORE:    0.00 PKD
ROOT
HETATM    1  C   UNL     1     -11.881  15.538  70.137  1.00  0.00    -0.356 C  
HETATM    2  N   UNL     1     -12.473  14.543  69.258  1.00  0.00    -0.570 NA 
HETATM    3  H   UNL     1     -13.469  14.714  69.118  1.00  0.00     0.000 HD 
ENDROOT
BRANCH   2   4
HETATM    4  C   UNL     1     -11.754  14.465  67.976  1.00  0.00    -0.340 C  
BRANCH   4   5
HETATM    5  C   UNL     1     -11.879  13.053  67.347  1.00  0.00    -0.357 C  
HETATM    6  H   UNL     1     -11.850  12.295  65.535  1.00  0.00     0.000 HD 
HETATM    7  O   UNL     1     -11.773  13.160  65.921  1.00  0.00    -0.348 OA 
BRANCH   5   8
HETATM    8  C   UNL     1     -10.837  12.086  67.880  1.00  0.00    -0.254 A  
HETATM    9  C   UNL     1     -11.195  10.963  68.642  1.00  0.00    -0.326 A  
HETATM   10  C   UNL     1     -10.222  10.068  69.114  1.00  0.00    -0.210 A  
HETATM   11  C   UNL     1      -8.870  10.277  68.807  1.00  0.00    -0.148 A  
HETATM   12  C   UNL     1      -8.504  11.408  68.073  1.00  0.00    -0.145 A  
HETATM   13  C   UNL     1      -9.480  12.294  67.603  1.00  0.00    -0.188 A  
BRANCH  10  14
HETATM   14  O   UNL     1     -10.596   8.865  69.757  1.00  0.00    -0.219 OA 
BRANCH  14  15
HETATM   15  C   UNL     1     -11.091   8.902  71.070  1.00  0.00    -0.276 C  
HETATM   16  O   UNL     1     -11.086   9.893  71.787  1.00  0.00    -0.085 OA 
BRANCH  15  17
HETATM   17  C   UNL     1     -11.674   7.529  71.437  1.00  0.00    -0.310 C  
HETATM   18  C   UNL     1     -11.081   7.037  72.769  1.00  0.00    -0.320 C  
HETATM   19  C   UNL     1     -13.193   7.669  71.614  1.00  0.00    -0.395 C  
HETATM   20  C   UNL     1     -11.350   6.514  70.336  1.00  0.00    -0.443 C  
ENDBRANCH  15  17
ENDBRANCH  14  15
ENDBRANCH  10  14
BRANCH  11  21
HETATM   21  O   UNL     1      -7.895   9.375  69.305  1.00  0.00    -0.078 OA 
BRANCH  21  22
HETATM   22  C   UNL     1      -7.258   9.609  70.537  1.00  0.00    -0.136 C  
HETATM   23  O   UNL     1      -6.876  10.703  70.938  1.00  0.00    -0.199 OA 
BRANCH  22  24
HETATM   24  C   UNL     1      -7.070   8.301  71.323  1.00  0.00    -0.063 C  
HETATM   25  C   UNL     1      -7.733   8.437  72.709  1.00  0.00    -0.128 C  
HETATM   26  C   UNL     1      -7.737   7.130  70.591  1.00  0.00    -0.094 C  
HETATM   27  C   UNL     1      -5.574   8.038  71.515  1.00  0.00    -0.034 C  
ENDBRANCH  22  24
ENDBRANCH  21  22
ENDBRANCH  11  21
ENDBRANCH   5   8
ENDBRANCH   4   5
ENDBRANCH   2   4
TORSDOF 9
ENDMDL
MODEL      123
REMARK 921   NORMALIZED FREE ENERGY PREDICTED BY IDOCK:   -4.10 KCAL/MOL
REMARK 922        TOTAL FREE ENERGY PREDICTED BY IDOCK:   -7.54 KCAL/MOL
REMARK 923 INTER-LIGAND FREE ENERGY PREDICTED BY IDOCK:   -6.25 KCAL/MOL
REMARK 924 INTRA-LIGAND FREE ENERGY PREDICTED BY IDOCK:   -1.29 KCAL/MOL
REMARK 927      BINDING AFFINITY PREDICTED BY RF-SCORE:    0.00 PKD
ROOT
HETATM    1  C   UNL     1     -10.189   5.024  65.584  1.00  0.00    -0.054 C  
HETATM    2  N   UNL     1      -9.023   5.689  65.027  1.00  0.00    -0.355 NA 
HETATM    3  H   UNL     1      -9.231   6.113  64.122  1.00  0.00     0.000 HD 
ENDROOT
BRANCH   2   4
HETATM    4  C   UNL     1      -8.466   6.673  65.969  1.00  0.00    -0.142 C  
BRANCH   4   5
HETATM    5  C   UNL     1      -7.958   7.937  65.225  1.00  0.00    -0.126 C  
HETATM    6  H   UNL     1      -7.582   8.436  63.363  1.00  0.00     0.000 HD 
HETATM    7  O   UNL     1      -7.893   7.662  63.819  1.00  0.00    -0.122 OA 
BRANCH   5   8
HETATM    8  C   UNL     1      -8.833   9.151  65.483  1.00  0.00    -0.229 A  
HETATM    9  C   UNL     1      -9.201   9.530  66.783  1.00  0.00    -0.184 A  
HETATM   10  C   UNL     1      -9.996  10.666  67.008  1.00  0.00    -0.202 A  
HETATM   11  C   UNL     1     -10.414  11.453  65.927  1.00  0.00    -0.258 A  
HETATM   12  C   UNL     1     -10.074  11.066  64.629  1.00  0.00    -0.370 A  
HETATM   13  C   UNL     1      -9.279   9.935  64.412  1.00  0.00    -0.317 A  
BRANCH  10  14
HETATM   14  O   UNL     1     -10.246  11.125  68.322  1.00  0.00    -0.170 OA 
BRANCH  14  15
HETATM   15  C   UNL     1     -11.330  10.604  69.048  1.00  0.00    -0.277 C  
HETATM   16  O   UNL     1     -12.503  10.865  68.827  1.00  0.00    -0.431 OA 
BRANCH  15  17
HETATM   17  C   UNL     1     -10.810   9.629  70.115  1.00  0.00    -0.325 C  
HETATM   18  C   UNL     1     -11.598   9.805  71.425  1.00  0.00    -0.452 C  
HETATM   19  C   UNL     1     -11.024   8.192  69.619  1.00  0.00    -0.094 C  
HETATM   20  C   UNL     1      -9.324   9.893  70.382  1.00  0.00    -0.064 C  
ENDBRANCH  15  17
ENDBRANCH  14  15
ENDBRANCH  10  14
BRANCH  11  21
HETATM   21  O   UNL     1     -11.232  12.588  66.166  1.00  0.00    -0.292 OA 
BRANCH  21  22
HETATM   22  C   UNL     1     -10.763  13.886  65.893  1.00  0.00    -0.286 C  
HETATM   23  O   UNL     1     -10.635  14.369  64.774  1.00  0.00    -0.421 OA 
BRANCH  22  24
HETATM   24  C   UNL     1     -10.398  14.629  67.188  1.00  0.00    -0.265 C  
HETATM   25  C   UNL     1     -10.502  16.150  66.953  1.00  0.00    -0.300 C  
HETATM   26  C   UNL     1     -11.366  14.255  68.318  1.00  0.00    -0.314 C  
HETATM   27  C   UNL     1      -8.956  14.287  67.577  1.00  0.00    -0.197 C  
ENDBRANCH  22  24
ENDBRANCH  21  22
ENDBRANCH  11  21
ENDBRANCH   5   8
ENDBRANCH   4   5
ENDBRANCH   2   4
TORSDOF 9
ENDMDL
MODEL      124
REMARK 921   NORMALIZED FREE ENERGY PREDICTED BY IDOCK:   -4.09 KCAL/MOL
REMARK 922        TOTAL FREE ENERGY PREDICTED BY IDOCK:   -7.52 KCAL/MOL
REMARK 923 INTER-LIGAND FREE ENERGY PREDICTED BY IDOCK:   -6.22 KCAL/MOL
REMARK 924 INTRA-LIGAND FREE ENERGY PREDICTED BY IDOCK:   -1.31 KCAL/MOL
REMARK 927      BINDING AFFINITY PREDICTED BY RF-SCORE:    0.00 PKD
ROOT
HETATM    1  C   UNL     1      -9.135  17.760  68.094  1.00  0.00    -0.274 C  
HETATM    2  N   UNL     1      -9.511  16.359  67.993  1.00  0.00    -0.215 NA 
HETATM    3  H   UNL     1      -9.276  15.847  68.843  1.00  0.00     0.000 HD 
ENDROOT
BRANCH   2   4
HETATM    4  C   UNL     1     -10.935  16.210  67.649  1.00  0.00    -0.268 C  
BRANCH   4   5
HETATM    5  C   UNL     1     -11.139  15.117  66.568  1.00  0.00    -0.305 C  
HETATM    6  H   UNL     1     -10.265  14.597  64.888  1.00  0.00     0.000 HD 
HETATM    7  O   UNL     1     -10.140  15.267  65.550  1.00  0.00    -0.339 OA 
BRANCH   5   8
HETATM    8  C   UNL     1     -11.094  13.713  67.147  1.00  0.00    -0.311 A  
HETATM    9  C   UNL     1     -10.536  12.641  66.434  1.00  0.00    -0.272 A  
HETATM   10  C   UNL     1     -10.485  11.352  66.988  1.00  0.00    -0.236 A  
HETATM   11  C   UNL     1     -10.974  11.126  68.282  1.00  0.00    -0.226 A  
HETATM   12  C   UNL     1     -11.556  12.183  68.986  1.00  0.00    -0.374 A  
HETATM   13  C   UNL     1     -11.601  13.466  68.429  1.00  0.00    -0.368 A  
BRANCH  10  14
HETATM   14  O   UNL     1      -9.797  10.307  66.328  1.00  0.00    -0.198 OA 
BRANCH  14  15
HETATM   15  C   UNL     1      -8.449  10.478  65.973  1.00  0.00    -0.156 C  
HETATM   16  O   UNL     1      -7.603  10.997  66.687  1.00  0.00    -0.134 OA 
BRANCH  15  17
HETATM   17  C   UNL     1      -8.204   9.869  64.584  1.00  0.00    -0.153 C  
HETATM   18  C   UNL     1      -9.246  10.395  63.581  1.00  0.00    -0.310 C  
HETATM   19  C   UNL     1      -6.813  10.297  64.095  1.00  0.00    -0.055 C  
HETATM   20  C   UNL     1      -8.304   8.342  64.659  1.00  0.00    -0.115 C  
ENDBRANCH  15  17
ENDBRANCH  14  15
ENDBRANCH  10  14
BRANCH  11  21
HETATM   21  O   UNL     1     -10.933   9.815  68.824  1.00  0.00    -0.213 OA 
BRANCH  21  22
HETATM   22  C   UNL     1      -9.889   9.420  69.678  1.00  0.00    -0.193 C  
HETATM   23  O   UNL     1      -8.696   9.615  69.471  1.00  0.00    -0.155 OA 
BRANCH  22  24
HETATM   24  C   UNL     1     -10.428   8.675  70.910  1.00  0.00    -0.265 C  
HETATM   25  C   UNL     1     -11.599   9.473  71.519  1.00  0.00    -0.465 C  
HETATM   26  C   UNL     1     -10.952   7.288  70.516  1.00  0.00    -0.282 C  
HETATM   27  C   UNL     1      -9.314   8.556  71.954  1.00  0.00    -0.337 C  
ENDBRANCH  22  24
ENDBRANCH  21  22
ENDBRANCH  11  21
ENDBRANCH   5   8
ENDBRANCH   4   5
ENDBRANCH   2   4
TORSDOF 9
ENDMDL
MODEL      125
REMARK 921   NORMALIZED FREE ENERGY PREDICTED BY IDOCK:   -4.07 KCAL/MOL
REMARK 922        TOTAL FREE ENERGY PREDICTED BY IDOCK:   -7.49 KCAL/MOL
REMARK 923 INTER-LIGAND FREE ENERGY PREDICTED BY IDOCK:   -6.15 KCAL/MOL
REMARK 924 INTRA-LIGAND FREE ENERGY PREDICTED BY IDOCK:   -1.34 KCAL/MOL
REMARK 927      BINDING AFFINITY PREDICTED BY RF-SCORE:    0.00 PKD
ROOT
HETATM    1  C   UNL     1     -13.071  12.866  71.601  1.00  0.00    -0.335 C  
HETATM    2  N   UNL     1     -13.391  11.580  72.197  1.00  0.00    -0.562 NA 
HETATM    3  H   UNL     1     -14.400  11.443  72.271  1.00  0.00     0.000 HD 
ENDROOT
BRANCH   2   4
HETATM    4  C   UNL     1     -12.750  10.475  71.466  1.00  0.00    -0.452 C  
BRANCH   4   5
HETATM    5  C   UNL     1     -13.118   9.102  72.086  1.00  0.00    -0.446 C  
HETATM    6  H   UNL     1     -14.553   7.779  71.861  1.00  0.00     0.000 HD 
HETATM    7  O   UNL     1     -14.326   8.620  71.481  1.00  0.00    -0.410 OA 
BRANCH   5   8
HETATM    8  C   UNL     1     -12.008   8.078  71.929  1.00  0.00    -0.359 A  
HETATM    9  C   UNL     1     -11.592   7.630  70.667  1.00  0.00    -0.251 A  
HETATM   10  C   UNL     1     -10.552   6.696  70.535  1.00  0.00    -0.229 A  
HETATM   11  C   UNL     1      -9.896   6.214  71.677  1.00  0.00    -0.169 A  
HETATM   12  C   UNL     1     -10.324   6.635  72.938  1.00  0.00    -0.236 A  
HETATM   13  C   UNL     1     -11.359   7.568  73.061  1.00  0.00    -0.313 A  
BRANCH  10  14
HETATM   14  O   UNL     1     -10.041   6.355  69.262  1.00  0.00    -0.161 OA 
BRANCH  14  15
HETATM   15  C   UNL     1      -9.286   7.295  68.541  1.00  0.00    -0.141 C  
HETATM   16  O   UNL     1      -8.304   7.878  68.976  1.00  0.00    -0.127 OA 
BRANCH  15  17
HETATM   17  C   UNL     1      -9.858   7.431  67.122  1.00  0.00    -0.253 C  
HETATM   18  C   UNL     1     -10.938   6.361  66.878  1.00  0.00    -0.413 C  
HETATM   19  C   UNL     1     -10.517   8.811  66.985  1.00  0.00    -0.338 C  
HETATM   20  C   UNL     1      -8.739   7.261  66.089  1.00  0.00    -0.170 C  
ENDBRANCH  15  17
ENDBRANCH  14  15
ENDBRANCH  10  14
BRANCH  11  21
HETATM   21  O   UNL     1      -8.859   5.256  71.533  1.00  0.00    -0.132 OA 
BRANCH  21  22
HETATM   22  C   UNL     1      -9.143   3.879  71.530  1.00  0.00    -0.113 C  
HETATM   23  O   UNL     1      -9.708   3.277  70.624  1.00  0.00    -0.174 OA 
BRANCH  22  24
HETATM   24  C   UNL     1      -8.678   3.212  72.835  1.00  0.00    -0.090 C  
HETATM   25  C   UNL     1      -9.888   3.021  73.772  1.00  0.00    -0.151 C  
HETATM   26  C   UNL     1      -8.074   1.831  72.550  1.00  0.00    -0.053 C  
HETATM   27  C   UNL     1      -7.655   4.118  73.528  1.00  0.00    -0.077 C  
ENDBRANCH  22  24
ENDBRANCH  21  22
ENDBRANCH  11  21
ENDBRANCH   5   8
ENDBRANCH   4   5
ENDBRANCH   2   4
TORSDOF 9
ENDMDL
MODEL      126
REMARK 921   NORMALIZED FREE ENERGY PREDICTED BY IDOCK:   -4.00 KCAL/MOL
REMARK 922        TOTAL FREE ENERGY PREDICTED BY IDOCK:   -7.38 KCAL/MOL
REMARK 923 INTER-LIGAND FREE ENERGY PREDICTED BY IDOCK:   -6.17 KCAL/MOL
REMARK 924 INTRA-LIGAND FREE ENERGY PREDICTED BY IDOCK:   -1.20 KCAL/MOL
REMARK 927      BINDING AFFINITY PREDICTED BY RF-SCORE:    0.00 PKD
ROOT
HETATM    1  C   UNL     1      -6.240   5.294  65.103  1.00  0.00    -0.034 C  
HETATM    2  N   UNL     1      -7.549   5.887  64.881  1.00  0.00    -0.084 NA 
HETATM    3  H   UNL     1      -8.286   5.182  64.899  1.00  0.00     0.000 HD 
ENDROOT
BRANCH   2   4
HETATM    4  C   UNL     1      -7.815   6.972  65.839  1.00  0.00    -0.106 C  
BRANCH   4   5
HETATM    5  C   UNL     1      -9.271   6.906  66.371  1.00  0.00    -0.152 C  
HETATM    6  H   UNL     1     -10.235   5.897  67.754  1.00  0.00     0.000 HD 
HETATM    7  O   UNL     1      -9.344   5.938  67.427  1.00  0.00    -0.112 OA 
BRANCH   5   8
HETATM    8  C   UNL     1      -9.772   8.254  66.858  1.00  0.00    -0.291 A  
HETATM    9  C   UNL     1     -10.133   8.465  68.197  1.00  0.00    -0.239 A  
HETATM   10  C   UNL     1     -10.579   9.722  68.638  1.00  0.00    -0.221 A  
HETATM   11  C   UNL     1     -10.645  10.796  67.739  1.00  0.00    -0.228 A  
HETATM   12  C   UNL     1     -10.313  10.585  66.399  1.00  0.00    -0.283 A  
HETATM   13  C   UNL     1      -9.867   9.331  65.968  1.00  0.00    -0.363 A  
BRANCH  10  14
HETATM   14  O   UNL     1     -10.805   9.968  70.012  1.00  0.00    -0.258 OA 
BRANCH  14  15
HETATM   15  C   UNL     1     -12.078   9.739  70.560  1.00  0.00    -0.168 C  
HETATM   16  O   UNL     1     -13.095  10.327  70.223  1.00  0.00    -0.186 OA 
BRANCH  15  17
HETATM   17  C   UNL     1     -11.992   8.611  71.600  1.00  0.00    -0.388 C  
HETATM   18  C   UNL     1     -13.060   8.810  72.689  1.00  0.00    -0.315 C  
HETATM   19  C   UNL     1     -12.267   7.273  70.901  1.00  0.00    -0.308 C  
HETATM   20  C   UNL     1     -10.604   8.606  72.250  1.00  0.00    -0.375 C  
ENDBRANCH  15  17
ENDBRANCH  14  15
ENDBRANCH  10  14
BRANCH  11  21
HETATM   21  O   UNL     1     -11.113  12.056  68.193  1.00  0.00    -0.214 OA 
BRANCH  21  22
HETATM   22  C   UNL     1     -10.374  13.228  67.957  1.00  0.00    -0.241 C  
HETATM   23  O   UNL     1      -9.163  13.343  68.118  1.00  0.00    -0.205 OA 
BRANCH  22  24
HETATM   24  C   UNL     1     -11.283  14.377  67.493  1.00  0.00    -0.329 C  
HETATM   25  C   UNL     1     -10.450  15.398  66.691  1.00  0.00    -0.293 C  
HETATM   26  C   UNL     1     -12.397  13.849  66.580  1.00  0.00    -0.447 C  
HETATM   27  C   UNL     1     -11.876  15.078  68.719  1.00  0.00    -0.331 C  
ENDBRANCH  22  24
ENDBRANCH  21  22
ENDBRANCH  11  21
ENDBRANCH   5   8
ENDBRANCH   4   5
ENDBRANCH   2   4
TORSDOF 9
ENDMDL
MODEL      127
REMARK 921   NORMALIZED FREE ENERGY PREDICTED BY IDOCK:   -3.96 KCAL/MOL
REMARK 922        TOTAL FREE ENERGY PREDICTED BY IDOCK:   -7.32 KCAL/MOL
REMARK 923 INTER-LIGAND FREE ENERGY PREDICTED BY IDOCK:   -6.42 KCAL/MOL
REMARK 924 INTRA-LIGAND FREE ENERGY PREDICTED BY IDOCK:   -0.90 KCAL/MOL
REMARK 927      BINDING AFFINITY PREDICTED BY RF-SCORE:    0.00 PKD
ROOT
HETATM    1  C   UNL     1      -8.969   7.868  73.401  1.00  0.00    -0.277 C  
HETATM    2  N   UNL     1      -9.719   8.742  72.513  1.00  0.00    -0.208 NA 
HETATM    3  H   UNL     1      -9.109   9.416  72.050  1.00  0.00     0.000 HD 
ENDROOT
BRANCH   2   4
HETATM    4  C   UNL     1     -10.507   7.968  71.540  1.00  0.00    -0.217 C  
BRANCH   4   5
HETATM    5  C   UNL     1     -11.771   8.748  71.095  1.00  0.00    -0.291 C  
HETATM    6  H   UNL     1     -13.109   9.899  71.958  1.00  0.00     0.000 HD 
HETATM    7  O   UNL     1     -12.335   9.421  72.230  1.00  0.00    -0.324 OA 
BRANCH   5   8
HETATM    8  C   UNL     1     -11.478   9.744  69.986  1.00  0.00    -0.232 A  
HETATM    9  C   UNL     1     -11.011   9.331  68.730  1.00  0.00    -0.047 A  
HETATM   10  C   UNL     1     -10.760  10.261  67.708  1.00  0.00    -0.275 A  
HETATM   11  C   UNL     1     -10.999  11.624  67.929  1.00  0.00    -0.225 A  
HETATM   12  C   UNL     1     -11.438  12.045  69.187  1.00  0.00    -0.357 A  
HETATM   13  C   UNL     1     -11.688  11.113  70.199  1.00  0.00    -0.439 A  
BRANCH  10  14
HETATM   14  O   UNL     1     -10.428   9.830  66.403  1.00  0.00    -0.204 OA 
BRANCH  14  15
HETATM   15  C   UNL     1      -9.463   8.826  66.226  1.00  0.00    -0.234 C  
HETATM   16  O   UNL     1      -9.555   7.689  66.664  1.00  0.00    -0.189 OA 
BRANCH  15  17
HETATM   17  C   UNL     1      -8.313   9.368  65.363  1.00  0.00    -0.143 C  
HETATM   18  C   UNL     1      -8.785   9.571  63.913  1.00  0.00    -0.238 C  
HETATM   19  C   UNL     1      -7.879  10.732  65.918  1.00  0.00    -0.131 C  
HETATM   20  C   UNL     1      -7.140   8.381  65.377  1.00  0.00    -0.081 C  
ENDBRANCH  15  17
ENDBRANCH  14  15
ENDBRANCH  10  14
BRANCH  11  21
HETATM   21  O   UNL     1     -10.725  12.557  66.895  1.00  0.00    -0.237 OA 
BRANCH  21  22
HETATM   22  C   UNL     1     -11.713  12.905  65.957  1.00  0.00    -0.404 C  
HETATM   23  O   UNL     1     -12.908  12.654  66.064  1.00  0.00    -0.161 OA 
BRANCH  22  24
HETATM   24  C   UNL     1     -11.101  13.626  64.745  1.00  0.00    -0.375 C  
HETATM   25  C   UNL     1      -9.919  14.500  65.213  1.00  0.00    -0.322 C  
HETATM   26  C   UNL     1     -10.567  12.612  63.726  1.00  0.00    -0.432 C  
HETATM   27  C   UNL     1     -12.161  14.529  64.106  1.00  0.00    -0.377 C  
ENDBRANCH  22  24
ENDBRANCH  21  22
ENDBRANCH  11  21
ENDBRANCH   5   8
ENDBRANCH   4   5
ENDBRANCH   2   4
TORSDOF 9
ENDMDL
MODEL      128
REMARK 921   NORMALIZED FREE ENERGY PREDICTED BY IDOCK:   -3.93 KCAL/MOL
REMARK 922        TOTAL FREE ENERGY PREDICTED BY IDOCK:   -7.28 KCAL/MOL
REMARK 923 INTER-LIGAND FREE ENERGY PREDICTED BY IDOCK:   -7.85 KCAL/MOL
REMARK 924 INTRA-LIGAND FREE ENERGY PREDICTED BY IDOCK:    0.57 KCAL/MOL
REMARK 927      BINDING AFFINITY PREDICTED BY RF-SCORE:    0.00 PKD
ROOT
HETATM    1  C   UNL     1     -12.870  15.631  73.818  1.00  0.00    -0.560 C  
HETATM    2  N   UNL     1     -13.346  14.418  73.174  1.00  0.00    -0.612 NA 
HETATM    3  H   UNL     1     -14.056  13.949  73.738  1.00  0.00     0.000 HD 
ENDROOT
BRANCH   2   4
HETATM    4  C   UNL     1     -13.831  14.688  71.811  1.00  0.00    -0.443 C  
BRANCH   4   5
HETATM    5  C   UNL     1     -12.847  15.605  71.037  1.00  0.00    -0.463 C  
HETATM    6  H   UNL     1     -11.414  16.865  71.501  1.00  0.00     0.000 HD 
HETATM    7  O   UNL     1     -12.016  16.304  71.974  1.00  0.00    -0.500 OA 
BRANCH   5   8
HETATM    8  C   UNL     1     -11.990  14.832  70.049  1.00  0.00    -0.369 A  
HETATM    9  C   UNL     1     -10.965  15.453  69.321  1.00  0.00    -0.261 A  
HETATM   10  C   UNL     1     -10.168  14.723  68.424  1.00  0.00    -0.224 A  
HETATM   11  C   UNL     1     -10.378  13.347  68.263  1.00  0.00    -0.249 A  
HETATM   12  C   UNL     1     -11.415  12.728  68.964  1.00  0.00    -0.360 A  
HETATM   13  C   UNL     1     -12.203  13.461  69.859  1.00  0.00    -0.337 A  
BRANCH  10  14
HETATM   14  O   UNL     1      -9.047  15.319  67.801  1.00  0.00    -0.180 OA 
BRANCH  14  15
HETATM   15  C   UNL     1      -9.234  16.374  66.894  1.00  0.00    -0.218 C  
HETATM   16  O   UNL     1      -9.981  16.335  65.927  1.00  0.00    -0.313 OA 
BRANCH  15  17
HETATM   17  C   UNL     1      -8.398  17.585  67.336  1.00  0.00    -0.220 C  
HETATM   18  C   UNL     1      -9.292  18.623  68.035  1.00  0.00    -0.340 C  
HETATM   19  C   UNL     1      -7.340  17.111  68.344  1.00  0.00    -0.220 C  
HETATM   20  C   UNL     1      -7.731  18.232  66.118  1.00  0.00    -0.255 C  
ENDBRANCH  15  17
ENDBRANCH  14  15
ENDBRANCH  10  14
BRANCH  11  21
HETATM   21  O   UNL     1      -9.579  12.623  67.340  1.00  0.00    -0.187 OA 
BRANCH  21  22
HETATM   22  C   UNL     1     -10.151  12.026  66.203  1.00  0.00    -0.226 C  
HETATM   23  O   UNL     1     -11.177  12.404  65.648  1.00  0.00    -0.298 OA 
BRANCH  22  24
HETATM   24  C   UNL     1      -9.338  10.803  65.748  1.00  0.00    -0.235 C  
HETATM   25  C   UNL     1      -9.410  10.683  64.212  1.00  0.00    -0.298 C  
HETATM   26  C   UNL     1      -7.864  10.955  66.145  1.00  0.00    -0.144 C  
HETATM   27  C   UNL     1      -9.938   9.538  66.371  1.00  0.00    -0.339 C  
ENDBRANCH  22  24
ENDBRANCH  21  22
ENDBRANCH  11  21
ENDBRANCH   5   8
ENDBRANCH   4   5
ENDBRANCH   2   4
TORSDOF 9
ENDMDL
MODEL      129
REMARK 921   NORMALIZED FREE ENERGY PREDICTED BY IDOCK:   -3.91 KCAL/MOL
REMARK 922        TOTAL FREE ENERGY PREDICTED BY IDOCK:   -7.25 KCAL/MOL
REMARK 923 INTER-LIGAND FREE ENERGY PREDICTED BY IDOCK:   -6.08 KCAL/MOL
REMARK 924 INTRA-LIGAND FREE ENERGY PREDICTED BY IDOCK:   -1.17 KCAL/MOL
REMARK 927      BINDING AFFINITY PREDICTED BY RF-SCORE:    0.00 PKD
ROOT
HETATM    1  C   UNL     1      -8.799   3.854  64.276  1.00  0.00    -0.124 C  
HETATM    2  N   UNL     1      -8.167   5.070  63.792  1.00  0.00    -0.119 NA 
HETATM    3  H   UNL     1      -8.702   5.493  63.033  1.00  0.00     0.000 HD 
ENDROOT
BRANCH   2   4
HETATM    4  C   UNL     1      -7.934   6.026  64.887  1.00  0.00    -0.126 C  
BRANCH   4   5
HETATM    5  C   UNL     1      -7.809   7.475  64.349  1.00  0.00    -0.128 C  
HETATM    6  H   UNL     1      -7.988   8.367  62.608  1.00  0.00     0.000 HD 
HETATM    7  O   UNL     1      -8.064   7.479  62.938  1.00  0.00    -0.138 OA 
BRANCH   5   8
HETATM    8  C   UNL     1      -8.746   8.438  65.056  1.00  0.00    -0.092 A  
HETATM    9  C   UNL     1      -9.402   8.088  66.245  1.00  0.00    -0.246 A  
HETATM   10  C   UNL     1     -10.254   8.994  66.897  1.00  0.00    -0.269 A  
HETATM   11  C   UNL     1     -10.440  10.281  66.372  1.00  0.00    -0.163 A  
HETATM   12  C   UNL     1      -9.812  10.627  65.174  1.00  0.00    -0.344 A  
HETATM   13  C   UNL     1      -8.962   9.719  64.531  1.00  0.00    -0.278 A  
BRANCH  10  14
HETATM   14  O   UNL     1     -10.799   8.691  68.166  1.00  0.00    -0.106 OA 
BRANCH  14  15
HETATM   15  C   UNL     1      -9.964   8.204  69.184  1.00  0.00    -0.192 C  
HETATM   16  O   UNL     1      -9.519   7.067  69.235  1.00  0.00    -0.148 OA 
BRANCH  15  17
HETATM   17  C   UNL     1      -9.664   9.333  70.183  1.00  0.00    -0.252 C  
HETATM   18  C   UNL     1      -8.623  10.301  69.595  1.00  0.00    -0.126 C  
HETATM   19  C   UNL     1     -10.956  10.121  70.440  1.00  0.00    -0.386 C  
HETATM   20  C   UNL     1      -9.122   8.743  71.489  1.00  0.00    -0.322 C  
ENDBRANCH  15  17
ENDBRANCH  14  15
ENDBRANCH  10  14
BRANCH  11  21
HETATM   21  O   UNL     1     -11.316  11.182  67.031  1.00  0.00    -0.388 OA 
BRANCH  21  22
HETATM   22  C   UNL     1     -11.759  12.354  66.393  1.00  0.00    -0.391 C  
HETATM   23  O   UNL     1     -12.566  12.395  65.471  1.00  0.00    -0.616 OA 
BRANCH  22  24
HETATM   24  C   UNL     1     -11.075  13.600  66.980  1.00  0.00    -0.313 C  
HETATM   25  C   UNL     1     -12.129  14.703  67.207  1.00  0.00    -0.216 C  
HETATM   26  C   UNL     1     -10.430  13.274  68.333  1.00  0.00    -0.261 C  
HETATM   27  C   UNL     1     -10.026  14.114  65.990  1.00  0.00    -0.340 C  
ENDBRANCH  22  24
ENDBRANCH  21  22
ENDBRANCH  11  21
ENDBRANCH   5   8
ENDBRANCH   4   5
ENDBRANCH   2   4
TORSDOF 9
ENDMDL
MODEL      130
REMARK 921   NORMALIZED FREE ENERGY PREDICTED BY IDOCK:   -3.91 KCAL/MOL
REMARK 922        TOTAL FREE ENERGY PREDICTED BY IDOCK:   -7.25 KCAL/MOL
REMARK 923 INTER-LIGAND FREE ENERGY PREDICTED BY IDOCK:   -5.73 KCAL/MOL
REMARK 924 INTRA-LIGAND FREE ENERGY PREDICTED BY IDOCK:   -1.52 KCAL/MOL
REMARK 927      BINDING AFFINITY PREDICTED BY RF-SCORE:    0.00 PKD
ROOT
HETATM    1  C   UNL     1      -7.692   6.105  69.601  1.00  0.00    -0.098 C  
HETATM    2  N   UNL     1      -7.429   7.512  69.857  1.00  0.00    -0.082 NA 
HETATM    3  H   UNL     1      -7.196   8.011  68.998  1.00  0.00     0.000 HD 
ENDROOT
BRANCH   2   4
HETATM    4  C   UNL     1      -8.554   8.148  70.562  1.00  0.00    -0.130 C  
BRANCH   4   5
HETATM    5  C   UNL     1      -9.870   8.017  69.752  1.00  0.00    -0.183 C  
HETATM    6  H   UNL     1     -11.793   8.009  70.154  1.00  0.00     0.000 HD 
HETATM    7  O   UNL     1     -10.986   8.089  70.650  1.00  0.00    -0.238 OA 
BRANCH   5   8
HETATM    8  C   UNL     1      -9.995   9.078  68.672  1.00  0.00    -0.187 A  
HETATM    9  C   UNL     1      -9.719  10.429  68.933  1.00  0.00    -0.203 A  
HETATM   10  C   UNL     1      -9.822  11.398  67.921  1.00  0.00    -0.179 A  
HETATM   11  C   UNL     1     -10.182  11.016  66.621  1.00  0.00    -0.235 A  
HETATM   12  C   UNL     1     -10.485   9.678  66.362  1.00  0.00    -0.181 A  
HETATM   13  C   UNL     1     -10.378   8.717  67.374  1.00  0.00    -0.349 A  
BRANCH  10  14
HETATM   14  O   UNL     1      -9.406  12.730  68.149  1.00  0.00    -0.206 OA 
BRANCH  14  15
HETATM   15  C   UNL     1      -8.041  13.053  68.089  1.00  0.00    -0.155 C  
HETATM   16  O   UNL     1      -7.168  12.308  67.667  1.00  0.00    -0.105 OA 
BRANCH  15  17
HETATM   17  C   UNL     1      -7.833  14.493  68.585  1.00  0.00    -0.140 C  
HETATM   18  C   UNL     1      -6.908  14.504  69.814  1.00  0.00    -0.126 C  
HETATM   19  C   UNL     1      -7.157  15.306  67.472  1.00  0.00    -0.224 C  
HETATM   20  C   UNL     1      -9.182  15.113  68.964  1.00  0.00    -0.221 C  
ENDBRANCH  15  17
ENDBRANCH  14  15
ENDBRANCH  10  14
BRANCH  11  21
HETATM   21  O   UNL     1     -10.300  12.006  65.611  1.00  0.00    -0.237 OA 
BRANCH  21  22
HETATM   22  C   UNL     1     -11.543  12.593  65.317  1.00  0.00    -0.351 C  
HETATM   23  O   UNL     1     -12.540  11.984  64.945  1.00  0.00    -0.418 OA 
BRANCH  22  24
HETATM   24  C   UNL     1     -11.495  14.119  65.494  1.00  0.00    -0.324 C  
HETATM   25  C   UNL     1     -10.039  14.605  65.352  1.00  0.00    -0.403 C  
HETATM   26  C   UNL     1     -12.336  14.814  64.416  1.00  0.00    -0.389 C  
HETATM   27  C   UNL     1     -12.003  14.481  66.893  1.00  0.00    -0.371 C  
ENDBRANCH  22  24
ENDBRANCH  21  22
ENDBRANCH  11  21
ENDBRANCH   5   8
ENDBRANCH   4   5
ENDBRANCH   2   4
TORSDOF 9
ENDMDL
MODEL      131
REMARK 921   NORMALIZED FREE ENERGY PREDICTED BY IDOCK:   -3.90 KCAL/MOL
REMARK 922        TOTAL FREE ENERGY PREDICTED BY IDOCK:   -7.23 KCAL/MOL
REMARK 923 INTER-LIGAND FREE ENERGY PREDICTED BY IDOCK:   -6.75 KCAL/MOL
REMARK 924 INTRA-LIGAND FREE ENERGY PREDICTED BY IDOCK:   -0.49 KCAL/MOL
REMARK 927      BINDING AFFINITY PREDICTED BY RF-SCORE:    0.00 PKD
ROOT
HETATM    1  C   UNL     1     -10.784  19.796  65.665  1.00  0.00    -0.314 C  
HETATM    2  N   UNL     1      -9.734  20.288  66.542  1.00  0.00    -0.579 NA 
HETATM    3  H   UNL     1     -10.117  20.839  67.311  1.00  0.00     0.000 HD 
ENDROOT
BRANCH   2   4
HETATM    4  C   UNL     1      -8.888  19.189  67.034  1.00  0.00    -0.295 C  
BRANCH   4   5
HETATM    5  C   UNL     1      -9.189  18.873  68.522  1.00  0.00    -0.361 C  
HETATM    6  H   UNL     1     -10.000  19.817  70.042  1.00  0.00     0.000 HD 
HETATM    7  O   UNL     1      -9.815  20.011  69.130  1.00  0.00    -0.278 OA 
BRANCH   5   8
HETATM    8  C   UNL     1     -10.063  17.642  68.688  1.00  0.00    -0.377 A  
HETATM    9  C   UNL     1     -10.378  16.811  67.602  1.00  0.00    -0.309 A  
HETATM   10  C   UNL     1     -11.173  15.666  67.771  1.00  0.00    -0.297 A  
HETATM   11  C   UNL     1     -11.646  15.326  69.046  1.00  0.00    -0.343 A  
HETATM   12  C   UNL     1     -11.360  16.164  70.127  1.00  0.00    -0.347 A  
HETATM   13  C   UNL     1     -10.564  17.301  69.951  1.00  0.00     0.314 A  
BRANCH  10  14
HETATM   14  O   UNL     1     -11.369  14.756  66.707  1.00  0.00    -0.340 OA 
BRANCH  14  15
HETATM   15  C   UNL     1     -10.475  13.687  66.532  1.00  0.00    -0.281 C  
HETATM   16  O   UNL     1      -9.349  13.639  67.004  1.00  0.00    -0.230 OA 
BRANCH  15  17
HETATM   17  C   UNL     1     -11.153  12.584  65.705  1.00  0.00    -0.338 C  
HETATM   18  C   UNL     1     -10.165  12.006  64.677  1.00  0.00    -0.313 C  
HETATM   19  C   UNL     1     -11.577  11.449  66.648  1.00  0.00     0.010 C  
HETATM   20  C   UNL     1     -12.369  13.157  64.969  1.00  0.00    -0.511 C  
ENDBRANCH  15  17
ENDBRANCH  14  15
ENDBRANCH  10  14
BRANCH  11  21
HETATM   21  O   UNL     1     -12.464  14.176  69.203  1.00  0.00    -0.231 OA 
BRANCH  21  22
HETATM   22  C   UNL     1     -12.275  13.298  70.284  1.00  0.00    -0.321 C  
HETATM   23  O   UNL     1     -11.507  12.342  70.291  1.00  0.00    -0.097 OA 
BRANCH  22  24
HETATM   24  C   UNL     1     -13.182  13.669  71.468  1.00  0.00    -0.409 C  
HETATM   25  C   UNL     1     -14.370  14.511  70.959  1.00  0.00     0.052 C  
HETATM   26  C   UNL     1     -13.745  12.406  72.134  1.00  0.00    -0.271 C  
HETATM   27  C   UNL     1     -12.382  14.500  72.475  1.00  0.00    -0.282 C  
ENDBRANCH  22  24
ENDBRANCH  21  22
ENDBRANCH  11  21
ENDBRANCH   5   8
ENDBRANCH   4   5
ENDBRANCH   2   4
TORSDOF 9
ENDMDL
MODEL      132
REMARK 921   NORMALIZED FREE ENERGY PREDICTED BY IDOCK:   -3.90 KCAL/MOL
REMARK 922        TOTAL FREE ENERGY PREDICTED BY IDOCK:   -7.23 KCAL/MOL
REMARK 923 INTER-LIGAND FREE ENERGY PREDICTED BY IDOCK:   -5.85 KCAL/MOL
REMARK 924 INTRA-LIGAND FREE ENERGY PREDICTED BY IDOCK:   -1.38 KCAL/MOL
REMARK 927      BINDING AFFINITY PREDICTED BY RF-SCORE:    0.00 PKD
ROOT
HETATM    1  C   UNL     1      -7.529   7.656  62.842  1.00  0.00    -0.107 C  
HETATM    2  N   UNL     1      -8.291   6.471  63.198  1.00  0.00    -0.332 NA 
HETATM    3  H   UNL     1      -8.258   5.769  62.458  1.00  0.00     0.000 HD 
ENDROOT
BRANCH   2   4
HETATM    4  C   UNL     1      -7.849   5.916  64.488  1.00  0.00    -0.115 C  
BRANCH   4   5
HETATM    5  C   UNL     1      -8.975   5.088  65.159  1.00  0.00    -0.143 C  
HETATM    6  H   UNL     1      -9.160   3.279  65.901  1.00  0.00     0.000 HD 
HETATM    7  O   UNL     1      -8.471   3.787  65.490  1.00  0.00    -0.107 OA 
BRANCH   5   8
HETATM    8  C   UNL     1      -9.534   5.766  66.397  1.00  0.00    -0.172 A  
HETATM    9  C   UNL     1      -9.765   7.149  66.439  1.00  0.00    -0.139 A  
HETATM   10  C   UNL     1     -10.299   7.760  67.585  1.00  0.00    -0.239 A  
HETATM   11  C   UNL     1     -10.631   6.982  68.703  1.00  0.00    -0.210 A  
HETATM   12  C   UNL     1     -10.377   5.609  68.678  1.00  0.00    -0.277 A  
HETATM   13  C   UNL     1      -9.848   5.006  67.532  1.00  0.00    -0.201 A  
BRANCH  10  14
HETATM   14  O   UNL     1     -10.663   9.127  67.573  1.00  0.00    -0.273 OA 
BRANCH  14  15
HETATM   15  C   UNL     1      -9.664  10.113  67.564  1.00  0.00    -0.162 C  
HETATM   16  O   UNL     1      -8.618  10.049  68.193  1.00  0.00    -0.117 OA 
BRANCH  15  17
HETATM   17  C   UNL     1     -10.073  11.247  66.611  1.00  0.00    -0.251 C  
HETATM   18  C   UNL     1     -10.131  10.730  65.163  1.00  0.00    -0.363 C  
HETATM   19  C   UNL     1     -11.476  11.736  66.998  1.00  0.00    -0.368 C  
HETATM   20  C   UNL     1      -9.058  12.392  66.697  1.00  0.00    -0.204 C  
ENDBRANCH  15  17
ENDBRANCH  14  15
ENDBRANCH  10  14
BRANCH  11  21
HETATM   21  O   UNL     1     -11.152   7.614  69.861  1.00  0.00    -0.237 OA 
BRANCH  21  22
HETATM   22  C   UNL     1     -10.363   7.773  71.014  1.00  0.00    -0.202 C  
HETATM   23  O   UNL     1      -9.164   8.029  71.018  1.00  0.00    -0.145 OA 
BRANCH  22  24
HETATM   24  C   UNL     1     -11.191   7.556  72.291  1.00  0.00    -0.329 C  
HETATM   25  C   UNL     1     -11.980   6.236  72.171  1.00  0.00    -0.338 C  
HETATM   26  C   UNL     1     -10.276   7.453  73.517  1.00  0.00    -0.400 C  
HETATM   27  C   UNL     1     -12.183   8.712  72.452  1.00  0.00    -0.419 C  
ENDBRANCH  22  24
ENDBRANCH  21  22
ENDBRANCH  11  21
ENDBRANCH   5   8
ENDBRANCH   4   5
ENDBRANCH   2   4
TORSDOF 9
ENDMDL
MODEL      133
REMARK 921   NORMALIZED FREE ENERGY PREDICTED BY IDOCK:   -3.89 KCAL/MOL
REMARK 922        TOTAL FREE ENERGY PREDICTED BY IDOCK:   -7.21 KCAL/MOL
REMARK 923 INTER-LIGAND FREE ENERGY PREDICTED BY IDOCK:   -5.99 KCAL/MOL
REMARK 924 INTRA-LIGAND FREE ENERGY PREDICTED BY IDOCK:   -1.22 KCAL/MOL
REMARK 927      BINDING AFFINITY PREDICTED BY RF-SCORE:    0.00 PKD
ROOT
HETATM    1  C   UNL     1     -10.173  12.311  63.512  1.00  0.00    -0.379 C  
HETATM    2  N   UNL     1     -10.031  12.353  64.958  1.00  0.00    -0.417 NA 
HETATM    3  H   UNL     1      -9.840  13.299  65.288  1.00  0.00     0.000 HD 
ENDROOT
BRANCH   2   4
HETATM    4  C   UNL     1     -11.208  11.776  65.629  1.00  0.00    -0.267 C  
BRANCH   4   5
HETATM    5  C   UNL     1     -10.876  11.363  67.087  1.00  0.00    -0.268 C  
HETATM    6  H   UNL     1     -11.823  11.338  68.808  1.00  0.00     0.000 HD 
HETATM    7  O   UNL     1     -12.025  11.591  67.915  1.00  0.00    -0.618 OA 
BRANCH   5   8
HETATM    8  C   UNL     1     -10.431   9.915  67.193  1.00  0.00    -0.305 A  
HETATM    9  C   UNL     1     -10.688   9.148  68.339  1.00  0.00    -0.163 A  
HETATM   10  C   UNL     1     -10.285   7.805  68.417  1.00  0.00    -0.200 A  
HETATM   11  C   UNL     1      -9.637   7.205  67.329  1.00  0.00    -0.143 A  
HETATM   12  C   UNL     1      -9.353   7.971  66.196  1.00  0.00    -0.212 A  
HETATM   13  C   UNL     1      -9.760   9.308  66.124  1.00  0.00    -0.349 A  
BRANCH  10  14
HETATM   14  O   UNL     1     -10.670   6.996  69.511  1.00  0.00    -0.226 OA 
BRANCH  14  15
HETATM   15  C   UNL     1      -9.992   7.112  70.735  1.00  0.00    -0.189 C  
HETATM   16  O   UNL     1      -8.826   7.459  70.853  1.00  0.00    -0.146 OA 
BRANCH  15  17
HETATM   17  C   UNL     1     -10.955   6.786  71.887  1.00  0.00    -0.270 C  
HETATM   18  C   UNL     1     -10.678   5.372  72.428  1.00  0.00    -0.286 C  
HETATM   19  C   UNL     1     -10.718   7.786  73.028  1.00  0.00    -0.446 C  
HETATM   20  C   UNL     1     -12.403   6.862  71.393  1.00  0.00    -0.421 C  
ENDBRANCH  15  17
ENDBRANCH  14  15
ENDBRANCH  10  14
BRANCH  11  21
HETATM   21  O   UNL     1      -9.219   5.852  67.426  1.00  0.00    -0.111 OA 
BRANCH  21  22
HETATM   22  C   UNL     1      -7.957   5.522  67.950  1.00  0.00    -0.097 C  
HETATM   23  O   UNL     1      -6.984   6.269  67.971  1.00  0.00    -0.074 OA 
BRANCH  22  24
HETATM   24  C   UNL     1      -7.932   4.079  68.478  1.00  0.00    -0.072 C  
HETATM   25  C   UNL     1      -6.888   3.263  67.690  1.00  0.00    -0.049 C  
HETATM   26  C   UNL     1      -7.536   4.052  69.960  1.00  0.00    -0.045 C  
HETATM   27  C   UNL     1      -9.312   3.444  68.276  1.00  0.00    -0.239 C  
ENDBRANCH  22  24
ENDBRANCH  21  22
ENDBRANCH  11  21
ENDBRANCH   5   8
ENDBRANCH   4   5
ENDBRANCH   2   4
TORSDOF 9
ENDMDL
MODEL      134
REMARK 921   NORMALIZED FREE ENERGY PREDICTED BY IDOCK:   -3.85 KCAL/MOL
REMARK 922        TOTAL FREE ENERGY PREDICTED BY IDOCK:   -7.16 KCAL/MOL
REMARK 923 INTER-LIGAND FREE ENERGY PREDICTED BY IDOCK:   -5.76 KCAL/MOL
REMARK 924 INTRA-LIGAND FREE ENERGY PREDICTED BY IDOCK:   -1.40 KCAL/MOL
REMARK 927      BINDING AFFINITY PREDICTED BY RF-SCORE:    0.00 PKD
ROOT
HETATM    1  C   UNL     1      -9.750   7.430  73.345  1.00  0.00    -0.269 C  
HETATM    2  N   UNL     1     -11.148   7.083  73.546  1.00  0.00    -0.539 NA 
HETATM    3  H   UNL     1     -11.749   7.905  73.489  1.00  0.00     0.000 HD 
ENDROOT
BRANCH   2   4
HETATM    4  C   UNL     1     -11.580   6.033  72.608  1.00  0.00    -0.221 C  
BRANCH   4   5
HETATM    5  C   UNL     1     -12.364   6.636  71.413  1.00  0.00    -0.294 C  
HETATM    6  H   UNL     1     -13.533   8.187  71.117  1.00  0.00     0.000 HD 
HETATM    7  O   UNL     1     -13.052   7.817  71.848  1.00  0.00    -0.313 OA 
BRANCH   5   8
HETATM    8  C   UNL     1     -11.464   6.957  70.232  1.00  0.00    -0.373 A  
HETATM    9  C   UNL     1     -11.155   8.280  69.881  1.00  0.00    -0.100 A  
HETATM   10  C   UNL     1     -10.308   8.562  68.797  1.00  0.00    -0.213 A  
HETATM   11  C   UNL     1      -9.738   7.513  68.062  1.00  0.00    -0.146 A  
HETATM   12  C   UNL     1     -10.065   6.195  68.389  1.00  0.00    -0.186 A  
HETATM   13  C   UNL     1     -10.907   5.921  69.473  1.00  0.00    -0.442 A  
BRANCH  10  14
HETATM   14  O   UNL     1      -9.885   9.886  68.535  1.00  0.00    -0.150 OA 
BRANCH  14  15
HETATM   15  C   UNL     1     -10.715  10.750  67.804  1.00  0.00    -0.251 C  
HETATM   16  O   UNL     1     -11.896  10.951  68.048  1.00  0.00    -0.585 OA 
BRANCH  15  17
HETATM   17  C   UNL     1      -9.898  11.428  66.693  1.00  0.00    -0.233 C  
HETATM   18  C   UNL     1     -10.126  10.711  65.351  1.00  0.00    -0.356 C  
HETATM   19  C   UNL     1     -10.375  12.880  66.545  1.00  0.00    -0.272 C  
HETATM   20  C   UNL     1      -8.406  11.382  67.042  1.00  0.00    -0.161 C  
ENDBRANCH  15  17
ENDBRANCH  14  15
ENDBRANCH  10  14
BRANCH  11  21
HETATM   21  O   UNL     1      -8.898   7.811  66.958  1.00  0.00    -0.122 OA 
BRANCH  21  22
HETATM   22  C   UNL     1      -7.639   7.201  66.824  1.00  0.00    -0.093 C  
HETATM   23  O   UNL     1      -6.803   7.104  67.715  1.00  0.00    -0.068 OA 
BRANCH  22  24
HETATM   24  C   UNL     1      -7.420   6.683  65.393  1.00  0.00    -0.080 C  
HETATM   25  C   UNL     1      -8.343   5.474  65.139  1.00  0.00    -0.146 C  
HETATM   26  C   UNL     1      -7.767   7.770  64.367  1.00  0.00    -0.123 C  
HETATM   27  C   UNL     1      -5.964   6.236  65.235  1.00  0.00    -0.026 C  
ENDBRANCH  22  24
ENDBRANCH  21  22
ENDBRANCH  11  21
ENDBRANCH   5   8
ENDBRANCH   4   5
ENDBRANCH   2   4
TORSDOF 9
ENDMDL
MODEL      135
REMARK 921   NORMALIZED FREE ENERGY PREDICTED BY IDOCK:   -3.85 KCAL/MOL
REMARK 922        TOTAL FREE ENERGY PREDICTED BY IDOCK:   -7.16 KCAL/MOL
REMARK 923 INTER-LIGAND FREE ENERGY PREDICTED BY IDOCK:   -5.79 KCAL/MOL
REMARK 924 INTRA-LIGAND FREE ENERGY PREDICTED BY IDOCK:   -1.37 KCAL/MOL
REMARK 927      BINDING AFFINITY PREDICTED BY RF-SCORE:    0.00 PKD
ROOT
HETATM    1  C   UNL     1      -8.677   9.301  63.405  1.00  0.00    -0.177 C  
HETATM    2  N   UNL     1      -8.812   8.604  64.674  1.00  0.00    -0.412 NA 
HETATM    3  H   UNL     1      -7.915   8.242  64.999  1.00  0.00     0.000 HD 
ENDROOT
BRANCH   2   4
HETATM    4  C   UNL     1      -9.449   9.458  65.690  1.00  0.00    -0.262 C  
BRANCH   4   5
HETATM    5  C   UNL     1      -8.512   9.677  66.906  1.00  0.00    -0.120 C  
HETATM    6  H   UNL     1      -6.635   9.297  67.342  1.00  0.00     0.000 HD 
HETATM    7  O   UNL     1      -7.210   9.163  66.598  1.00  0.00    -0.084 OA 
BRANCH   5   8
HETATM    8  C   UNL     1      -8.418  11.139  67.309  1.00  0.00    -0.137 A  
HETATM    9  C   UNL     1      -9.368  12.081  66.887  1.00  0.00    -0.200 A  
HETATM   10  C   UNL     1      -9.278  13.426  67.281  1.00  0.00    -0.222 A  
HETATM   11  C   UNL     1      -8.240  13.839  68.128  1.00  0.00    -0.160 A  
HETATM   12  C   UNL     1      -7.276  12.912  68.529  1.00  0.00    -0.107 A  
HETATM   13  C   UNL     1      -7.373  11.573  68.135  1.00  0.00    -0.094 A  
BRANCH  10  14
HETATM   14  O   UNL     1     -10.312  14.341  66.973  1.00  0.00    -0.263 OA 
BRANCH  14  15
HETATM   15  C   UNL     1     -10.417  14.860  65.673  1.00  0.00    -0.349 C  
HETATM   16  O   UNL     1      -9.626  15.645  65.172  1.00  0.00    -0.255 OA 
BRANCH  15  17
HETATM   17  C   UNL     1     -11.644  14.251  64.977  1.00  0.00    -0.367 C  
HETATM   18  C   UNL     1     -12.348  15.313  64.113  1.00  0.00    -0.065 C  
HETATM   19  C   UNL     1     -11.176  13.119  64.052  1.00  0.00    -0.418 C  
HETATM   20  C   UNL     1     -12.629  13.721  66.025  1.00  0.00    -0.458 C  
ENDBRANCH  15  17
ENDBRANCH  14  15
ENDBRANCH  10  14
BRANCH  11  21
HETATM   21  O   UNL     1      -8.150  15.205  68.505  1.00  0.00    -0.133 OA 
BRANCH  21  22
HETATM   22  C   UNL     1      -7.474  16.134  67.694  1.00  0.00    -0.145 C  
HETATM   23  O   UNL     1      -6.565  15.862  66.917  1.00  0.00    -0.282 OA 
BRANCH  22  24
HETATM   24  C   UNL     1      -7.999  17.560  67.924  1.00  0.00    -0.227 C  
HETATM   25  C   UNL     1      -7.071  18.294  68.913  1.00  0.00    -0.286 C  
HETATM   26  C   UNL     1      -8.012  18.349  66.609  1.00  0.00    -0.278 C  
HETATM   27  C   UNL     1      -9.406  17.488  68.526  1.00  0.00    -0.286 C  
ENDBRANCH  22  24
ENDBRANCH  21  22
ENDBRANCH  11  21
ENDBRANCH   5   8
ENDBRANCH   4   5
ENDBRANCH   2   4
TORSDOF 9
ENDMDL
MODEL      136
REMARK 921   NORMALIZED FREE ENERGY PREDICTED BY IDOCK:   -3.85 KCAL/MOL
REMARK 922        TOTAL FREE ENERGY PREDICTED BY IDOCK:   -7.15 KCAL/MOL
REMARK 923 INTER-LIGAND FREE ENERGY PREDICTED BY IDOCK:   -6.05 KCAL/MOL
REMARK 924 INTRA-LIGAND FREE ENERGY PREDICTED BY IDOCK:   -1.10 KCAL/MOL
REMARK 927      BINDING AFFINITY PREDICTED BY RF-SCORE:    0.00 PKD
ROOT
HETATM    1  C   UNL     1     -10.347   5.360  69.337  1.00  0.00    -0.269 C  
HETATM    2  N   UNL     1     -10.568   5.325  70.773  1.00  0.00    -0.225 NA 
HETATM    3  H   UNL     1     -10.264   4.439  71.177  1.00  0.00     0.000 HD 
ENDROOT
BRANCH   2   4
HETATM    4  C   UNL     1      -9.927   6.470  71.442  1.00  0.00    -0.183 C  
BRANCH   4   5
HETATM    5  C   UNL     1     -10.982   7.498  71.928  1.00  0.00    -0.235 C  
HETATM    6  H   UNL     1     -11.413   8.402  73.617  1.00  0.00     0.000 HD 
HETATM    7  O   UNL     1     -10.768   7.772  73.319  1.00  0.00    -0.374 OA 
BRANCH   5   8
HETATM    8  C   UNL     1     -10.945   8.788  71.127  1.00  0.00    -0.334 A  
HETATM    9  C   UNL     1      -9.858   9.113  70.302  1.00  0.00    -0.245 A  
HETATM   10  C   UNL     1      -9.844  10.301  69.554  1.00  0.00    -0.220 A  
HETATM   11  C   UNL     1     -10.941  11.173  69.607  1.00  0.00    -0.192 A  
HETATM   12  C   UNL     1     -12.015  10.869  70.447  1.00  0.00    -0.453 A  
HETATM   13  C   UNL     1     -12.022   9.682  71.187  1.00  0.00    -0.452 A  
BRANCH  10  14
HETATM   14  O   UNL     1      -8.816  10.556  68.618  1.00  0.00    -0.132 OA 
BRANCH  14  15
HETATM   15  C   UNL     1      -7.733   9.667  68.515  1.00  0.00    -0.081 C  
HETATM   16  O   UNL     1      -7.781   8.573  67.971  1.00  0.00    -0.100 OA 
BRANCH  15  17
HETATM   17  C   UNL     1      -6.485  10.306  69.143  1.00  0.00    -0.050 C  
HETATM   18  C   UNL     1      -5.235   9.956  68.317  1.00  0.00    -0.036 C  
HETATM   19  C   UNL     1      -6.652  11.832  69.130  1.00  0.00    -0.102 C  
HETATM   20  C   UNL     1      -6.302   9.794  70.575  1.00  0.00    -0.100 C  
ENDBRANCH  15  17
ENDBRANCH  14  15
ENDBRANCH  10  14
BRANCH  11  21
HETATM   21  O   UNL     1     -10.909  12.379  68.860  1.00  0.00    -0.230 OA 
BRANCH  21  22
HETATM   22  C   UNL     1     -11.339  12.411  67.522  1.00  0.00    -0.315 C  
HETATM   23  O   UNL     1     -12.093  11.595  67.003  1.00  0.00    -0.547 OA 
BRANCH  22  24
HETATM   24  C   UNL     1     -10.719  13.597  66.765  1.00  0.00    -0.272 C  
HETATM   25  C   UNL     1      -9.231  13.728  67.149  1.00  0.00    -0.245 C  
HETATM   26  C   UNL     1     -10.801  13.374  65.250  1.00  0.00    -0.318 C  
HETATM   27  C   UNL     1     -11.447  14.885  67.163  1.00  0.00    -0.344 C  
ENDBRANCH  22  24
ENDBRANCH  21  22
ENDBRANCH  11  21
ENDBRANCH   5   8
ENDBRANCH   4   5
ENDBRANCH   2   4
TORSDOF 9
ENDMDL
MODEL      137
REMARK 921   NORMALIZED FREE ENERGY PREDICTED BY IDOCK:   -3.83 KCAL/MOL
REMARK 922        TOTAL FREE ENERGY PREDICTED BY IDOCK:   -7.12 KCAL/MOL
REMARK 923 INTER-LIGAND FREE ENERGY PREDICTED BY IDOCK:   -5.89 KCAL/MOL
REMARK 924 INTRA-LIGAND FREE ENERGY PREDICTED BY IDOCK:   -1.24 KCAL/MOL
REMARK 927      BINDING AFFINITY PREDICTED BY RF-SCORE:    0.00 PKD
ROOT
HETATM    1  C   UNL     1     -13.750  13.221  72.210  1.00  0.00    -0.589 C  
HETATM    2  N   UNL     1     -12.807  12.132  72.009  1.00  0.00    -0.237 NA 
HETATM    3  H   UNL     1     -12.298  11.915  72.866  1.00  0.00     0.000 HD 
ENDROOT
BRANCH   2   4
HETATM    4  C   UNL     1     -13.475  10.939  71.462  1.00  0.00    -0.040 C  
BRANCH   4   5
HETATM    5  C   UNL     1     -13.202   9.691  72.340  1.00  0.00    -0.327 C  
HETATM    6  H   UNL     1     -14.200   8.088  72.882  1.00  0.00     0.000 HD 
HETATM    7  O   UNL     1     -14.366   8.853  72.344  1.00  0.00    -0.513 OA 
BRANCH   5   8
HETATM    8  C   UNL     1     -11.991   8.905  71.870  1.00  0.00    -0.441 A  
HETATM    9  C   UNL     1     -11.377   9.166  70.636  1.00  0.00    -0.323 A  
HETATM   10  C   UNL     1     -10.247   8.443  70.222  1.00  0.00    -0.196 A  
HETATM   11  C   UNL     1      -9.701   7.458  71.056  1.00  0.00    -0.164 A  
HETATM   12  C   UNL     1     -10.324   7.173  72.273  1.00  0.00    -0.226 A  
HETATM   13  C   UNL     1     -11.448   7.900  72.682  1.00  0.00    -0.454 A  
BRANCH  10  14
HETATM   14  O   UNL     1      -9.547   8.805  69.047  1.00  0.00    -0.159 OA 
BRANCH  14  15
HETATM   15  C   UNL     1     -10.222   8.835  67.816  1.00  0.00    -0.228 C  
HETATM   16  O   UNL     1     -10.818   7.887  67.327  1.00  0.00    -0.272 OA 
BRANCH  15  17
HETATM   17  C   UNL     1     -10.132  10.248  67.218  1.00  0.00    -0.249 C  
HETATM   18  C   UNL     1      -9.830  10.170  65.712  1.00  0.00    -0.331 C  
HETATM   19  C   UNL     1     -11.488  10.946  67.396  1.00  0.00    -0.175 C  
HETATM   20  C   UNL     1      -9.021  11.040  67.915  1.00  0.00    -0.144 C  
ENDBRANCH  15  17
ENDBRANCH  14  15
ENDBRANCH  10  14
BRANCH  11  21
HETATM   21  O   UNL     1      -8.570   6.722  70.619  1.00  0.00    -0.139 OA 
BRANCH  21  22
HETATM   22  C   UNL     1      -8.669   5.349  70.330  1.00  0.00    -0.129 C  
HETATM   23  O   UNL     1      -8.976   4.479  71.138  1.00  0.00    -0.118 OA 
BRANCH  22  24
HETATM   24  C   UNL     1      -8.313   5.061  68.863  1.00  0.00    -0.083 C  
HETATM   25  C   UNL     1      -7.581   6.279  68.265  1.00  0.00    -0.099 C  
HETATM   26  C   UNL     1      -7.379   3.848  68.762  1.00  0.00    -0.054 C  
HETATM   27  C   UNL     1      -9.601   4.820  68.069  1.00  0.00    -0.199 C  
ENDBRANCH  22  24
ENDBRANCH  21  22
ENDBRANCH  11  21
ENDBRANCH   5   8
ENDBRANCH   4   5
ENDBRANCH   2   4
TORSDOF 9
ENDMDL
MODEL      138
REMARK 921   NORMALIZED FREE ENERGY PREDICTED BY IDOCK:   -3.82 KCAL/MOL
REMARK 922        TOTAL FREE ENERGY PREDICTED BY IDOCK:   -7.11 KCAL/MOL
REMARK 923 INTER-LIGAND FREE ENERGY PREDICTED BY IDOCK:   -5.76 KCAL/MOL
REMARK 924 INTRA-LIGAND FREE ENERGY PREDICTED BY IDOCK:   -1.36 KCAL/MOL
REMARK 927      BINDING AFFINITY PREDICTED BY RF-SCORE:    0.00 PKD
ROOT
HETATM    1  C   UNL     1      -7.443   7.184  69.526  1.00  0.00    -0.095 C  
HETATM    2  N   UNL     1      -7.423   8.563  69.987  1.00  0.00    -0.058 NA 
HETATM    3  H   UNL     1      -7.557   9.217  69.215  1.00  0.00     0.000 HD 
ENDROOT
BRANCH   2   4
HETATM    4  C   UNL     1      -8.407   8.784  71.059  1.00  0.00    -0.171 C  
BRANCH   4   5
HETATM    5  C   UNL     1      -9.839   8.414  70.592  1.00  0.00    -0.181 C  
HETATM    6  H   UNL     1     -11.597   8.190  71.438  1.00  0.00     0.000 HD 
HETATM    7  O   UNL     1     -10.720   8.416  71.723  1.00  0.00    -0.244 OA 
BRANCH   5   8
HETATM    8  C   UNL     1     -10.360   9.354  69.519  1.00  0.00    -0.223 A  
HETATM    9  C   UNL     1     -10.797  10.651  69.826  1.00  0.00    -0.317 A  
HETATM   10  C   UNL     1     -11.260  11.516  68.821  1.00  0.00    -0.249 A  
HETATM   11  C   UNL     1     -11.268  11.095  67.484  1.00  0.00    -0.301 A  
HETATM   12  C   UNL     1     -10.861   9.796  67.175  1.00  0.00    -0.207 A  
HETATM   13  C   UNL     1     -10.397   8.940  68.181  1.00  0.00    -0.261 A  
BRANCH  10  14
HETATM   14  O   UNL     1     -11.564  12.867  69.112  1.00  0.00    -0.285 OA 
BRANCH  14  15
HETATM   15  C   UNL     1     -10.567  13.847  68.986  1.00  0.00    -0.167 C  
HETATM   16  O   UNL     1      -9.373  13.613  68.867  1.00  0.00    -0.025 OA 
BRANCH  15  17
HETATM   17  C   UNL     1     -11.217  15.239  68.973  1.00  0.00    -0.287 C  
HETATM   18  C   UNL     1     -10.165  16.320  69.278  1.00  0.00    -0.269 C  
HETATM   19  C   UNL     1     -11.782  15.507  67.570  1.00  0.00    -0.006 C  
HETATM   20  C   UNL     1     -12.328  15.306  70.025  1.00  0.00    -0.366 C  
ENDBRANCH  15  17
ENDBRANCH  14  15
ENDBRANCH  10  14
BRANCH  11  21
HETATM   21  O   UNL     1     -11.755  11.972  66.480  1.00  0.00    -0.523 OA 
BRANCH  21  22
HETATM   22  C   UNL     1     -10.890  12.515  65.514  1.00  0.00    -0.278 C  
HETATM   23  O   UNL     1      -9.747  12.903  65.729  1.00  0.00    -0.236 OA 
BRANCH  22  24
HETATM   24  C   UNL     1     -11.569  12.591  64.137  1.00  0.00    -0.457 C  
HETATM   25  C   UNL     1     -12.895  11.803  64.176  1.00  0.00    -0.070 C  
HETATM   26  C   UNL     1     -11.891  14.046  63.773  1.00  0.00    -0.160 C  
HETATM   27  C   UNL     1     -10.651  11.961  63.086  1.00  0.00    -0.322 C  
ENDBRANCH  22  24
ENDBRANCH  21  22
ENDBRANCH  11  21
ENDBRANCH   5   8
ENDBRANCH   4   5
ENDBRANCH   2   4
TORSDOF 9
ENDMDL
MODEL      139
REMARK 921   NORMALIZED FREE ENERGY PREDICTED BY IDOCK:   -3.82 KCAL/MOL
REMARK 922        TOTAL FREE ENERGY PREDICTED BY IDOCK:   -7.10 KCAL/MOL
REMARK 923 INTER-LIGAND FREE ENERGY PREDICTED BY IDOCK:   -5.94 KCAL/MOL
REMARK 924 INTRA-LIGAND FREE ENERGY PREDICTED BY IDOCK:   -1.16 KCAL/MOL
REMARK 927      BINDING AFFINITY PREDICTED BY RF-SCORE:    0.00 PKD
ROOT
HETATM    1  C   UNL     1     -13.992  13.737  72.578  1.00  0.00    -0.466 C  
HETATM    2  N   UNL     1     -13.385  12.609  71.889  1.00  0.00    -0.451 NA 
HETATM    3  H   UNL     1     -13.938  11.760  72.003  1.00  0.00     0.000 HD 
ENDROOT
BRANCH   2   4
HETATM    4  C   UNL     1     -13.148  12.913  70.468  1.00  0.00     0.396 C  
BRANCH   4   5
HETATM    5  C   UNL     1     -11.999  12.045  69.892  1.00  0.00    -0.318 C  
HETATM    6  H   UNL     1     -11.855  10.400  68.829  1.00  0.00     0.000 HD 
HETATM    7  O   UNL     1     -12.559  10.932  69.182  1.00  0.00    -0.361 OA 
BRANCH   5   8
HETATM    8  C   UNL     1     -11.074  12.836  68.985  1.00  0.00    -0.285 A  
HETATM    9  C   UNL     1     -10.532  12.277  67.818  1.00  0.00    -0.225 A  
HETATM   10  C   UNL     1      -9.691  13.026  66.978  1.00  0.00    -0.235 A  
HETATM   11  C   UNL     1      -9.401  14.362  67.289  1.00  0.00    -0.208 A  
HETATM   12  C   UNL     1      -9.915  14.916  68.464  1.00  0.00    -0.223 A  
HETATM   13  C   UNL     1     -10.754  14.165  69.294  1.00  0.00    -0.170 A  
BRANCH  10  14
HETATM   14  O   UNL     1      -9.264  12.508  65.734  1.00  0.00    -0.059 OA 
BRANCH  14  15
HETATM   15  C   UNL     1      -8.566  11.290  65.689  1.00  0.00    -0.023 C  
HETATM   16  O   UNL     1      -7.495  11.083  66.241  1.00  0.00    -0.144 OA 
BRANCH  15  17
HETATM   17  C   UNL     1      -9.379  10.263  64.887  1.00  0.00    -0.306 C  
HETATM   18  C   UNL     1      -8.451   9.447  63.971  1.00  0.00    -0.203 C  
HETATM   19  C   UNL     1     -10.054   9.293  65.868  1.00  0.00    -0.188 C  
HETATM   20  C   UNL     1     -10.427  10.982  64.031  1.00  0.00    -0.433 C  
ENDBRANCH  15  17
ENDBRANCH  14  15
ENDBRANCH  10  14
BRANCH  11  21
HETATM   21  O   UNL     1      -8.536  15.102  66.443  1.00  0.00    -0.251 OA 
BRANCH  21  22
HETATM   22  C   UNL     1      -8.740  16.477  66.228  1.00  0.00    -0.333 C  
HETATM   23  O   UNL     1      -9.697  16.965  65.638  1.00  0.00    -0.538 OA 
BRANCH  22  24
HETATM   24  C   UNL     1      -7.583  17.308  66.808  1.00  0.00    -0.270 C  
HETATM   25  C   UNL     1      -6.862  18.049  65.664  1.00  0.00    -0.201 C  
HETATM   26  C   UNL     1      -8.113  18.357  67.794  1.00  0.00    -0.264 C  
HETATM   27  C   UNL     1      -6.586  16.373  67.498  1.00  0.00    -0.184 C  
ENDBRANCH  22  24
ENDBRANCH  21  22
ENDBRANCH  11  21
ENDBRANCH   5   8
ENDBRANCH   4   5
ENDBRANCH   2   4
TORSDOF 9
ENDMDL
MODEL      140
REMARK 921   NORMALIZED FREE ENERGY PREDICTED BY IDOCK:   -3.78 KCAL/MOL
REMARK 922        TOTAL FREE ENERGY PREDICTED BY IDOCK:   -7.05 KCAL/MOL
REMARK 923 INTER-LIGAND FREE ENERGY PREDICTED BY IDOCK:   -6.20 KCAL/MOL
REMARK 924 INTRA-LIGAND FREE ENERGY PREDICTED BY IDOCK:   -0.85 KCAL/MOL
REMARK 927      BINDING AFFINITY PREDICTED BY RF-SCORE:    0.00 PKD
ROOT
HETATM    1  C   UNL     1     -11.018   6.265  68.349  1.00  0.00    -0.325 C  
HETATM    2  N   UNL     1     -11.072   6.849  69.679  1.00  0.00    -0.378 NA 
HETATM    3  H   UNL     1     -11.381   6.169  70.374  1.00  0.00     0.000 HD 
ENDROOT
BRANCH   2   4
HETATM    4  C   UNL     1      -9.782   7.453  70.052  1.00  0.00    -0.175 C  
BRANCH   4   5
HETATM    5  C   UNL     1      -9.924   8.980  70.286  1.00  0.00    -0.195 C  
HETATM    6  H   UNL     1      -8.842  10.400  71.105  1.00  0.00     0.000 HD 
HETATM    7  O   UNL     1      -8.756   9.465  70.962  1.00  0.00    -0.261 OA 
BRANCH   5   8
HETATM    8  C   UNL     1     -10.139   9.747  68.993  1.00  0.00    -0.195 A  
HETATM    9  C   UNL     1      -9.217   9.684  67.938  1.00  0.00    -0.134 A  
HETATM   10  C   UNL     1      -9.437  10.385  66.741  1.00  0.00    -0.166 A  
HETATM   11  C   UNL     1     -10.604  11.144  66.578  1.00  0.00    -0.262 A  
HETATM   12  C   UNL     1     -11.513  11.233  67.635  1.00  0.00    -0.341 A  
HETATM   13  C   UNL     1     -11.289  10.529  68.824  1.00  0.00    -0.310 A  
BRANCH  10  14
HETATM   14  O   UNL     1      -8.580  10.206  65.630  1.00  0.00    -0.144 OA 
BRANCH  14  15
HETATM   15  C   UNL     1      -7.377   9.499  65.785  1.00  0.00    -0.097 C  
HETATM   16  O   UNL     1      -6.435   9.872  66.468  1.00  0.00    -0.068 OA 
BRANCH  15  17
HETATM   17  C   UNL     1      -7.457   8.176  65.007  1.00  0.00    -0.087 C  
HETATM   18  C   UNL     1      -8.290   7.147  65.792  1.00  0.00    -0.144 C  
HETATM   19  C   UNL     1      -8.159   8.434  63.666  1.00  0.00    -0.142 C  
HETATM   20  C   UNL     1      -6.048   7.618  64.781  1.00  0.00    -0.038 C  
ENDBRANCH  15  17
ENDBRANCH  14  15
ENDBRANCH  10  14
BRANCH  11  21
HETATM   21  O   UNL     1     -10.807  11.862  65.371  1.00  0.00    -0.279 OA 
BRANCH  21  22
HETATM   22  C   UNL     1     -11.943  12.670  65.194  1.00  0.00    -0.428 C  
HETATM   23  O   UNL     1     -13.042  12.270  64.825  1.00  0.00    -0.724 OA 
BRANCH  22  24
HETATM   24  C   UNL     1     -11.631  14.144  65.496  1.00  0.00    -0.337 C  
HETATM   25  C   UNL     1     -12.353  15.041  64.470  1.00  0.00    -0.276 C  
HETATM   26  C   UNL     1     -12.131  14.526  66.895  1.00  0.00    -0.309 C  
HETATM   27  C   UNL     1     -10.122  14.375  65.379  1.00  0.00    -0.388 C  
ENDBRANCH  22  24
ENDBRANCH  21  22
ENDBRANCH  11  21
ENDBRANCH   5   8
ENDBRANCH   4   5
ENDBRANCH   2   4
TORSDOF 9
ENDMDL
MODEL      141
REMARK 921   NORMALIZED FREE ENERGY PREDICTED BY IDOCK:   -3.77 KCAL/MOL
REMARK 922        TOTAL FREE ENERGY PREDICTED BY IDOCK:   -7.03 KCAL/MOL
REMARK 923 INTER-LIGAND FREE ENERGY PREDICTED BY IDOCK:   -6.16 KCAL/MOL
REMARK 924 INTRA-LIGAND FREE ENERGY PREDICTED BY IDOCK:   -0.88 KCAL/MOL
REMARK 927      BINDING AFFINITY PREDICTED BY RF-SCORE:    0.00 PKD
ROOT
HETATM    1  C   UNL     1     -10.852  13.409  64.125  1.00  0.00    -0.290 C  
HETATM    2  N   UNL     1      -9.824  13.010  65.072  1.00  0.00    -0.525 NA 
HETATM    3  H   UNL     1      -9.714  13.699  65.816  1.00  0.00     0.000 HD 
ENDROOT
BRANCH   2   4
HETATM    4  C   UNL     1     -10.086  11.667  65.613  1.00  0.00    -0.240 C  
BRANCH   4   5
HETATM    5  C   UNL     1     -10.709  11.745  67.032  1.00  0.00    -0.246 C  
HETATM    6  H   UNL     1     -12.442  12.262  67.798  1.00  0.00     0.000 HD 
HETATM    7  O   UNL     1     -12.060  12.214  66.929  1.00  0.00    -0.600 OA 
BRANCH   5   8
HETATM    8  C   UNL     1     -10.668  10.412  67.757  1.00  0.00    -0.327 A  
HETATM    9  C   UNL     1     -10.691   9.194  67.061  1.00  0.00    -0.189 A  
HETATM   10  C   UNL     1     -10.636   7.968  67.743  1.00  0.00    -0.170 A  
HETATM   11  C   UNL     1     -10.534   7.949  69.142  1.00  0.00    -0.209 A  
HETATM   12  C   UNL     1     -10.539   9.157  69.842  1.00  0.00    -0.246 A  
HETATM   13  C   UNL     1     -10.591  10.376  69.156  1.00  0.00    -0.255 A  
BRANCH  10  14
HETATM   14  O   UNL     1     -10.515   6.750  67.035  1.00  0.00    -0.235 OA 
BRANCH  14  15
HETATM   15  C   UNL     1      -9.245   6.298  66.640  1.00  0.00    -0.146 C  
HETATM   16  O   UNL     1      -8.233   6.984  66.639  1.00  0.00    -0.107 OA 
BRANCH  15  17
HETATM   17  C   UNL     1      -9.326   4.811  66.262  1.00  0.00    -0.149 C  
HETATM   18  C   UNL     1     -10.665   4.510  65.568  1.00  0.00    -0.170 C  
HETATM   19  C   UNL     1      -8.195   4.491  65.275  1.00  0.00    -0.112 C  
HETATM   20  C   UNL     1      -9.205   3.946  67.522  1.00  0.00    -0.203 C  
ENDBRANCH  15  17
ENDBRANCH  14  15
ENDBRANCH  10  14
BRANCH  11  21
HETATM   21  O   UNL     1     -10.497   6.704  69.821  1.00  0.00    -0.191 OA 
BRANCH  21  22
HETATM   22  C   UNL     1     -11.127   6.544  71.068  1.00  0.00    -0.288 C  
HETATM   23  O   UNL     1     -12.262   6.919  71.339  1.00  0.00    -0.335 OA 
BRANCH  22  24
HETATM   24  C   UNL     1     -10.195   5.854  72.078  1.00  0.00    -0.237 C  
HETATM   25  C   UNL     1      -9.860   4.434  71.578  1.00  0.00    -0.259 C  
HETATM   26  C   UNL     1      -8.880   6.632  72.218  1.00  0.00    -0.133 C  
HETATM   27  C   UNL     1     -10.907   5.748  73.430  1.00  0.00    -0.295 C  
ENDBRANCH  22  24
ENDBRANCH  21  22
ENDBRANCH  11  21
ENDBRANCH   5   8
ENDBRANCH   4   5
ENDBRANCH   2   4
TORSDOF 9
ENDMDL
MODEL      142
REMARK 921   NORMALIZED FREE ENERGY PREDICTED BY IDOCK:   -3.75 KCAL/MOL
REMARK 922        TOTAL FREE ENERGY PREDICTED BY IDOCK:   -7.01 KCAL/MOL
REMARK 923 INTER-LIGAND FREE ENERGY PREDICTED BY IDOCK:   -5.54 KCAL/MOL
REMARK 924 INTRA-LIGAND FREE ENERGY PREDICTED BY IDOCK:   -1.47 KCAL/MOL
REMARK 927      BINDING AFFINITY PREDICTED BY RF-SCORE:    0.00 PKD
ROOT
HETATM    1  C   UNL     1     -11.124   4.885  73.417  1.00  0.00    -0.342 C  
HETATM    2  N   UNL     1     -10.874   6.195  73.997  1.00  0.00    -0.373 NA 
HETATM    3  H   UNL     1      -9.945   6.247  74.416  1.00  0.00     0.000 HD 
ENDROOT
BRANCH   2   4
HETATM    4  C   UNL     1     -11.082   7.267  73.011  1.00  0.00    -0.317 C  
BRANCH   4   5
HETATM    5  C   UNL     1     -11.547   6.693  71.647  1.00  0.00    -0.304 C  
HETATM    6  H   UNL     1     -13.155   6.817  70.526  1.00  0.00     0.000 HD 
HETATM    7  O   UNL     1     -12.870   7.169  71.361  1.00  0.00    -0.376 OA 
BRANCH   5   8
HETATM    8  C   UNL     1     -10.603   7.053  70.514  1.00  0.00    -0.245 A  
HETATM    9  C   UNL     1     -10.816   8.182  69.709  1.00  0.00    -0.190 A  
HETATM   10  C   UNL     1      -9.925   8.513  68.675  1.00  0.00    -0.184 A  
HETATM   11  C   UNL     1      -8.789   7.724  68.450  1.00  0.00    -0.130 A  
HETATM   12  C   UNL     1      -8.586   6.583  69.230  1.00  0.00    -0.127 A  
HETATM   13  C   UNL     1      -9.476   6.261  70.261  1.00  0.00    -0.173 A  
BRANCH  10  14
HETATM   14  O   UNL     1     -10.064   9.726  67.960  1.00  0.00    -0.156 OA 
BRANCH  14  15
HETATM   15  C   UNL     1      -9.610  10.926  68.531  1.00  0.00    -0.187 C  
HETATM   16  O   UNL     1      -8.497  11.090  69.009  1.00  0.00    -0.147 OA 
BRANCH  15  17
HETATM   17  C   UNL     1     -10.706  11.996  68.412  1.00  0.00    -0.255 C  
HETATM   18  C   UNL     1     -10.080  13.402  68.413  1.00  0.00    -0.244 C  
HETATM   19  C   UNL     1     -11.442  11.803  67.079  1.00  0.00    -0.368 C  
HETATM   20  C   UNL     1     -11.680  11.877  69.589  1.00  0.00    -0.413 C  
ENDBRANCH  15  17
ENDBRANCH  14  15
ENDBRANCH  10  14
BRANCH  11  21
HETATM   21  O   UNL     1      -7.906   8.058  67.391  1.00  0.00    -0.113 OA 
BRANCH  21  22
HETATM   22  C   UNL     1      -8.242   7.777  66.055  1.00  0.00    -0.123 C  
HETATM   23  O   UNL     1      -8.702   6.715  65.652  1.00  0.00    -0.147 OA 
BRANCH  22  24
HETATM   24  C   UNL     1      -7.931   8.972  65.139  1.00  0.00    -0.119 C  
HETATM   25  C   UNL     1      -9.243   9.697  64.781  1.00  0.00    -0.298 C  
HETATM   26  C   UNL     1      -7.013   9.973  65.851  1.00  0.00    -0.113 C  
HETATM   27  C   UNL     1      -7.279   8.463  63.850  1.00  0.00    -0.094 C  
ENDBRANCH  22  24
ENDBRANCH  21  22
ENDBRANCH  11  21
ENDBRANCH   5   8
ENDBRANCH   4   5
ENDBRANCH   2   4
TORSDOF 9
ENDMDL
MODEL      143
REMARK 921   NORMALIZED FREE ENERGY PREDICTED BY IDOCK:   -3.74 KCAL/MOL
REMARK 922        TOTAL FREE ENERGY PREDICTED BY IDOCK:   -6.98 KCAL/MOL
REMARK 923 INTER-LIGAND FREE ENERGY PREDICTED BY IDOCK:   -5.64 KCAL/MOL
REMARK 924 INTRA-LIGAND FREE ENERGY PREDICTED BY IDOCK:   -1.34 KCAL/MOL
REMARK 927      BINDING AFFINITY PREDICTED BY RF-SCORE:    0.00 PKD
ROOT
HETATM    1  C   UNL     1     -13.098  10.158  71.535  1.00  0.00    -0.429 C  
HETATM    2  N   UNL     1     -12.866   8.911  72.247  1.00  0.00    -0.401 NA 
HETATM    3  H   UNL     1     -13.547   8.198  71.983  1.00  0.00     0.000 HD 
ENDROOT
BRANCH   2   4
HETATM    4  C   UNL     1     -11.486   8.436  72.059  1.00  0.00    -0.349 C  
BRANCH   4   5
HETATM    5  C   UNL     1     -11.453   6.917  71.747  1.00  0.00    -0.275 C  
HETATM    6  H   UNL     1     -12.757   5.450  71.682  1.00  0.00     0.000 HD 
HETATM    7  O   UNL     1     -12.777   6.380  71.873  1.00  0.00    -0.280 OA 
BRANCH   5   8
HETATM    8  C   UNL     1     -10.896   6.621  70.365  1.00  0.00    -0.316 A  
HETATM    9  C   UNL     1     -10.868   7.597  69.358  1.00  0.00    -0.136 A  
HETATM   10  C   UNL     1     -10.335   7.315  68.090  1.00  0.00    -0.194 A  
HETATM   11  C   UNL     1      -9.797   6.048  67.824  1.00  0.00    -0.119 A  
HETATM   12  C   UNL     1      -9.846   5.064  68.813  1.00  0.00    -0.236 A  
HETATM   13  C   UNL     1     -10.377   5.353  70.075  1.00  0.00    -0.366 A  
BRANCH  10  14
HETATM   14  O   UNL     1     -10.178   8.338  67.127  1.00  0.00    -0.237 OA 
BRANCH  14  15
HETATM   15  C   UNL     1      -9.250   9.368  67.350  1.00  0.00    -0.126 C  
HETATM   16  O   UNL     1      -8.125   9.205  67.799  1.00  0.00    -0.104 OA 
BRANCH  15  17
HETATM   17  C   UNL     1      -9.855  10.707  66.899  1.00  0.00    -0.228 C  
HETATM   18  C   UNL     1     -11.167  10.980  67.654  1.00  0.00    -0.373 C  
HETATM   19  C   UNL     1      -8.868  11.833  67.238  1.00  0.00    -0.167 C  
HETATM   20  C   UNL     1     -10.137  10.671  65.393  1.00  0.00    -0.356 C  
ENDBRANCH  15  17
ENDBRANCH  14  15
ENDBRANCH  10  14
BRANCH  11  21
HETATM   21  O   UNL     1      -9.276   5.769  66.533  1.00  0.00    -0.135 OA 
BRANCH  21  22
HETATM   22  C   UNL     1      -9.875   4.801  65.707  1.00  0.00    -0.199 C  
HETATM   23  O   UNL     1     -11.080   4.689  65.511  1.00  0.00    -0.200 OA 
BRANCH  22  24
HETATM   24  C   UNL     1      -8.821   3.867  65.091  1.00  0.00    -0.126 C  
HETATM   25  C   UNL     1      -8.689   4.168  63.584  1.00  0.00    -0.116 C  
HETATM   26  C   UNL     1      -7.451   4.092  65.743  1.00  0.00    -0.081 C  
HETATM   27  C   UNL     1      -9.272   2.413  65.267  1.00  0.00    -0.094 C  
ENDBRANCH  22  24
ENDBRANCH  21  22
ENDBRANCH  11  21
ENDBRANCH   5   8
ENDBRANCH   4   5
ENDBRANCH   2   4
TORSDOF 9
ENDMDL
MODEL      144
REMARK 921   NORMALIZED FREE ENERGY PREDICTED BY IDOCK:   -3.70 KCAL/MOL
REMARK 922        TOTAL FREE ENERGY PREDICTED BY IDOCK:   -6.92 KCAL/MOL
REMARK 923 INTER-LIGAND FREE ENERGY PREDICTED BY IDOCK:   -5.80 KCAL/MOL
REMARK 924 INTRA-LIGAND FREE ENERGY PREDICTED BY IDOCK:   -1.13 KCAL/MOL
REMARK 927      BINDING AFFINITY PREDICTED BY RF-SCORE:    0.00 PKD
ROOT
HETATM    1  C   UNL     1     -10.944   5.467  72.770  1.00  0.00    -0.277 C  
HETATM    2  N   UNL     1     -10.703   6.610  73.636  1.00  0.00    -0.465 NA 
HETATM    3  H   UNL     1      -9.719   6.683  73.893  1.00  0.00     0.000 HD 
ENDROOT
BRANCH   2   4
HETATM    4  C   UNL     1     -11.197   7.856  73.028  1.00  0.00    -0.283 C  
BRANCH   4   5
HETATM    5  C   UNL     1     -11.953   7.573  71.704  1.00  0.00    -0.302 C  
HETATM    6  H   UNL     1     -13.829   7.506  71.124  1.00  0.00     0.000 HD 
HETATM    7  O   UNL     1     -13.365   7.679  71.935  1.00  0.00    -0.308 OA 
BRANCH   5   8
HETATM    8  C   UNL     1     -11.532   8.509  70.584  1.00  0.00    -0.249 A  
HETATM    9  C   UNL     1     -10.858   8.040  69.447  1.00  0.00    -0.104 A  
HETATM   10  C   UNL     1     -10.489   8.914  68.411  1.00  0.00    -0.187 A  
HETATM   11  C   UNL     1     -10.817  10.275  68.494  1.00  0.00    -0.240 A  
HETATM   12  C   UNL     1     -11.463  10.753  69.636  1.00  0.00    -0.376 A  
HETATM   13  C   UNL     1     -11.830   9.876  70.663  1.00  0.00    -0.386 A  
BRANCH  10  14
HETATM   14  O   UNL     1      -9.939   8.418  67.207  1.00  0.00    -0.185 OA 
BRANCH  14  15
HETATM   15  C   UNL     1      -8.733   7.699  67.236  1.00  0.00    -0.124 C  
HETATM   16  O   UNL     1      -7.744   8.029  67.874  1.00  0.00    -0.109 OA 
BRANCH  15  17
HETATM   17  C   UNL     1      -8.876   6.425  66.389  1.00  0.00    -0.146 C  
HETATM   18  C   UNL     1      -8.172   5.245  67.081  1.00  0.00    -0.108 C  
HETATM   19  C   UNL     1     -10.367   6.082  66.260  1.00  0.00    -0.037 C  
HETATM   20  C   UNL     1      -8.250   6.645  65.008  1.00  0.00    -0.105 C  
ENDBRANCH  15  17
ENDBRANCH  14  15
ENDBRANCH  10  14
BRANCH  11  21
HETATM   21  O   UNL     1     -10.423  11.151  67.450  1.00  0.00    -0.201 OA 
BRANCH  21  22
HETATM   22  C   UNL     1      -9.674  12.309  67.723  1.00  0.00    -0.199 C  
HETATM   23  O   UNL     1      -8.567  12.325  68.249  1.00  0.00    -0.174 OA 
BRANCH  22  24
HETATM   24  C   UNL     1     -10.434  13.577  67.300  1.00  0.00    -0.248 C  
HETATM   25  C   UNL     1      -9.850  14.106  65.974  1.00  0.00    -0.329 C  
HETATM   26  C   UNL     1     -11.919  13.266  67.075  1.00  0.00    -0.419 C  
HETATM   27  C   UNL     1     -10.263  14.651  68.379  1.00  0.00    -0.235 C  
ENDBRANCH  22  24
ENDBRANCH  21  22
ENDBRANCH  11  21
ENDBRANCH   5   8
ENDBRANCH   4   5
ENDBRANCH   2   4
TORSDOF 9
ENDMDL
MODEL      145
REMARK 921   NORMALIZED FREE ENERGY PREDICTED BY IDOCK:   -3.70 KCAL/MOL
REMARK 922        TOTAL FREE ENERGY PREDICTED BY IDOCK:   -6.92 KCAL/MOL
REMARK 923 INTER-LIGAND FREE ENERGY PREDICTED BY IDOCK:   -5.62 KCAL/MOL
REMARK 924 INTRA-LIGAND FREE ENERGY PREDICTED BY IDOCK:   -1.30 KCAL/MOL
REMARK 927      BINDING AFFINITY PREDICTED BY RF-SCORE:    0.00 PKD
ROOT
HETATM    1  C   UNL     1     -13.078  11.162  71.691  1.00  0.00    -0.424 C  
HETATM    2  N   UNL     1     -12.979   9.716  71.571  1.00  0.00    -0.368 NA 
HETATM    3  H   UNL     1     -13.324   9.392  70.667  1.00  0.00     0.000 HD 
ENDROOT
BRANCH   2   4
HETATM    4  C   UNL     1     -11.606   9.250  71.824  1.00  0.00    -0.388 C  
BRANCH   4   5
HETATM    5  C   UNL     1     -11.359   7.859  71.183  1.00  0.00    -0.266 C  
HETATM    6  H   UNL     1     -12.409   6.228  70.877  1.00  0.00     0.000 HD 
HETATM    7  O   UNL     1     -12.560   7.080  71.269  1.00  0.00    -0.372 OA 
BRANCH   5   8
HETATM    8  C   UNL     1     -10.899   7.959  69.739  1.00  0.00    -0.202 A  
HETATM    9  C   UNL     1     -10.619   9.197  69.140  1.00  0.00    -0.224 A  
HETATM   10  C   UNL     1     -10.178   9.274  67.809  1.00  0.00    -0.218 A  
HETATM   11  C   UNL     1      -9.989   8.100  67.066  1.00  0.00    -0.259 A  
HETATM   12  C   UNL     1     -10.293   6.867  67.647  1.00  0.00    -0.260 A  
HETATM   13  C   UNL     1     -10.729   6.798  68.975  1.00  0.00    -0.280 A  
BRANCH  10  14
HETATM   14  O   UNL     1      -9.761  10.506  67.255  1.00  0.00    -0.164 OA 
BRANCH  14  15
HETATM   15  C   UNL     1      -9.158  11.470  68.078  1.00  0.00    -0.174 C  
HETATM   16  O   UNL     1      -8.203  11.259  68.811  1.00  0.00    -0.147 OA 
BRANCH  15  17
HETATM   17  C   UNL     1      -9.851  12.826  67.871  1.00  0.00    -0.223 C  
HETATM   18  C   UNL     1      -8.900  13.974  68.250  1.00  0.00    -0.184 C  
HETATM   19  C   UNL     1     -10.210  12.975  66.386  1.00  0.00    -0.283 C  
HETATM   20  C   UNL     1     -11.109  12.906  68.742  1.00  0.00    -0.305 C  
ENDBRANCH  15  17
ENDBRANCH  14  15
ENDBRANCH  10  14
BRANCH  11  21
HETATM   21  O   UNL     1      -9.560   8.192  65.716  1.00  0.00    -0.037 OA 
BRANCH  21  22
HETATM   22  C   UNL     1      -8.196   8.112  65.385  1.00  0.00    -0.146 C  
HETATM   23  O   UNL     1      -7.424   7.245  65.780  1.00  0.00    -0.079 OA 
BRANCH  22  24
HETATM   24  C   UNL     1      -7.774   9.277  64.475  1.00  0.00    -0.114 C  
HETATM   25  C   UNL     1      -6.907   8.736  63.320  1.00  0.00    -0.089 C  
HETATM   26  C   UNL     1      -9.006   9.960  63.866  1.00  0.00    -0.280 C  
HETATM   27  C   UNL     1      -6.947  10.278  65.288  1.00  0.00    -0.130 C  
ENDBRANCH  22  24
ENDBRANCH  21  22
ENDBRANCH  11  21
ENDBRANCH   5   8
ENDBRANCH   4   5
ENDBRANCH   2   4
TORSDOF 9
ENDMDL
MODEL      146
REMARK 921   NORMALIZED FREE ENERGY PREDICTED BY IDOCK:   -3.67 KCAL/MOL
REMARK 922        TOTAL FREE ENERGY PREDICTED BY IDOCK:   -6.89 KCAL/MOL
REMARK 923 INTER-LIGAND FREE ENERGY PREDICTED BY IDOCK:   -5.91 KCAL/MOL
REMARK 924 INTRA-LIGAND FREE ENERGY PREDICTED BY IDOCK:   -0.98 KCAL/MOL
REMARK 927      BINDING AFFINITY PREDICTED BY RF-SCORE:    0.00 PKD
ROOT
HETATM    1  C   UNL     1     -12.684  14.554  64.612  1.00  0.00    -0.042 C  
HETATM    2  N   UNL     1     -11.258  14.811  64.483  1.00  0.00    -0.617 NA 
HETATM    3  H   UNL     1     -10.915  15.401  65.240  1.00  0.00     0.000 HD 
ENDROOT
BRANCH   2   4
HETATM    4  C   UNL     1     -10.494  13.557  64.387  1.00  0.00    -0.346 C  
BRANCH   4   5
HETATM    5  C   UNL     1     -11.334  12.349  64.878  1.00  0.00    -0.317 C  
HETATM    6  H   UNL     1     -11.733  10.537  64.231  1.00  0.00     0.000 HD 
HETATM    7  O   UNL     1     -11.219  11.278  63.931  1.00  0.00    -0.356 OA 
BRANCH   5   8
HETATM    8  C   UNL     1     -10.915  11.875  66.259  1.00  0.00    -0.345 A  
HETATM    9  C   UNL     1     -10.916  12.739  67.365  1.00  0.00    -0.285 A  
HETATM   10  C   UNL     1     -10.543  12.284  68.640  1.00  0.00    -0.224 A  
HETATM   11  C   UNL     1     -10.185  10.941  68.826  1.00  0.00    -0.196 A  
HETATM   12  C   UNL     1     -10.155  10.083  67.725  1.00  0.00    -0.222 A  
HETATM   13  C   UNL     1     -10.531  10.543  66.458  1.00  0.00    -0.276 A  
BRANCH  10  14
HETATM   14  O   UNL     1     -10.681  13.116  69.775  1.00  0.00     0.275 OA 
BRANCH  14  15
HETATM   15  C   UNL     1     -11.715  14.066  69.819  1.00  0.00    -0.313 C  
HETATM   16  O   UNL     1     -12.903  13.796  69.922  1.00  0.00    -0.077 OA 
BRANCH  15  17
HETATM   17  C   UNL     1     -11.114  15.479  69.769  1.00  0.00    -0.300 C  
HETATM   18  C   UNL     1     -11.541  16.193  68.475  1.00  0.00    -0.265 C  
HETATM   19  C   UNL     1     -11.652  16.287  70.958  1.00  0.00    -0.343 C  
HETATM   20  C   UNL     1      -9.584  15.397  69.819  1.00  0.00    -0.190 C  
ENDBRANCH  15  17
ENDBRANCH  14  15
ENDBRANCH  10  14
BRANCH  11  21
HETATM   21  O   UNL     1      -9.793  10.498  70.116  1.00  0.00     0.051 OA 
BRANCH  21  22
HETATM   22  C   UNL     1      -9.285   9.201  70.310  1.00  0.00    -0.218 C  
HETATM   23  O   UNL     1      -8.244   8.771  69.825  1.00  0.00    -0.109 OA 
BRANCH  22  24
HETATM   24  C   UNL     1     -10.222   8.362  71.193  1.00  0.00    -0.254 C  
HETATM   25  C   UNL     1      -9.426   7.786  72.382  1.00  0.00    -0.234 C  
HETATM   26  C   UNL     1     -11.355   9.230  71.756  1.00  0.00    -0.437 C  
HETATM   27  C   UNL     1     -10.789   7.202  70.369  1.00  0.00    -0.269 C  
ENDBRANCH  22  24
ENDBRANCH  21  22
ENDBRANCH  11  21
ENDBRANCH   5   8
ENDBRANCH   4   5
ENDBRANCH   2   4
TORSDOF 9
ENDMDL
MODEL      147
REMARK 921   NORMALIZED FREE ENERGY PREDICTED BY IDOCK:   -3.65 KCAL/MOL
REMARK 922        TOTAL FREE ENERGY PREDICTED BY IDOCK:   -6.85 KCAL/MOL
REMARK 923 INTER-LIGAND FREE ENERGY PREDICTED BY IDOCK:   -5.51 KCAL/MOL
REMARK 924 INTRA-LIGAND FREE ENERGY PREDICTED BY IDOCK:   -1.34 KCAL/MOL
REMARK 927      BINDING AFFINITY PREDICTED BY RF-SCORE:    0.00 PKD
ROOT
HETATM    1  C   UNL     1      -8.190  13.456  67.631  1.00  0.00    -0.177 C  
HETATM    2  N   UNL     1      -7.310  12.674  66.778  1.00  0.00    -0.336 NA 
HETATM    3  H   UNL     1      -6.338  12.743  67.080  1.00  0.00     0.000 HD 
ENDROOT
BRANCH   2   4
HETATM    4  C   UNL     1      -7.751  11.272  66.694  1.00  0.00    -0.148 C  
BRANCH   4   5
HETATM    5  C   UNL     1      -9.298  11.172  66.646  1.00  0.00    -0.177 C  
HETATM    6  H   UNL     1     -10.671  11.024  65.249  1.00  0.00     0.000 HD 
HETATM    7  O   UNL     1      -9.723  11.086  65.279  1.00  0.00    -0.212 OA 
BRANCH   5   8
HETATM    8  C   UNL     1      -9.827   9.988  67.436  1.00  0.00    -0.226 A  
HETATM    9  C   UNL     1      -9.904   8.704  66.876  1.00  0.00    -0.305 A  
HETATM   10  C   UNL     1     -10.380   7.615  67.624  1.00  0.00    -0.237 A  
HETATM   11  C   UNL     1     -10.764   7.797  68.959  1.00  0.00    -0.103 A  
HETATM   12  C   UNL     1     -10.716   9.078  69.514  1.00  0.00    -0.215 A  
HETATM   13  C   UNL     1     -10.238  10.158  68.765  1.00  0.00    -0.200 A  
BRANCH  10  14
HETATM   14  O   UNL     1     -10.322   6.300  67.105  1.00  0.00    -0.171 OA 
BRANCH  14  15
HETATM   15  C   UNL     1      -9.104   5.602  67.111  1.00  0.00    -0.111 C  
HETATM   16  O   UNL     1      -8.090   5.980  67.680  1.00  0.00    -0.105 OA 
BRANCH  15  17
HETATM   17  C   UNL     1      -9.265   4.284  66.339  1.00  0.00    -0.150 C  
HETATM   18  C   UNL     1      -8.035   4.034  65.449  1.00  0.00    -0.093 C  
HETATM   19  C   UNL     1      -9.365   3.130  67.348  1.00  0.00    -0.232 C  
HETATM   20  C   UNL     1     -10.519   4.344  65.461  1.00  0.00    -0.228 C  
ENDBRANCH  15  17
ENDBRANCH  14  15
ENDBRANCH  10  14
BRANCH  11  21
HETATM   21  O   UNL     1     -11.260   6.692  69.699  1.00  0.00    -0.315 OA 
BRANCH  21  22
HETATM   22  C   UNL     1     -10.536   6.168  70.785  1.00  0.00    -0.242 C  
HETATM   23  O   UNL     1      -9.476   5.559  70.698  1.00  0.00    -0.157 OA 
BRANCH  22  24
HETATM   24  C   UNL     1     -11.262   6.429  72.115  1.00  0.00    -0.319 C  
HETATM   25  C   UNL     1     -11.129   5.188  73.022  1.00  0.00    -0.379 C  
HETATM   26  C   UNL     1     -10.634   7.622  72.847  1.00  0.00    -0.411 C  
HETATM   27  C   UNL     1     -12.746   6.683  71.839  1.00  0.00    -0.260 C  
ENDBRANCH  22  24
ENDBRANCH  21  22
ENDBRANCH  11  21
ENDBRANCH   5   8
ENDBRANCH   4   5
ENDBRANCH   2   4
TORSDOF 9
ENDMDL
MODEL      148
REMARK 921   NORMALIZED FREE ENERGY PREDICTED BY IDOCK:   -3.65 KCAL/MOL
REMARK 922        TOTAL FREE ENERGY PREDICTED BY IDOCK:   -6.85 KCAL/MOL
REMARK 923 INTER-LIGAND FREE ENERGY PREDICTED BY IDOCK:   -5.75 KCAL/MOL
REMARK 924 INTRA-LIGAND FREE ENERGY PREDICTED BY IDOCK:   -1.10 KCAL/MOL
REMARK 927      BINDING AFFINITY PREDICTED BY RF-SCORE:    0.00 PKD
ROOT
HETATM    1  C   UNL     1     -10.995   6.649  72.984  1.00  0.00    -0.247 C  
HETATM    2  N   UNL     1     -11.887   7.764  72.711  1.00  0.00    -0.598 NA 
HETATM    3  H   UNL     1     -12.441   8.009  73.532  1.00  0.00     0.000 HD 
ENDROOT
BRANCH   2   4
HETATM    4  C   UNL     1     -11.149   8.927  72.192  1.00  0.00    -0.285 C  
BRANCH   4   5
HETATM    5  C   UNL     1     -11.797   9.468  70.891  1.00  0.00    -0.309 C  
HETATM    6  H   UNL     1     -13.151  10.816  70.432  1.00  0.00     0.000 HD 
HETATM    7  O   UNL     1     -12.753  10.483  71.228  1.00  0.00    -0.356 OA 
BRANCH   5   8
HETATM    8  C   UNL     1     -10.770  10.016  69.916  1.00  0.00    -0.328 A  
HETATM    9  C   UNL     1     -11.036  11.143  69.123  1.00  0.00    -0.295 A  
HETATM   10  C   UNL     1     -10.071  11.649  68.237  1.00  0.00    -0.202 A  
HETATM   11  C   UNL     1      -8.811  11.040  68.153  1.00  0.00    -0.141 A  
HETATM   12  C   UNL     1      -8.550   9.902  68.919  1.00  0.00    -0.135 A  
HETATM   13  C   UNL     1      -9.515   9.405  69.801  1.00  0.00    -0.216 A  
BRANCH  10  14
HETATM   14  O   UNL     1     -10.288  12.864  67.548  1.00  0.00    -0.220 OA 
BRANCH  14  15
HETATM   15  C   UNL     1     -11.295  12.941  66.572  1.00  0.00    -0.318 C  
HETATM   16  O   UNL     1     -12.035  12.018  66.264  1.00  0.00    -0.596 OA 
BRANCH  15  17
HETATM   17  C   UNL     1     -11.346  14.366  66.000  1.00  0.00    -0.335 C  
HETATM   18  C   UNL     1     -12.302  14.422  64.796  1.00  0.00    -0.427 C  
HETATM   19  C   UNL     1     -11.887  15.313  67.081  1.00  0.00     0.054 C  
HETATM   20  C   UNL     1      -9.946  14.799  65.553  1.00  0.00    -0.390 C  
ENDBRANCH  15  17
ENDBRANCH  14  15
ENDBRANCH  10  14
BRANCH  11  21
HETATM   21  O   UNL     1      -7.850  11.550  67.241  1.00  0.00    -0.137 OA 
BRANCH  21  22
HETATM   22  C   UNL     1      -7.791  11.081  65.917  1.00  0.00    -0.034 C  
HETATM   23  O   UNL     1      -8.704  11.151  65.103  1.00  0.00    -0.121 OA 
BRANCH  22  24
HETATM   24  C   UNL     1      -6.430  10.432  65.617  1.00  0.00    -0.125 C  
HETATM   25  C   UNL     1      -5.389  10.929  66.640  1.00  0.00    -0.079 C  
HETATM   26  C   UNL     1      -6.521   8.905  65.734  1.00  0.00    -0.060 C  
HETATM   27  C   UNL     1      -5.976  10.840  64.212  1.00  0.00     0.152 C  
ENDBRANCH  22  24
ENDBRANCH  21  22
ENDBRANCH  11  21
ENDBRANCH   5   8
ENDBRANCH   4   5
ENDBRANCH   2   4
TORSDOF 9
ENDMDL
MODEL      149
REMARK 921   NORMALIZED FREE ENERGY PREDICTED BY IDOCK:   -3.65 KCAL/MOL
REMARK 922        TOTAL FREE ENERGY PREDICTED BY IDOCK:   -6.85 KCAL/MOL
REMARK 923 INTER-LIGAND FREE ENERGY PREDICTED BY IDOCK:   -6.57 KCAL/MOL
REMARK 924 INTRA-LIGAND FREE ENERGY PREDICTED BY IDOCK:   -0.27 KCAL/MOL
REMARK 927      BINDING AFFINITY PREDICTED BY RF-SCORE:    0.00 PKD
ROOT
HETATM    1  C   UNL     1      -9.397  13.556  66.634  1.00  0.00    -0.245 C  
HETATM    2  N   UNL     1     -10.459  14.550  66.650  1.00  0.00    -0.271 NA 
HETATM    3  H   UNL     1     -10.963  14.571  65.763  1.00  0.00     0.000 HD 
ENDROOT
BRANCH   2   4
HETATM    4  C   UNL     1     -11.372  14.341  67.785  1.00  0.00    -0.307 C  
BRANCH   4   5
HETATM    5  C   UNL     1     -12.274  13.099  67.559  1.00  0.00    -0.116 C  
HETATM    6  H   UNL     1     -13.057  12.172  66.014  1.00  0.00     0.000 HD 
HETATM    7  O   UNL     1     -12.505  12.933  66.153  1.00  0.00    -0.485 OA 
BRANCH   5   8
HETATM    8  C   UNL     1     -11.675  11.833  68.146  1.00  0.00    -0.377 A  
HETATM    9  C   UNL     1     -11.214  10.789  67.330  1.00  0.00    -0.315 A  
HETATM   10  C   UNL     1     -10.646   9.632  67.886  1.00  0.00    -0.255 A  
HETATM   11  C   UNL     1     -10.511   9.517  69.277  1.00  0.00    -0.212 A  
HETATM   12  C   UNL     1     -10.993  10.540  70.096  1.00  0.00    -0.338 A  
HETATM   13  C   UNL     1     -11.555  11.692  69.535  1.00  0.00    -0.397 A  
BRANCH  10  14
HETATM   14  O   UNL     1     -10.055   8.647  67.060  1.00  0.00    -0.218 OA 
BRANCH  14  15
HETATM   15  C   UNL     1      -9.279   9.039  65.957  1.00  0.00    -0.226 C  
HETATM   16  O   UNL     1      -9.718   9.595  64.961  1.00  0.00    -0.289 OA 
BRANCH  15  17
HETATM   17  C   UNL     1      -7.803   8.703  66.225  1.00  0.00    -0.102 C  
HETATM   18  C   UNL     1      -7.208   7.936  65.032  1.00  0.00    -0.062 C  
HETATM   19  C   UNL     1      -7.020  10.014  66.387  1.00  0.00    -0.101 C  
HETATM   20  C   UNL     1      -7.685   7.843  67.487  1.00  0.00    -0.117 C  
ENDBRANCH  15  17
ENDBRANCH  14  15
ENDBRANCH  10  14
BRANCH  11  21
HETATM   21  O   UNL     1      -9.952   8.334  69.827  1.00  0.00    -0.185 OA 
BRANCH  21  22
HETATM   22  C   UNL     1     -10.316   7.895  71.113  1.00  0.00    -0.200 C  
HETATM   23  O   UNL     1      -9.928   8.393  72.164  1.00  0.00    -0.247 OA 
BRANCH  22  24
HETATM   24  C   UNL     1     -11.251   6.677  71.042  1.00  0.00    -0.349 C  
HETATM   25  C   UNL     1     -12.695   7.122  71.350  1.00  0.00    -0.433 C  
HETATM   26  C   UNL     1     -11.233   6.064  69.636  1.00  0.00    -0.428 C  
HETATM   27  C   UNL     1     -10.817   5.646  72.087  1.00  0.00    -0.300 C  
ENDBRANCH  22  24
ENDBRANCH  21  22
ENDBRANCH  11  21
ENDBRANCH   5   8
ENDBRANCH   4   5
ENDBRANCH   2   4
TORSDOF 9
ENDMDL
MODEL      150
REMARK 921   NORMALIZED FREE ENERGY PREDICTED BY IDOCK:   -3.64 KCAL/MOL
REMARK 922        TOTAL FREE ENERGY PREDICTED BY IDOCK:   -6.83 KCAL/MOL
REMARK 923 INTER-LIGAND FREE ENERGY PREDICTED BY IDOCK:   -6.61 KCAL/MOL
REMARK 924 INTRA-LIGAND FREE ENERGY PREDICTED BY IDOCK:   -0.22 KCAL/MOL
REMARK 927      BINDING AFFINITY PREDICTED BY RF-SCORE:    0.00 PKD
ROOT
HETATM    1  C   UNL     1     -10.540  11.350  63.964  1.00  0.00    -0.383 C  
HETATM    2  N   UNL     1     -10.369  11.710  65.363  1.00  0.00    -0.256 NA 
HETATM    3  H   UNL     1      -9.522  11.297  65.753  1.00  0.00     0.000 HD 
ENDROOT
BRANCH   2   4
HETATM    4  C   UNL     1     -10.393  13.170  65.547  1.00  0.00    -0.290 C  
BRANCH   4   5
HETATM    5  C   UNL     1      -9.759  13.574  66.904  1.00  0.00    -0.261 C  
HETATM    6  H   UNL     1      -9.564  15.228  67.946  1.00  0.00     0.000 HD 
HETATM    7  O   UNL     1      -9.953  14.980  67.115  1.00  0.00    -0.234 OA 
BRANCH   5   8
HETATM    8  C   UNL     1     -10.329  12.785  68.069  1.00  0.00    -0.232 A  
HETATM    9  C   UNL     1     -11.457  13.228  68.777  1.00  0.00    -0.346 A  
HETATM   10  C   UNL     1     -11.984  12.479  69.841  1.00  0.00    -0.301 A  
HETATM   11  C   UNL     1     -11.397  11.257  70.195  1.00  0.00    -0.164 A  
HETATM   12  C   UNL     1     -10.258  10.824  69.513  1.00  0.00    -0.146 A  
HETATM   13  C   UNL     1      -9.739  11.573  68.451  1.00  0.00    -0.202 A  
BRANCH  10  14
HETATM   14  O   UNL     1     -13.200  12.854  70.458  1.00  0.00     0.271 OA 
BRANCH  14  15
HETATM   15  C   UNL     1     -13.191  13.351  71.771  1.00  0.00    -0.407 C  
HETATM   16  O   UNL     1     -13.288  12.662  72.776  1.00  0.00    -0.291 OA 
BRANCH  15  17
HETATM   17  C   UNL     1     -12.991  14.875  71.740  1.00  0.00    -0.417 C  
HETATM   18  C   UNL     1     -13.241  15.415  70.321  1.00  0.00    -0.010 C  
HETATM   19  C   UNL     1     -14.012  15.525  72.684  1.00  0.00    -0.617 C  
HETATM   20  C   UNL     1     -11.561  15.222  72.167  1.00  0.00    -0.535 C  
ENDBRANCH  15  17
ENDBRANCH  14  15
ENDBRANCH  10  14
BRANCH  11  21
HETATM   21  O   UNL     1     -11.928  10.518  71.285  1.00  0.00    -0.345 OA 
BRANCH  21  22
HETATM   22  C   UNL     1     -12.841   9.471  71.069  1.00  0.00    -0.221 C  
HETATM   23  O   UNL     1     -14.010   9.613  70.727  1.00  0.00    -0.042 OA 
BRANCH  22  24
HETATM   24  C   UNL     1     -12.197   8.103  71.346  1.00  0.00    -0.324 C  
HETATM   25  C   UNL     1     -11.166   8.244  72.485  1.00  0.00    -0.446 C  
HETATM   26  C   UNL     1     -13.257   7.086  71.787  1.00  0.00    -0.326 C  
HETATM   27  C   UNL     1     -11.476   7.620  70.084  1.00  0.00    -0.083 C  
ENDBRANCH  22  24
ENDBRANCH  21  22
ENDBRANCH  11  21
ENDBRANCH   5   8
ENDBRANCH   4   5
ENDBRANCH   2   4
TORSDOF 9
ENDMDL
MODEL      151
REMARK 921   NORMALIZED FREE ENERGY PREDICTED BY IDOCK:   -3.62 KCAL/MOL
REMARK 922        TOTAL FREE ENERGY PREDICTED BY IDOCK:   -6.80 KCAL/MOL
REMARK 923 INTER-LIGAND FREE ENERGY PREDICTED BY IDOCK:   -5.55 KCAL/MOL
REMARK 924 INTRA-LIGAND FREE ENERGY PREDICTED BY IDOCK:   -1.25 KCAL/MOL
REMARK 927      BINDING AFFINITY PREDICTED BY RF-SCORE:    0.00 PKD
ROOT
HETATM    1  C   UNL     1      -9.786  19.672  67.832  1.00  0.00    -0.374 C  
HETATM    2  N   UNL     1      -9.785  18.443  67.055  1.00  0.00    -0.299 NA 
HETATM    3  H   UNL     1      -8.849  18.041  66.994  1.00  0.00     0.000 HD 
ENDROOT
BRANCH   2   4
HETATM    4  C   UNL     1     -10.756  17.473  67.585  1.00  0.00    -0.306 C  
BRANCH   4   5
HETATM    5  C   UNL     1     -10.081  16.486  68.573  1.00  0.00    -0.255 C  
HETATM    6  H   UNL     1     -10.390  15.888  70.419  1.00  0.00     0.000 HD 
HETATM    7  O   UNL     1     -10.803  16.492  69.813  1.00  0.00    -0.331 OA 
BRANCH   5   8
HETATM    8  C   UNL     1     -10.002  15.074  68.019  1.00  0.00    -0.219 A  
HETATM    9  C   UNL     1     -10.212  13.951  68.833  1.00  0.00    -0.135 A  
HETATM   10  C   UNL     1     -10.152  12.652  68.304  1.00  0.00    -0.233 A  
HETATM   11  C   UNL     1      -9.904  12.463  66.937  1.00  0.00    -0.215 A  
HETATM   12  C   UNL     1      -9.666  13.576  66.127  1.00  0.00    -0.264 A  
HETATM   13  C   UNL     1      -9.730  14.868  66.661  1.00  0.00    -0.276 A  
BRANCH  10  14
HETATM   14  O   UNL     1     -10.504  11.532  69.093  1.00  0.00    -0.192 OA 
BRANCH  14  15
HETATM   15  C   UNL     1     -11.849  11.139  69.184  1.00  0.00    -0.350 C  
HETATM   16  O   UNL     1     -12.640  11.149  68.252  1.00  0.00     0.015 OA 
BRANCH  15  17
HETATM   17  C   UNL     1     -12.146  10.657  70.612  1.00  0.00    -0.461 C  
HETATM   18  C   UNL     1     -13.337   9.682  70.608  1.00  0.00     0.042 C  
HETATM   19  C   UNL     1     -10.918   9.906  71.145  1.00  0.00    -0.298 C  
HETATM   20  C   UNL     1     -12.479  11.854  71.508  1.00  0.00    -0.185 C  
ENDBRANCH  15  17
ENDBRANCH  14  15
ENDBRANCH  10  14
BRANCH  11  21
HETATM   21  O   UNL     1      -9.828  11.145  66.418  1.00  0.00    -0.200 OA 
BRANCH  21  22
HETATM   22  C   UNL     1      -8.638  10.401  66.506  1.00  0.00    -0.130 C  
HETATM   23  O   UNL     1      -7.507  10.874  66.476  1.00  0.00    -0.131 OA 
BRANCH  22  24
HETATM   24  C   UNL     1      -8.928   8.896  66.617  1.00  0.00    -0.165 C  
HETATM   25  C   UNL     1      -8.217   8.328  67.862  1.00  0.00    -0.128 C  
HETATM   26  C   UNL     1     -10.434   8.646  66.775  1.00  0.00    -0.298 C  
HETATM   27  C   UNL     1      -8.390   8.184  65.372  1.00  0.00    -0.163 C  
ENDBRANCH  22  24
ENDBRANCH  21  22
ENDBRANCH  11  21
ENDBRANCH   5   8
ENDBRANCH   4   5
ENDBRANCH   2   4
TORSDOF 9
ENDMDL
MODEL      152
REMARK 921   NORMALIZED FREE ENERGY PREDICTED BY IDOCK:   -3.60 KCAL/MOL
REMARK 922        TOTAL FREE ENERGY PREDICTED BY IDOCK:   -6.77 KCAL/MOL
REMARK 923 INTER-LIGAND FREE ENERGY PREDICTED BY IDOCK:   -6.16 KCAL/MOL
REMARK 924 INTRA-LIGAND FREE ENERGY PREDICTED BY IDOCK:   -0.60 KCAL/MOL
REMARK 927      BINDING AFFINITY PREDICTED BY RF-SCORE:    0.00 PKD
ROOT
HETATM    1  C   UNL     1     -10.462  16.035  65.684  1.00  0.00    -0.397 C  
HETATM    2  N   UNL     1      -9.365  15.167  66.082  1.00  0.00    -0.332 NA 
HETATM    3  H   UNL     1      -8.858  15.549  66.881  1.00  0.00     0.000 HD 
ENDROOT
BRANCH   2   4
HETATM    4  C   UNL     1      -9.834  13.797  66.346  1.00  0.00    -0.298 C  
BRANCH   4   5
HETATM    5  C   UNL     1      -9.954  13.527  67.869  1.00  0.00    -0.245 C  
HETATM    6  H   UNL     1     -11.350  13.705  69.239  1.00  0.00     0.000 HD 
HETATM    7  O   UNL     1     -11.276  13.870  68.306  1.00  0.00    -0.249 OA 
BRANCH   5   8
HETATM    8  C   UNL     1      -9.638  12.086  68.229  1.00  0.00    -0.204 A  
HETATM    9  C   UNL     1     -10.527  11.304  68.982  1.00  0.00    -0.221 A  
HETATM   10  C   UNL     1     -10.230   9.967  69.293  1.00  0.00    -0.214 A  
HETATM   11  C   UNL     1      -9.041   9.388  68.829  1.00  0.00    -0.132 A  
HETATM   12  C   UNL     1      -8.139  10.169  68.103  1.00  0.00    -0.105 A  
HETATM   13  C   UNL     1      -8.443  11.500  67.794  1.00  0.00    -0.137 A  
BRANCH  10  14
HETATM   14  O   UNL     1     -11.188   9.142  69.927  1.00  0.00    -0.206 OA 
BRANCH  14  15
HETATM   15  C   UNL     1     -12.070   9.696  70.869  1.00  0.00    -0.300 C  
HETATM   16  O   UNL     1     -12.420  10.867  70.889  1.00  0.00    -0.343 OA 
BRANCH  15  17
HETATM   17  C   UNL     1     -12.553   8.596  71.827  1.00  0.00    -0.396 C  
HETATM   18  C   UNL     1     -13.728   9.109  72.677  1.00  0.00    -0.416 C  
HETATM   19  C   UNL     1     -13.050   7.403  70.998  1.00  0.00    -0.184 C  
HETATM   20  C   UNL     1     -11.408   8.171  72.753  1.00  0.00    -0.406 C  
ENDBRANCH  15  17
ENDBRANCH  14  15
ENDBRANCH  10  14
BRANCH  11  21
HETATM   21  O   UNL     1      -8.744   8.042  69.166  1.00  0.00    -0.136 OA 
BRANCH  21  22
HETATM   22  C   UNL     1      -8.757   7.033  68.186  1.00  0.00    -0.127 C  
HETATM   23  O   UNL     1      -7.988   6.964  67.234  1.00  0.00    -0.111 OA 
BRANCH  22  24
HETATM   24  C   UNL     1      -9.890   6.025  68.439  1.00  0.00    -0.152 C  
HETATM   25  C   UNL     1      -9.462   4.635  67.927  1.00  0.00    -0.194 C  
HETATM   26  C   UNL     1     -10.184   5.909  69.940  1.00  0.00    -0.280 C  
HETATM   27  C   UNL     1     -11.141   6.470  67.676  1.00  0.00    -0.380 C  
ENDBRANCH  22  24
ENDBRANCH  21  22
ENDBRANCH  11  21
ENDBRANCH   5   8
ENDBRANCH   4   5
ENDBRANCH   2   4
TORSDOF 9
ENDMDL
MODEL      153
REMARK 921   NORMALIZED FREE ENERGY PREDICTED BY IDOCK:   -3.59 KCAL/MOL
REMARK 922        TOTAL FREE ENERGY PREDICTED BY IDOCK:   -6.76 KCAL/MOL
REMARK 923 INTER-LIGAND FREE ENERGY PREDICTED BY IDOCK:   -5.81 KCAL/MOL
REMARK 924 INTRA-LIGAND FREE ENERGY PREDICTED BY IDOCK:   -0.94 KCAL/MOL
REMARK 927      BINDING AFFINITY PREDICTED BY RF-SCORE:    0.00 PKD
ROOT
HETATM    1  C   UNL     1     -10.567  13.753  64.361  1.00  0.00    -0.295 C  
HETATM    2  N   UNL     1      -9.847  13.624  65.617  1.00  0.00    -0.466 NA 
HETATM    3  H   UNL     1     -10.246  14.225  66.340  1.00  0.00     0.000 HD 
ENDROOT
BRANCH   2   4
HETATM    4  C   UNL     1      -9.782  12.221  66.057  1.00  0.00    -0.242 C  
BRANCH   4   5
HETATM    5  C   UNL     1     -10.727  11.966  67.261  1.00  0.00    -0.236 C  
HETATM    6  H   UNL     1     -12.660  11.750  67.530  1.00  0.00     0.000 HD 
HETATM    7  O   UNL     1     -12.081  11.906  66.793  1.00  0.00    -0.593 OA 
BRANCH   5   8
HETATM    8  C   UNL     1     -10.375  10.695  68.014  1.00  0.00    -0.208 A  
HETATM    9  C   UNL     1     -10.428   9.435  67.399  1.00  0.00    -0.343 A  
HETATM   10  C   UNL     1     -10.084   8.270  68.103  1.00  0.00    -0.200 A  
HETATM   11  C   UNL     1      -9.656   8.358  69.435  1.00  0.00    -0.170 A  
HETATM   12  C   UNL     1      -9.627   9.606  70.062  1.00  0.00    -0.281 A  
HETATM   13  C   UNL     1      -9.969  10.763  69.353  1.00  0.00    -0.137 A  
BRANCH  10  14
HETATM   14  O   UNL     1     -10.001   7.023  67.442  1.00  0.00    -0.145 OA 
BRANCH  14  15
HETATM   15  C   UNL     1      -8.801   6.643  66.819  1.00  0.00    -0.130 C  
HETATM   16  O   UNL     1      -8.142   7.363  66.083  1.00  0.00    -0.106 OA 
BRANCH  15  17
HETATM   17  C   UNL     1      -8.432   5.215  67.248  1.00  0.00    -0.106 C  
HETATM   18  C   UNL     1      -9.664   4.498  67.827  1.00  0.00    -0.199 C  
HETATM   19  C   UNL     1      -7.964   4.434  66.011  1.00  0.00    -0.099 C  
HETATM   20  C   UNL     1      -7.328   5.258  68.309  1.00  0.00    -0.072 C  
ENDBRANCH  15  17
ENDBRANCH  14  15
ENDBRANCH  10  14
BRANCH  11  21
HETATM   21  O   UNL     1      -9.327   7.172  70.141  1.00  0.00    -0.159 OA 
BRANCH  21  22
HETATM   22  C   UNL     1      -9.456   7.106  71.540  1.00  0.00    -0.157 C  
HETATM   23  O   UNL     1      -8.550   7.303  72.342  1.00  0.00    -0.114 OA 
BRANCH  22  24
HETATM   24  C   UNL     1     -10.886   6.722  71.950  1.00  0.00    -0.261 C  
HETATM   25  C   UNL     1     -10.834   5.562  72.965  1.00  0.00    -0.316 C  
HETATM   26  C   UNL     1     -11.593   7.908  72.619  1.00  0.00    -0.435 C  
HETATM   27  C   UNL     1     -11.660   6.260  70.711  1.00  0.00    -0.347 C  
ENDBRANCH  22  24
ENDBRANCH  21  22
ENDBRANCH  11  21
ENDBRANCH   5   8
ENDBRANCH   4   5
ENDBRANCH   2   4
TORSDOF 9
ENDMDL
MODEL      154
REMARK 921   NORMALIZED FREE ENERGY PREDICTED BY IDOCK:   -3.59 KCAL/MOL
REMARK 922        TOTAL FREE ENERGY PREDICTED BY IDOCK:   -6.75 KCAL/MOL
REMARK 923 INTER-LIGAND FREE ENERGY PREDICTED BY IDOCK:   -5.85 KCAL/MOL
REMARK 924 INTRA-LIGAND FREE ENERGY PREDICTED BY IDOCK:   -0.90 KCAL/MOL
REMARK 927      BINDING AFFINITY PREDICTED BY RF-SCORE:    0.00 PKD
ROOT
HETATM    1  C   UNL     1     -11.851  13.763  70.282  1.00  0.00    -0.272 C  
HETATM    2  N   UNL     1     -11.846  13.015  69.036  1.00  0.00    -0.317 NA 
HETATM    3  H   UNL     1     -10.941  13.074  68.568  1.00  0.00     0.000 HD 
ENDROOT
BRANCH   2   4
HETATM    4  C   UNL     1     -12.254  11.616  69.248  1.00  0.00    -0.164 C  
BRANCH   4   5
HETATM    5  C   UNL     1     -12.035  11.186  70.722  1.00  0.00    -0.312 C  
HETATM    6  H   UNL     1     -13.076  11.233  72.387  1.00  0.00     0.000 HD 
HETATM    7  O   UNL     1     -13.210  11.497  71.484  1.00  0.00    -0.372 OA 
BRANCH   5   8
HETATM    8  C   UNL     1     -11.701   9.710  70.851  1.00  0.00    -0.412 A  
HETATM    9  C   UNL     1     -10.916   9.046  69.896  1.00  0.00    -0.204 A  
HETATM   10  C   UNL     1     -10.601   7.685  70.037  1.00  0.00    -0.238 A  
HETATM   11  C   UNL     1     -11.053   6.974  71.158  1.00  0.00    -0.258 A  
HETATM   12  C   UNL     1     -11.858   7.622  72.097  1.00  0.00    -0.352 A  
HETATM   13  C   UNL     1     -12.166   8.979  71.952  1.00  0.00    -0.451 A  
BRANCH  10  14
HETATM   14  O   UNL     1      -9.694   7.057  69.152  1.00  0.00    -0.155 OA 
BRANCH  14  15
HETATM   15  C   UNL     1     -10.117   6.698  67.862  1.00  0.00    -0.150 C  
HETATM   16  O   UNL     1     -11.274   6.455  67.552  1.00  0.00    -0.347 OA 
BRANCH  15  17
HETATM   17  C   UNL     1      -8.913   6.709  66.907  1.00  0.00    -0.131 C  
HETATM   18  C   UNL     1      -7.599   6.674  67.707  1.00  0.00    -0.106 C  
HETATM   19  C   UNL     1      -8.968   5.451  66.028  1.00  0.00    -0.147 C  
HETATM   20  C   UNL     1      -8.944   7.974  66.043  1.00  0.00    -0.205 C  
ENDBRANCH  15  17
ENDBRANCH  14  15
ENDBRANCH  10  14
BRANCH  11  21
HETATM   21  O   UNL     1     -10.742   5.595  71.280  1.00  0.00    -0.250 OA 
BRANCH  21  22
HETATM   22  C   UNL     1      -9.552   5.175  71.900  1.00  0.00    -0.150 C  
HETATM   23  O   UNL     1      -8.920   5.824  72.726  1.00  0.00    -0.128 OA 
BRANCH  22  24
HETATM   24  C   UNL     1      -9.115   3.793  71.388  1.00  0.00    -0.177 C  
HETATM   25  C   UNL     1      -9.850   2.696  72.184  1.00  0.00    -0.235 C  
HETATM   26  C   UNL     1      -9.475   3.627  69.906  1.00  0.00    -0.262 C  
HETATM   27  C   UNL     1      -7.606   3.631  71.599  1.00  0.00    -0.053 C  
ENDBRANCH  22  24
ENDBRANCH  21  22
ENDBRANCH  11  21
ENDBRANCH   5   8
ENDBRANCH   4   5
ENDBRANCH   2   4
TORSDOF 9
ENDMDL
MODEL      155
REMARK 921   NORMALIZED FREE ENERGY PREDICTED BY IDOCK:   -3.58 KCAL/MOL
REMARK 922        TOTAL FREE ENERGY PREDICTED BY IDOCK:   -6.74 KCAL/MOL
REMARK 923 INTER-LIGAND FREE ENERGY PREDICTED BY IDOCK:   -5.59 KCAL/MOL
REMARK 924 INTRA-LIGAND FREE ENERGY PREDICTED BY IDOCK:   -1.15 KCAL/MOL
REMARK 927      BINDING AFFINITY PREDICTED BY RF-SCORE:    0.00 PKD
ROOT
HETATM    1  C   UNL     1     -10.162   5.998  74.306  1.00  0.00    -0.302 C  
HETATM    2  N   UNL     1     -10.933   6.971  73.550  1.00  0.00    -0.556 NA 
HETATM    3  H   UNL     1     -11.012   7.856  74.052  1.00  0.00     0.000 HD 
ENDROOT
BRANCH   2   4
HETATM    4  C   UNL     1     -10.377   7.164  72.201  1.00  0.00    -0.195 C  
BRANCH   4   5
HETATM    5  C   UNL     1     -11.488   7.096  71.121  1.00  0.00    -0.290 C  
HETATM    6  H   UNL     1     -12.813   8.332  70.363  1.00  0.00     0.000 HD 
HETATM    7  O   UNL     1     -12.132   8.374  71.024  1.00  0.00    -0.279 OA 
BRANCH   5   8
HETATM    8  C   UNL     1     -10.953   6.673  69.764  1.00  0.00    -0.367 A  
HETATM    9  C   UNL     1     -10.932   7.556  68.674  1.00  0.00     0.058 A  
HETATM   10  C   UNL     1     -10.418   7.158  67.429  1.00  0.00    -0.284 A  
HETATM   11  C   UNL     1      -9.894   5.867  67.269  1.00  0.00    -0.138 A  
HETATM   12  C   UNL     1      -9.938   4.975  68.342  1.00  0.00    -0.202 A  
HETATM   13  C   UNL     1     -10.448   5.379  69.581  1.00  0.00    -0.361 A  
BRANCH  10  14
HETATM   14  O   UNL     1     -10.267   8.090  66.376  1.00  0.00    -0.220 OA 
BRANCH  14  15
HETATM   15  C   UNL     1      -9.210   9.014  66.412  1.00  0.00    -0.188 C  
HETATM   16  O   UNL     1      -8.042   8.726  66.626  1.00  0.00    -0.102 OA 
BRANCH  15  17
HETATM   17  C   UNL     1      -9.747  10.418  66.093  1.00  0.00    -0.262 C  
HETATM   18  C   UNL     1      -8.668  11.477  66.375  1.00  0.00    -0.179 C  
HETATM   19  C   UNL     1     -10.101  10.484  64.601  1.00  0.00    -0.408 C  
HETATM   20  C   UNL     1     -10.980  10.712  66.955  1.00  0.00    -0.274 C  
ENDBRANCH  15  17
ENDBRANCH  14  15
ENDBRANCH  10  14
BRANCH  11  21
HETATM   21  O   UNL     1      -9.394   5.470  66.001  1.00  0.00    -0.159 OA 
BRANCH  21  22
HETATM   22  C   UNL     1      -9.923   4.350  65.336  1.00  0.00    -0.218 C  
HETATM   23  O   UNL     1     -11.076   4.248  64.933  1.00  0.00    -0.238 OA 
BRANCH  22  24
HETATM   24  C   UNL     1      -8.871   3.238  65.195  1.00  0.00    -0.130 C  
HETATM   25  C   UNL     1      -9.032   2.232  66.353  1.00  0.00    -0.118 C  
HETATM   26  C   UNL     1      -9.060   2.479  63.876  1.00  0.00    -0.103 C  
HETATM   27  C   UNL     1      -7.471   3.856  65.268  1.00  0.00    -0.080 C  
ENDBRANCH  22  24
ENDBRANCH  21  22
ENDBRANCH  11  21
ENDBRANCH   5   8
ENDBRANCH   4   5
ENDBRANCH   2   4
TORSDOF 9
ENDMDL
MODEL      156
REMARK 921   NORMALIZED FREE ENERGY PREDICTED BY IDOCK:   -3.58 KCAL/MOL
REMARK 922        TOTAL FREE ENERGY PREDICTED BY IDOCK:   -6.73 KCAL/MOL
REMARK 923 INTER-LIGAND FREE ENERGY PREDICTED BY IDOCK:   -5.33 KCAL/MOL
REMARK 924 INTRA-LIGAND FREE ENERGY PREDICTED BY IDOCK:   -1.41 KCAL/MOL
REMARK 927      BINDING AFFINITY PREDICTED BY RF-SCORE:    0.00 PKD
ROOT
HETATM    1  C   UNL     1     -10.467   5.703  73.881  1.00  0.00    -0.277 C  
HETATM    2  N   UNL     1     -10.721   7.119  74.091  1.00  0.00    -0.541 NA 
HETATM    3  H   UNL     1      -9.938   7.574  74.560  1.00  0.00     0.000 HD 
ENDROOT
BRANCH   2   4
HETATM    4  C   UNL     1     -11.061   7.796  72.828  1.00  0.00    -0.398 C  
BRANCH   4   5
HETATM    5  C   UNL     1     -11.501   6.776  71.746  1.00  0.00    -0.281 C  
HETATM    6  H   UNL     1     -13.199   6.186  70.954  1.00  0.00     0.000 HD 
HETATM    7  O   UNL     1     -12.929   6.810  71.617  1.00  0.00    -0.345 OA 
BRANCH   5   8
HETATM    8  C   UNL     1     -10.846   7.039  70.401  1.00  0.00    -0.283 A  
HETATM    9  C   UNL     1      -9.712   7.856  70.282  1.00  0.00    -0.183 A  
HETATM   10  C   UNL     1      -9.106   8.077  69.035  1.00  0.00    -0.144 A  
HETATM   11  C   UNL     1      -9.620   7.457  67.887  1.00  0.00    -0.141 A  
HETATM   12  C   UNL     1     -10.765   6.665  67.995  1.00  0.00    -0.330 A  
HETATM   13  C   UNL     1     -11.362   6.447  69.241  1.00  0.00    -0.405 A  
BRANCH  10  14
HETATM   14  O   UNL     1      -7.884   8.783  68.938  1.00  0.00    -0.100 OA 
BRANCH  14  15
HETATM   15  C   UNL     1      -7.877  10.182  69.056  1.00  0.00    -0.107 C  
HETATM   16  O   UNL     1      -8.851  10.899  68.876  1.00  0.00    -0.163 OA 
BRANCH  15  17
HETATM   17  C   UNL     1      -6.480  10.653  69.489  1.00  0.00    -0.078 C  
HETATM   18  C   UNL     1      -6.103  10.026  70.842  1.00  0.00    -0.069 C  
HETATM   19  C   UNL     1      -5.456  10.184  68.445  1.00  0.00    -0.038 C  
HETATM   20  C   UNL     1      -6.460  12.179  69.617  1.00  0.00    -0.082 C  
ENDBRANCH  15  17
ENDBRANCH  14  15
ENDBRANCH  10  14
BRANCH  11  21
HETATM   21  O   UNL     1      -9.010   7.703  66.630  1.00  0.00    -0.141 OA 
BRANCH  21  22
HETATM   22  C   UNL     1      -9.322   8.856  65.889  1.00  0.00    -0.236 C  
HETATM   23  O   UNL     1     -10.284   9.588  66.095  1.00  0.00    -0.273 OA 
BRANCH  22  24
HETATM   24  C   UNL     1      -8.312   9.079  64.752  1.00  0.00    -0.181 C  
HETATM   25  C   UNL     1      -7.188  10.015  65.241  1.00  0.00    -0.137 C  
HETATM   26  C   UNL     1      -7.672   7.749  64.330  1.00  0.00    -0.124 C  
HETATM   27  C   UNL     1      -9.023   9.737  63.566  1.00  0.00    -0.272 C  
ENDBRANCH  22  24
ENDBRANCH  21  22
ENDBRANCH  11  21
ENDBRANCH   5   8
ENDBRANCH   4   5
ENDBRANCH   2   4
TORSDOF 9
ENDMDL
MODEL      157
REMARK 921   NORMALIZED FREE ENERGY PREDICTED BY IDOCK:   -3.57 KCAL/MOL
REMARK 922        TOTAL FREE ENERGY PREDICTED BY IDOCK:   -6.72 KCAL/MOL
REMARK 923 INTER-LIGAND FREE ENERGY PREDICTED BY IDOCK:   -5.77 KCAL/MOL
REMARK 924 INTRA-LIGAND FREE ENERGY PREDICTED BY IDOCK:   -0.96 KCAL/MOL
REMARK 927      BINDING AFFINITY PREDICTED BY RF-SCORE:    0.00 PKD
ROOT
HETATM    1  C   UNL     1     -12.849  11.846  63.218  1.00  0.00    -0.161 C  
HETATM    2  N   UNL     1     -12.641  13.041  64.020  1.00  0.00    -0.674 NA 
HETATM    3  H   UNL     1     -13.266  13.064  64.826  1.00  0.00     0.000 HD 
ENDROOT
BRANCH   2   4
HETATM    4  C   UNL     1     -11.232  13.176  64.426  1.00  0.00    -0.371 C  
BRANCH   4   5
HETATM    5  C   UNL     1     -11.008  12.636  65.862  1.00  0.00    -0.278 C  
HETATM    6  H   UNL     1     -12.136  12.207  67.413  1.00  0.00     0.000 HD 
HETATM    7  O   UNL     1     -12.273  12.538  66.533  1.00  0.00    -0.569 OA 
BRANCH   5   8
HETATM    8  C   UNL     1     -10.303  11.291  65.872  1.00  0.00    -0.304 A  
HETATM    9  C   UNL     1     -10.311  10.464  67.006  1.00  0.00    -0.295 A  
HETATM   10  C   UNL     1      -9.669   9.215  66.996  1.00  0.00    -0.188 A  
HETATM   11  C   UNL     1      -9.028   8.767  65.833  1.00  0.00    -0.195 A  
HETATM   12  C   UNL     1      -8.993   9.597  64.710  1.00  0.00    -0.268 A  
HETATM   13  C   UNL     1      -9.637  10.839  64.726  1.00  0.00    -0.314 A  
BRANCH  10  14
HETATM   14  O   UNL     1      -9.799   8.325  68.088  1.00  0.00    -0.161 OA 
BRANCH  14  15
HETATM   15  C   UNL     1     -10.519   7.130  67.929  1.00  0.00    -0.212 C  
HETATM   16  O   UNL     1     -11.262   6.886  66.990  1.00  0.00    -0.369 OA 
BRANCH  15  17
HETATM   17  C   UNL     1     -10.185   6.175  69.086  1.00  0.00    -0.242 C  
HETATM   18  C   UNL     1     -11.290   6.229  70.156  1.00  0.00    -0.476 C  
HETATM   19  C   UNL     1     -10.121   4.741  68.540  1.00  0.00    -0.115 C  
HETATM   20  C   UNL     1      -8.848   6.572  69.721  1.00  0.00    -0.143 C  
ENDBRANCH  15  17
ENDBRANCH  14  15
ENDBRANCH  10  14
BRANCH  11  21
HETATM   21  O   UNL     1      -8.368   7.511  65.840  1.00  0.00    -0.125 OA 
BRANCH  21  22
HETATM   22  C   UNL     1      -7.073   7.379  66.372  1.00  0.00    -0.074 C  
HETATM   23  O   UNL     1      -6.378   8.305  66.776  1.00  0.00    -0.053 OA 
BRANCH  22  24
HETATM   24  C   UNL     1      -6.612   5.912  66.361  1.00  0.00    -0.052 C  
HETATM   25  C   UNL     1      -6.140   5.513  67.774  1.00  0.00    -0.026 C  
HETATM   26  C   UNL     1      -7.770   4.986  65.966  1.00  0.00    -0.091 C  
HETATM   27  C   UNL     1      -5.440   5.759  65.386  1.00  0.00    -0.013 C  
ENDBRANCH  22  24
ENDBRANCH  21  22
ENDBRANCH  11  21
ENDBRANCH   5   8
ENDBRANCH   4   5
ENDBRANCH   2   4
TORSDOF 9
ENDMDL
MODEL      158
REMARK 921   NORMALIZED FREE ENERGY PREDICTED BY IDOCK:   -3.56 KCAL/MOL
REMARK 922        TOTAL FREE ENERGY PREDICTED BY IDOCK:   -6.71 KCAL/MOL
REMARK 923 INTER-LIGAND FREE ENERGY PREDICTED BY IDOCK:   -5.49 KCAL/MOL
REMARK 924 INTRA-LIGAND FREE ENERGY PREDICTED BY IDOCK:   -1.22 KCAL/MOL
REMARK 927      BINDING AFFINITY PREDICTED BY RF-SCORE:    0.00 PKD
ROOT
HETATM    1  C   UNL     1     -10.526  16.536  67.169  1.00  0.00    -0.300 C  
HETATM    2  N   UNL     1     -10.868  15.164  66.831  1.00  0.00    -0.313 NA 
HETATM    3  H   UNL     1     -11.640  14.819  67.401  1.00  0.00     0.000 HD 
ENDROOT
BRANCH   2   4
HETATM    4  C   UNL     1     -11.152  15.020  65.393  1.00  0.00    -0.374 C  
BRANCH   4   5
HETATM    5  C   UNL     1     -11.751  13.625  65.076  1.00  0.00    -0.339 C  
HETATM    6  H   UNL     1     -12.783  12.820  63.611  1.00  0.00     0.000 HD 
HETATM    7  O   UNL     1     -12.416  13.675  63.806  1.00  0.00    -0.703 OA 
BRANCH   5   8
HETATM    8  C   UNL     1     -10.700  12.530  65.076  1.00  0.00    -0.326 A  
HETATM    9  C   UNL     1     -10.229  11.961  66.270  1.00  0.00    -0.247 A  
HETATM   10  C   UNL     1      -9.269  10.937  66.255  1.00  0.00    -0.177 A  
HETATM   11  C   UNL     1      -8.783  10.450  65.033  1.00  0.00    -0.182 A  
HETATM   12  C   UNL     1      -9.227  11.031  63.842  1.00  0.00    -0.181 A  
HETATM   13  C   UNL     1     -10.186  12.049  63.865  1.00  0.00    -0.424 A  
BRANCH  10  14
HETATM   14  O   UNL     1      -8.903  10.270  67.447  1.00  0.00    -0.131 OA 
BRANCH  14  15
HETATM   15  C   UNL     1      -9.829   9.430  68.086  1.00  0.00    -0.160 C  
HETATM   16  O   UNL     1     -10.798   8.922  67.542  1.00  0.00    -0.218 OA 
BRANCH  15  17
HETATM   17  C   UNL     1      -9.403   9.217  69.547  1.00  0.00    -0.177 C  
HETATM   18  C   UNL     1      -9.196   7.719  69.829  1.00  0.00    -0.150 C  
HETATM   19  C   UNL     1      -8.066   9.934  69.781  1.00  0.00    -0.185 C  
HETATM   20  C   UNL     1     -10.481   9.763  70.489  1.00  0.00    -0.366 C  
ENDBRANCH  15  17
ENDBRANCH  14  15
ENDBRANCH  10  14
BRANCH  11  21
HETATM   21  O   UNL     1      -7.800   9.427  65.031  1.00  0.00    -0.108 OA 
BRANCH  21  22
HETATM   22  C   UNL     1      -8.110   8.129  64.589  1.00  0.00    -0.148 C  
HETATM   23  O   UNL     1      -8.625   7.855  63.510  1.00  0.00     0.121 OA 
BRANCH  22  24
HETATM   24  C   UNL     1      -7.747   7.078  65.650  1.00  0.00    -0.102 C  
HETATM   25  C   UNL     1      -6.950   5.935  64.987  1.00  0.00    -0.059 C  
HETATM   26  C   UNL     1      -6.869   7.697  66.745  1.00  0.00    -0.067 C  
HETATM   27  C   UNL     1      -9.033   6.500  66.250  1.00  0.00    -0.168 C  
ENDBRANCH  22  24
ENDBRANCH  21  22
ENDBRANCH  11  21
ENDBRANCH   5   8
ENDBRANCH   4   5
ENDBRANCH   2   4
TORSDOF 9
ENDMDL
MODEL      159
REMARK 921   NORMALIZED FREE ENERGY PREDICTED BY IDOCK:   -3.55 KCAL/MOL
REMARK 922        TOTAL FREE ENERGY PREDICTED BY IDOCK:   -6.70 KCAL/MOL
REMARK 923 INTER-LIGAND FREE ENERGY PREDICTED BY IDOCK:   -5.30 KCAL/MOL
REMARK 924 INTRA-LIGAND FREE ENERGY PREDICTED BY IDOCK:   -1.40 KCAL/MOL
REMARK 927      BINDING AFFINITY PREDICTED BY RF-SCORE:    0.00 PKD
ROOT
HETATM    1  C   UNL     1      -8.163  13.300  67.484  1.00  0.00    -0.184 C  
HETATM    2  N   UNL     1      -6.828  13.015  66.982  1.00  0.00    -0.427 NA 
HETATM    3  H   UNL     1      -6.127  13.607  67.428  1.00  0.00     0.000 HD 
ENDROOT
BRANCH   2   4
HETATM    4  C   UNL     1      -6.497  11.587  67.122  1.00  0.00    -0.123 C  
BRANCH   4   5
HETATM    5  C   UNL     1      -7.662  10.690  66.629  1.00  0.00    -0.132 C  
HETATM    6  H   UNL     1      -8.009   9.534  65.079  1.00  0.00     0.000 HD 
HETATM    7  O   UNL     1      -7.296  10.084  65.382  1.00  0.00    -0.125 OA 
BRANCH   5   8
HETATM    8  C   UNL     1      -8.039   9.622  67.641  1.00  0.00    -0.113 A  
HETATM    9  C   UNL     1      -9.318   9.571  68.216  1.00  0.00    -0.139 A  
HETATM   10  C   UNL     1      -9.659   8.568  69.137  1.00  0.00    -0.167 A  
HETATM   11  C   UNL     1      -8.722   7.582  69.477  1.00  0.00    -0.137 A  
HETATM   12  C   UNL     1      -7.438   7.643  68.929  1.00  0.00    -0.096 A  
HETATM   13  C   UNL     1      -7.106   8.644  68.009  1.00  0.00    -0.082 A  
BRANCH  10  14
HETATM   14  O   UNL     1     -10.987   8.435  69.605  1.00  0.00    -0.200 OA 
BRANCH  14  15
HETATM   15  C   UNL     1     -11.449   9.271  70.635  1.00  0.00    -0.274 C  
HETATM   16  O   UNL     1     -11.416  10.493  70.606  1.00  0.00    -0.322 OA 
BRANCH  15  17
HETATM   17  C   UNL     1     -12.039   8.413  71.764  1.00  0.00    -0.379 C  
HETATM   18  C   UNL     1     -13.178   9.170  72.468  1.00  0.00    -0.464 C  
HETATM   19  C   UNL     1     -12.624   7.130  71.156  1.00  0.00    -0.384 C  
HETATM   20  C   UNL     1     -10.949   8.077  72.788  1.00  0.00    -0.449 C  
ENDBRANCH  15  17
ENDBRANCH  14  15
ENDBRANCH  10  14
BRANCH  11  21
HETATM   21  O   UNL     1      -9.072   6.584  70.423  1.00  0.00    -0.154 OA 
BRANCH  21  22
HETATM   22  C   UNL     1      -9.590   5.345  70.006  1.00  0.00    -0.169 C  
HETATM   23  O   UNL     1     -10.379   5.185  69.081  1.00  0.00    -0.213 OA 
BRANCH  22  24
HETATM   24  C   UNL     1      -9.062   4.197  70.882  1.00  0.00    -0.180 C  
HETATM   25  C   UNL     1      -9.523   4.410  72.338  1.00  0.00    -0.182 C  
HETATM   26  C   UNL     1      -9.617   2.851  70.399  1.00  0.00    -0.156 C  
HETATM   27  C   UNL     1      -7.531   4.197  70.843  1.00  0.00    -0.047 C  
ENDBRANCH  22  24
ENDBRANCH  21  22
ENDBRANCH  11  21
ENDBRANCH   5   8
ENDBRANCH   4   5
ENDBRANCH   2   4
TORSDOF 9
ENDMDL
MODEL      160
REMARK 921   NORMALIZED FREE ENERGY PREDICTED BY IDOCK:   -3.54 KCAL/MOL
REMARK 922        TOTAL FREE ENERGY PREDICTED BY IDOCK:   -6.69 KCAL/MOL
REMARK 923 INTER-LIGAND FREE ENERGY PREDICTED BY IDOCK:   -5.90 KCAL/MOL
REMARK 924 INTRA-LIGAND FREE ENERGY PREDICTED BY IDOCK:   -0.79 KCAL/MOL
REMARK 927      BINDING AFFINITY PREDICTED BY RF-SCORE:    0.00 PKD
ROOT
HETATM    1  C   UNL     1      -8.716   5.789  65.227  1.00  0.00    -0.096 C  
HETATM    2  N   UNL     1      -7.352   5.713  65.727  1.00  0.00    -0.072 NA 
HETATM    3  H   UNL     1      -6.686   6.089  65.052  1.00  0.00     0.000 HD 
ENDROOT
BRANCH   2   4
HETATM    4  C   UNL     1      -7.224   6.372  67.037  1.00  0.00    -0.074 C  
BRANCH   4   5
HETATM    5  C   UNL     1      -7.050   7.905  66.879  1.00  0.00    -0.078 C  
HETATM    6  H   UNL     1      -6.505   9.135  65.448  1.00  0.00     0.000 HD 
HETATM    7  O   UNL     1      -6.611   8.196  65.545  1.00  0.00    -0.048 OA 
BRANCH   5   8
HETATM    8  C   UNL     1      -8.326   8.668  67.190  1.00  0.00    -0.107 A  
HETATM    9  C   UNL     1      -9.186   8.273  68.226  1.00  0.00    -0.135 A  
HETATM   10  C   UNL     1     -10.354   8.998  68.513  1.00  0.00    -0.203 A  
HETATM   11  C   UNL     1     -10.663  10.149  67.775  1.00  0.00    -0.277 A  
HETATM   12  C   UNL     1      -9.826  10.531  66.725  1.00  0.00    -0.237 A  
HETATM   13  C   UNL     1      -8.662   9.806  66.446  1.00  0.00    -0.144 A  
BRANCH  10  14
HETATM   14  O   UNL     1     -11.142   8.682  69.645  1.00  0.00    -0.154 OA 
BRANCH  14  15
HETATM   15  C   UNL     1     -11.224   7.352  70.087  1.00  0.00    -0.218 C  
HETATM   16  O   UNL     1     -11.443   6.392  69.362  1.00  0.00    -0.401 OA 
BRANCH  15  17
HETATM   17  C   UNL     1     -10.950   7.296  71.597  1.00  0.00    -0.253 C  
HETATM   18  C   UNL     1     -11.591   6.038  72.209  1.00  0.00    -0.359 C  
HETATM   19  C   UNL     1      -9.433   7.214  71.821  1.00  0.00    -0.160 C  
HETATM   20  C   UNL     1     -11.530   8.540  72.279  1.00  0.00    -0.445 C  
ENDBRANCH  15  17
ENDBRANCH  14  15
ENDBRANCH  10  14
BRANCH  11  21
HETATM   21  O   UNL     1     -11.856  10.862  68.064  1.00  0.00    -0.585 OA 
BRANCH  21  22
HETATM   22  C   UNL     1     -11.892  11.822  69.091  1.00  0.00    -0.326 C  
HETATM   23  O   UNL     1     -12.072  11.578  70.279  1.00  0.00    -0.329 OA 
BRANCH  22  24
HETATM   24  C   UNL     1     -11.703  13.242  68.533  1.00  0.00    -0.388 C  
HETATM   25  C   UNL     1     -10.198  13.572  68.471  1.00  0.00    -0.229 C  
HETATM   26  C   UNL     1     -12.271  13.344  67.112  1.00  0.00    -0.306 C  
HETATM   27  C   UNL     1     -12.391  14.245  69.464  1.00  0.00    -0.272 C  
ENDBRANCH  22  24
ENDBRANCH  21  22
ENDBRANCH  11  21
ENDBRANCH   5   8
ENDBRANCH   4   5
ENDBRANCH   2   4
TORSDOF 9
ENDMDL
MODEL      161
REMARK 921   NORMALIZED FREE ENERGY PREDICTED BY IDOCK:   -3.52 KCAL/MOL
REMARK 922        TOTAL FREE ENERGY PREDICTED BY IDOCK:   -6.65 KCAL/MOL
REMARK 923 INTER-LIGAND FREE ENERGY PREDICTED BY IDOCK:   -5.74 KCAL/MOL
REMARK 924 INTRA-LIGAND FREE ENERGY PREDICTED BY IDOCK:   -0.91 KCAL/MOL
REMARK 927      BINDING AFFINITY PREDICTED BY RF-SCORE:    0.00 PKD
ROOT
HETATM    1  C   UNL     1      -7.702  14.010  67.747  1.00  0.00    -0.172 C  
HETATM    2  N   UNL     1      -8.248  12.861  67.043  1.00  0.00    -0.358 NA 
HETATM    3  H   UNL     1      -7.971  11.985  67.487  1.00  0.00     0.000 HD 
ENDROOT
BRANCH   2   4
HETATM    4  C   UNL     1      -9.710  12.959  66.908  1.00  0.00    -0.240 C  
BRANCH   4   5
HETATM    5  C   UNL     1     -10.432  12.174  68.034  1.00  0.00    -0.212 C  
HETATM    6  H   UNL     1     -12.269  12.027  68.714  1.00  0.00     0.000 HD 
HETATM    7  O   UNL     1     -11.826  12.508  68.024  1.00  0.00    -0.346 OA 
BRANCH   5   8
HETATM    8  C   UNL     1     -10.251  10.672  67.901  1.00  0.00    -0.206 A  
HETATM    9  C   UNL     1     -10.087   9.847  69.024  1.00  0.00    -0.199 A  
HETATM   10  C   UNL     1      -9.938   8.458  68.887  1.00  0.00    -0.187 A  
HETATM   11  C   UNL     1      -9.975   7.872  67.614  1.00  0.00    -0.181 A  
HETATM   12  C   UNL     1     -10.110   8.690  66.490  1.00  0.00    -0.339 A  
HETATM   13  C   UNL     1     -10.261  10.074  66.634  1.00  0.00    -0.288 A  
BRANCH  10  14
HETATM   14  O   UNL     1      -9.917   7.616  70.023  1.00  0.00    -0.187 OA 
BRANCH  14  15
HETATM   15  C   UNL     1     -11.124   7.135  70.556  1.00  0.00    -0.271 C  
HETATM   16  O   UNL     1     -11.890   6.383  69.972  1.00  0.00    -0.404 OA 
BRANCH  15  17
HETATM   17  C   UNL     1     -11.297   7.663  71.988  1.00  0.00    -0.322 C  
HETATM   18  C   UNL     1     -10.048   8.451  72.420  1.00  0.00    -0.386 C  
HETATM   19  C   UNL     1     -12.498   8.619  72.021  1.00  0.00    -0.433 C  
HETATM   20  C   UNL     1     -11.512   6.491  72.953  1.00  0.00    -0.100 C  
ENDBRANCH  15  17
ENDBRANCH  14  15
ENDBRANCH  10  14
BRANCH  11  21
HETATM   21  O   UNL     1      -9.806   6.469  67.487  1.00  0.00    -0.118 OA 
BRANCH  21  22
HETATM   22  C   UNL     1      -8.586   5.856  67.825  1.00  0.00    -0.105 C  
HETATM   23  O   UNL     1      -7.531   6.447  68.027  1.00  0.00    -0.090 OA 
BRANCH  22  24
HETATM   24  C   UNL     1      -8.730   4.326  67.887  1.00  0.00    -0.119 C  
HETATM   25  C   UNL     1      -9.772   3.868  66.845  1.00  0.00    -0.189 C  
HETATM   26  C   UNL     1      -7.396   3.645  67.556  1.00  0.00    -0.066 C  
HETATM   27  C   UNL     1      -9.214   3.920  69.282  1.00  0.00    -0.224 C  
ENDBRANCH  22  24
ENDBRANCH  21  22
ENDBRANCH  11  21
ENDBRANCH   5   8
ENDBRANCH   4   5
ENDBRANCH   2   4
TORSDOF 9
ENDMDL
MODEL      162
REMARK 921   NORMALIZED FREE ENERGY PREDICTED BY IDOCK:   -3.52 KCAL/MOL
REMARK 922        TOTAL FREE ENERGY PREDICTED BY IDOCK:   -6.65 KCAL/MOL
REMARK 923 INTER-LIGAND FREE ENERGY PREDICTED BY IDOCK:   -5.72 KCAL/MOL
REMARK 924 INTRA-LIGAND FREE ENERGY PREDICTED BY IDOCK:   -0.93 KCAL/MOL
REMARK 927      BINDING AFFINITY PREDICTED BY RF-SCORE:    0.00 PKD
ROOT
HETATM    1  C   UNL     1     -10.538   6.530  73.540  1.00  0.00    -0.290 C  
HETATM    2  N   UNL     1     -10.262   7.646  72.649  1.00  0.00    -0.240 NA 
HETATM    3  H   UNL     1     -10.916   8.415  72.799  1.00  0.00     0.000 HD 
ENDROOT
BRANCH   2   4
HETATM    4  C   UNL     1      -8.865   8.095  72.769  1.00  0.00    -0.231 C  
BRANCH   4   5
HETATM    5  C   UNL     1      -8.060   7.775  71.482  1.00  0.00    -0.100 C  
HETATM    6  H   UNL     1      -7.540   6.158  70.495  1.00  0.00     0.000 HD 
HETATM    7  O   UNL     1      -8.033   6.355  71.284  1.00  0.00    -0.109 OA 
BRANCH   5   8
HETATM    8  C   UNL     1      -8.630   8.466  70.255  1.00  0.00    -0.128 A  
HETATM    9  C   UNL     1      -8.736   7.806  69.022  1.00  0.00    -0.135 A  
HETATM   10  C   UNL     1      -9.280   8.451  67.900  1.00  0.00    -0.135 A  
HETATM   11  C   UNL     1      -9.750   9.768  68.009  1.00  0.00    -0.145 A  
HETATM   12  C   UNL     1      -9.622  10.439  69.227  1.00  0.00    -0.226 A  
HETATM   13  C   UNL     1      -9.081   9.789  70.342  1.00  0.00    -0.154 A  
BRANCH  10  14
HETATM   14  O   UNL     1      -9.517   7.741  66.700  1.00  0.00    -0.181 OA 
BRANCH  14  15
HETATM   15  C   UNL     1     -10.254   6.546  66.733  1.00  0.00    -0.191 C  
HETATM   16  O   UNL     1     -11.407   6.452  67.127  1.00  0.00    -0.308 OA 
BRANCH  15  17
HETATM   17  C   UNL     1      -9.403   5.405  66.155  1.00  0.00    -0.167 C  
HETATM   18  C   UNL     1      -8.374   5.961  65.155  1.00  0.00    -0.143 C  
HETATM   19  C   UNL     1      -8.637   4.731  67.302  1.00  0.00    -0.104 C  
HETATM   20  C   UNL     1     -10.305   4.393  65.439  1.00  0.00    -0.238 C  
ENDBRANCH  15  17
ENDBRANCH  14  15
ENDBRANCH  10  14
BRANCH  11  21
HETATM   21  O   UNL     1     -10.282  10.416  66.864  1.00  0.00    -0.209 OA 
BRANCH  21  22
HETATM   22  C   UNL     1     -11.245  11.432  66.991  1.00  0.00    -0.283 C  
HETATM   23  O   UNL     1     -12.192  11.413  67.769  1.00  0.00    -0.537 OA 
BRANCH  22  24
HETATM   24  C   UNL     1     -10.980  12.578  66.002  1.00  0.00    -0.318 C  
HETATM   25  C   UNL     1     -12.230  13.476  65.911  1.00  0.00    -0.507 C  
HETATM   26  C   UNL     1      -9.807  13.443  66.479  1.00  0.00    -0.286 C  
HETATM   27  C   UNL     1     -10.691  11.992  64.616  1.00  0.00    -0.355 C  
ENDBRANCH  22  24
ENDBRANCH  21  22
ENDBRANCH  11  21
ENDBRANCH   5   8
ENDBRANCH   4   5
ENDBRANCH   2   4
TORSDOF 9
ENDMDL
MODEL      163
REMARK 921   NORMALIZED FREE ENERGY PREDICTED BY IDOCK:   -3.51 KCAL/MOL
REMARK 922        TOTAL FREE ENERGY PREDICTED BY IDOCK:   -6.63 KCAL/MOL
REMARK 923 INTER-LIGAND FREE ENERGY PREDICTED BY IDOCK:   -5.41 KCAL/MOL
REMARK 924 INTRA-LIGAND FREE ENERGY PREDICTED BY IDOCK:   -1.22 KCAL/MOL
REMARK 927      BINDING AFFINITY PREDICTED BY RF-SCORE:    0.00 PKD
ROOT
HETATM    1  C   UNL     1     -11.199  11.939  64.294  1.00  0.00    -0.357 C  
HETATM    2  N   UNL     1     -10.328  12.063  65.451  1.00  0.00    -0.256 NA 
HETATM    3  H   UNL     1     -10.499  12.932  65.956  1.00  0.00     0.000 HD 
ENDROOT
BRANCH   2   4
HETATM    4  C   UNL     1     -10.442  10.892  66.337  1.00  0.00    -0.250 C  
BRANCH   4   5
HETATM    5  C   UNL     1     -10.859  11.312  67.771  1.00  0.00    -0.235 C  
HETATM    6  H   UNL     1     -12.430  12.139  68.610  1.00  0.00     0.000 HD 
HETATM    7  O   UNL     1     -12.175  11.881  67.732  1.00  0.00    -0.508 OA 
BRANCH   5   8
HETATM    8  C   UNL     1     -10.816  10.152  68.749  1.00  0.00    -0.259 A  
HETATM    9  C   UNL     1     -10.552   8.841  68.326  1.00  0.00    -0.194 A  
HETATM   10  C   UNL     1     -10.498   7.780  69.244  1.00  0.00    -0.217 A  
HETATM   11  C   UNL     1     -10.689   8.027  70.611  1.00  0.00    -0.228 A  
HETATM   12  C   UNL     1     -10.980   9.325  71.036  1.00  0.00    -0.390 A  
HETATM   13  C   UNL     1     -11.029  10.378  70.115  1.00  0.00    -0.365 A  
BRANCH  10  14
HETATM   14  O   UNL     1     -10.091   6.488  68.836  1.00  0.00    -0.153 OA 
BRANCH  14  15
HETATM   15  C   UNL     1      -8.724   6.206  68.683  1.00  0.00    -0.112 C  
HETATM   16  O   UNL     1      -7.826   7.024  68.819  1.00  0.00    -0.114 OA 
BRANCH  15  17
HETATM   17  C   UNL     1      -8.543   4.712  68.372  1.00  0.00    -0.106 C  
HETATM   18  C   UNL     1      -7.175   4.225  68.881  1.00  0.00    -0.055 C  
HETATM   19  C   UNL     1      -9.634   3.918  69.105  1.00  0.00    -0.218 C  
HETATM   20  C   UNL     1      -8.629   4.481  66.860  1.00  0.00    -0.104 C  
ENDBRANCH  15  17
ENDBRANCH  14  15
ENDBRANCH  10  14
BRANCH  11  21
HETATM   21  O   UNL     1     -10.650   6.944  71.528  1.00  0.00    -0.216 OA 
BRANCH  21  22
HETATM   22  C   UNL     1     -10.161   7.121  72.834  1.00  0.00    -0.230 C  
HETATM   23  O   UNL     1     -10.814   7.545  73.781  1.00  0.00    -0.316 OA 
BRANCH  22  24
HETATM   24  C   UNL     1      -8.675   6.738  72.929  1.00  0.00    -0.131 C  
HETATM   25  C   UNL     1      -8.444   5.399  72.198  1.00  0.00    -0.126 C  
HETATM   26  C   UNL     1      -7.799   7.803  72.257  1.00  0.00    -0.127 C  
HETATM   27  C   UNL     1      -8.290   6.571  74.402  1.00  0.00    -0.147 C  
ENDBRANCH  22  24
ENDBRANCH  21  22
ENDBRANCH  11  21
ENDBRANCH   5   8
ENDBRANCH   4   5
ENDBRANCH   2   4
TORSDOF 9
ENDMDL
MODEL      164
REMARK 921   NORMALIZED FREE ENERGY PREDICTED BY IDOCK:   -3.51 KCAL/MOL
REMARK 922        TOTAL FREE ENERGY PREDICTED BY IDOCK:   -6.63 KCAL/MOL
REMARK 923 INTER-LIGAND FREE ENERGY PREDICTED BY IDOCK:   -5.80 KCAL/MOL
REMARK 924 INTRA-LIGAND FREE ENERGY PREDICTED BY IDOCK:   -0.83 KCAL/MOL
REMARK 927      BINDING AFFINITY PREDICTED BY RF-SCORE:    0.00 PKD
ROOT
HETATM    1  C   UNL     1     -10.035  19.565  69.288  1.00  0.00    -0.272 C  
HETATM    2  N   UNL     1     -10.918  19.201  68.191  1.00  0.00    -0.263 NA 
HETATM    3  H   UNL     1     -11.896  19.211  68.480  1.00  0.00     0.000 HD 
ENDROOT
BRANCH   2   4
HETATM    4  C   UNL     1     -10.694  20.058  67.015  1.00  0.00    -0.237 C  
BRANCH   4   5
HETATM    5  C   UNL     1      -9.530  19.520  66.142  1.00  0.00    -0.340 C  
HETATM    6  H   UNL     1      -7.574  19.691  66.118  1.00  0.00     0.000 HD 
HETATM    7  O   UNL     1      -8.287  20.021  66.652  1.00  0.00    -0.309 OA 
BRANCH   5   8
HETATM    8  C   UNL     1      -9.502  18.002  66.086  1.00  0.00    -0.161 A  
HETATM    9  C   UNL     1      -8.396  17.269  66.541  1.00  0.00    -0.312 A  
HETATM   10  C   UNL     1      -8.390  15.866  66.499  1.00  0.00    -0.295 A  
HETATM   11  C   UNL     1      -9.511  15.175  66.017  1.00  0.00    -0.323 A  
HETATM   12  C   UNL     1     -10.604  15.900  65.536  1.00  0.00    -0.419 A  
HETATM   13  C   UNL     1     -10.604  17.298  65.584  1.00  0.00    -0.173 A  
BRANCH  10  14
HETATM   14  O   UNL     1      -7.337  15.128  67.089  1.00  0.00    -0.199 OA 
BRANCH  14  15
HETATM   15  C   UNL     1      -7.450  14.698  68.421  1.00  0.00    -0.117 C  
HETATM   16  O   UNL     1      -7.853  15.392  69.344  1.00  0.00    -0.211 OA 
BRANCH  15  17
HETATM   17  C   UNL     1      -7.039  13.221  68.518  1.00  0.00    -0.105 C  
HETATM   18  C   UNL     1      -6.225  12.812  67.278  1.00  0.00    -0.053 C  
HETATM   19  C   UNL     1      -6.147  13.037  69.754  1.00  0.00    -0.123 C  
HETATM   20  C   UNL     1      -8.287  12.337  68.616  1.00  0.00    -0.002 C  
ENDBRANCH  15  17
ENDBRANCH  14  15
ENDBRANCH  10  14
BRANCH  11  21
HETATM   21  O   UNL     1      -9.486  13.757  65.963  1.00  0.00    -0.215 OA 
BRANCH  21  22
HETATM   22  C   UNL     1     -10.258  13.058  65.018  1.00  0.00    -0.269 C  
HETATM   23  O   UNL     1     -10.118  13.128  63.802  1.00  0.00    -0.265 OA 
BRANCH  22  24
HETATM   24  C   UNL     1     -11.334  12.201  65.704  1.00  0.00    -0.395 C  
HETATM   25  C   UNL     1     -11.584  12.736  67.128  1.00  0.00    -0.426 C  
HETATM   26  C   UNL     1     -12.657  12.274  64.930  1.00  0.00    -0.242 C  
HETATM   27  C   UNL     1     -10.842  10.753  65.798  1.00  0.00    -0.076 C  
ENDBRANCH  22  24
ENDBRANCH  21  22
ENDBRANCH  11  21
ENDBRANCH   5   8
ENDBRANCH   4   5
ENDBRANCH   2   4
TORSDOF 9
ENDMDL
MODEL      165
REMARK 921   NORMALIZED FREE ENERGY PREDICTED BY IDOCK:   -3.48 KCAL/MOL
REMARK 922        TOTAL FREE ENERGY PREDICTED BY IDOCK:   -6.59 KCAL/MOL
REMARK 923 INTER-LIGAND FREE ENERGY PREDICTED BY IDOCK:   -5.59 KCAL/MOL
REMARK 924 INTRA-LIGAND FREE ENERGY PREDICTED BY IDOCK:   -1.01 KCAL/MOL
REMARK 927      BINDING AFFINITY PREDICTED BY RF-SCORE:    0.00 PKD
ROOT
HETATM    1  C   UNL     1     -10.467   7.117  73.537  1.00  0.00    -0.380 C  
HETATM    2  N   UNL     1     -10.680   7.877  72.316  1.00  0.00    -0.260 NA 
HETATM    3  H   UNL     1     -11.475   8.511  72.403  1.00  0.00     0.000 HD 
ENDROOT
BRANCH   2   4
HETATM    4  C   UNL     1      -9.460   8.594  71.910  1.00  0.00    -0.299 C  
BRANCH   4   5
HETATM    5  C   UNL     1      -8.696   7.821  70.804  1.00  0.00    -0.134 C  
HETATM    6  H   UNL     1      -8.699   5.993  70.085  1.00  0.00     0.000 HD 
HETATM    7  O   UNL     1      -9.167   6.467  70.763  1.00  0.00    -0.156 OA 
BRANCH   5   8
HETATM    8  C   UNL     1      -8.840   8.469  69.438  1.00  0.00    -0.141 A  
HETATM    9  C   UNL     1      -9.287   9.792  69.295  1.00  0.00    -0.198 A  
HETATM   10  C   UNL     1      -9.400  10.385  68.027  1.00  0.00    -0.140 A  
HETATM   11  C   UNL     1      -9.041   9.661  66.882  1.00  0.00    -0.138 A  
HETATM   12  C   UNL     1      -8.622   8.335  67.015  1.00  0.00    -0.124 A  
HETATM   13  C   UNL     1      -8.509   7.751  68.282  1.00  0.00    -0.124 A  
BRANCH  10  14
HETATM   14  O   UNL     1      -9.712  11.758  67.895  1.00  0.00    -0.175 OA 
BRANCH  14  15
HETATM   15  C   UNL     1     -11.001  12.143  67.494  1.00  0.00    -0.257 C  
HETATM   16  O   UNL     1     -12.004  11.456  67.623  1.00  0.00    -0.630 OA 
BRANCH  15  17
HETATM   17  C   UNL     1     -10.953  13.567  66.919  1.00  0.00    -0.296 C  
HETATM   18  C   UNL     1      -9.711  13.740  66.027  1.00  0.00    -0.255 C  
HETATM   19  C   UNL     1     -12.199  13.790  66.049  1.00  0.00    -0.495 C  
HETATM   20  C   UNL     1     -10.901  14.589  68.060  1.00  0.00    -0.249 C  
ENDBRANCH  15  17
ENDBRANCH  14  15
ENDBRANCH  10  14
BRANCH  11  21
HETATM   21  O   UNL     1      -9.176  10.265  65.605  1.00  0.00    -0.165 OA 
BRANCH  21  22
HETATM   22  C   UNL     1      -8.075  10.373  64.737  1.00  0.00    -0.124 C  
HETATM   23  O   UNL     1      -6.930  10.648  65.080  1.00  0.00    -0.066 OA 
BRANCH  22  24
HETATM   24  C   UNL     1      -8.490  10.129  63.277  1.00  0.00    -0.184 C  
HETATM   25  C   UNL     1      -7.454  10.777  62.335  1.00  0.00    -0.138 C  
HETATM   26  C   UNL     1      -8.535   8.626  62.972  1.00  0.00    -0.113 C  
HETATM   27  C   UNL     1      -9.857  10.773  63.027  1.00  0.00    -0.344 C  
ENDBRANCH  22  24
ENDBRANCH  21  22
ENDBRANCH  11  21
ENDBRANCH   5   8
ENDBRANCH   4   5
ENDBRANCH   2   4
TORSDOF 9
ENDMDL
MODEL      166
REMARK 921   NORMALIZED FREE ENERGY PREDICTED BY IDOCK:   -3.44 KCAL/MOL
REMARK 922        TOTAL FREE ENERGY PREDICTED BY IDOCK:   -6.53 KCAL/MOL
REMARK 923 INTER-LIGAND FREE ENERGY PREDICTED BY IDOCK:   -5.34 KCAL/MOL
REMARK 924 INTRA-LIGAND FREE ENERGY PREDICTED BY IDOCK:   -1.19 KCAL/MOL
REMARK 927      BINDING AFFINITY PREDICTED BY RF-SCORE:    0.00 PKD
ROOT
HETATM    1  C   UNL     1     -10.677   6.211  68.989  1.00  0.00    -0.312 C  
HETATM    2  N   UNL     1     -10.021   6.062  70.277  1.00  0.00    -0.180 NA 
HETATM    3  H   UNL     1      -9.733   5.097  70.441  1.00  0.00     0.000 HD 
ENDROOT
BRANCH   2   4
HETATM    4  C   UNL     1      -8.889   6.993  70.414  1.00  0.00    -0.155 C  
BRANCH   4   5
HETATM    5  C   UNL     1      -9.275   8.223  71.276  1.00  0.00    -0.163 C  
HETATM    6  H   UNL     1      -8.394   9.348  72.624  1.00  0.00     0.000 HD 
HETATM    7  O   UNL     1      -8.158   8.594  72.096  1.00  0.00    -0.280 OA 
BRANCH   5   8
HETATM    8  C   UNL     1      -9.723   9.404  70.432  1.00  0.00    -0.315 A  
HETATM    9  C   UNL     1      -8.804  10.197  69.728  1.00  0.00    -0.152 A  
HETATM   10  C   UNL     1      -9.233  11.275  68.938  1.00  0.00    -0.064 A  
HETATM   11  C   UNL     1     -10.601  11.559  68.826  1.00  0.00    -0.211 A  
HETATM   12  C   UNL     1     -11.519  10.792  69.546  1.00  0.00    -0.365 A  
HETATM   13  C   UNL     1     -11.084   9.716  70.329  1.00  0.00    -0.327 A  
BRANCH  10  14
HETATM   14  O   UNL     1      -8.321  11.981  68.119  1.00  0.00    -0.151 OA 
BRANCH  14  15
HETATM   15  C   UNL     1      -7.222  12.632  68.702  1.00  0.00    -0.108 C  
HETATM   16  O   UNL     1      -6.281  12.064  69.237  1.00  0.00    -0.078 OA 
BRANCH  15  17
HETATM   17  C   UNL     1      -7.371  14.150  68.517  1.00  0.00    -0.120 C  
HETATM   18  C   UNL     1      -7.830  14.470  67.084  1.00  0.00    -0.131 C  
HETATM   19  C   UNL     1      -8.445  14.663  69.487  1.00  0.00     0.181 C  
HETATM   20  C   UNL     1      -6.029  14.841  68.782  1.00  0.00    -0.084 C  
ENDBRANCH  15  17
ENDBRANCH  14  15
ENDBRANCH  10  14
BRANCH  11  21
HETATM   21  O   UNL     1     -11.022  12.663  68.039  1.00  0.00    -0.218 OA 
BRANCH  21  22
HETATM   22  C   UNL     1     -11.491  12.476  66.727  1.00  0.00    -0.362 C  
HETATM   23  O   UNL     1     -11.750  11.391  66.217  1.00  0.00    -0.309 OA 
BRANCH  22  24
HETATM   24  C   UNL     1     -11.617  13.816  65.984  1.00  0.00    -0.361 C  
HETATM   25  C   UNL     1     -11.508  14.975  66.997  1.00  0.00    -0.288 C  
HETATM   26  C   UNL     1     -10.487  13.974  64.959  1.00  0.00    -0.440 C  
HETATM   27  C   UNL     1     -12.984  13.886  65.297  1.00  0.00    -0.341 C  
ENDBRANCH  22  24
ENDBRANCH  21  22
ENDBRANCH  11  21
ENDBRANCH   5   8
ENDBRANCH   4   5
ENDBRANCH   2   4
TORSDOF 9
ENDMDL
MODEL      167
REMARK 921   NORMALIZED FREE ENERGY PREDICTED BY IDOCK:   -3.43 KCAL/MOL
REMARK 922        TOTAL FREE ENERGY PREDICTED BY IDOCK:   -6.52 KCAL/MOL
REMARK 923 INTER-LIGAND FREE ENERGY PREDICTED BY IDOCK:   -5.20 KCAL/MOL
REMARK 924 INTRA-LIGAND FREE ENERGY PREDICTED BY IDOCK:   -1.32 KCAL/MOL
REMARK 927      BINDING AFFINITY PREDICTED BY RF-SCORE:    0.00 PKD
ROOT
HETATM    1  C   UNL     1     -12.758  13.717  71.197  1.00  0.00    -0.362 C  
HETATM    2  N   UNL     1     -11.738  12.988  70.461  1.00  0.00    -0.520 NA 
HETATM    3  H   UNL     1     -10.845  12.993  70.954  1.00  0.00     0.000 HD 
ENDROOT
BRANCH   2   4
HETATM    4  C   UNL     1     -12.176  11.616  70.153  1.00  0.00    -0.288 C  
BRANCH   4   5
HETATM    5  C   UNL     1     -12.288  10.760  71.442  1.00  0.00    -0.328 C  
HETATM    6  H   UNL     1     -13.725   9.854  72.427  1.00  0.00     0.000 HD 
HETATM    7  O   UNL     1     -13.656  10.379  71.638  1.00  0.00    -0.250 OA 
BRANCH   5   8
HETATM    8  C   UNL     1     -11.400   9.529  71.398  1.00  0.00    -0.462 A  
HETATM    9  C   UNL     1     -10.351   9.410  70.474  1.00  0.00    -0.341 A  
HETATM   10  C   UNL     1      -9.527   8.273  70.456  1.00  0.00    -0.167 A  
HETATM   11  C   UNL     1      -9.733   7.245  71.387  1.00  0.00    -0.164 A  
HETATM   12  C   UNL     1     -10.793   7.344  72.290  1.00  0.00    -0.287 A  
HETATM   13  C   UNL     1     -11.608   8.482  72.305  1.00  0.00    -0.444 A  
BRANCH  10  14
HETATM   14  O   UNL     1      -8.386   8.219  69.622  1.00  0.00    -0.120 OA 
BRANCH  14  15
HETATM   15  C   UNL     1      -8.538   7.959  68.251  1.00  0.00    -0.124 C  
HETATM   16  O   UNL     1      -9.358   7.187  67.776  1.00  0.00    -0.128 OA 
BRANCH  15  17
HETATM   17  C   UNL     1      -7.553   8.829  67.453  1.00  0.00    -0.090 C  
HETATM   18  C   UNL     1      -7.452   8.324  66.003  1.00  0.00    -0.077 C  
HETATM   19  C   UNL     1      -8.082  10.270  67.420  1.00  0.00    -0.110 C  
HETATM   20  C   UNL     1      -6.167   8.777  68.104  1.00  0.00    -0.051 C  
ENDBRANCH  15  17
ENDBRANCH  14  15
ENDBRANCH  10  14
BRANCH  11  21
HETATM   21  O   UNL     1      -8.905   6.093  71.347  1.00  0.00    -0.138 OA 
BRANCH  21  22
HETATM   22  C   UNL     1      -9.268   4.970  70.583  1.00  0.00    -0.147 C  
HETATM   23  O   UNL     1     -10.321   4.845  69.968  1.00  0.00    -0.268 OA 
BRANCH  22  24
HETATM   24  C   UNL     1      -8.179   3.885  70.635  1.00  0.00    -0.077 C  
HETATM   25  C   UNL     1      -7.229   4.055  69.432  1.00  0.00    -0.050 C  
HETATM   26  C   UNL     1      -7.349   4.015  71.919  1.00  0.00    -0.059 C  
HETATM   27  C   UNL     1      -8.838   2.505  70.555  1.00  0.00    -0.143 C  
ENDBRANCH  22  24
ENDBRANCH  21  22
ENDBRANCH  11  21
ENDBRANCH   5   8
ENDBRANCH   4   5
ENDBRANCH   2   4
TORSDOF 9
ENDMDL
MODEL      168
REMARK 921   NORMALIZED FREE ENERGY PREDICTED BY IDOCK:   -3.43 KCAL/MOL
REMARK 922        TOTAL FREE ENERGY PREDICTED BY IDOCK:   -6.51 KCAL/MOL
REMARK 923 INTER-LIGAND FREE ENERGY PREDICTED BY IDOCK:   -5.13 KCAL/MOL
REMARK 924 INTRA-LIGAND FREE ENERGY PREDICTED BY IDOCK:   -1.38 KCAL/MOL
REMARK 927      BINDING AFFINITY PREDICTED BY RF-SCORE:    0.00 PKD
ROOT
HETATM    1  C   UNL     1      -7.098   4.863  63.557  1.00  0.00    -0.048 C  
HETATM    2  N   UNL     1      -6.330   5.748  64.417  1.00  0.00    -0.032 NA 
HETATM    3  H   UNL     1      -6.382   6.716  64.099  1.00  0.00     0.000 HD 
ENDROOT
BRANCH   2   4
HETATM    4  C   UNL     1      -6.742   5.620  65.824  1.00  0.00    -0.055 C  
BRANCH   4   5
HETATM    5  C   UNL     1      -8.279   5.450  65.945  1.00  0.00    -0.119 C  
HETATM    6  H   UNL     1      -9.508   4.324  66.984  1.00  0.00     0.000 HD 
HETATM    7  O   UNL     1      -8.567   4.428  66.909  1.00  0.00    -0.105 OA 
BRANCH   5   8
HETATM    8  C   UNL     1      -8.977   6.744  66.328  1.00  0.00    -0.170 A  
HETATM    9  C   UNL     1      -9.739   6.850  67.500  1.00  0.00    -0.162 A  
HETATM   10  C   UNL     1     -10.365   8.058  67.850  1.00  0.00    -0.222 A  
HETATM   11  C   UNL     1     -10.212   9.187  67.034  1.00  0.00    -0.263 A  
HETATM   12  C   UNL     1      -9.478   9.080  65.852  1.00  0.00    -0.317 A  
HETATM   13  C   UNL     1      -8.854   7.875  65.510  1.00  0.00    -0.070 A  
BRANCH  10  14
HETATM   14  O   UNL     1     -11.012   8.202  69.100  1.00  0.00    -0.081 OA 
BRANCH  14  15
HETATM   15  C   UNL     1     -10.250   8.217  70.280  1.00  0.00    -0.200 C  
HETATM   16  O   UNL     1      -9.203   8.831  70.424  1.00  0.00    -0.159 OA 
BRANCH  15  17
HETATM   17  C   UNL     1     -10.963   7.387  71.359  1.00  0.00    -0.258 C  
HETATM   18  C   UNL     1     -10.627   5.895  71.192  1.00  0.00    -0.306 C  
HETATM   19  C   UNL     1     -10.461   7.836  72.739  1.00  0.00    -0.390 C  
HETATM   20  C   UNL     1     -12.479   7.578  71.246  1.00  0.00    -0.354 C  
ENDBRANCH  15  17
ENDBRANCH  14  15
ENDBRANCH  10  14
BRANCH  11  21
HETATM   21  O   UNL     1     -10.864  10.397  67.390  1.00  0.00    -0.273 OA 
BRANCH  21  22
HETATM   22  C   UNL     1     -10.127  11.515  67.818  1.00  0.00    -0.182 C  
HETATM   23  O   UNL     1      -9.073  11.469  68.442  1.00  0.00    -0.178 OA 
BRANCH  22  24
HETATM   24  C   UNL     1     -10.827  12.827  67.426  1.00  0.00    -0.265 C  
HETATM   25  C   UNL     1      -9.816  13.989  67.503  1.00  0.00    -0.236 C  
HETATM   26  C   UNL     1     -11.354  12.749  65.988  1.00  0.00    -0.363 C  
HETATM   27  C   UNL     1     -11.971  13.100  68.407  1.00  0.00    -0.324 C  
ENDBRANCH  22  24
ENDBRANCH  21  22
ENDBRANCH  11  21
ENDBRANCH   5   8
ENDBRANCH   4   5
ENDBRANCH   2   4
TORSDOF 9
ENDMDL
MODEL      169
REMARK 921   NORMALIZED FREE ENERGY PREDICTED BY IDOCK:   -3.43 KCAL/MOL
REMARK 922        TOTAL FREE ENERGY PREDICTED BY IDOCK:   -6.51 KCAL/MOL
REMARK 923 INTER-LIGAND FREE ENERGY PREDICTED BY IDOCK:   -5.16 KCAL/MOL
REMARK 924 INTRA-LIGAND FREE ENERGY PREDICTED BY IDOCK:   -1.35 KCAL/MOL
REMARK 927      BINDING AFFINITY PREDICTED BY RF-SCORE:    0.00 PKD
ROOT
HETATM    1  C   UNL     1     -10.890   5.275  73.575  1.00  0.00    -0.304 C  
HETATM    2  N   UNL     1     -10.476   6.662  73.712  1.00  0.00    -0.356 NA 
HETATM    3  H   UNL     1      -9.510   6.795  73.412  1.00  0.00     0.000 HD 
ENDROOT
BRANCH   2   4
HETATM    4  C   UNL     1     -11.392   7.569  73.001  1.00  0.00    -0.263 C  
BRANCH   4   5
HETATM    5  C   UNL     1     -12.019   6.875  71.763  1.00  0.00    -0.333 C  
HETATM    6  H   UNL     1     -13.807   6.740  70.962  1.00  0.00     0.000 HD 
HETATM    7  O   UNL     1     -13.423   7.165  71.720  1.00  0.00    -0.355 OA 
BRANCH   5   8
HETATM    8  C   UNL     1     -11.355   7.298  70.464  1.00  0.00    -0.308 A  
HETATM    9  C   UNL     1     -10.961   6.359  69.499  1.00  0.00    -0.421 A  
HETATM   10  C   UNL     1     -10.364   6.765  68.295  1.00  0.00    -0.187 A  
HETATM   11  C   UNL     1     -10.176   8.129  68.032  1.00  0.00    -0.212 A  
HETATM   12  C   UNL     1     -10.541   9.067  69.000  1.00  0.00    -0.209 A  
HETATM   13  C   UNL     1     -11.138   8.656  70.197  1.00  0.00    -0.199 A  
BRANCH  10  14
HETATM   14  O   UNL     1     -10.099   5.831  67.267  1.00  0.00    -0.141 OA 
BRANCH  14  15
HETATM   15  C   UNL     1      -8.883   5.128  67.262  1.00  0.00    -0.105 C  
HETATM   16  O   UNL     1      -7.897   5.441  67.912  1.00  0.00    -0.091 OA 
BRANCH  15  17
HETATM   17  C   UNL     1      -9.011   3.892  66.358  1.00  0.00    -0.133 C  
HETATM   18  C   UNL     1      -7.687   3.636  65.617  1.00  0.00    -0.085 C  
HETATM   19  C   UNL     1      -9.310   2.667  67.235  1.00  0.00    -0.137 C  
HETATM   20  C   UNL     1     -10.128   4.109  65.332  1.00  0.00    -0.207 C  
ENDBRANCH  15  17
ENDBRANCH  14  15
ENDBRANCH  10  14
BRANCH  11  21
HETATM   21  O   UNL     1      -9.556   8.527  66.819  1.00  0.00    -0.174 OA 
BRANCH  21  22
HETATM   22  C   UNL     1      -8.305   9.170  66.825  1.00  0.00    -0.123 C  
HETATM   23  O   UNL     1      -7.364   8.875  67.552  1.00  0.00    -0.080 OA 
BRANCH  22  24
HETATM   24  C   UNL     1      -8.269  10.325  65.811  1.00  0.00    -0.147 C  
HETATM   25  C   UNL     1      -6.901  10.338  65.099  1.00  0.00    -0.120 C  
HETATM   26  C   UNL     1      -9.358  10.144  64.746  1.00  0.00    -0.324 C  
HETATM   27  C   UNL     1      -8.453  11.653  66.553  1.00  0.00    -0.141 C  
ENDBRANCH  22  24
ENDBRANCH  21  22
ENDBRANCH  11  21
ENDBRANCH   5   8
ENDBRANCH   4   5
ENDBRANCH   2   4
TORSDOF 9
ENDMDL
MODEL      170
REMARK 921   NORMALIZED FREE ENERGY PREDICTED BY IDOCK:   -3.42 KCAL/MOL
REMARK 922        TOTAL FREE ENERGY PREDICTED BY IDOCK:   -6.50 KCAL/MOL
REMARK 923 INTER-LIGAND FREE ENERGY PREDICTED BY IDOCK:   -5.65 KCAL/MOL
REMARK 924 INTRA-LIGAND FREE ENERGY PREDICTED BY IDOCK:   -0.85 KCAL/MOL
REMARK 927      BINDING AFFINITY PREDICTED BY RF-SCORE:    0.00 PKD
ROOT
HETATM    1  C   UNL     1      -8.563   5.279  65.452  1.00  0.00    -0.149 C  
HETATM    2  N   UNL     1      -7.128   5.299  65.687  1.00  0.00    -0.066 NA 
HETATM    3  H   UNL     1      -6.616   5.582  64.852  1.00  0.00     0.000 HD 
ENDROOT
BRANCH   2   4
HETATM    4  C   UNL     1      -6.786   6.145  66.842  1.00  0.00    -0.061 C  
BRANCH   4   5
HETATM    5  C   UNL     1      -6.396   7.577  66.393  1.00  0.00    -0.045 C  
HETATM    6  H   UNL     1      -5.458   8.383  64.866  1.00  0.00     0.000 HD 
HETATM    7  O   UNL     1      -5.697   7.506  65.142  1.00  0.00    -0.036 OA 
BRANCH   5   8
HETATM    8  C   UNL     1      -7.600   8.494  66.270  1.00  0.00    -0.090 A  
HETATM    9  C   UNL     1      -8.534   8.625  67.309  1.00  0.00    -0.115 A  
HETATM   10  C   UNL     1      -9.634   9.490  67.189  1.00  0.00    -0.160 A  
HETATM   11  C   UNL     1      -9.798  10.257  66.027  1.00  0.00    -0.233 A  
HETATM   12  C   UNL     1      -8.887  10.111  64.979  1.00  0.00    -0.205 A  
HETATM   13  C   UNL     1      -7.791   9.249  65.106  1.00  0.00    -0.110 A  
BRANCH  10  14
HETATM   14  O   UNL     1     -10.492   9.727  68.288  1.00  0.00    -0.195 OA 
BRANCH  14  15
HETATM   15  C   UNL     1     -10.777   8.686  69.185  1.00  0.00    -0.118 C  
HETATM   16  O   UNL     1     -10.840   7.503  68.881  1.00  0.00    -0.155 OA 
BRANCH  15  17
HETATM   17  C   UNL     1     -10.945   9.261  70.600  1.00  0.00    -0.336 C  
HETATM   18  C   UNL     1     -11.951   8.416  71.402  1.00  0.00    -0.337 C  
HETATM   19  C   UNL     1      -9.591   9.200  71.322  1.00  0.00    -0.331 C  
HETATM   20  C   UNL     1     -11.451  10.705  70.519  1.00  0.00    -0.407 C  
ENDBRANCH  15  17
ENDBRANCH  14  15
ENDBRANCH  10  14
BRANCH  11  21
HETATM   21  O   UNL     1     -10.923  11.114  65.910  1.00  0.00    -0.213 OA 
BRANCH  21  22
HETATM   22  C   UNL     1     -10.829  12.478  66.241  1.00  0.00    -0.268 C  
HETATM   23  O   UNL     1     -10.449  12.918  67.320  1.00  0.00    -0.232 OA 
BRANCH  22  24
HETATM   24  C   UNL     1     -11.293  13.367  65.076  1.00  0.00    -0.330 C  
HETATM   25  C   UNL     1     -12.682  13.952  65.401  1.00  0.00    -0.525 C  
HETATM   26  C   UNL     1     -10.322  14.535  64.867  1.00  0.00    -0.401 C  
HETATM   27  C   UNL     1     -11.400  12.518  63.805  1.00  0.00    -0.534 C  
ENDBRANCH  22  24
ENDBRANCH  21  22
ENDBRANCH  11  21
ENDBRANCH   5   8
ENDBRANCH   4   5
ENDBRANCH   2   4
TORSDOF 9
ENDMDL
MODEL      171
REMARK 921   NORMALIZED FREE ENERGY PREDICTED BY IDOCK:   -3.31 KCAL/MOL
REMARK 922        TOTAL FREE ENERGY PREDICTED BY IDOCK:   -6.33 KCAL/MOL
REMARK 923 INTER-LIGAND FREE ENERGY PREDICTED BY IDOCK:   -5.13 KCAL/MOL
REMARK 924 INTRA-LIGAND FREE ENERGY PREDICTED BY IDOCK:   -1.20 KCAL/MOL
REMARK 927      BINDING AFFINITY PREDICTED BY RF-SCORE:    0.00 PKD
ROOT
HETATM    1  C   UNL     1     -12.063  13.607  70.366  1.00  0.00    -0.351 C  
HETATM    2  N   UNL     1     -11.820  12.769  69.202  1.00  0.00    -0.309 NA 
HETATM    3  H   UNL     1     -10.864  12.872  68.861  1.00  0.00     0.000 HD 
ENDROOT
BRANCH   2   4
HETATM    4  C   UNL     1     -12.146  11.361  69.478  1.00  0.00    -0.302 C  
BRANCH   4   5
HETATM    5  C   UNL     1     -12.123  11.067  71.001  1.00  0.00    -0.301 C  
HETATM    6  H   UNL     1     -13.456  10.824  72.423  1.00  0.00     0.000 HD 
HETATM    7  O   UNL     1     -13.469  11.004  71.490  1.00  0.00    -0.229 OA 
BRANCH   5   8
HETATM    8  C   UNL     1     -11.384   9.782  71.332  1.00  0.00    -0.407 A  
HETATM    9  C   UNL     1     -10.204   9.419  70.665  1.00  0.00    -0.353 A  
HETATM   10  C   UNL     1      -9.521   8.236  70.993  1.00  0.00    -0.161 A  
HETATM   11  C   UNL     1     -10.004   7.410  72.017  1.00  0.00    -0.166 A  
HETATM   12  C   UNL     1     -11.193   7.752  72.666  1.00  0.00    -0.438 A  
HETATM   13  C   UNL     1     -11.867   8.933  72.336  1.00  0.00    -0.292 A  
BRANCH  10  14
HETATM   14  O   UNL     1      -8.261   7.946  70.421  1.00  0.00    -0.115 OA 
BRANCH  14  15
HETATM   15  C   UNL     1      -8.188   7.160  69.260  1.00  0.00    -0.128 C  
HETATM   16  O   UNL     1      -9.093   7.034  68.448  1.00  0.00    -0.129 OA 
BRANCH  15  17
HETATM   17  C   UNL     1      -6.789   6.535  69.152  1.00  0.00    -0.065 C  
HETATM   18  C   UNL     1      -6.379   5.913  70.498  1.00  0.00    -0.032 C  
HETATM   19  C   UNL     1      -6.828   5.414  68.102  1.00  0.00    -0.060 C  
HETATM   20  C   UNL     1      -5.767   7.607  68.760  1.00  0.00    -0.023 C  
ENDBRANCH  15  17
ENDBRANCH  14  15
ENDBRANCH  10  14
BRANCH  11  21
HETATM   21  O   UNL     1      -9.315   6.209  72.328  1.00  0.00    -0.148 OA 
BRANCH  21  22
HETATM   22  C   UNL     1      -9.851   4.958  71.975  1.00  0.00    -0.177 C  
HETATM   23  O   UNL     1     -10.319   4.675  70.878  1.00  0.00    -0.177 OA 
BRANCH  22  24
HETATM   24  C   UNL     1      -9.806   3.979  73.159  1.00  0.00    -0.176 C  
HETATM   25  C   UNL     1     -10.589   4.574  74.347  1.00  0.00    -0.289 C  
HETATM   26  C   UNL     1     -10.459   2.643  72.781  1.00  0.00    -0.221 C  
HETATM   27  C   UNL     1      -8.350   3.768  73.584  1.00  0.00    -0.087 C  
ENDBRANCH  22  24
ENDBRANCH  21  22
ENDBRANCH  11  21
ENDBRANCH   5   8
ENDBRANCH   4   5
ENDBRANCH   2   4
TORSDOF 9
ENDMDL
MODEL      172
REMARK 921   NORMALIZED FREE ENERGY PREDICTED BY IDOCK:   -3.30 KCAL/MOL
REMARK 922        TOTAL FREE ENERGY PREDICTED BY IDOCK:   -6.31 KCAL/MOL
REMARK 923 INTER-LIGAND FREE ENERGY PREDICTED BY IDOCK:   -5.76 KCAL/MOL
REMARK 924 INTRA-LIGAND FREE ENERGY PREDICTED BY IDOCK:   -0.55 KCAL/MOL
REMARK 927      BINDING AFFINITY PREDICTED BY RF-SCORE:    0.00 PKD
ROOT
HETATM    1  C   UNL     1     -11.295   6.344  68.196  1.00  0.00     0.013 C  
HETATM    2  N   UNL     1     -11.661   6.894  69.491  1.00  0.00    -0.600 NA 
HETATM    3  H   UNL     1     -12.139   6.203  70.070  1.00  0.00     0.000 HD 
ENDROOT
BRANCH   2   4
HETATM    4  C   UNL     1     -10.492   7.461  70.183  1.00  0.00    -0.220 C  
BRANCH   4   5
HETATM    5  C   UNL     1     -10.845   8.804  70.874  1.00  0.00    -0.238 C  
HETATM    6  H   UNL     1     -10.201   9.814  72.431  1.00  0.00     0.000 HD 
HETATM    7  O   UNL     1      -9.985   8.991  72.007  1.00  0.00    -0.321 OA 
BRANCH   5   8
HETATM    8  C   UNL     1     -10.736   9.988  69.930  1.00  0.00    -0.328 A  
HETATM    9  C   UNL     1      -9.862   9.976  68.832  1.00  0.00    -0.187 A  
HETATM   10  C   UNL     1      -9.784  11.072  67.957  1.00  0.00    -0.172 A  
HETATM   11  C   UNL     1     -10.604  12.190  68.161  1.00  0.00    -0.216 A  
HETATM   12  C   UNL     1     -11.455  12.220  69.268  1.00  0.00    -0.352 A  
HETATM   13  C   UNL     1     -11.530  11.124  70.134  1.00  0.00    -0.361 A  
BRANCH  10  14
HETATM   14  O   UNL     1      -9.011  11.000  66.775  1.00  0.00    -0.151 OA 
BRANCH  14  15
HETATM   15  C   UNL     1      -8.173   9.894  66.557  1.00  0.00    -0.121 C  
HETATM   16  O   UNL     1      -7.169   9.644  67.208  1.00  0.00    -0.085 OA 
BRANCH  15  17
HETATM   17  C   UNL     1      -8.744   9.037  65.417  1.00  0.00    -0.221 C  
HETATM   18  C   UNL     1      -9.697   7.968  65.980  1.00  0.00    -0.002 C  
HETATM   19  C   UNL     1      -9.548   9.942  64.473  1.00  0.00    -0.290 C  
HETATM   20  C   UNL     1      -7.603   8.346  64.662  1.00  0.00    -0.104 C  
ENDBRANCH  15  17
ENDBRANCH  14  15
ENDBRANCH  10  14
BRANCH  11  21
HETATM   21  O   UNL     1     -10.502  13.299  67.280  1.00  0.00    -0.245 OA 
BRANCH  21  22
HETATM   22  C   UNL     1     -11.210  14.487  67.532  1.00  0.00    -0.321 C  
HETATM   23  O   UNL     1     -12.370  14.702  67.195  1.00  0.00    -0.214 OA 
BRANCH  22  24
HETATM   24  C   UNL     1     -10.333  15.513  68.267  1.00  0.00    -0.235 C  
HETATM   25  C   UNL     1     -10.403  16.867  67.531  1.00  0.00    -0.318 C  
HETATM   26  C   UNL     1     -10.836  15.725  69.701  1.00  0.00    -0.300 C  
HETATM   27  C   UNL     1      -8.881  15.026  68.269  1.00  0.00    -0.172 C  
ENDBRANCH  22  24
ENDBRANCH  21  22
ENDBRANCH  11  21
ENDBRANCH   5   8
ENDBRANCH   4   5
ENDBRANCH   2   4
TORSDOF 9
ENDMDL
MODEL      173
REMARK 921   NORMALIZED FREE ENERGY PREDICTED BY IDOCK:   -3.29 KCAL/MOL
REMARK 922        TOTAL FREE ENERGY PREDICTED BY IDOCK:   -6.29 KCAL/MOL
REMARK 923 INTER-LIGAND FREE ENERGY PREDICTED BY IDOCK:   -5.94 KCAL/MOL
REMARK 924 INTRA-LIGAND FREE ENERGY PREDICTED BY IDOCK:   -0.36 KCAL/MOL
REMARK 927      BINDING AFFINITY PREDICTED BY RF-SCORE:    0.00 PKD
ROOT
HETATM    1  C   UNL     1      -7.693  10.271  65.190  1.00  0.00    -0.136 C  
HETATM    2  N   UNL     1      -8.424  10.254  63.934  1.00  0.00    -0.173 NA 
HETATM    3  H   UNL     1      -8.288   9.374  63.435  1.00  0.00     0.000 HD 
ENDROOT
BRANCH   2   4
HETATM    4  C   UNL     1      -9.852  10.543  64.140  1.00  0.00    -0.337 C  
BRANCH   4   5
HETATM    5  C   UNL     1     -10.212  11.972  63.656  1.00  0.00    -0.444 C  
HETATM    6  H   UNL     1     -11.692  12.810  62.674  1.00  0.00     0.000 HD 
HETATM    7  O   UNL     1     -11.471  11.935  62.971  1.00  0.00    -0.193 OA 
BRANCH   5   8
HETATM    8  C   UNL     1     -10.263  12.974  64.796  1.00  0.00    -0.312 A  
HETATM    9  C   UNL     1     -10.089  12.580  66.131  1.00  0.00    -0.265 A  
HETATM   10  C   UNL     1     -10.122  13.520  67.174  1.00  0.00    -0.245 A  
HETATM   11  C   UNL     1     -10.307  14.879  66.886  1.00  0.00    -0.264 A  
HETATM   12  C   UNL     1     -10.508  15.274  65.561  1.00  0.00    -0.396 A  
HETATM   13  C   UNL     1     -10.472  14.333  64.527  1.00  0.00    -0.172 A  
BRANCH  10  14
HETATM   14  O   UNL     1      -9.805  13.142  68.500  1.00  0.00    -0.218 OA 
BRANCH  14  15
HETATM   15  C   UNL     1      -9.530  11.796  68.793  1.00  0.00    -0.026 C  
HETATM   16  O   UNL     1      -8.440  11.262  68.646  1.00  0.00    -0.151 OA 
BRANCH  15  17
HETATM   17  C   UNL     1     -10.790  11.129  69.365  1.00  0.00    -0.264 C  
HETATM   18  C   UNL     1     -11.512  10.326  68.268  1.00  0.00    -0.149 C  
HETATM   19  C   UNL     1     -10.371  10.151  70.472  1.00  0.00    -0.108 C  
HETATM   20  C   UNL     1     -11.740  12.196  69.917  1.00  0.00    -0.361 C  
ENDBRANCH  15  17
ENDBRANCH  14  15
ENDBRANCH  10  14
BRANCH  11  21
HETATM   21  O   UNL     1     -10.356  15.817  67.950  1.00  0.00    -0.250 OA 
BRANCH  21  22
HETATM   22  C   UNL     1      -9.273  16.677  68.203  1.00  0.00    -0.220 C  
HETATM   23  O   UNL     1      -8.193  16.334  68.670  1.00  0.00    -0.190 OA 
BRANCH  22  24
HETATM   24  C   UNL     1      -9.621  18.131  67.845  1.00  0.00    -0.290 C  
HETATM   25  C   UNL     1      -8.332  18.889  67.468  1.00  0.00    -0.294 C  
HETATM   26  C   UNL     1     -10.570  18.179  66.641  1.00  0.00    -0.296 C  
HETATM   27  C   UNL     1     -10.256  18.812  69.061  1.00  0.00    -0.181 C  
ENDBRANCH  22  24
ENDBRANCH  21  22
ENDBRANCH  11  21
ENDBRANCH   5   8
ENDBRANCH   4   5
ENDBRANCH   2   4
TORSDOF 9
ENDMDL
MODEL      174
REMARK 921   NORMALIZED FREE ENERGY PREDICTED BY IDOCK:   -3.26 KCAL/MOL
REMARK 922        TOTAL FREE ENERGY PREDICTED BY IDOCK:   -6.25 KCAL/MOL
REMARK 923 INTER-LIGAND FREE ENERGY PREDICTED BY IDOCK:   -5.39 KCAL/MOL
REMARK 924 INTRA-LIGAND FREE ENERGY PREDICTED BY IDOCK:   -0.86 KCAL/MOL
REMARK 927      BINDING AFFINITY PREDICTED BY RF-SCORE:    0.00 PKD
ROOT
HETATM    1  C   UNL     1      -9.808  19.710  69.206  1.00  0.00    -0.261 C  
HETATM    2  N   UNL     1     -10.352  18.587  68.461  1.00  0.00    -0.381 NA 
HETATM    3  H   UNL     1     -11.128  18.149  68.959  1.00  0.00     0.000 HD 
ENDROOT
BRANCH   2   4
HETATM    4  C   UNL     1     -10.741  18.984  67.099  1.00  0.00    -0.456 C  
BRANCH   4   5
HETATM    5  C   UNL     1     -10.035  18.105  66.034  1.00  0.00    -0.215 C  
HETATM    6  H   UNL     1      -8.238  17.991  65.248  1.00  0.00     0.000 HD 
HETATM    7  O   UNL     1      -8.672  18.529  65.900  1.00  0.00    -0.490 OA 
BRANCH   5   8
HETATM    8  C   UNL     1     -10.095  16.626  66.372  1.00  0.00    -0.325 A  
HETATM    9  C   UNL     1      -8.987  15.946  66.901  1.00  0.00    -0.257 A  
HETATM   10  C   UNL     1      -9.060  14.582  67.225  1.00  0.00    -0.209 A  
HETATM   11  C   UNL     1     -10.263  13.884  67.044  1.00  0.00    -0.254 A  
HETATM   12  C   UNL     1     -11.360  14.547  66.492  1.00  0.00    -0.354 A  
HETATM   13  C   UNL     1     -11.281  15.907  66.174  1.00  0.00     0.091 A  
BRANCH  10  14
HETATM   14  O   UNL     1      -7.991  13.937  67.889  1.00  0.00    -0.131 OA 
BRANCH  14  15
HETATM   15  C   UNL     1      -7.495  14.469  69.089  1.00  0.00    -0.118 C  
HETATM   16  O   UNL     1      -8.173  15.046  69.927  1.00  0.00    -0.056 OA 
BRANCH  15  17
HETATM   17  C   UNL     1      -5.992  14.169  69.199  1.00  0.00    -0.093 C  
HETATM   18  C   UNL     1      -5.742  13.082  70.260  1.00  0.00    -0.159 C  
HETATM   19  C   UNL     1      -5.494  13.638  67.847  1.00  0.00    -0.099 C  
HETATM   20  C   UNL     1      -5.234  15.441  69.593  1.00  0.00    -0.096 C  
ENDBRANCH  15  17
ENDBRANCH  14  15
ENDBRANCH  10  14
BRANCH  11  21
HETATM   21  O   UNL     1     -10.320  12.501  67.358  1.00  0.00    -0.214 OA 
BRANCH  21  22
HETATM   22  C   UNL     1     -10.502  11.538  66.350  1.00  0.00    -0.250 C  
HETATM   23  O   UNL     1     -11.405  11.547  65.520  1.00  0.00    -0.214 OA 
BRANCH  22  24
HETATM   24  C   UNL     1      -9.431  10.438  66.430  1.00  0.00    -0.209 C  
HETATM   25  C   UNL     1      -8.031  11.082  66.386  1.00  0.00    -0.161 C  
HETATM   26  C   UNL     1      -9.555   9.659  67.745  1.00  0.00    -0.161 C  
HETATM   27  C   UNL     1      -9.582   9.499  65.229  1.00  0.00    -0.314 C  
ENDBRANCH  22  24
ENDBRANCH  21  22
ENDBRANCH  11  21
ENDBRANCH   5   8
ENDBRANCH   4   5
ENDBRANCH   2   4
TORSDOF 9
ENDMDL
MODEL      175
REMARK 921   NORMALIZED FREE ENERGY PREDICTED BY IDOCK:   -3.25 KCAL/MOL
REMARK 922        TOTAL FREE ENERGY PREDICTED BY IDOCK:   -6.24 KCAL/MOL
REMARK 923 INTER-LIGAND FREE ENERGY PREDICTED BY IDOCK:   -4.69 KCAL/MOL
REMARK 924 INTRA-LIGAND FREE ENERGY PREDICTED BY IDOCK:   -1.55 KCAL/MOL
REMARK 927      BINDING AFFINITY PREDICTED BY RF-SCORE:    0.00 PKD
ROOT
HETATM    1  C   UNL     1     -10.138   7.654  73.336  1.00  0.00    -0.319 C  
HETATM    2  N   UNL     1     -11.557   7.519  73.048  1.00  0.00    -0.612 NA 
HETATM    3  H   UNL     1     -11.944   8.382  72.665  1.00  0.00     0.000 HD 
ENDROOT
BRANCH   2   4
HETATM    4  C   UNL     1     -11.818   6.371  72.164  1.00  0.00    -0.314 C  
BRANCH   4   5
HETATM    5  C   UNL     1     -10.753   5.261  72.356  1.00  0.00    -0.229 C  
HETATM    6  H   UNL     1     -10.706   3.452  73.122  1.00  0.00     0.000 HD 
HETATM    7  O   UNL     1     -11.359   4.133  73.003  1.00  0.00    -0.125 OA 
BRANCH   5   8
HETATM    8  C   UNL     1     -10.116   4.835  71.045  1.00  0.00    -0.269 A  
HETATM    9  C   UNL     1     -10.119   5.672  69.919  1.00  0.00    -0.289 A  
HETATM   10  C   UNL     1      -9.511   5.272  68.718  1.00  0.00    -0.128 A  
HETATM   11  C   UNL     1      -8.869   4.029  68.639  1.00  0.00    -0.106 A  
HETATM   12  C   UNL     1      -8.887   3.179  69.747  1.00  0.00    -0.149 A  
HETATM   13  C   UNL     1      -9.492   3.585  70.942  1.00  0.00    -0.236 A  
BRANCH  10  14
HETATM   14  O   UNL     1      -9.390   6.172  67.634  1.00  0.00    -0.115 OA 
BRANCH  14  15
HETATM   15  C   UNL     1      -8.422   7.188  67.677  1.00  0.00    -0.120 C  
HETATM   16  O   UNL     1      -7.216   6.996  67.737  1.00  0.00    -0.086 OA 
BRANCH  15  17
HETATM   17  C   UNL     1      -9.112   8.558  67.588  1.00  0.00    -0.144 C  
HETATM   18  C   UNL     1      -9.203   9.199  68.984  1.00  0.00    -0.143 C  
HETATM   19  C   UNL     1      -8.269   9.479  66.695  1.00  0.00    -0.116 C  
HETATM   20  C   UNL     1     -10.524   8.394  67.016  1.00  0.00    -0.375 C  
ENDBRANCH  15  17
ENDBRANCH  14  15
ENDBRANCH  10  14
BRANCH  11  21
HETATM   21  O   UNL     1      -8.274   3.629  67.414  1.00  0.00    -0.089 OA 
BRANCH  21  22
HETATM   22  C   UNL     1      -8.971   2.810  66.507  1.00  0.00    -0.148 C  
HETATM   23  O   UNL     1      -9.370   1.676  66.743  1.00  0.00    -0.033 OA 
BRANCH  22  24
HETATM   24  C   UNL     1      -9.149   3.510  65.150  1.00  0.00    -0.142 C  
HETATM   25  C   UNL     1      -9.111   2.458  64.022  1.00  0.00    -0.107 C  
HETATM   26  C   UNL     1     -10.504   4.226  65.085  1.00  0.00    -0.195 C  
HETATM   27  C   UNL     1      -8.002   4.503  64.939  1.00  0.00    -0.098 C  
ENDBRANCH  22  24
ENDBRANCH  21  22
ENDBRANCH  11  21
ENDBRANCH   5   8
ENDBRANCH   4   5
ENDBRANCH   2   4
TORSDOF 9
ENDMDL
MODEL      176
REMARK 921   NORMALIZED FREE ENERGY PREDICTED BY IDOCK:   -3.20 KCAL/MOL
REMARK 922        TOTAL FREE ENERGY PREDICTED BY IDOCK:   -6.17 KCAL/MOL
REMARK 923 INTER-LIGAND FREE ENERGY PREDICTED BY IDOCK:   -4.82 KCAL/MOL
REMARK 924 INTRA-LIGAND FREE ENERGY PREDICTED BY IDOCK:   -1.34 KCAL/MOL
REMARK 927      BINDING AFFINITY PREDICTED BY RF-SCORE:    0.00 PKD
ROOT
HETATM    1  C   UNL     1     -11.737  12.375  65.792  1.00  0.00    -0.414 C  
HETATM    2  N   UNL     1     -10.879  12.128  66.940  1.00  0.00    -0.239 NA 
HETATM    3  H   UNL     1     -11.003  12.841  67.659  1.00  0.00     0.000 HD 
ENDROOT
BRANCH   2   4
HETATM    4  C   UNL     1     -11.084  10.774  67.480  1.00  0.00    -0.308 C  
BRANCH   4   5
HETATM    5  C   UNL     1     -11.199  10.799  69.027  1.00  0.00    -0.262 C  
HETATM    6  H   UNL     1     -12.492  11.467  70.346  1.00  0.00     0.000 HD 
HETATM    7  O   UNL     1     -12.421  11.452  69.399  1.00  0.00    -0.213 OA 
BRANCH   5   8
HETATM    8  C   UNL     1     -11.141   9.408  69.635  1.00  0.00    -0.163 A  
HETATM    9  C   UNL     1     -10.447   8.361  69.011  1.00  0.00    -0.216 A  
HETATM   10  C   UNL     1     -10.387   7.084  69.592  1.00  0.00    -0.209 A  
HETATM   11  C   UNL     1     -11.006   6.848  70.828  1.00  0.00    -0.259 A  
HETATM   12  C   UNL     1     -11.722   7.879  71.440  1.00  0.00    -0.311 A  
HETATM   13  C   UNL     1     -11.775   9.149  70.857  1.00  0.00    -0.341 A  
BRANCH  10  14
HETATM   14  O   UNL     1      -9.570   6.072  69.035  1.00  0.00    -0.128 OA 
BRANCH  14  15
HETATM   15  C   UNL     1      -8.175   6.149  69.174  1.00  0.00    -0.113 C  
HETATM   16  O   UNL     1      -7.597   6.753  70.066  1.00  0.00    -0.095 OA 
BRANCH  15  17
HETATM   17  C   UNL     1      -7.505   5.322  68.066  1.00  0.00    -0.076 C  
HETATM   18  C   UNL     1      -6.197   4.699  68.585  1.00  0.00    -0.032 C  
HETATM   19  C   UNL     1      -8.448   4.179  67.663  1.00  0.00    -0.103 C  
HETATM   20  C   UNL     1      -7.194   6.217  66.862  1.00  0.00    -0.074 C  
ENDBRANCH  15  17
ENDBRANCH  14  15
ENDBRANCH  10  14
BRANCH  11  21
HETATM   21  O   UNL     1     -10.953   5.549  71.397  1.00  0.00    -0.224 OA 
BRANCH  21  22
HETATM   22  C   UNL     1     -10.084   5.264  72.465  1.00  0.00    -0.181 C  
HETATM   23  O   UNL     1      -9.753   6.060  73.337  1.00  0.00    -0.153 OA 
BRANCH  22  24
HETATM   24  C   UNL     1      -9.568   3.818  72.392  1.00  0.00    -0.198 C  
HETATM   25  C   UNL     1     -10.381   2.934  73.360  1.00  0.00    -0.224 C  
HETATM   26  C   UNL     1      -9.739   3.254  70.976  1.00  0.00    -0.199 C  
HETATM   27  C   UNL     1      -8.095   3.786  72.813  1.00  0.00    -0.089 C  
ENDBRANCH  22  24
ENDBRANCH  21  22
ENDBRANCH  11  21
ENDBRANCH   5   8
ENDBRANCH   4   5
ENDBRANCH   2   4
TORSDOF 9
ENDMDL
MODEL      177
REMARK 921   NORMALIZED FREE ENERGY PREDICTED BY IDOCK:   -3.15 KCAL/MOL
REMARK 922        TOTAL FREE ENERGY PREDICTED BY IDOCK:   -6.09 KCAL/MOL
REMARK 923 INTER-LIGAND FREE ENERGY PREDICTED BY IDOCK:   -5.09 KCAL/MOL
REMARK 924 INTRA-LIGAND FREE ENERGY PREDICTED BY IDOCK:   -1.00 KCAL/MOL
REMARK 927      BINDING AFFINITY PREDICTED BY RF-SCORE:    0.00 PKD
ROOT
HETATM    1  C   UNL     1      -8.071   6.812  64.958  1.00  0.00    -0.126 C  
HETATM    2  N   UNL     1      -7.044   6.093  65.694  1.00  0.00    -0.071 NA 
HETATM    3  H   UNL     1      -6.126   6.205  65.262  1.00  0.00     0.000 HD 
ENDROOT
BRANCH   2   4
HETATM    4  C   UNL     1      -7.024   6.487  67.112  1.00  0.00    -0.071 C  
BRANCH   4   5
HETATM    5  C   UNL     1      -6.295   7.842  67.308  1.00  0.00    -0.055 C  
HETATM    6  H   UNL     1      -5.054   8.953  66.267  1.00  0.00     0.000 HD 
HETATM    7  O   UNL     1      -5.501   8.123  66.147  1.00  0.00    -0.028 OA 
BRANCH   5   8
HETATM    8  C   UNL     1      -7.259   8.985  67.575  1.00  0.00    -0.080 A  
HETATM    9  C   UNL     1      -8.079   9.007  68.712  1.00  0.00    -0.105 A  
HETATM   10  C   UNL     1      -8.953  10.079  68.955  1.00  0.00    -0.163 A  
HETATM   11  C   UNL     1      -8.997  11.161  68.065  1.00  0.00    -0.149 A  
HETATM   12  C   UNL     1      -8.204  11.133  66.916  1.00  0.00    -0.149 A  
HETATM   13  C   UNL     1      -7.333  10.063  66.682  1.00  0.00    -0.103 A  
BRANCH  10  14
HETATM   14  O   UNL     1      -9.671  10.166  70.171  1.00  0.00    -0.190 OA 
BRANCH  14  15
HETATM   15  C   UNL     1     -10.988   9.684  70.237  1.00  0.00    -0.285 C  
HETATM   16  O   UNL     1     -11.928  10.140  69.602  1.00  0.00    -0.124 OA 
BRANCH  15  17
HETATM   17  C   UNL     1     -11.044   8.477  71.186  1.00  0.00    -0.312 C  
HETATM   18  C   UNL     1     -11.017   7.166  70.381  1.00  0.00    -0.290 C  
HETATM   19  C   UNL     1      -9.805   8.504  72.093  1.00  0.00    -0.388 C  
HETATM   20  C   UNL     1     -12.327   8.530  72.022  1.00  0.00    -0.423 C  
ENDBRANCH  15  17
ENDBRANCH  14  15
ENDBRANCH  10  14
BRANCH  11  21
HETATM   21  O   UNL     1      -9.898  12.230  68.312  1.00  0.00    -0.210 OA 
BRANCH  21  22
HETATM   22  C   UNL     1      -9.601  13.536  67.884  1.00  0.00    -0.218 C  
HETATM   23  O   UNL     1      -8.628  14.192  68.240  1.00  0.00    -0.162 OA 
BRANCH  22  24
HETATM   24  C   UNL     1     -10.678  14.064  66.922  1.00  0.00    -0.285 C  
HETATM   25  C   UNL     1     -10.060  14.266  65.524  1.00  0.00    -0.370 C  
HETATM   26  C   UNL     1     -11.828  13.058  66.793  1.00  0.00    -0.451 C  
HETATM   27  C   UNL     1     -11.194  15.413  67.434  1.00  0.00    -0.287 C  
ENDBRANCH  22  24
ENDBRANCH  21  22
ENDBRANCH  11  21
ENDBRANCH   5   8
ENDBRANCH   4   5
ENDBRANCH   2   4
TORSDOF 9
ENDMDL
MODEL      178
REMARK 921   NORMALIZED FREE ENERGY PREDICTED BY IDOCK:   -3.09 KCAL/MOL
REMARK 922        TOTAL FREE ENERGY PREDICTED BY IDOCK:   -6.00 KCAL/MOL
REMARK 923 INTER-LIGAND FREE ENERGY PREDICTED BY IDOCK:   -4.65 KCAL/MOL
REMARK 924 INTRA-LIGAND FREE ENERGY PREDICTED BY IDOCK:   -1.35 KCAL/MOL
REMARK 927      BINDING AFFINITY PREDICTED BY RF-SCORE:    0.00 PKD
ROOT
HETATM    1  C   UNL     1      -5.647   4.439  65.286  1.00  0.00    -0.014 C  
HETATM    2  N   UNL     1      -5.418   3.952  66.637  1.00  0.00    -0.013 NA 
HETATM    3  H   UNL     1      -4.569   3.390  66.692  1.00  0.00     0.000 HD 
ENDROOT
BRANCH   2   4
HETATM    4  C   UNL     1      -5.398   5.057  67.609  1.00  0.00    -0.012 C  
BRANCH   4   5
HETATM    5  C   UNL     1      -6.167   4.680  68.903  1.00  0.00    -0.031 C  
HETATM    6  H   UNL     1      -5.756   4.573  70.821  1.00  0.00     0.000 HD 
HETATM    7  O   UNL     1      -5.286   4.804  70.028  1.00  0.00    -0.003 OA 
BRANCH   5   8
HETATM    8  C   UNL     1      -7.406   5.533  69.110  1.00  0.00    -0.077 A  
HETATM    9  C   UNL     1      -7.727   6.588  68.242  1.00  0.00    -0.105 A  
HETATM   10  C   UNL     1      -8.886   7.358  68.435  1.00  0.00    -0.121 A  
HETATM   11  C   UNL     1      -9.754   7.061  69.495  1.00  0.00    -0.160 A  
HETATM   12  C   UNL     1      -9.426   6.031  70.378  1.00  0.00    -0.187 A  
HETATM   13  C   UNL     1      -8.271   5.266  70.178  1.00  0.00    -0.091 A  
BRANCH  10  14
HETATM   14  O   UNL     1      -9.281   8.323  67.480  1.00  0.00    -0.136 OA 
BRANCH  14  15
HETATM   15  C   UNL     1      -8.757   9.625  67.549  1.00  0.00    -0.125 C  
HETATM   16  O   UNL     1      -7.705   9.922  68.096  1.00  0.00    -0.082 OA 
BRANCH  15  17
HETATM   17  C   UNL     1      -9.684  10.590  66.794  1.00  0.00    -0.220 C  
HETATM   18  C   UNL     1      -9.887  10.109  65.346  1.00  0.00    -0.375 C  
HETATM   19  C   UNL     1     -11.054  10.603  67.487  1.00  0.00    -0.367 C  
HETATM   20  C   UNL     1      -9.073  11.994  66.778  1.00  0.00    -0.197 C  
ENDBRANCH  15  17
ENDBRANCH  14  15
ENDBRANCH  10  14
BRANCH  11  21
HETATM   21  O   UNL     1     -10.912   7.858  69.690  1.00  0.00    -0.214 OA 
BRANCH  21  22
HETATM   22  C   UNL     1     -10.973   8.800  70.732  1.00  0.00    -0.247 C  
HETATM   23  O   UNL     1     -10.315   9.833  70.789  1.00  0.00    -0.294 OA 
BRANCH  22  24
HETATM   24  C   UNL     1     -11.960   8.358  71.825  1.00  0.00    -0.380 C  
HETATM   25  C   UNL     1     -11.174   7.805  73.032  1.00  0.00    -0.380 C  
HETATM   26  C   UNL     1     -12.798   9.548  72.309  1.00  0.00    -0.426 C  
HETATM   27  C   UNL     1     -12.862   7.250  71.273  1.00  0.00    -0.391 C  
ENDBRANCH  22  24
ENDBRANCH  21  22
ENDBRANCH  11  21
ENDBRANCH   5   8
ENDBRANCH   4   5
ENDBRANCH   2   4
TORSDOF 9
ENDMDL
MODEL      179
REMARK 921   NORMALIZED FREE ENERGY PREDICTED BY IDOCK:   -3.09 KCAL/MOL
REMARK 922        TOTAL FREE ENERGY PREDICTED BY IDOCK:   -6.00 KCAL/MOL
REMARK 923 INTER-LIGAND FREE ENERGY PREDICTED BY IDOCK:   -5.05 KCAL/MOL
REMARK 924 INTRA-LIGAND FREE ENERGY PREDICTED BY IDOCK:   -0.95 KCAL/MOL
REMARK 927      BINDING AFFINITY PREDICTED BY RF-SCORE:    0.00 PKD
ROOT
HETATM    1  C   UNL     1      -7.155   4.407  63.191  1.00  0.00    -0.044 C  
HETATM    2  N   UNL     1      -6.455   5.099  64.262  1.00  0.00    -0.036 NA 
HETATM    3  H   UNL     1      -6.240   6.063  64.006  1.00  0.00     0.000 HD 
ENDROOT
BRANCH   2   4
HETATM    4  C   UNL     1      -7.208   5.032  65.525  1.00  0.00    -0.068 C  
BRANCH   4   5
HETATM    5  C   UNL     1      -8.699   5.403  65.311  1.00  0.00    -0.145 C  
HETATM    6  H   UNL     1     -10.439   4.643  65.812  1.00  0.00     0.000 HD 
HETATM    7  O   UNL     1      -9.526   4.416  65.943  1.00  0.00    -0.147 OA 
BRANCH   5   8
HETATM    8  C   UNL     1      -9.034   6.786  65.839  1.00  0.00    -0.095 A  
HETATM    9  C   UNL     1      -9.936   6.972  66.897  1.00  0.00    -0.283 A  
HETATM   10  C   UNL     1     -10.224   8.256  67.387  1.00  0.00    -0.258 A  
HETATM   11  C   UNL     1      -9.587   9.375  66.834  1.00  0.00    -0.164 A  
HETATM   12  C   UNL     1      -8.709   9.200  65.762  1.00  0.00    -0.192 A  
HETATM   13  C   UNL     1      -8.425   7.917  65.280  1.00  0.00    -0.119 A  
BRANCH  10  14
HETATM   14  O   UNL     1     -11.021   8.428  68.543  1.00  0.00     0.014 OA 
BRANCH  14  15
HETATM   15  C   UNL     1     -11.022   7.440  69.541  1.00  0.00    -0.139 C  
HETATM   16  O   UNL     1     -11.672   6.406  69.495  1.00  0.00    -0.366 OA 
BRANCH  15  17
HETATM   17  C   UNL     1     -10.049   7.843  70.660  1.00  0.00    -0.197 C  
HETATM   18  C   UNL     1      -8.671   7.198  70.424  1.00  0.00    -0.150 C  
HETATM   19  C   UNL     1      -9.871   9.368  70.635  1.00  0.00    -0.340 C  
HETATM   20  C   UNL     1     -10.595   7.384  72.016  1.00  0.00    -0.241 C  
ENDBRANCH  15  17
ENDBRANCH  14  15
ENDBRANCH  10  14
BRANCH  11  21
HETATM   21  O   UNL     1      -9.900  10.669  67.325  1.00  0.00    -0.169 OA 
BRANCH  21  22
HETATM   22  C   UNL     1     -10.666  11.566  66.561  1.00  0.00    -0.273 C  
HETATM   23  O   UNL     1     -10.926  11.436  65.370  1.00  0.00    -0.262 OA 
BRANCH  22  24
HETATM   24  C   UNL     1     -11.126  12.766  67.405  1.00  0.00    -0.312 C  
HETATM   25  C   UNL     1     -11.783  12.257  68.704  1.00  0.00    -0.377 C  
HETATM   26  C   UNL     1      -9.929  13.645  67.791  1.00  0.00    -0.235 C  
HETATM   27  C   UNL     1     -12.157  13.575  66.613  1.00  0.00    -0.447 C  
ENDBRANCH  22  24
ENDBRANCH  21  22
ENDBRANCH  11  21
ENDBRANCH   5   8
ENDBRANCH   4   5
ENDBRANCH   2   4
TORSDOF 9
ENDMDL
MODEL      180
REMARK 921   NORMALIZED FREE ENERGY PREDICTED BY IDOCK:   -3.06 KCAL/MOL
REMARK 922        TOTAL FREE ENERGY PREDICTED BY IDOCK:   -5.95 KCAL/MOL
REMARK 923 INTER-LIGAND FREE ENERGY PREDICTED BY IDOCK:   -4.72 KCAL/MOL
REMARK 924 INTRA-LIGAND FREE ENERGY PREDICTED BY IDOCK:   -1.23 KCAL/MOL
REMARK 927      BINDING AFFINITY PREDICTED BY RF-SCORE:    0.00 PKD
ROOT
HETATM    1  C   UNL     1     -12.380  15.294  70.612  1.00  0.00    -0.377 C  
HETATM    2  N   UNL     1     -12.519  15.176  69.169  1.00  0.00    -0.596 NA 
HETATM    3  H   UNL     1     -13.450  15.456  68.859  1.00  0.00     0.000 HD 
ENDROOT
BRANCH   2   4
HETATM    4  C   UNL     1     -11.467  15.928  68.466  1.00  0.00    -0.377 C  
BRANCH   4   5
HETATM    5  C   UNL     1     -11.197  15.334  67.059  1.00  0.00    -0.275 C  
HETATM    6  H   UNL     1     -10.511  15.999  65.343  1.00  0.00     0.000 HD 
HETATM    7  O   UNL     1     -10.677  16.362  66.205  1.00  0.00    -0.273 OA 
BRANCH   5   8
HETATM    8  C   UNL     1     -10.242  14.154  67.101  1.00  0.00    -0.258 A  
HETATM    9  C   UNL     1     -10.110  13.275  66.016  1.00  0.00    -0.301 A  
HETATM   10  C   UNL     1      -9.212  12.197  66.062  1.00  0.00    -0.118 A  
HETATM   11  C   UNL     1      -8.412  12.001  67.197  1.00  0.00    -0.180 A  
HETATM   12  C   UNL     1      -8.558  12.855  68.291  1.00  0.00    -0.170 A  
HETATM   13  C   UNL     1      -9.454  13.929  68.237  1.00  0.00    -0.217 A  
BRANCH  10  14
HETATM   14  O   UNL     1      -8.977  11.400  64.917  1.00  0.00    -0.062 OA 
BRANCH  14  15
HETATM   15  C   UNL     1      -9.288  10.031  64.947  1.00  0.00    -0.266 C  
HETATM   16  O   UNL     1     -10.273   9.554  65.491  1.00  0.00    -0.174 OA 
BRANCH  15  17
HETATM   17  C   UNL     1      -8.230   9.249  64.154  1.00  0.00    -0.159 C  
HETATM   18  C   UNL     1      -7.968   7.885  64.816  1.00  0.00    -0.140 C  
HETATM   19  C   UNL     1      -8.762   8.995  62.736  1.00  0.00    -0.160 C  
HETATM   20  C   UNL     1      -6.921  10.045  64.105  1.00  0.00    -0.124 C  
ENDBRANCH  15  17
ENDBRANCH  14  15
ENDBRANCH  10  14
BRANCH  11  21
HETATM   21  O   UNL     1      -7.520  10.897  67.238  1.00  0.00    -0.096 OA 
BRANCH  21  22
HETATM   22  C   UNL     1      -7.747   9.818  68.110  1.00  0.00    -0.082 C  
HETATM   23  O   UNL     1      -8.848   9.448  68.503  1.00  0.00    -0.127 OA 
BRANCH  22  24
HETATM   24  C   UNL     1      -6.426   9.163  68.542  1.00  0.00    -0.054 C  
HETATM   25  C   UNL     1      -6.159   9.478  70.028  1.00  0.00    -0.046 C  
HETATM   26  C   UNL     1      -6.502   7.638  68.387  1.00  0.00    -0.052 C  
HETATM   27  C   UNL     1      -5.280   9.735  67.702  1.00  0.00    -0.036 C  
ENDBRANCH  22  24
ENDBRANCH  21  22
ENDBRANCH  11  21
ENDBRANCH   5   8
ENDBRANCH   4   5
ENDBRANCH   2   4
TORSDOF 9
ENDMDL
MODEL      181
REMARK 921   NORMALIZED FREE ENERGY PREDICTED BY IDOCK:   -3.06 KCAL/MOL
REMARK 922        TOTAL FREE ENERGY PREDICTED BY IDOCK:   -5.95 KCAL/MOL
REMARK 923 INTER-LIGAND FREE ENERGY PREDICTED BY IDOCK:   -5.61 KCAL/MOL
REMARK 924 INTRA-LIGAND FREE ENERGY PREDICTED BY IDOCK:   -0.35 KCAL/MOL
REMARK 927      BINDING AFFINITY PREDICTED BY RF-SCORE:    0.00 PKD
ROOT
HETATM    1  C   UNL     1     -10.207  20.296  69.323  1.00  0.00     0.102 C  
HETATM    2  N   UNL     1     -10.178  20.199  67.872  1.00  0.00    -0.389 NA 
HETATM    3  H   UNL     1     -10.671  20.979  67.436  1.00  0.00     0.000 HD 
ENDROOT
BRANCH   2   4
HETATM    4  C   UNL     1      -8.799  20.083  67.370  1.00  0.00    -0.346 C  
BRANCH   4   5
HETATM    5  C   UNL     1      -8.188  18.703  67.723  1.00  0.00    -0.255 C  
HETATM    6  H   UNL     1      -8.003  17.600  69.338  1.00  0.00     0.000 HD 
HETATM    7  O   UNL     1      -8.378  18.446  69.121  1.00  0.00    -0.108 OA 
BRANCH   5   8
HETATM    8  C   UNL     1      -8.783  17.576  66.896  1.00  0.00    -0.269 A  
HETATM    9  C   UNL     1      -8.350  16.250  67.040  1.00  0.00    -0.237 A  
HETATM   10  C   UNL     1      -8.920  15.215  66.281  1.00  0.00    -0.239 A  
HETATM   11  C   UNL     1      -9.957  15.498  65.380  1.00  0.00    -0.304 A  
HETATM   12  C   UNL     1     -10.373  16.820  65.212  1.00  0.00    -0.077 A  
HETATM   13  C   UNL     1      -9.802  17.846  65.974  1.00  0.00    -0.180 A  
BRANCH  10  14
HETATM   14  O   UNL     1      -8.583  13.864  66.529  1.00  0.00    -0.024 OA 
BRANCH  14  15
HETATM   15  C   UNL     1      -9.152  13.195  67.625  1.00  0.00    -0.201 C  
HETATM   16  O   UNL     1     -10.178  13.539  68.193  1.00  0.00    -0.235 OA 
BRANCH  15  17
HETATM   17  C   UNL     1      -8.312  11.952  67.957  1.00  0.00    -0.160 C  
HETATM   18  C   UNL     1      -7.156  12.327  68.901  1.00  0.00    -0.088 C  
HETATM   19  C   UNL     1      -9.204  10.932  68.679  1.00  0.00    -0.187 C  
HETATM   20  C   UNL     1      -7.738  11.352  66.670  1.00  0.00    -0.129 C  
ENDBRANCH  15  17
ENDBRANCH  14  15
ENDBRANCH  10  14
BRANCH  11  21
HETATM   21  O   UNL     1     -10.513  14.447  64.606  1.00  0.00    -0.412 OA 
BRANCH  21  22
HETATM   22  C   UNL     1     -11.666  13.766  65.036  1.00  0.00    -0.345 C  
HETATM   23  O   UNL     1     -12.549  14.247  65.738  1.00  0.00    -0.454 OA 
BRANCH  22  24
HETATM   24  C   UNL     1     -11.674  12.313  64.536  1.00  0.00    -0.421 C  
HETATM   25  C   UNL     1     -12.979  12.046  63.759  1.00  0.00    -0.331 C  
HETATM   26  C   UNL     1     -10.496  12.062  63.585  1.00  0.00    -0.494 C  
HETATM   27  C   UNL     1     -11.610  11.365  65.737  1.00  0.00     0.176 C  
ENDBRANCH  22  24
ENDBRANCH  21  22
ENDBRANCH  11  21
ENDBRANCH   5   8
ENDBRANCH   4   5
ENDBRANCH   2   4
TORSDOF 9
ENDMDL
MODEL      182
REMARK 921   NORMALIZED FREE ENERGY PREDICTED BY IDOCK:   -3.00 KCAL/MOL
REMARK 922        TOTAL FREE ENERGY PREDICTED BY IDOCK:   -5.86 KCAL/MOL
REMARK 923 INTER-LIGAND FREE ENERGY PREDICTED BY IDOCK:   -5.26 KCAL/MOL
REMARK 924 INTRA-LIGAND FREE ENERGY PREDICTED BY IDOCK:   -0.60 KCAL/MOL
REMARK 927      BINDING AFFINITY PREDICTED BY RF-SCORE:    0.00 PKD
ROOT
HETATM    1  C   UNL     1     -14.311   7.497  71.559  1.00  0.00    -0.458 C  
HETATM    2  N   UNL     1     -12.944   7.829  71.194  1.00  0.00    -0.537 NA 
HETATM    3  H   UNL     1     -12.902   8.684  70.639  1.00  0.00     0.000 HD 
ENDROOT
BRANCH   2   4
HETATM    4  C   UNL     1     -12.078   7.914  72.382  1.00  0.00    -0.286 C  
BRANCH   4   5
HETATM    5  C   UNL     1     -11.161   6.668  72.498  1.00  0.00    -0.261 C  
HETATM    6  H   UNL     1     -11.386   4.777  72.979  1.00  0.00     0.000 HD 
HETATM    7  O   UNL     1     -11.947   5.540  72.908  1.00  0.00    -0.209 OA 
BRANCH   5   8
HETATM    8  C   UNL     1     -10.436   6.358  71.199  1.00  0.00    -0.265 A  
HETATM    9  C   UNL     1      -9.894   7.374  70.399  1.00  0.00    -0.183 A  
HETATM   10  C   UNL     1      -9.211   7.073  69.209  1.00  0.00    -0.139 A  
HETATM   11  C   UNL     1      -9.043   5.737  68.818  1.00  0.00    -0.115 A  
HETATM   12  C   UNL     1      -9.605   4.723  69.596  1.00  0.00    -0.253 A  
HETATM   13  C   UNL     1     -10.281   5.030  70.782  1.00  0.00    -0.299 A  
BRANCH  10  14
HETATM   14  O   UNL     1      -8.544   8.085  68.481  1.00  0.00    -0.127 OA 
BRANCH  14  15
HETATM   15  C   UNL     1      -8.994   9.413  68.562  1.00  0.00    -0.128 C  
HETATM   16  O   UNL     1      -8.848  10.138  69.535  1.00  0.00    -0.185 OA 
BRANCH  15  17
HETATM   17  C   UNL     1      -9.647   9.814  67.230  1.00  0.00    -0.194 C  
HETATM   18  C   UNL     1      -8.568  10.224  66.212  1.00  0.00    -0.144 C  
HETATM   19  C   UNL     1     -10.399   8.602  66.664  1.00  0.00    -0.303 C  
HETATM   20  C   UNL     1     -10.604  10.990  67.451  1.00  0.00    -0.276 C  
ENDBRANCH  15  17
ENDBRANCH  14  15
ENDBRANCH  10  14
BRANCH  11  21
HETATM   21  O   UNL     1      -8.367   5.446  67.605  1.00  0.00    -0.100 OA 
BRANCH  21  22
HETATM   22  C   UNL     1      -9.082   5.230  66.414  1.00  0.00    -0.137 C  
HETATM   23  O   UNL     1     -10.272   4.939  66.348  1.00  0.00    -0.228 OA 
BRANCH  22  24
HETATM   24  C   UNL     1      -8.173   5.375  65.183  1.00  0.00    -0.138 C  
HETATM   25  C   UNL     1      -8.893   4.805  63.944  1.00  0.00    -0.112 C  
HETATM   26  C   UNL     1      -7.861   6.853  64.914  1.00  0.00    -0.122 C  
HETATM   27  C   UNL     1      -6.882   4.583  65.413  1.00  0.00    -0.057 C  
ENDBRANCH  22  24
ENDBRANCH  21  22
ENDBRANCH  11  21
ENDBRANCH   5   8
ENDBRANCH   4   5
ENDBRANCH   2   4
TORSDOF 9
ENDMDL
MODEL      183
REMARK 921   NORMALIZED FREE ENERGY PREDICTED BY IDOCK:   -2.94 KCAL/MOL
REMARK 922        TOTAL FREE ENERGY PREDICTED BY IDOCK:   -5.76 KCAL/MOL
REMARK 923 INTER-LIGAND FREE ENERGY PREDICTED BY IDOCK:   -4.89 KCAL/MOL
REMARK 924 INTRA-LIGAND FREE ENERGY PREDICTED BY IDOCK:   -0.87 KCAL/MOL
REMARK 927      BINDING AFFINITY PREDICTED BY RF-SCORE:    0.00 PKD
ROOT
HETATM    1  C   UNL     1     -10.354  16.548  65.931  1.00  0.00    -0.350 C  
HETATM    2  N   UNL     1      -9.219  15.659  66.117  1.00  0.00    -0.326 NA 
HETATM    3  H   UNL     1      -8.583  16.010  66.833  1.00  0.00     0.000 HD 
ENDROOT
BRANCH   2   4
HETATM    4  C   UNL     1      -9.656  14.284  66.410  1.00  0.00    -0.298 C  
BRANCH   4   5
HETATM    5  C   UNL     1      -8.800  13.652  67.538  1.00  0.00    -0.205 C  
HETATM    6  H   UNL     1      -8.648  13.846  69.486  1.00  0.00     0.000 HD 
HETATM    7  O   UNL     1      -9.172  14.233  68.795  1.00  0.00    -0.185 OA 
BRANCH   5   8
HETATM    8  C   UNL     1      -8.943  12.141  67.595  1.00  0.00    -0.178 A  
HETATM    9  C   UNL     1      -9.790  11.516  68.522  1.00  0.00    -0.198 A  
HETATM   10  C   UNL     1      -9.926  10.119  68.553  1.00  0.00    -0.163 A  
HETATM   11  C   UNL     1      -9.225   9.327  67.632  1.00  0.00    -0.124 A  
HETATM   12  C   UNL     1      -8.358   9.941  66.725  1.00  0.00    -0.125 A  
HETATM   13  C   UNL     1      -8.231  11.334  66.698  1.00  0.00    -0.164 A  
BRANCH  10  14
HETATM   14  O   UNL     1     -10.885   9.503  69.390  1.00  0.00    -0.228 OA 
BRANCH  14  15
HETATM   15  C   UNL     1     -12.057  10.196  69.734  1.00  0.00     0.022 C  
HETATM   16  O   UNL     1     -12.696  10.902  68.968  1.00  0.00    -0.239 OA 
BRANCH  15  17
HETATM   17  C   UNL     1     -12.424   9.888  71.193  1.00  0.00    -0.464 C  
HETATM   18  C   UNL     1     -13.556   8.847  71.249  1.00  0.00    -0.215 C  
HETATM   19  C   UNL     1     -11.196   9.293  71.897  1.00  0.00    -0.331 C  
HETATM   20  C   UNL     1     -12.883  11.169  71.897  1.00  0.00    -0.400 C  
ENDBRANCH  15  17
ENDBRANCH  14  15
ENDBRANCH  10  14
BRANCH  11  21
HETATM   21  O   UNL     1      -9.356   7.915  67.685  1.00  0.00    -0.141 OA 
BRANCH  21  22
HETATM   22  C   UNL     1      -8.553   7.147  68.546  1.00  0.00    -0.124 C  
HETATM   23  O   UNL     1      -8.547   7.233  69.769  1.00  0.00    -0.138 OA 
BRANCH  22  24
HETATM   24  C   UNL     1      -7.645   6.191  67.756  1.00  0.00    -0.097 C  
HETATM   25  C   UNL     1      -7.402   4.913  68.586  1.00  0.00    -0.062 C  
HETATM   26  C   UNL     1      -8.312   5.781  66.436  1.00  0.00    -0.113 C  
HETATM   27  C   UNL     1      -6.299   6.873  67.494  1.00  0.00    -0.045 C  
ENDBRANCH  22  24
ENDBRANCH  21  22
ENDBRANCH  11  21
ENDBRANCH   5   8
ENDBRANCH   4   5
ENDBRANCH   2   4
TORSDOF 9
ENDMDL
MODEL      184
REMARK 921   NORMALIZED FREE ENERGY PREDICTED BY IDOCK:   -2.94 KCAL/MOL
REMARK 922        TOTAL FREE ENERGY PREDICTED BY IDOCK:   -5.76 KCAL/MOL
REMARK 923 INTER-LIGAND FREE ENERGY PREDICTED BY IDOCK:   -4.67 KCAL/MOL
REMARK 924 INTRA-LIGAND FREE ENERGY PREDICTED BY IDOCK:   -1.09 KCAL/MOL
REMARK 927      BINDING AFFINITY PREDICTED BY RF-SCORE:    0.00 PKD
ROOT
HETATM    1  C   UNL     1     -14.034   9.071  72.422  1.00  0.00    -0.448 C  
HETATM    2  N   UNL     1     -13.298   8.511  71.300  1.00  0.00    -0.535 NA 
HETATM    3  H   UNL     1     -13.928   8.169  70.573  1.00  0.00     0.000 HD 
ENDROOT
BRANCH   2   4
HETATM    4  C   UNL     1     -12.325   9.475  70.761  1.00  0.00    -0.162 C  
BRANCH   4   5
HETATM    5  C   UNL     1     -10.872   8.961  70.930  1.00  0.00    -0.248 C  
HETATM    6  H   UNL     1      -9.895   7.863  72.234  1.00  0.00     0.000 HD 
HETATM    7  O   UNL     1     -10.785   8.179  72.129  1.00  0.00    -0.248 OA 
BRANCH   5   8
HETATM    8  C   UNL     1     -10.403   8.147  69.737  1.00  0.00    -0.216 A  
HETATM    9  C   UNL     1      -9.747   8.744  68.650  1.00  0.00    -0.170 A  
HETATM   10  C   UNL     1      -9.303   7.977  67.561  1.00  0.00    -0.147 A  
HETATM   11  C   UNL     1      -9.492   6.588  67.560  1.00  0.00    -0.125 A  
HETATM   12  C   UNL     1     -10.169   5.991  68.626  1.00  0.00    -0.233 A  
HETATM   13  C   UNL     1     -10.606   6.761  69.709  1.00  0.00    -0.263 A  
BRANCH  10  14
HETATM   14  O   UNL     1      -8.518   8.559  66.538  1.00  0.00    -0.109 OA 
BRANCH  14  15
HETATM   15  C   UNL     1      -7.261   9.101  66.849  1.00  0.00    -0.086 C  
HETATM   16  O   UNL     1      -6.354   8.487  67.392  1.00  0.00    -0.055 OA 
BRANCH  15  17
HETATM   17  C   UNL     1      -7.195  10.555  66.356  1.00  0.00    -0.129 C  
HETATM   18  C   UNL     1      -6.809  11.492  67.513  1.00  0.00    -0.098 C  
HETATM   19  C   UNL     1      -6.109  10.661  65.275  1.00  0.00    -0.068 C  
HETATM   20  C   UNL     1      -8.557  10.978  65.797  1.00  0.00    -0.151 C  
ENDBRANCH  15  17
ENDBRANCH  14  15
ENDBRANCH  10  14
BRANCH  11  21
HETATM   21  O   UNL     1      -9.055   5.826  66.446  1.00  0.00    -0.138 OA 
BRANCH  21  22
HETATM   22  C   UNL     1      -9.714   4.639  66.080  1.00  0.00    -0.203 C  
HETATM   23  O   UNL     1     -10.835   4.577  65.587  1.00  0.00    -0.270 OA 
BRANCH  22  24
HETATM   24  C   UNL     1      -8.858   3.404  66.404  1.00  0.00    -0.137 C  
HETATM   25  C   UNL     1      -9.399   2.725  67.678  1.00  0.00    -0.222 C  
HETATM   26  C   UNL     1      -8.924   2.386  65.258  1.00  0.00    -0.127 C  
HETATM   27  C   UNL     1      -7.412   3.844  66.653  1.00  0.00    -0.080 C  
ENDBRANCH  22  24
ENDBRANCH  21  22
ENDBRANCH  11  21
ENDBRANCH   5   8
ENDBRANCH   4   5
ENDBRANCH   2   4
TORSDOF 9
ENDMDL
MODEL      185
REMARK 921   NORMALIZED FREE ENERGY PREDICTED BY IDOCK:   -2.92 KCAL/MOL
REMARK 922        TOTAL FREE ENERGY PREDICTED BY IDOCK:   -5.74 KCAL/MOL
REMARK 923 INTER-LIGAND FREE ENERGY PREDICTED BY IDOCK:   -4.42 KCAL/MOL
REMARK 924 INTRA-LIGAND FREE ENERGY PREDICTED BY IDOCK:   -1.32 KCAL/MOL
REMARK 927      BINDING AFFINITY PREDICTED BY RF-SCORE:    0.00 PKD
ROOT
HETATM    1  C   UNL     1      -7.637   4.929  63.257  1.00  0.00    -0.061 C  
HETATM    2  N   UNL     1      -6.746   4.845  64.402  1.00  0.00    -0.043 NA 
HETATM    3  H   UNL     1      -6.746   5.713  64.940  1.00  0.00     0.000 HD 
ENDROOT
BRANCH   2   4
HETATM    4  C   UNL     1      -7.069   3.686  65.250  1.00  0.00    -0.066 C  
BRANCH   4   5
HETATM    5  C   UNL     1      -8.576   3.662  65.618  1.00  0.00    -0.113 C  
HETATM    6  H   UNL     1      -9.893   2.299  66.131  1.00  0.00     0.000 HD 
HETATM    7  O   UNL     1      -8.971   2.314  65.906  1.00  0.00    -0.127 OA 
BRANCH   5   8
HETATM    8  C   UNL     1      -8.900   4.567  66.794  1.00  0.00    -0.112 A  
HETATM    9  C   UNL     1      -9.086   5.948  66.631  1.00  0.00    -0.138 A  
HETATM   10  C   UNL     1      -9.402   6.771  67.724  1.00  0.00    -0.116 A  
HETATM   11  C   UNL     1      -9.559   6.210  68.999  1.00  0.00    -0.127 A  
HETATM   12  C   UNL     1      -9.348   4.840  69.173  1.00  0.00    -0.195 A  
HETATM   13  C   UNL     1      -9.037   4.026  68.078  1.00  0.00    -0.179 A  
BRANCH  10  14
HETATM   14  O   UNL     1      -9.728   8.134  67.534  1.00  0.00    -0.147 OA 
BRANCH  14  15
HETATM   15  C   UNL     1      -8.709   9.099  67.529  1.00  0.00    -0.119 C  
HETATM   16  O   UNL     1      -7.891   9.251  68.424  1.00  0.00    -0.093 OA 
BRANCH  15  17
HETATM   17  C   UNL     1      -8.757   9.887  66.211  1.00  0.00    -0.152 C  
HETATM   18  C   UNL     1     -10.216  10.079  65.759  1.00  0.00    -0.270 C  
HETATM   19  C   UNL     1      -8.144  11.276  66.442  1.00  0.00    -0.138 C  
HETATM   20  C   UNL     1      -7.988   9.131  65.122  1.00  0.00    -0.117 C  
ENDBRANCH  15  17
ENDBRANCH  14  15
ENDBRANCH  10  14
BRANCH  11  21
HETATM   21  O   UNL     1      -9.861   7.054  70.099  1.00  0.00    -0.175 OA 
BRANCH  21  22
HETATM   22  C   UNL     1     -11.191   7.263  70.505  1.00  0.00    -0.279 C  
HETATM   23  O   UNL     1     -12.132   6.518  70.251  1.00  0.00    -0.348 OA 
BRANCH  22  24
HETATM   24  C   UNL     1     -11.333   8.574  71.295  1.00  0.00    -0.325 C  
HETATM   25  C   UNL     1     -12.822   8.822  71.611  1.00  0.00    -0.392 C  
HETATM   26  C   UNL     1     -10.573   8.488  72.625  1.00  0.00    -0.217 C  
HETATM   27  C   UNL     1     -10.807   9.734  70.446  1.00  0.00    -0.370 C  
ENDBRANCH  22  24
ENDBRANCH  21  22
ENDBRANCH  11  21
ENDBRANCH   5   8
ENDBRANCH   4   5
ENDBRANCH   2   4
TORSDOF 9
ENDMDL
MODEL      186
REMARK 921   NORMALIZED FREE ENERGY PREDICTED BY IDOCK:   -2.89 KCAL/MOL
REMARK 922        TOTAL FREE ENERGY PREDICTED BY IDOCK:   -5.69 KCAL/MOL
REMARK 923 INTER-LIGAND FREE ENERGY PREDICTED BY IDOCK:   -4.70 KCAL/MOL
REMARK 924 INTRA-LIGAND FREE ENERGY PREDICTED BY IDOCK:   -0.98 KCAL/MOL
REMARK 927      BINDING AFFINITY PREDICTED BY RF-SCORE:    0.00 PKD
ROOT
HETATM    1  C   UNL     1     -12.632  14.132  65.305  1.00  0.00    -0.442 C  
HETATM    2  N   UNL     1     -11.756  13.014  65.616  1.00  0.00    -0.354 NA 
HETATM    3  H   UNL     1     -11.836  12.738  66.595  1.00  0.00     0.000 HD 
ENDROOT
BRANCH   2   4
HETATM    4  C   UNL     1     -11.995  11.877  64.713  1.00  0.00    -0.145 C  
BRANCH   4   5
HETATM    5  C   UNL     1     -10.704  11.487  63.947  1.00  0.00    -0.395 C  
HETATM    6  H   UNL     1      -9.198  12.440  63.121  1.00  0.00     0.000 HD 
HETATM    7  O   UNL     1      -9.989  12.678  63.590  1.00  0.00    -0.361 OA 
BRANCH   5   8
HETATM    8  C   UNL     1      -9.810  10.560  64.752  1.00  0.00    -0.387 A  
HETATM    9  C   UNL     1      -9.929  10.449  66.145  1.00  0.00    -0.290 A  
HETATM   10  C   UNL     1      -9.108   9.575  66.875  1.00  0.00    -0.135 A  
HETATM   11  C   UNL     1      -8.167   8.778  66.208  1.00  0.00    -0.115 A  
HETATM   12  C   UNL     1      -8.024   8.904  64.825  1.00  0.00    -0.129 A  
HETATM   13  C   UNL     1      -8.848   9.775  64.103  1.00  0.00    -0.260 A  
BRANCH  10  14
HETATM   14  O   UNL     1      -9.326   9.360  68.256  1.00  0.00    -0.134 OA 
BRANCH  14  15
HETATM   15  C   UNL     1     -10.285   8.422  68.671  1.00  0.00    -0.201 C  
HETATM   16  O   UNL     1     -11.089   7.875  67.930  1.00  0.00     0.062 OA 
BRANCH  15  17
HETATM   17  C   UNL     1     -10.129   8.163  70.178  1.00  0.00    -0.194 C  
HETATM   18  C   UNL     1      -9.387   6.836  70.416  1.00  0.00    -0.163 C  
HETATM   19  C   UNL     1      -9.289   9.294  70.789  1.00  0.00    -0.322 C  
HETATM   20  C   UNL     1     -11.508   8.095  70.841  1.00  0.00    -0.288 C  
ENDBRANCH  15  17
ENDBRANCH  14  15
ENDBRANCH  10  14
BRANCH  11  21
HETATM   21  O   UNL     1      -7.330   7.911  66.959  1.00  0.00    -0.087 OA 
BRANCH  21  22
HETATM   22  C   UNL     1      -7.668   6.558  67.137  1.00  0.00    -0.100 C  
HETATM   23  O   UNL     1      -8.651   6.006  66.655  1.00  0.00    -0.110 OA 
BRANCH  22  24
HETATM   24  C   UNL     1      -6.654   5.847  68.048  1.00  0.00    -0.052 C  
HETATM   25  C   UNL     1      -5.491   5.303  67.194  1.00  0.00    -0.012 C  
HETATM   26  C   UNL     1      -6.072   6.825  69.076  1.00  0.00    -0.026 C  
HETATM   27  C   UNL     1      -7.344   4.673  68.750  1.00  0.00    -0.060 C  
ENDBRANCH  22  24
ENDBRANCH  21  22
ENDBRANCH  11  21
ENDBRANCH   5   8
ENDBRANCH   4   5
ENDBRANCH   2   4
TORSDOF 9
ENDMDL
MODEL      187
REMARK 921   NORMALIZED FREE ENERGY PREDICTED BY IDOCK:   -2.86 KCAL/MOL
REMARK 922        TOTAL FREE ENERGY PREDICTED BY IDOCK:   -5.64 KCAL/MOL
REMARK 923 INTER-LIGAND FREE ENERGY PREDICTED BY IDOCK:   -4.67 KCAL/MOL
REMARK 924 INTRA-LIGAND FREE ENERGY PREDICTED BY IDOCK:   -0.97 KCAL/MOL
REMARK 927      BINDING AFFINITY PREDICTED BY RF-SCORE:    0.00 PKD
ROOT
HETATM    1  C   UNL     1      -5.145   3.498  66.552  1.00  0.00    -0.008 C  
HETATM    2  N   UNL     1      -5.670   2.660  67.618  1.00  0.00    -0.018 NA 
HETATM    3  H   UNL     1      -5.044   1.880  67.822  1.00  0.00     0.000 HD 
ENDROOT
BRANCH   2   4
HETATM    4  C   UNL     1      -5.961   3.448  68.826  1.00  0.00    -0.024 C  
BRANCH   4   5
HETATM    5  C   UNL     1      -7.320   3.038  69.450  1.00  0.00    -0.044 C  
HETATM    6  H   UNL     1      -7.931   2.278  71.155  1.00  0.00     0.000 HD 
HETATM    7  O   UNL     1      -7.099   2.529  70.772  1.00  0.00    -0.033 OA 
BRANCH   5   8
HETATM    8  C   UNL     1      -8.311   4.189  69.489  1.00  0.00    -0.074 A  
HETATM    9  C   UNL     1      -8.100   5.367  68.758  1.00  0.00    -0.087 A  
HETATM   10  C   UNL     1      -9.032   6.417  68.790  1.00  0.00    -0.126 A  
HETATM   11  C   UNL     1     -10.208   6.286  69.542  1.00  0.00    -0.194 A  
HETATM   12  C   UNL     1     -10.411   5.127  70.295  1.00  0.00    -0.331 A  
HETATM   13  C   UNL     1      -9.479   4.084  70.256  1.00  0.00    -0.255 A  
BRANCH  10  14
HETATM   14  O   UNL     1      -8.887   7.540  67.943  1.00  0.00    -0.127 OA 
BRANCH  14  15
HETATM   15  C   UNL     1      -9.055   7.393  66.557  1.00  0.00    -0.162 C  
HETATM   16  O   UNL     1      -9.505   6.394  66.013  1.00  0.00    -0.092 OA 
BRANCH  15  17
HETATM   17  C   UNL     1      -8.633   8.690  65.849  1.00  0.00    -0.177 C  
HETATM   18  C   UNL     1      -7.567   9.426  66.680  1.00  0.00    -0.094 C  
HETATM   19  C   UNL     1      -8.014   8.332  64.490  1.00  0.00    -0.146 C  
HETATM   20  C   UNL     1      -9.849   9.603  65.666  1.00  0.00    -0.369 C  
ENDBRANCH  15  17
ENDBRANCH  14  15
ENDBRANCH  10  14
BRANCH  11  21
HETATM   21  O   UNL     1     -11.134   7.360  69.581  1.00  0.00    -0.210 OA 
BRANCH  21  22
HETATM   22  C   UNL     1     -10.979   8.414  70.498  1.00  0.00    -0.242 C  
HETATM   23  O   UNL     1     -10.134   9.300  70.420  1.00  0.00    -0.202 OA 
BRANCH  22  24
HETATM   24  C   UNL     1     -11.994   8.306  71.648  1.00  0.00    -0.346 C  
HETATM   25  C   UNL     1     -11.257   7.926  72.948  1.00  0.00    -0.429 C  
HETATM   26  C   UNL     1     -12.697   9.651  71.875  1.00  0.00    -0.499 C  
HETATM   27  C   UNL     1     -13.014   7.212  71.319  1.00  0.00    -0.378 C  
ENDBRANCH  22  24
ENDBRANCH  21  22
ENDBRANCH  11  21
ENDBRANCH   5   8
ENDBRANCH   4   5
ENDBRANCH   2   4
TORSDOF 9
ENDMDL
MODEL      188
REMARK 921   NORMALIZED FREE ENERGY PREDICTED BY IDOCK:   -2.66 KCAL/MOL
REMARK 922        TOTAL FREE ENERGY PREDICTED BY IDOCK:   -5.34 KCAL/MOL
REMARK 923 INTER-LIGAND FREE ENERGY PREDICTED BY IDOCK:   -4.69 KCAL/MOL
REMARK 924 INTRA-LIGAND FREE ENERGY PREDICTED BY IDOCK:   -0.66 KCAL/MOL
REMARK 927      BINDING AFFINITY PREDICTED BY RF-SCORE:    0.00 PKD
ROOT
HETATM    1  C   UNL     1      -6.061  19.842  69.629  1.00  0.00    -0.318 C  
HETATM    2  N   UNL     1      -6.209  19.104  68.385  1.00  0.00    -0.222 NA 
HETATM    3  H   UNL     1      -5.426  18.467  68.232  1.00  0.00     0.000 HD 
ENDROOT
BRANCH   2   4
HETATM    4  C   UNL     1      -7.498  18.396  68.331  1.00  0.00    -0.286 C  
BRANCH   4   5
HETATM    5  C   UNL     1      -8.239  18.677  66.998  1.00  0.00    -0.253 C  
HETATM    6  H   UNL     1      -7.736  19.230  65.182  1.00  0.00     0.000 HD 
HETATM    7  O   UNL     1      -7.283  19.058  65.999  1.00  0.00    -0.250 OA 
BRANCH   5   8
HETATM    8  C   UNL     1      -9.050  17.485  66.522  1.00  0.00    -0.284 A  
HETATM    9  C   UNL     1      -8.668  16.168  66.821  1.00  0.00    -0.273 A  
HETATM   10  C   UNL     1      -9.436  15.075  66.389  1.00  0.00    -0.297 A  
HETATM   11  C   UNL     1     -10.619  15.293  65.668  1.00  0.00    -0.362 A  
HETATM   12  C   UNL     1     -10.990  16.599  65.343  1.00  0.00    -0.096 A  
HETATM   13  C   UNL     1     -10.220  17.684  65.779  1.00  0.00    -0.160 A  
BRANCH  10  14
HETATM   14  O   UNL     1      -9.128  13.762  66.812  1.00  0.00    -0.247 OA 
BRANCH  14  15
HETATM   15  C   UNL     1      -8.606  13.549  68.098  1.00  0.00    -0.173 C  
HETATM   16  O   UNL     1      -8.981  14.130  69.105  1.00  0.00     0.041 OA 
BRANCH  15  17
HETATM   17  C   UNL     1      -7.536  12.447  68.039  1.00  0.00    -0.114 C  
HETATM   18  C   UNL     1      -7.920  11.387  66.992  1.00  0.00    -0.158 C  
HETATM   19  C   UNL     1      -6.202  13.076  67.613  1.00  0.00    -0.158 C  
HETATM   20  C   UNL     1      -7.403  11.776  69.411  1.00  0.00     0.136 C  
ENDBRANCH  15  17
ENDBRANCH  14  15
ENDBRANCH  10  14
BRANCH  11  21
HETATM   21  O   UNL     1     -11.377  14.180  65.221  1.00  0.00    -0.309 OA 
BRANCH  21  22
HETATM   22  C   UNL     1     -10.770  13.131  64.509  1.00  0.00    -0.398 C  
HETATM   23  O   UNL     1      -9.849  13.261  63.710  1.00  0.00     0.085 OA 
BRANCH  22  24
HETATM   24  C   UNL     1     -11.428  11.781  64.836  1.00  0.00    -0.269 C  
HETATM   25  C   UNL     1     -12.693  11.605  63.971  1.00  0.00    -0.083 C  
HETATM   26  C   UNL     1     -10.472  10.623  64.520  1.00  0.00    -0.266 C  
HETATM   27  C   UNL     1     -11.832  11.761  66.313  1.00  0.00     0.027 C  
ENDBRANCH  22  24
ENDBRANCH  21  22
ENDBRANCH  11  21
ENDBRANCH   5   8
ENDBRANCH   4   5
ENDBRANCH   2   4
TORSDOF 9
ENDMDL
MODEL      189
REMARK 921   NORMALIZED FREE ENERGY PREDICTED BY IDOCK:   -2.64 KCAL/MOL
REMARK 922        TOTAL FREE ENERGY PREDICTED BY IDOCK:   -5.31 KCAL/MOL
REMARK 923 INTER-LIGAND FREE ENERGY PREDICTED BY IDOCK:   -4.39 KCAL/MOL
REMARK 924 INTRA-LIGAND FREE ENERGY PREDICTED BY IDOCK:   -0.91 KCAL/MOL
REMARK 927      BINDING AFFINITY PREDICTED BY RF-SCORE:    0.00 PKD
ROOT
HETATM    1  C   UNL     1     -12.546  14.531  64.742  1.00  0.00    -0.217 C  
HETATM    2  N   UNL     1     -11.136  14.572  64.388  1.00  0.00    -0.621 NA 
HETATM    3  H   UNL     1     -10.600  15.128  65.055  1.00  0.00     0.000 HD 
ENDROOT
BRANCH   2   4
HETATM    4  C   UNL     1     -10.580  13.217  64.243  1.00  0.00    -0.384 C  
BRANCH   4   5
HETATM    5  C   UNL     1     -11.401  12.183  65.056  1.00  0.00    -0.328 C  
HETATM    6  H   UNL     1     -12.461  10.578  64.656  1.00  0.00     0.000 HD 
HETATM    7  O   UNL     1     -11.958  11.212  64.159  1.00  0.00     0.265 OA 
BRANCH   5   8
HETATM    8  C   UNL     1     -10.571  11.495  66.125  1.00  0.00    -0.314 A  
HETATM    9  C   UNL     1      -9.481  12.134  66.735  1.00  0.00    -0.213 A  
HETATM   10  C   UNL     1      -8.733  11.493  67.735  1.00  0.00    -0.142 A  
HETATM   11  C   UNL     1      -9.086  10.203  68.155  1.00  0.00    -0.128 A  
HETATM   12  C   UNL     1     -10.153   9.551  67.533  1.00  0.00    -0.257 A  
HETATM   13  C   UNL     1     -10.896  10.197  66.539  1.00  0.00    -0.043 A  
BRANCH  10  14
HETATM   14  O   UNL     1      -7.728  12.189  68.446  1.00  0.00    -0.123 OA 
BRANCH  14  15
HETATM   15  C   UNL     1      -6.717  12.862  67.742  1.00  0.00    -0.141 C  
HETATM   16  O   UNL     1      -6.120  12.406  66.777  1.00  0.00    -0.210 OA 
BRANCH  15  17
HETATM   17  C   UNL     1      -6.520  14.263  68.342  1.00  0.00    -0.106 C  
HETATM   18  C   UNL     1      -7.584  15.230  67.795  1.00  0.00    -0.171 C  
HETATM   19  C   UNL     1      -6.694  14.176  69.865  1.00  0.00    -0.036 C  
HETATM   20  C   UNL     1      -5.127  14.792  67.986  1.00  0.00    -0.103 C  
ENDBRANCH  15  17
ENDBRANCH  14  15
ENDBRANCH  10  14
BRANCH  11  21
HETATM   21  O   UNL     1      -8.311   9.558  69.154  1.00  0.00    -0.113 OA 
BRANCH  21  22
HETATM   22  C   UNL     1      -8.528   8.206  69.475  1.00  0.00    -0.127 C  
HETATM   23  O   UNL     1      -8.305   7.259  68.730  1.00  0.00    -0.127 OA 
BRANCH  22  24
HETATM   24  C   UNL     1      -9.115   8.057  70.889  1.00  0.00    -0.161 C  
HETATM   25  C   UNL     1      -9.333   6.562  71.197  1.00  0.00    -0.167 C  
HETATM   26  C   UNL     1      -8.148   8.622  71.937  1.00  0.00    -0.149 C  
HETATM   27  C   UNL     1     -10.465   8.778  70.953  1.00  0.00    -0.278 C  
ENDBRANCH  22  24
ENDBRANCH  21  22
ENDBRANCH  11  21
ENDBRANCH   5   8
ENDBRANCH   4   5
ENDBRANCH   2   4
TORSDOF 9
ENDMDL
MODEL      190
REMARK 921   NORMALIZED FREE ENERGY PREDICTED BY IDOCK:   -2.62 KCAL/MOL
REMARK 922        TOTAL FREE ENERGY PREDICTED BY IDOCK:   -5.28 KCAL/MOL
REMARK 923 INTER-LIGAND FREE ENERGY PREDICTED BY IDOCK:   -4.50 KCAL/MOL
REMARK 924 INTRA-LIGAND FREE ENERGY PREDICTED BY IDOCK:   -0.78 KCAL/MOL
REMARK 927      BINDING AFFINITY PREDICTED BY RF-SCORE:    0.00 PKD
ROOT
HETATM    1  C   UNL     1      -7.687   8.197  74.561  1.00  0.00    -0.235 C  
HETATM    2  N   UNL     1      -9.023   7.652  74.382  1.00  0.00    -0.439 NA 
HETATM    3  H   UNL     1      -9.734   8.382  74.425  1.00  0.00     0.000 HD 
ENDROOT
BRANCH   2   4
HETATM    4  C   UNL     1      -9.122   6.875  73.135  1.00  0.00    -0.132 C  
BRANCH   4   5
HETATM    5  C   UNL     1     -10.322   7.347  72.273  1.00  0.00    -0.214 C  
HETATM    6  H   UNL     1     -11.211   9.056  71.889  1.00  0.00     0.000 HD 
HETATM    7  O   UNL     1     -10.476   8.766  72.417  1.00  0.00    -0.305 OA 
BRANCH   5   8
HETATM    8  C   UNL     1     -10.163   6.982  70.808  1.00  0.00    -0.208 A  
HETATM    9  C   UNL     1      -9.592   7.871  69.885  1.00  0.00    -0.168 A  
HETATM   10  C   UNL     1      -9.435   7.513  68.536  1.00  0.00    -0.146 A  
HETATM   11  C   UNL     1      -9.830   6.241  68.099  1.00  0.00    -0.129 A  
HETATM   12  C   UNL     1     -10.424   5.361  69.007  1.00  0.00    -0.252 A  
HETATM   13  C   UNL     1     -10.574   5.723  70.350  1.00  0.00    -0.365 A  
BRANCH  10  14
HETATM   14  O   UNL     1      -8.733   8.354  67.642  1.00  0.00    -0.135 OA 
BRANCH  14  15
HETATM   15  C   UNL     1      -8.463   9.684  68.002  1.00  0.00    -0.118 C  
HETATM   16  O   UNL     1      -7.641  10.023  68.841  1.00  0.00    -0.078 OA 
BRANCH  15  17
HETATM   17  C   UNL     1      -9.322  10.629  67.148  1.00  0.00    -0.172 C  
HETATM   18  C   UNL     1      -9.146  12.082  67.623  1.00  0.00    -0.179 C  
HETATM   19  C   UNL     1      -8.848  10.544  65.690  1.00  0.00    -0.197 C  
HETATM   20  C   UNL     1     -10.799  10.237  67.261  1.00  0.00    -0.312 C  
ENDBRANCH  15  17
ENDBRANCH  14  15
ENDBRANCH  10  14
BRANCH  11  21
HETATM   21  O   UNL     1      -9.683   5.898  66.730  1.00  0.00    -0.140 OA 
BRANCH  21  22
HETATM   22  C   UNL     1      -8.986   4.738  66.348  1.00  0.00    -0.113 C  
HETATM   23  O   UNL     1      -9.447   3.601  66.362  1.00  0.00    -0.183 OA 
BRANCH  22  24
HETATM   24  C   UNL     1      -7.544   5.066  65.929  1.00  0.00    -0.090 C  
HETATM   25  C   UNL     1      -7.535   6.369  65.103  1.00  0.00    -0.083 C  
HETATM   26  C   UNL     1      -6.659   5.280  67.164  1.00  0.00    -0.053 C  
HETATM   27  C   UNL     1      -6.998   3.927  65.063  1.00  0.00    -0.054 C  
ENDBRANCH  22  24
ENDBRANCH  21  22
ENDBRANCH  11  21
ENDBRANCH   5   8
ENDBRANCH   4   5
ENDBRANCH   2   4
TORSDOF 9
ENDMDL
MODEL      191
REMARK 921   NORMALIZED FREE ENERGY PREDICTED BY IDOCK:   -2.61 KCAL/MOL
REMARK 922        TOTAL FREE ENERGY PREDICTED BY IDOCK:   -5.25 KCAL/MOL
REMARK 923 INTER-LIGAND FREE ENERGY PREDICTED BY IDOCK:   -4.10 KCAL/MOL
REMARK 924 INTRA-LIGAND FREE ENERGY PREDICTED BY IDOCK:   -1.16 KCAL/MOL
REMARK 927      BINDING AFFINITY PREDICTED BY RF-SCORE:    0.00 PKD
ROOT
HETATM    1  C   UNL     1     -14.410   8.250  71.913  1.00  0.00    -0.476 C  
HETATM    2  N   UNL     1     -13.211   7.862  71.189  1.00  0.00    -0.544 NA 
HETATM    3  H   UNL     1     -13.406   7.701  70.201  1.00  0.00     0.000 HD 
ENDROOT
BRANCH   2   4
HETATM    4  C   UNL     1     -12.133   8.848  71.372  1.00  0.00    -0.322 C  
BRANCH   4   5
HETATM    5  C   UNL     1     -10.763   8.150  71.579  1.00  0.00    -0.233 C  
HETATM    6  H   UNL     1     -10.059   6.710  72.715  1.00  0.00     0.000 HD 
HETATM    7  O   UNL     1     -10.897   7.138  72.587  1.00  0.00    -0.242 OA 
BRANCH   5   8
HETATM    8  C   UNL     1     -10.220   7.545  70.296  1.00  0.00    -0.204 A  
HETATM    9  C   UNL     1      -9.448   8.296  69.397  1.00  0.00    -0.159 A  
HETATM   10  C   UNL     1      -8.938   7.720  68.223  1.00  0.00    -0.131 A  
HETATM   11  C   UNL     1      -9.178   6.367  67.946  1.00  0.00    -0.113 A  
HETATM   12  C   UNL     1      -9.969   5.621  68.823  1.00  0.00    -0.221 A  
HETATM   13  C   UNL     1     -10.472   6.201  69.993  1.00  0.00    -0.294 A  
BRANCH  10  14
HETATM   14  O   UNL     1      -8.045   8.437  67.394  1.00  0.00    -0.105 OA 
BRANCH  14  15
HETATM   15  C   UNL     1      -6.756   8.742  67.860  1.00  0.00    -0.066 C  
HETATM   16  O   UNL     1      -5.849   7.931  67.978  1.00  0.00    -0.038 OA 
BRANCH  15  17
HETATM   17  C   UNL     1      -6.659  10.249  68.145  1.00  0.00    -0.057 C  
HETATM   18  C   UNL     1      -7.787  11.002  67.418  1.00  0.00    -0.118 C  
HETATM   19  C   UNL     1      -6.829  10.477  69.654  1.00  0.00    -0.117 C  
HETATM   20  C   UNL     1      -5.305  10.784  67.667  1.00  0.00    -0.040 C  
ENDBRANCH  15  17
ENDBRANCH  14  15
ENDBRANCH  10  14
BRANCH  11  21
HETATM   21  O   UNL     1      -8.672   5.800  66.748  1.00  0.00    -0.115 OA 
BRANCH  21  22
HETATM   22  C   UNL     1      -7.697   4.788  66.783  1.00  0.00    -0.091 C  
HETATM   23  O   UNL     1      -6.836   4.668  67.648  1.00  0.00    -0.056 OA 
BRANCH  22  24
HETATM   24  C   UNL     1      -7.823   3.850  65.572  1.00  0.00    -0.093 C  
HETATM   25  C   UNL     1      -6.716   4.181  64.551  1.00  0.00    -0.044 C  
HETATM   26  C   UNL     1      -7.652   2.387  66.001  1.00  0.00    -0.068 C  
HETATM   27  C   UNL     1      -9.187   4.063  64.909  1.00  0.00    -0.152 C  
ENDBRANCH  22  24
ENDBRANCH  21  22
ENDBRANCH  11  21
ENDBRANCH   5   8
ENDBRANCH   4   5
ENDBRANCH   2   4
TORSDOF 9
ENDMDL
MODEL      192
REMARK 921   NORMALIZED FREE ENERGY PREDICTED BY IDOCK:   -2.59 KCAL/MOL
REMARK 922        TOTAL FREE ENERGY PREDICTED BY IDOCK:   -5.23 KCAL/MOL
REMARK 923 INTER-LIGAND FREE ENERGY PREDICTED BY IDOCK:   -4.27 KCAL/MOL
REMARK 924 INTRA-LIGAND FREE ENERGY PREDICTED BY IDOCK:   -0.97 KCAL/MOL
REMARK 927      BINDING AFFINITY PREDICTED BY RF-SCORE:    0.00 PKD
ROOT
HETATM    1  C   UNL     1     -10.954  13.166  67.665  1.00  0.00    -0.262 C  
HETATM    2  N   UNL     1      -9.552  13.258  68.039  1.00  0.00    -0.214 NA 
HETATM    3  H   UNL     1      -9.433  13.740  68.930  1.00  0.00     0.000 HD 
ENDROOT
BRANCH   2   4
HETATM    4  C   UNL     1      -8.912  11.933  68.052  1.00  0.00    -0.185 C  
BRANCH   4   5
HETATM    5  C   UNL     1      -9.969  10.799  68.024  1.00  0.00    -0.164 C  
HETATM    6  H   UNL     1     -10.742   9.610  66.665  1.00  0.00     0.000 HD 
HETATM    7  O   UNL     1     -10.095  10.304  66.683  1.00  0.00    -0.206 OA 
BRANCH   5   8
HETATM    8  C   UNL     1      -9.628   9.663  68.972  1.00  0.00    -0.168 A  
HETATM    9  C   UNL     1      -8.900   8.542  68.547  1.00  0.00    -0.139 A  
HETATM   10  C   UNL     1      -8.576   7.507  69.439  1.00  0.00    -0.133 A  
HETATM   11  C   UNL     1      -8.961   7.597  70.784  1.00  0.00    -0.149 A  
HETATM   12  C   UNL     1      -9.711   8.696  71.207  1.00  0.00    -0.305 A  
HETATM   13  C   UNL     1     -10.027   9.725  70.314  1.00  0.00    -0.309 A  
BRANCH  10  14
HETATM   14  O   UNL     1      -7.722   6.451  69.044  1.00  0.00    -0.097 OA 
BRANCH  14  15
HETATM   15  C   UNL     1      -8.271   5.279  68.500  1.00  0.00    -0.090 C  
HETATM   16  O   UNL     1      -9.346   5.219  67.920  1.00  0.00    -0.111 OA 
BRANCH  15  17
HETATM   17  C   UNL     1      -7.293   4.112  68.705  1.00  0.00    -0.055 C  
HETATM   18  C   UNL     1      -6.493   4.311  70.005  1.00  0.00    -0.032 C  
HETATM   19  C   UNL     1      -8.097   2.811  68.835  1.00  0.00    -0.069 C  
HETATM   20  C   UNL     1      -6.322   4.032  67.523  1.00  0.00    -0.037 C  
ENDBRANCH  15  17
ENDBRANCH  14  15
ENDBRANCH  10  14
BRANCH  11  21
HETATM   21  O   UNL     1      -8.644   6.536  71.672  1.00  0.00    -0.127 OA 
BRANCH  21  22
HETATM   22  C   UNL     1      -9.312   6.400  72.902  1.00  0.00    -0.136 C  
HETATM   23  O   UNL     1      -8.994   6.962  73.944  1.00  0.00    -0.148 OA 
BRANCH  22  24
HETATM   24  C   UNL     1     -10.493   5.423  72.788  1.00  0.00    -0.255 C  
HETATM   25  C   UNL     1     -10.748   4.766  74.160  1.00  0.00    -0.329 C  
HETATM   26  C   UNL     1     -11.770   6.165  72.373  1.00  0.00    -0.319 C  
HETATM   27  C   UNL     1     -10.149   4.330  71.773  1.00  0.00    -0.227 C  
ENDBRANCH  22  24
ENDBRANCH  21  22
ENDBRANCH  11  21
ENDBRANCH   5   8
ENDBRANCH   4   5
ENDBRANCH   2   4
TORSDOF 9
ENDMDL
MODEL      193
REMARK 921   NORMALIZED FREE ENERGY PREDICTED BY IDOCK:   -2.53 KCAL/MOL
REMARK 922        TOTAL FREE ENERGY PREDICTED BY IDOCK:   -5.14 KCAL/MOL
REMARK 923 INTER-LIGAND FREE ENERGY PREDICTED BY IDOCK:   -3.82 KCAL/MOL
REMARK 924 INTRA-LIGAND FREE ENERGY PREDICTED BY IDOCK:   -1.31 KCAL/MOL
REMARK 927      BINDING AFFINITY PREDICTED BY RF-SCORE:    0.00 PKD
ROOT
HETATM    1  C   UNL     1      -5.215   3.232  66.266  1.00  0.00    -0.008 C  
HETATM    2  N   UNL     1      -6.376   2.517  66.770  1.00  0.00    -0.024 NA 
HETATM    3  H   UNL     1      -6.111   1.630  67.199  1.00  0.00     0.000 HD 
ENDROOT
BRANCH   2   4
HETATM    4  C   UNL     1      -7.159   3.352  67.696  1.00  0.00    -0.051 C  
BRANCH   4   5
HETATM    5  C   UNL     1      -8.646   3.429  67.261  1.00  0.00    -0.108 C  
HETATM    6  H   UNL     1     -10.356   2.710  67.908  1.00  0.00     0.000 HD 
HETATM    7  O   UNL     1      -9.445   2.664  68.174  1.00  0.00    -0.209 OA 
BRANCH   5   8
HETATM    8  C   UNL     1      -9.155   4.857  67.187  1.00  0.00    -0.122 A  
HETATM    9  C   UNL     1      -8.327   5.914  66.780  1.00  0.00    -0.109 A  
HETATM   10  C   UNL     1      -8.815   7.228  66.699  1.00  0.00    -0.139 A  
HETATM   11  C   UNL     1     -10.157   7.496  67.006  1.00  0.00    -0.261 A  
HETATM   12  C   UNL     1     -10.979   6.453  67.440  1.00  0.00    -0.463 A  
HETATM   13  C   UNL     1     -10.486   5.146  67.514  1.00  0.00    -0.148 A  
BRANCH  10  14
HETATM   14  O   UNL     1      -8.021   8.263  66.153  1.00  0.00    -0.095 OA 
BRANCH  14  15
HETATM   15  C   UNL     1      -7.652   8.217  64.799  1.00  0.00    -0.101 C  
HETATM   16  O   UNL     1      -8.383   7.846  63.892  1.00  0.00    -0.064 OA 
BRANCH  15  17
HETATM   17  C   UNL     1      -6.219   8.747  64.641  1.00  0.00    -0.066 C  
HETATM   18  C   UNL     1      -6.218  10.040  63.807  1.00  0.00    -0.132 C  
HETATM   19  C   UNL     1      -5.658   9.078  66.032  1.00  0.00    -0.045 C  
HETATM   20  C   UNL     1      -5.348   7.696  63.944  1.00  0.00    -0.037 C  
ENDBRANCH  15  17
ENDBRANCH  14  15
ENDBRANCH  10  14
BRANCH  11  21
HETATM   21  O   UNL     1     -10.634   8.831  66.939  1.00  0.00    -0.276 OA 
BRANCH  21  22
HETATM   22  C   UNL     1     -10.132   9.821  67.801  1.00  0.00    -0.180 C  
HETATM   23  O   UNL     1      -9.821   9.644  68.974  1.00  0.00    -0.169 OA 
BRANCH  22  24
HETATM   24  C   UNL     1     -10.044  11.183  67.094  1.00  0.00    -0.223 C  
HETATM   25  C   UNL     1     -10.350  11.001  65.593  1.00  0.00    -0.311 C  
HETATM   26  C   UNL     1     -11.075  12.160  67.673  1.00  0.00    -0.320 C  
HETATM   27  C   UNL     1      -8.626  11.740  67.246  1.00  0.00    -0.162 C  
ENDBRANCH  22  24
ENDBRANCH  21  22
ENDBRANCH  11  21
ENDBRANCH   5   8
ENDBRANCH   4   5
ENDBRANCH   2   4
TORSDOF 9
ENDMDL
MODEL      194
REMARK 921   NORMALIZED FREE ENERGY PREDICTED BY IDOCK:   -2.50 KCAL/MOL
REMARK 922        TOTAL FREE ENERGY PREDICTED BY IDOCK:   -5.10 KCAL/MOL
REMARK 923 INTER-LIGAND FREE ENERGY PREDICTED BY IDOCK:   -4.31 KCAL/MOL
REMARK 924 INTRA-LIGAND FREE ENERGY PREDICTED BY IDOCK:   -0.78 KCAL/MOL
REMARK 927      BINDING AFFINITY PREDICTED BY RF-SCORE:    0.00 PKD
ROOT
HETATM    1  C   UNL     1      -6.705  12.031  68.835  1.00  0.00    -0.093 C  
HETATM    2  N   UNL     1      -6.373  10.923  67.954  1.00  0.00    -0.057 NA 
HETATM    3  H   UNL     1      -5.895  10.176  68.457  1.00  0.00     0.000 HD 
ENDROOT
BRANCH   2   4
HETATM    4  C   UNL     1      -7.565  10.423  67.249  1.00  0.00    -0.095 C  
BRANCH   4   5
HETATM    5  C   UNL     1      -8.866  10.824  67.991  1.00  0.00    -0.132 C  
HETATM    6  H   UNL     1     -10.626  11.539  67.491  1.00  0.00     0.000 HD 
HETATM    7  O   UNL     1      -9.829  11.293  67.037  1.00  0.00    -0.188 OA 
BRANCH   5   8
HETATM    8  C   UNL     1      -9.446   9.680  68.803  1.00  0.00    -0.148 A  
HETATM    9  C   UNL     1      -9.627   8.403  68.251  1.00  0.00    -0.156 A  
HETATM   10  C   UNL     1     -10.149   7.349  69.019  1.00  0.00    -0.193 A  
HETATM   11  C   UNL     1     -10.474   7.559  70.366  1.00  0.00    -0.223 A  
HETATM   12  C   UNL     1     -10.322   8.834  70.914  1.00  0.00    -0.281 A  
HETATM   13  C   UNL     1      -9.799   9.879  70.144  1.00  0.00    -0.272 A  
BRANCH  10  14
HETATM   14  O   UNL     1     -10.197   6.033  68.503  1.00  0.00    -0.153 OA 
BRANCH  14  15
HETATM   15  C   UNL     1     -10.419   5.830  67.132  1.00  0.00    -0.273 C  
HETATM   16  O   UNL     1     -11.396   6.235  66.519  1.00  0.00    -0.053 OA 
BRANCH  15  17
HETATM   17  C   UNL     1      -9.228   5.070  66.527  1.00  0.00    -0.135 C  
HETATM   18  C   UNL     1      -8.310   4.545  67.644  1.00  0.00    -0.099 C  
HETATM   19  C   UNL     1      -9.760   3.864  65.741  1.00  0.00    -0.169 C  
HETATM   20  C   UNL     1      -8.426   6.001  65.612  1.00  0.00    -0.151 C  
ENDBRANCH  15  17
ENDBRANCH  14  15
ENDBRANCH  10  14
BRANCH  11  21
HETATM   21  O   UNL     1     -11.017   6.491  71.127  1.00  0.00    -0.244 OA 
BRANCH  21  22
HETATM   22  C   UNL     1     -10.188   5.484  71.651  1.00  0.00    -0.209 C  
HETATM   23  O   UNL     1      -9.783   4.508  71.028  1.00  0.00    -0.164 OA 
BRANCH  22  24
HETATM   24  C   UNL     1      -9.867   5.741  73.132  1.00  0.00    -0.178 C  
HETATM   25  C   UNL     1     -10.773   6.871  73.663  1.00  0.00    -0.304 C  
HETATM   26  C   UNL     1     -10.134   4.484  73.969  1.00  0.00    -0.226 C  
HETATM   27  C   UNL     1      -8.404   6.177  73.263  1.00  0.00    -0.117 C  
ENDBRANCH  22  24
ENDBRANCH  21  22
ENDBRANCH  11  21
ENDBRANCH   5   8
ENDBRANCH   4   5
ENDBRANCH   2   4
TORSDOF 9
ENDMDL
MODEL      195
REMARK 921   NORMALIZED FREE ENERGY PREDICTED BY IDOCK:   -2.48 KCAL/MOL
REMARK 922        TOTAL FREE ENERGY PREDICTED BY IDOCK:   -5.07 KCAL/MOL
REMARK 923 INTER-LIGAND FREE ENERGY PREDICTED BY IDOCK:   -4.51 KCAL/MOL
REMARK 924 INTRA-LIGAND FREE ENERGY PREDICTED BY IDOCK:   -0.56 KCAL/MOL
REMARK 927      BINDING AFFINITY PREDICTED BY RF-SCORE:    0.00 PKD
ROOT
HETATM    1  C   UNL     1     -10.599   6.474  73.408  1.00  0.00    -0.285 C  
HETATM    2  N   UNL     1     -11.495   7.602  73.212  1.00  0.00    -0.638 NA 
HETATM    3  H   UNL     1     -11.441   8.262  73.988  1.00  0.00     0.000 HD 
ENDROOT
BRANCH   2   4
HETATM    4  C   UNL     1     -11.247   8.265  71.921  1.00  0.00    -0.300 C  
BRANCH   4   5
HETATM    5  C   UNL     1     -11.031   7.227  70.789  1.00  0.00    -0.251 C  
HETATM    6  H   UNL     1     -12.151   5.961  69.788  1.00  0.00     0.000 HD 
HETATM    7  O   UNL     1     -12.283   6.597  70.481  1.00  0.00    -0.364 OA 
BRANCH   5   8
HETATM    8  C   UNL     1     -10.435   7.849  69.539  1.00  0.00    -0.226 A  
HETATM    9  C   UNL     1     -10.488   9.231  69.306  1.00  0.00    -0.228 A  
HETATM   10  C   UNL     1      -9.917   9.795  68.154  1.00  0.00    -0.154 A  
HETATM   11  C   UNL     1      -9.260   8.975  67.226  1.00  0.00    -0.134 A  
HETATM   12  C   UNL     1      -9.228   7.595  67.437  1.00  0.00    -0.150 A  
HETATM   13  C   UNL     1      -9.796   7.040  68.589  1.00  0.00    -0.148 A  
BRANCH  10  14
HETATM   14  O   UNL     1      -9.846  11.198  67.993  1.00  0.00    -0.166 OA 
BRANCH  14  15
HETATM   15  C   UNL     1      -8.639  11.868  68.246  1.00  0.00    -0.162 C  
HETATM   16  O   UNL     1      -7.685  11.382  68.837  1.00  0.00    -0.134 OA 
BRANCH  15  17
HETATM   17  C   UNL     1      -8.693  13.273  67.627  1.00  0.00    -0.195 C  
HETATM   18  C   UNL     1      -9.076  13.185  66.139  1.00  0.00     0.094 C  
HETATM   19  C   UNL     1      -9.774  14.090  68.349  1.00  0.00    -0.223 C  
HETATM   20  C   UNL     1      -7.326  13.953  67.756  1.00  0.00    -0.170 C  
ENDBRANCH  15  17
ENDBRANCH  14  15
ENDBRANCH  10  14
BRANCH  11  21
HETATM   21  O   UNL     1      -8.702   9.554  66.056  1.00  0.00    -0.138 OA 
BRANCH  21  22
HETATM   22  C   UNL     1      -7.873   8.803  65.204  1.00  0.00    -0.108 C  
HETATM   23  O   UNL     1      -8.264   7.986  64.378  1.00  0.00    -0.147 OA 
BRANCH  22  24
HETATM   24  C   UNL     1      -6.389   9.113  65.457  1.00  0.00    -0.067 C  
HETATM   25  C   UNL     1      -6.026  10.457  64.792  1.00  0.00    -0.118 C  
HETATM   26  C   UNL     1      -6.110   9.237  66.960  1.00  0.00    -0.060 C  
HETATM   27  C   UNL     1      -5.529   8.007  64.836  1.00  0.00    -0.040 C  
ENDBRANCH  22  24
ENDBRANCH  21  22
ENDBRANCH  11  21
ENDBRANCH   5   8
ENDBRANCH   4   5
ENDBRANCH   2   4
TORSDOF 9
ENDMDL
MODEL      196
REMARK 921   NORMALIZED FREE ENERGY PREDICTED BY IDOCK:   -2.47 KCAL/MOL
REMARK 922        TOTAL FREE ENERGY PREDICTED BY IDOCK:   -5.05 KCAL/MOL
REMARK 923 INTER-LIGAND FREE ENERGY PREDICTED BY IDOCK:   -5.22 KCAL/MOL
REMARK 924 INTRA-LIGAND FREE ENERGY PREDICTED BY IDOCK:    0.18 KCAL/MOL
REMARK 927      BINDING AFFINITY PREDICTED BY RF-SCORE:    0.00 PKD
ROOT
HETATM    1  C   UNL     1      -8.084   8.490  70.728  1.00  0.00    -0.120 C  
HETATM    2  N   UNL     1      -7.868   7.716  69.517  1.00  0.00    -0.113 NA 
HETATM    3  H   UNL     1      -6.983   7.208  69.551  1.00  0.00     0.000 HD 
ENDROOT
BRANCH   2   4
HETATM    4  C   UNL     1      -8.999   6.813  69.248  1.00  0.00    -0.137 C  
BRANCH   4   5
HETATM    5  C   UNL     1     -10.329   7.601  69.127  1.00  0.00    -0.213 C  
HETATM    6  H   UNL     1     -11.706   8.266  70.360  1.00  0.00     0.000 HD 
HETATM    7  O   UNL     1     -10.891   7.783  70.434  1.00  0.00    -0.237 OA 
BRANCH   5   8
HETATM    8  C   UNL     1     -10.147   8.944  68.441  1.00  0.00    -0.215 A  
HETATM    9  C   UNL     1      -9.321   9.091  67.318  1.00  0.00    -0.172 A  
HETATM   10  C   UNL     1      -9.175  10.335  66.683  1.00  0.00    -0.155 A  
HETATM   11  C   UNL     1      -9.880  11.450  67.158  1.00  0.00    -0.190 A  
HETATM   12  C   UNL     1     -10.683  11.317  68.293  1.00  0.00    -0.231 A  
HETATM   13  C   UNL     1     -10.826  10.073  68.918  1.00  0.00    -0.250 A  
BRANCH  10  14
HETATM   14  O   UNL     1      -8.456  10.450  65.470  1.00  0.00    -0.155 OA 
BRANCH  14  15
HETATM   15  C   UNL     1      -9.072  10.089  64.261  1.00  0.00    -0.255 C  
HETATM   16  O   UNL     1     -10.253  10.269  64.001  1.00  0.00    -0.191 OA 
BRANCH  15  17
HETATM   17  C   UNL     1      -8.023   9.487  63.313  1.00  0.00    -0.143 C  
HETATM   18  C   UNL     1      -8.688   8.489  62.348  1.00  0.00    -0.074 C  
HETATM   19  C   UNL     1      -7.405  10.617  62.477  1.00  0.00    -0.114 C  
HETATM   20  C   UNL     1      -6.944   8.761  64.123  1.00  0.00    -0.089 C  
ENDBRANCH  15  17
ENDBRANCH  14  15
ENDBRANCH  10  14
BRANCH  11  21
HETATM   21  O   UNL     1      -9.711  12.706  66.519  1.00  0.00    -0.244 OA 
BRANCH  21  22
HETATM   22  C   UNL     1      -9.638  13.893  67.269  1.00  0.00    -0.243 C  
HETATM   23  O   UNL     1      -8.764  14.158  68.088  1.00  0.00    -0.165 OA 
BRANCH  22  24
HETATM   24  C   UNL     1     -10.821  14.823  66.956  1.00  0.00    -0.315 C  
HETATM   25  C   UNL     1     -10.444  15.754  65.785  1.00  0.00    -0.384 C  
HETATM   26  C   UNL     1     -12.052  14.009  66.539  1.00  0.00    -0.488 C  
HETATM   27  C   UNL     1     -11.130  15.679  68.188  1.00  0.00    -0.330 C  
ENDBRANCH  22  24
ENDBRANCH  21  22
ENDBRANCH  11  21
ENDBRANCH   5   8
ENDBRANCH   4   5
ENDBRANCH   2   4
TORSDOF 9
ENDMDL
MODEL      197
REMARK 921   NORMALIZED FREE ENERGY PREDICTED BY IDOCK:   -2.36 KCAL/MOL
REMARK 922        TOTAL FREE ENERGY PREDICTED BY IDOCK:   -4.88 KCAL/MOL
REMARK 923 INTER-LIGAND FREE ENERGY PREDICTED BY IDOCK:   -3.94 KCAL/MOL
REMARK 924 INTRA-LIGAND FREE ENERGY PREDICTED BY IDOCK:   -0.94 KCAL/MOL
REMARK 927      BINDING AFFINITY PREDICTED BY RF-SCORE:    0.00 PKD
ROOT
HETATM    1  C   UNL     1      -7.378   7.905  74.428  1.00  0.00    -0.163 C  
HETATM    2  N   UNL     1      -8.602   7.207  74.068  1.00  0.00    -0.157 NA 
HETATM    3  H   UNL     1      -9.428   7.708  74.396  1.00  0.00     0.000 HD 
ENDROOT
BRANCH   2   4
HETATM    4  C   UNL     1      -8.666   6.948  72.620  1.00  0.00    -0.120 C  
BRANCH   4   5
HETATM    5  C   UNL     1      -9.859   7.695  71.969  1.00  0.00    -0.167 C  
HETATM    6  H   UNL     1     -10.616   9.506  72.046  1.00  0.00     0.000 HD 
HETATM    7  O   UNL     1      -9.885   9.048  72.445  1.00  0.00    -0.166 OA 
BRANCH   5   8
HETATM    8  C   UNL     1      -9.799   7.673  70.452  1.00  0.00    -0.183 A  
HETATM    9  C   UNL     1      -9.276   8.749  69.720  1.00  0.00    -0.155 A  
HETATM   10  C   UNL     1      -9.211   8.708  68.318  1.00  0.00    -0.137 A  
HETATM   11  C   UNL     1      -9.650   7.568  67.630  1.00  0.00    -0.143 A  
HETATM   12  C   UNL     1     -10.198   6.505  68.351  1.00  0.00    -0.192 A  
HETATM   13  C   UNL     1     -10.257   6.551  69.748  1.00  0.00    -0.221 A  
BRANCH  10  14
HETATM   14  O   UNL     1      -8.554   9.730  67.593  1.00  0.00    -0.125 OA 
BRANCH  14  15
HETATM   15  C   UNL     1      -8.598  11.053  68.062  1.00  0.00    -0.134 C  
HETATM   16  O   UNL     1      -7.758  11.560  68.792  1.00  0.00    -0.134 OA 
BRANCH  15  17
HETATM   17  C   UNL     1      -9.828  11.763  67.477  1.00  0.00    -0.195 C  
HETATM   18  C   UNL     1     -10.467  10.899  66.375  1.00  0.00    -0.307 C  
HETATM   19  C   UNL     1     -10.865  11.955  68.593  1.00  0.00    -0.273 C  
HETATM   20  C   UNL     1      -9.416  13.114  66.882  1.00  0.00    -0.244 C  
ENDBRANCH  15  17
ENDBRANCH  14  15
ENDBRANCH  10  14
BRANCH  11  21
HETATM   21  O   UNL     1      -9.596   7.546  66.212  1.00  0.00    -0.157 OA 
BRANCH  21  22
HETATM   22  C   UNL     1      -8.669   6.731  65.538  1.00  0.00    -0.032 C  
HETATM   23  O   UNL     1      -8.628   5.507  65.603  1.00  0.00    -0.138 OA 
BRANCH  22  24
HETATM   24  C   UNL     1      -7.678   7.573  64.719  1.00  0.00    -0.117 C  
HETATM   25  C   UNL     1      -6.452   7.914  65.591  1.00  0.00    -0.042 C  
HETATM   26  C   UNL     1      -7.187   6.791  63.494  1.00  0.00    -0.066 C  
HETATM   27  C   UNL     1      -8.358   8.877  64.291  1.00  0.00    -0.176 C  
ENDBRANCH  22  24
ENDBRANCH  21  22
ENDBRANCH  11  21
ENDBRANCH   5   8
ENDBRANCH   4   5
ENDBRANCH   2   4
TORSDOF 9
ENDMDL
MODEL      198
REMARK 921   NORMALIZED FREE ENERGY PREDICTED BY IDOCK:   -2.32 KCAL/MOL
REMARK 922        TOTAL FREE ENERGY PREDICTED BY IDOCK:   -4.82 KCAL/MOL
REMARK 923 INTER-LIGAND FREE ENERGY PREDICTED BY IDOCK:   -3.41 KCAL/MOL
REMARK 924 INTRA-LIGAND FREE ENERGY PREDICTED BY IDOCK:   -1.41 KCAL/MOL
REMARK 927      BINDING AFFINITY PREDICTED BY RF-SCORE:    0.00 PKD
ROOT
HETATM    1  C   UNL     1      -7.047   8.368  74.379  1.00  0.00    -0.170 C  
HETATM    2  N   UNL     1      -7.710   7.100  74.119  1.00  0.00    -0.107 NA 
HETATM    3  H   UNL     1      -8.706   7.148  74.332  1.00  0.00     0.000 HD 
ENDROOT
BRANCH   2   4
HETATM    4  C   UNL     1      -7.475   6.645  72.738  1.00  0.00    -0.092 C  
BRANCH   4   5
HETATM    5  C   UNL     1      -8.804   6.552  71.944  1.00  0.00    -0.134 C  
HETATM    6  H   UNL     1     -10.465   7.593  71.825  1.00  0.00     0.000 HD 
HETATM    7  O   UNL     1      -9.651   7.650  72.311  1.00  0.00    -0.152 OA 
BRANCH   5   8
HETATM    8  C   UNL     1      -8.582   6.539  70.442  1.00  0.00    -0.146 A  
HETATM    9  C   UNL     1      -8.796   7.681  69.657  1.00  0.00    -0.140 A  
HETATM   10  C   UNL     1      -8.571   7.661  68.271  1.00  0.00    -0.124 A  
HETATM   11  C   UNL     1      -8.101   6.491  67.656  1.00  0.00    -0.118 A  
HETATM   12  C   UNL     1      -7.913   5.343  68.428  1.00  0.00    -0.088 A  
HETATM   13  C   UNL     1      -8.137   5.372  69.809  1.00  0.00    -0.096 A  
BRANCH  10  14
HETATM   14  O   UNL     1      -8.649   8.848  67.506  1.00  0.00    -0.119 OA 
BRANCH  14  15
HETATM   15  C   UNL     1      -9.836   9.158  66.823  1.00  0.00    -0.226 C  
HETATM   16  O   UNL     1     -10.751   8.371  66.626  1.00  0.00    -0.195 OA 
BRANCH  15  17
HETATM   17  C   UNL     1      -9.819  10.639  66.415  1.00  0.00    -0.259 C  
HETATM   18  C   UNL     1      -8.475  11.282  66.800  1.00  0.00    -0.161 C  
HETATM   19  C   UNL     1      -9.971  10.732  64.890  1.00  0.00    -0.374 C  
HETATM   20  C   UNL     1     -10.956  11.388  67.118  1.00  0.00    -0.340 C  
ENDBRANCH  15  17
ENDBRANCH  14  15
ENDBRANCH  10  14
BRANCH  11  21
HETATM   21  O   UNL     1      -7.894   6.477  66.252  1.00  0.00    -0.100 OA 
BRANCH  21  22
HETATM   22  C   UNL     1      -6.611   6.670  65.710  1.00  0.00    -0.047 C  
HETATM   23  O   UNL     1      -5.581   6.158  66.134  1.00  0.00    -0.013 OA 
BRANCH  22  24
HETATM   24  C   UNL     1      -6.651   7.640  64.518  1.00  0.00    -0.048 C  
HETATM   25  C   UNL     1      -8.096   7.743  63.988  1.00  0.00    -0.062 C  
HETATM   26  C   UNL     1      -6.201   9.043  64.948  1.00  0.00    -0.065 C  
HETATM   27  C   UNL     1      -5.751   7.103  63.400  1.00  0.00    -0.037 C  
ENDBRANCH  22  24
ENDBRANCH  21  22
ENDBRANCH  11  21
ENDBRANCH   5   8
ENDBRANCH   4   5
ENDBRANCH   2   4
TORSDOF 9
ENDMDL
MODEL      199
REMARK 921   NORMALIZED FREE ENERGY PREDICTED BY IDOCK:   -2.15 KCAL/MOL
REMARK 922        TOTAL FREE ENERGY PREDICTED BY IDOCK:   -4.56 KCAL/MOL
REMARK 923 INTER-LIGAND FREE ENERGY PREDICTED BY IDOCK:   -4.19 KCAL/MOL
REMARK 924 INTRA-LIGAND FREE ENERGY PREDICTED BY IDOCK:   -0.37 KCAL/MOL
REMARK 927      BINDING AFFINITY PREDICTED BY RF-SCORE:    0.00 PKD
ROOT
HETATM    1  C   UNL     1     -10.949  18.392  65.465  1.00  0.00     0.360 C  
HETATM    2  N   UNL     1     -10.264  19.442  66.202  1.00  0.00    -0.456 NA 
HETATM    3  H   UNL     1     -10.835  19.793  66.971  1.00  0.00     0.000 HD 
ENDROOT
BRANCH   2   4
HETATM    4  C   UNL     1      -8.943  18.993  66.673  1.00  0.00    -0.326 C  
BRANCH   4   5
HETATM    5  C   UNL     1      -9.029  18.403  68.105  1.00  0.00    -0.309 C  
HETATM    6  H   UNL     1     -10.143  18.691  69.697  1.00  0.00     0.000 HD 
HETATM    7  O   UNL     1     -10.090  19.052  68.820  1.00  0.00    -0.393 OA 
BRANCH   5   8
HETATM    8  C   UNL     1      -9.242  16.899  68.101  1.00  0.00    -0.234 A  
HETATM    9  C   UNL     1      -9.733  16.222  69.227  1.00  0.00    -0.238 A  
HETATM   10  C   UNL     1      -9.941  14.834  69.204  1.00  0.00    -0.181 A  
HETATM   11  C   UNL     1      -9.680  14.106  68.034  1.00  0.00    -0.226 A  
HETATM   12  C   UNL     1      -9.165  14.770  66.919  1.00  0.00    -0.263 A  
HETATM   13  C   UNL     1      -8.963  16.154  66.948  1.00  0.00    -0.248 A  
BRANCH  10  14
HETATM   14  O   UNL     1     -10.568  14.177  70.288  1.00  0.00     0.373 OA 
BRANCH  14  15
HETATM   15  C   UNL     1     -11.398  14.905  71.157  1.00  0.00    -0.209 C  
HETATM   16  O   UNL     1     -11.037  15.867  71.819  1.00  0.00    -0.173 OA 
BRANCH  15  17
HETATM   17  C   UNL     1     -12.823  14.334  71.100  1.00  0.00    -0.429 C  
HETATM   18  C   UNL     1     -13.778  15.351  70.452  1.00  0.00     0.326 C  
HETATM   19  C   UNL     1     -12.814  13.068  70.232  1.00  0.00     0.168 C  
HETATM   20  C   UNL     1     -13.313  14.015  72.517  1.00  0.00    -0.639 C  
ENDBRANCH  15  17
ENDBRANCH  14  15
ENDBRANCH  10  14
BRANCH  11  21
HETATM   21  O   UNL     1      -9.877  12.701  68.029  1.00  0.00    -0.205 OA 
BRANCH  21  22
HETATM   22  C   UNL     1      -9.050  11.859  67.264  1.00  0.00    -0.178 C  
HETATM   23  O   UNL     1      -9.056  11.785  66.041  1.00  0.00    -0.212 OA 
BRANCH  22  24
HETATM   24  C   UNL     1      -8.140  11.007  68.164  1.00  0.00    -0.122 C  
HETATM   25  C   UNL     1      -8.985  10.355  69.277  1.00  0.00    -0.176 C  
HETATM   26  C   UNL     1      -7.475   9.886  67.353  1.00  0.00    -0.091 C  
HETATM   27  C   UNL     1      -7.082  11.907  68.810  1.00  0.00    -0.111 C  
ENDBRANCH  22  24
ENDBRANCH  21  22
ENDBRANCH  11  21
ENDBRANCH   5   8
ENDBRANCH   4   5
ENDBRANCH   2   4
TORSDOF 9
ENDMDL
MODEL      200
REMARK 921   NORMALIZED FREE ENERGY PREDICTED BY IDOCK:   -1.97 KCAL/MOL
REMARK 922        TOTAL FREE ENERGY PREDICTED BY IDOCK:   -4.28 KCAL/MOL
REMARK 923 INTER-LIGAND FREE ENERGY PREDICTED BY IDOCK:   -3.55 KCAL/MOL
REMARK 924 INTRA-LIGAND FREE ENERGY PREDICTED BY IDOCK:   -0.73 KCAL/MOL
REMARK 927      BINDING AFFINITY PREDICTED BY RF-SCORE:    0.00 PKD
ROOT
HETATM    1  C   UNL     1      -7.733   7.894  73.202  1.00  0.00    -0.133 C  
HETATM    2  N   UNL     1      -9.137   7.910  72.825  1.00  0.00    -0.187 NA 
HETATM    3  H   UNL     1      -9.323   8.609  72.106  1.00  0.00     0.000 HD 
ENDROOT
BRANCH   2   4
HETATM    4  C   UNL     1      -9.596   6.574  72.411  1.00  0.00    -0.145 C  
BRANCH   4   5
HETATM    5  C   UNL     1     -10.415   6.645  71.096  1.00  0.00    -0.217 C  
HETATM    6  H   UNL     1     -11.125   8.063  69.937  1.00  0.00     0.000 HD 
HETATM    7  O   UNL     1     -10.623   8.019  70.742  1.00  0.00    -0.209 OA 
BRANCH   5   8
HETATM    8  C   UNL     1      -9.742   5.904  69.953  1.00  0.00    -0.208 A  
HETATM    9  C   UNL     1      -9.100   6.588  68.910  1.00  0.00    -0.131 A  
HETATM   10  C   UNL     1      -8.467   5.891  67.869  1.00  0.00    -0.107 A  
HETATM   11  C   UNL     1      -8.451   4.489  67.873  1.00  0.00    -0.102 A  
HETATM   12  C   UNL     1      -9.112   3.802  68.894  1.00  0.00    -0.201 A  
HETATM   13  C   UNL     1      -9.739   4.504  69.930  1.00  0.00    -0.288 A  
BRANCH  10  14
HETATM   14  O   UNL     1      -7.700   6.578  66.899  1.00  0.00    -0.097 OA 
BRANCH  14  15
HETATM   15  C   UNL     1      -7.501   7.962  67.022  1.00  0.00    -0.092 C  
HETATM   16  O   UNL     1      -6.821   8.493  67.888  1.00  0.00    -0.065 OA 
BRANCH  15  17
HETATM   17  C   UNL     1      -8.227   8.687  65.878  1.00  0.00    -0.123 C  
HETATM   18  C   UNL     1      -9.713   8.880  66.229  1.00  0.00    -0.345 C  
HETATM   19  C   UNL     1      -7.597  10.074  65.693  1.00  0.00    -0.137 C  
HETATM   20  C   UNL     1      -8.117   7.867  64.588  1.00  0.00    -0.125 C  
ENDBRANCH  15  17
ENDBRANCH  14  15
ENDBRANCH  10  14
BRANCH  11  21
HETATM   21  O   UNL     1      -7.823   3.795  66.806  1.00  0.00    -0.087 OA 
BRANCH  21  22
HETATM   22  C   UNL     1      -8.440   2.684  66.206  1.00  0.00    -0.098 C  
HETATM   23  O   UNL     1      -8.844   1.692  66.804  1.00  0.00    -0.111 OA 
BRANCH  22  24
HETATM   24  C   UNL     1      -8.525   2.850  64.680  1.00  0.00    -0.091 C  
HETATM   25  C   UNL     1     -10.005   2.846  64.246  1.00  0.00    -0.105 C  
HETATM   26  C   UNL     1      -7.906   4.185  64.247  1.00  0.00    -0.085 C  
HETATM   27  C   UNL     1      -7.809   1.677  64.004  1.00  0.00    -0.061 C  
ENDBRANCH  22  24
ENDBRANCH  21  22
ENDBRANCH  11  21
ENDBRANCH   5   8
ENDBRANCH   4   5
ENDBRANCH   2   4
TORSDOF 9
ENDMDL
MODEL      201
REMARK 921   NORMALIZED FREE ENERGY PREDICTED BY IDOCK:   -1.74 KCAL/MOL
REMARK 922        TOTAL FREE ENERGY PREDICTED BY IDOCK:   -3.93 KCAL/MOL
REMARK 923 INTER-LIGAND FREE ENERGY PREDICTED BY IDOCK:   -5.30 KCAL/MOL
REMARK 924 INTRA-LIGAND FREE ENERGY PREDICTED BY IDOCK:    1.38 KCAL/MOL
REMARK 927      BINDING AFFINITY PREDICTED BY RF-SCORE:    0.00 PKD
ROOT
HETATM    1  C   UNL     1     -10.356  14.228  64.844  1.00  0.00    -0.401 C  
HETATM    2  N   UNL     1     -10.443  12.838  64.427  1.00  0.00    -0.368 NA 
HETATM    3  H   UNL     1      -9.545  12.492  64.089  1.00  0.00     0.000 HD 
ENDROOT
BRANCH   2   4
HETATM    4  C   UNL     1     -10.979  11.988  65.503  1.00  0.00    -0.298 C  
BRANCH   4   5
HETATM    5  C   UNL     1     -10.087  12.057  66.770  1.00  0.00    -0.203 C  
HETATM    6  H   UNL     1      -8.175  12.296  67.151  1.00  0.00     0.000 HD 
HETATM    7  O   UNL     1      -8.722  12.254  66.375  1.00  0.00    -0.139 OA 
BRANCH   5   8
HETATM    8  C   UNL     1     -10.521  13.153  67.726  1.00  0.00    -0.232 A  
HETATM    9  C   UNL     1      -9.610  14.092  68.233  1.00  0.00    -0.224 A  
HETATM   10  C   UNL     1     -10.028  15.111  69.103  1.00  0.00    -0.238 A  
HETATM   11  C   UNL     1     -11.380  15.217  69.459  1.00  0.00    -0.285 A  
HETATM   12  C   UNL     1     -12.287  14.269  68.980  1.00  0.00    -0.147 A  
HETATM   13  C   UNL     1     -11.864  13.257  68.111  1.00  0.00    -0.388 A  
BRANCH  10  14
HETATM   14  O   UNL     1      -9.138  16.138  69.497  1.00  0.00    -0.197 OA 
BRANCH  14  15
HETATM   15  C   UNL     1      -7.754  15.952  69.352  1.00  0.00    -0.199 C  
HETATM   16  O   UNL     1      -7.115  15.049  69.873  1.00  0.00    -0.185 OA 
BRANCH  15  17
HETATM   17  C   UNL     1      -7.190  17.023  68.405  1.00  0.00    -0.202 C  
HETATM   18  C   UNL     1      -6.229  16.383  67.389  1.00  0.00    -0.200 C  
HETATM   19  C   UNL     1      -8.353  17.656  67.627  1.00  0.00    -0.226 C  
HETATM   20  C   UNL     1      -6.437  18.086  69.211  1.00  0.00    -0.246 C  
ENDBRANCH  15  17
ENDBRANCH  14  15
ENDBRANCH  10  14
BRANCH  11  21
HETATM   21  O   UNL     1     -11.788  16.240  70.353  1.00  0.00    -0.226 OA 
BRANCH  21  22
HETATM   22  C   UNL     1     -12.081  15.950  71.697  1.00  0.00    -0.484 C  
HETATM   23  O   UNL     1     -11.325  16.144  72.642  1.00  0.00    -0.109 OA 
BRANCH  22  24
HETATM   24  C   UNL     1     -13.477  15.322  71.839  1.00  0.00    -0.547 C  
HETATM   25  C   UNL     1     -14.279  15.557  70.542  1.00  0.00     0.847 C  
HETATM   26  C   UNL     1     -13.369  13.809  72.064  1.00  0.00    -0.536 C  
HETATM   27  C   UNL     1     -14.215  15.990  73.004  1.00  0.00     0.129 C  
ENDBRANCH  22  24
ENDBRANCH  21  22
ENDBRANCH  11  21
ENDBRANCH   5   8
ENDBRANCH   4   5
ENDBRANCH   2   4
TORSDOF 9
ENDMDL
MODEL      202
REMARK 921   NORMALIZED FREE ENERGY PREDICTED BY IDOCK:   -1.30 KCAL/MOL
REMARK 922        TOTAL FREE ENERGY PREDICTED BY IDOCK:   -3.26 KCAL/MOL
REMARK 923 INTER-LIGAND FREE ENERGY PREDICTED BY IDOCK:   -2.42 KCAL/MOL
REMARK 924 INTRA-LIGAND FREE ENERGY PREDICTED BY IDOCK:   -0.84 KCAL/MOL
REMARK 927      BINDING AFFINITY PREDICTED BY RF-SCORE:    0.00 PKD
ROOT
HETATM    1  C   UNL     1      -5.874  10.564  69.699  1.00  0.00    -0.047 C  
HETATM    2  N   UNL     1      -5.272   9.293  69.333  1.00  0.00    -0.035 NA 
HETATM    3  H   UNL     1      -5.243   8.651  70.125  1.00  0.00     0.000 HD 
ENDROOT
BRANCH   2   4
HETATM    4  C   UNL     1      -5.953   8.691  68.175  1.00  0.00    -0.046 C  
BRANCH   4   5
HETATM    5  C   UNL     1      -7.435   8.367  68.501  1.00  0.00    -0.094 C  
HETATM    6  H   UNL     1      -9.140   8.376  67.526  1.00  0.00     0.000 HD 
HETATM    7  O   UNL     1      -8.232   8.574  67.327  1.00  0.00    -0.107 OA 
BRANCH   5   8
HETATM    8  C   UNL     1      -7.619   6.952  69.019  1.00  0.00    -0.104 A  
HETATM    9  C   UNL     1      -8.497   6.050  68.400  1.00  0.00    -0.112 A  
HETATM   10  C   UNL     1      -8.645   4.738  68.879  1.00  0.00    -0.084 A  
HETATM   11  C   UNL     1      -7.891   4.306  69.979  1.00  0.00    -0.052 A  
HETATM   12  C   UNL     1      -7.036   5.207  70.617  1.00  0.00    -0.052 A  
HETATM   13  C   UNL     1      -6.891   6.512  70.132  1.00  0.00    -0.058 A  
BRANCH  10  14
HETATM   14  O   UNL     1      -9.420   3.791  68.170  1.00  0.00    -0.170 OA 
BRANCH  14  15
HETATM   15  C   UNL     1      -9.688   3.993  66.806  1.00  0.00    -0.190 C  
HETATM   16  O   UNL     1     -10.564   4.725  66.371  1.00  0.00    -0.284 OA 
BRANCH  15  17
HETATM   17  C   UNL     1      -8.683   3.193  65.963  1.00  0.00    -0.129 C  
HETATM   18  C   UNL     1      -9.352   2.688  64.673  1.00  0.00    -0.135 C  
HETATM   19  C   UNL     1      -7.523   4.118  65.567  1.00  0.00    -0.077 C  
HETATM   20  C   UNL     1      -8.167   1.993  66.766  1.00  0.00    -0.082 C  
ENDBRANCH  15  17
ENDBRANCH  14  15
ENDBRANCH  10  14
BRANCH  11  21
HETATM   21  O   UNL     1      -8.062   2.983  70.465  1.00  0.00    -0.046 OA 
BRANCH  21  22
HETATM   22  C   UNL     1      -7.699   2.645  71.780  1.00  0.00    -0.048 C  
HETATM   23  O   UNL     1      -6.561   2.383  72.154  1.00  0.00    -0.014 OA 
BRANCH  22  24
HETATM   24  C   UNL     1      -8.926   2.616  72.706  1.00  0.00    -0.098 C  
HETATM   25  C   UNL     1      -8.696   1.584  73.829  1.00  0.00    -0.054 C  
HETATM   26  C   UNL     1      -9.143   3.987  73.359  1.00  0.00    -0.108 C  
HETATM   27  C   UNL     1     -10.159   2.201  71.898  1.00  0.00    -0.194 C  
ENDBRANCH  22  24
ENDBRANCH  21  22
ENDBRANCH  11  21
ENDBRANCH   5   8
ENDBRANCH   4   5
ENDBRANCH   2   4
TORSDOF 9
ENDMDL
MODEL      203
REMARK 921   NORMALIZED FREE ENERGY PREDICTED BY IDOCK:   -0.16 KCAL/MOL
REMARK 922        TOTAL FREE ENERGY PREDICTED BY IDOCK:   -1.53 KCAL/MOL
REMARK 923 INTER-LIGAND FREE ENERGY PREDICTED BY IDOCK:   -0.89 KCAL/MOL
REMARK 924 INTRA-LIGAND FREE ENERGY PREDICTED BY IDOCK:   -0.64 KCAL/MOL
REMARK 927      BINDING AFFINITY PREDICTED BY RF-SCORE:    0.00 PKD
ROOT
HETATM    1  C   UNL     1      -8.418   6.951  67.516  1.00  0.00    -0.122 C  
HETATM    2  N   UNL     1      -8.967   6.578  68.810  1.00  0.00    -0.125 NA 
HETATM    3  H   UNL     1      -8.510   7.083  69.569  1.00  0.00     0.000 HD 
ENDROOT
BRANCH   2   4
HETATM    4  C   UNL     1     -10.428   6.756  68.844  1.00  0.00    -0.207 C  
BRANCH   4   5
HETATM    5  C   UNL     1     -10.853   7.674  70.020  1.00  0.00    -0.243 C  
HETATM    6  H   UNL     1     -10.188   8.074  71.824  1.00  0.00     0.000 HD 
HETATM    7  O   UNL     1      -9.928   7.512  71.104  1.00  0.00    -0.181 OA 
BRANCH   5   8
HETATM    8  C   UNL     1     -10.938   9.135  69.614  1.00  0.00    -0.168 A  
HETATM    9  C   UNL     1     -11.152   9.518  68.282  1.00  0.00    -0.047 A  
HETATM   10  C   UNL     1     -11.245  10.872  67.923  1.00  0.00    -0.321 A  
HETATM   11  C   UNL     1     -11.146  11.865  68.908  1.00  0.00    -0.247 A  
HETATM   12  C   UNL     1     -10.905  11.492  70.232  1.00  0.00     0.742 A  
HETATM   13  C   UNL     1     -10.816  10.140  70.583  1.00  0.00    -0.305 A  
BRANCH  10  14
HETATM   14  O   UNL     1     -11.603  11.250  66.608  1.00  0.00    -0.385 OA 
BRANCH  14  15
HETATM   15  C   UNL     1     -10.993  10.619  65.512  1.00  0.00     0.198 C  
HETATM   16  O   UNL     1     -11.245   9.484  65.134  1.00  0.00     2.717 OA 
BRANCH  15  17
HETATM   17  C   UNL     1     -10.006  11.591  64.847  1.00  0.00    -0.303 C  
HETATM   18  C   UNL     1      -9.221  10.874  63.735  1.00  0.00    -0.233 C  
HETATM   19  C   UNL     1     -10.800  12.738  64.205  1.00  0.00    -0.437 C  
HETATM   20  C   UNL     1      -9.023  12.132  65.890  1.00  0.00     0.081 C  
ENDBRANCH  15  17
ENDBRANCH  14  15
ENDBRANCH  10  14
BRANCH  11  21
HETATM   21  O   UNL     1     -11.224  13.231  68.531  1.00  0.00    -0.240 OA 
BRANCH  21  22
HETATM   22  C   UNL     1     -11.771  14.190  69.401  1.00  0.00    -0.313 C  
HETATM   23  O   UNL     1     -12.671  13.980  70.207  1.00  0.00    -0.318 OA 
BRANCH  22  24
HETATM   24  C   UNL     1     -11.115  15.565  69.198  1.00  0.00    -0.272 C  
HETATM   25  C   UNL     1      -9.582  15.419  69.280  1.00  0.00    -0.268 C  
HETATM   26  C   UNL     1     -11.465  16.132  67.816  1.00  0.00    -0.033 C  
HETATM   27  C   UNL     1     -11.581  16.515  70.305  1.00  0.00     0.140 C  
ENDBRANCH  22  24
ENDBRANCH  21  22
ENDBRANCH  11  21
ENDBRANCH   5   8
ENDBRANCH   4   5
ENDBRANCH   2   4
TORSDOF 9
ENDMDL
MODEL      204
REMARK 921   NORMALIZED FREE ENERGY PREDICTED BY IDOCK:    0.60 KCAL/MOL
REMARK 922        TOTAL FREE ENERGY PREDICTED BY IDOCK:   -0.36 KCAL/MOL
REMARK 923 INTER-LIGAND FREE ENERGY PREDICTED BY IDOCK:   -2.22 KCAL/MOL
REMARK 924 INTRA-LIGAND FREE ENERGY PREDICTED BY IDOCK:    1.85 KCAL/MOL
REMARK 927      BINDING AFFINITY PREDICTED BY RF-SCORE:    0.00 PKD
ROOT
HETATM    1  C   UNL     1     -11.174  18.214  64.869  1.00  0.00     1.837 C  
HETATM    2  N   UNL     1     -11.069  19.508  65.525  1.00  0.00    -0.294 NA 
HETATM    3  H   UNL     1     -11.740  19.595  66.288  1.00  0.00     0.000 HD 
ENDROOT
BRANCH   2   4
HETATM    4  C   UNL     1      -9.694  19.766  65.983  1.00  0.00    -0.370 C  
BRANCH   4   5
HETATM    5  C   UNL     1      -9.424  19.095  67.355  1.00  0.00    -0.305 C  
HETATM    6  H   UNL     1     -10.035  19.343  69.205  1.00  0.00     0.000 HD 
HETATM    7  O   UNL     1     -10.200  19.754  68.365  1.00  0.00    -0.436 OA 
BRANCH   5   8
HETATM    8  C   UNL     1      -9.732  17.608  67.343  1.00  0.00    -0.283 A  
HETATM    9  C   UNL     1      -8.712  16.644  67.349  1.00  0.00    -0.202 A  
HETATM   10  C   UNL     1      -9.012  15.272  67.355  1.00  0.00    -0.183 A  
HETATM   11  C   UNL     1     -10.348  14.848  67.380  1.00  0.00    -0.243 A  
HETATM   12  C   UNL     1     -11.368  15.801  67.346  1.00  0.00    -0.106 A  
HETATM   13  C   UNL     1     -11.062  17.167  67.343  1.00  0.00     0.071 A  
BRANCH  10  14
HETATM   14  O   UNL     1      -7.988  14.308  67.505  1.00  0.00    -0.162 OA 
BRANCH  14  15
HETATM   15  C   UNL     1      -6.666  14.726  67.730  1.00  0.00    -0.174 C  
HETATM   16  O   UNL     1      -6.016  15.419  66.961  1.00  0.00    -0.238 OA 
BRANCH  15  17
HETATM   17  C   UNL     1      -6.196  14.219  69.102  1.00  0.00    -0.099 C  
HETATM   18  C   UNL     1      -7.402  13.770  69.945  1.00  0.00     0.597 C  
HETATM   19  C   UNL     1      -5.283  13.002  68.892  1.00  0.00    -0.068 C  
HETATM   20  C   UNL     1      -5.450  15.333  69.842  1.00  0.00    -0.112 C  
ENDBRANCH  15  17
ENDBRANCH  14  15
ENDBRANCH  10  14
BRANCH  11  21
HETATM   21  O   UNL     1     -10.638  13.459  67.368  1.00  0.00    -0.248 OA 
BRANCH  21  22
HETATM   22  C   UNL     1     -11.393  12.888  66.327  1.00  0.00    -0.323 C  
HETATM   23  O   UNL     1     -12.600  13.033  66.170  1.00  0.00    -0.421 OA 
BRANCH  22  24
HETATM   24  C   UNL     1     -10.513  12.023  65.411  1.00  0.00    -0.313 C  
HETATM   25  C   UNL     1     -10.023  10.785  66.190  1.00  0.00    -0.283 C  
HETATM   26  C   UNL     1     -11.314  11.534  64.197  1.00  0.00    -0.349 C  
HETATM   27  C   UNL     1      -9.296  12.838  64.963  1.00  0.00     0.491 C  
ENDBRANCH  22  24
ENDBRANCH  21  22
ENDBRANCH  11  21
ENDBRANCH   5   8
ENDBRANCH   4   5
ENDBRANCH   2   4
TORSDOF 9
ENDMDL
MODEL      205
REMARK 921   NORMALIZED FREE ENERGY PREDICTED BY IDOCK:    3.55 KCAL/MOL
REMARK 922        TOTAL FREE ENERGY PREDICTED BY IDOCK:    4.14 KCAL/MOL
REMARK 923 INTER-LIGAND FREE ENERGY PREDICTED BY IDOCK:    3.69 KCAL/MOL
REMARK 924 INTRA-LIGAND FREE ENERGY PREDICTED BY IDOCK:    0.45 KCAL/MOL
REMARK 927      BINDING AFFINITY PREDICTED BY RF-SCORE:    0.00 PKD
ROOT
HETATM    1  C   UNL     1     -10.083  10.502  62.348  1.00  0.00     0.427 C  
HETATM    2  N   UNL     1      -9.879  10.683  63.776  1.00  0.00    -0.320 NA 
HETATM    3  H   UNL     1      -8.944  10.389  64.060  1.00  0.00     0.000 HD 
ENDROOT
BRANCH   2   4
HETATM    4  C   UNL     1     -10.158  12.069  64.186  1.00  0.00    -0.313 C  
BRANCH   4   5
HETATM    5  C   UNL     1     -10.845  12.115  65.576  1.00  0.00    -0.283 C  
HETATM    6  H   UNL     1     -11.354  10.812  66.955  1.00  0.00     0.000 HD 
HETATM    7  O   UNL     1     -10.933  10.784  66.104  1.00  0.00    -0.115 OA 
BRANCH   5   8
HETATM    8  C   UNL     1     -10.117  13.021  66.553  1.00  0.00    -0.270 A  
HETATM    9  C   UNL     1      -9.622  12.540  67.774  1.00  0.00    -0.203 A  
HETATM   10  C   UNL     1      -8.936  13.385  68.661  1.00  0.00     0.018 A  
HETATM   11  C   UNL     1      -8.715  14.726  68.320  1.00  0.00    -0.170 A  
HETATM   12  C   UNL     1      -9.230  15.219  67.119  1.00  0.00    -0.223 A  
HETATM   13  C   UNL     1      -9.910  14.370  66.238  1.00  0.00    -0.321 A  
BRANCH  10  14
HETATM   14  O   UNL     1      -8.316  12.866  69.822  1.00  0.00     1.530 OA 
BRANCH  14  15
HETATM   15  C   UNL     1      -6.922  12.696  69.849  1.00  0.00     0.539 C  
HETATM   16  O   UNL     1      -6.114  13.603  69.981  1.00  0.00    -0.135 OA 
BRANCH  15  17
HETATM   17  C   UNL     1      -6.587  11.200  69.736  1.00  0.00    -0.138 C  
HETATM   18  C   UNL     1      -5.516  10.815  70.772  1.00  0.00    -0.112 C  
HETATM   19  C   UNL     1      -7.854  10.386  70.035  1.00  0.00     0.043 C  
HETATM   20  C   UNL     1      -6.063  10.888  68.330  1.00  0.00    -0.046 C  
ENDBRANCH  15  17
ENDBRANCH  14  15
ENDBRANCH  10  14
BRANCH  11  21
HETATM   21  O   UNL     1      -8.036  15.575  69.233  1.00  0.00    -0.207 OA 
BRANCH  21  22
HETATM   22  C   UNL     1      -8.692  16.666  69.829  1.00  0.00     0.834 C  
HETATM   23  O   UNL     1      -9.281  16.634  70.904  1.00  0.00     3.232 OA 
BRANCH  22  24
HETATM   24  C   UNL     1      -8.606  17.920  68.944  1.00  0.00    -0.122 C  
HETATM   25  C   UNL     1      -9.986  18.198  68.314  1.00  0.00    -0.380 C  
HETATM   26  C   UNL     1      -8.208  19.144  69.778  1.00  0.00     0.631 C  
HETATM   27  C   UNL     1      -7.591  17.677  67.822  1.00  0.00    -0.209 C  
ENDBRANCH  22  24
ENDBRANCH  21  22
ENDBRANCH  11  21
ENDBRANCH   5   8
ENDBRANCH   4   5
ENDBRANCH   2   4
TORSDOF 9
ENDMDL
MODEL      206
REMARK 921   NORMALIZED FREE ENERGY PREDICTED BY IDOCK:   23.20 KCAL/MOL
REMARK 922        TOTAL FREE ENERGY PREDICTED BY IDOCK:   34.12 KCAL/MOL
REMARK 923 INTER-LIGAND FREE ENERGY PREDICTED BY IDOCK:   31.39 KCAL/MOL
REMARK 924 INTRA-LIGAND FREE ENERGY PREDICTED BY IDOCK:    2.74 KCAL/MOL
REMARK 927      BINDING AFFINITY PREDICTED BY RF-SCORE:    0.00 PKD
ROOT
HETATM    1  C   UNL     1     -11.910   8.108  66.152  1.00  0.00     6.936 C  
HETATM    2  N   UNL     1     -12.341   7.032  67.030  1.00  0.00     2.818 NA 
HETATM    3  H   UNL     1     -13.232   7.250  67.479  1.00  0.00     0.000 HD 
ENDROOT
BRANCH   2   4
HETATM    4  C   UNL     1     -12.398   5.746  66.315  1.00  0.00     4.522 C  
BRANCH   4   5
HETATM    5  C   UNL     1     -11.308   5.668  65.214  1.00  0.00     2.436 C  
HETATM    6  H   UNL     1     -11.227   5.948  63.272  1.00  0.00     0.000 HD 
HETATM    7  O   UNL     1     -11.894   5.996  63.946  1.00  0.00     7.098 OA 
BRANCH   5   8
HETATM    8  C   UNL     1     -10.129   6.581  65.500  1.00  0.00     1.274 A  
HETATM    9  C   UNL     1      -9.392   6.481  66.690  1.00  0.00    -0.184 A  
HETATM   10  C   UNL     1      -8.293   7.320  66.934  1.00  0.00    -0.118 A  
HETATM   11  C   UNL     1      -7.902   8.260  65.969  1.00  0.00    -0.095 A  
HETATM   12  C   UNL     1      -8.648   8.383  64.795  1.00  0.00    -0.077 A  
HETATM   13  C   UNL     1      -9.741   7.542  64.557  1.00  0.00     3.062 A  
BRANCH  10  14
HETATM   14  O   UNL     1      -7.468   7.122  68.065  1.00  0.00    -0.094 OA 
BRANCH  14  15
HETATM   15  C   UNL     1      -7.421   5.860  68.680  1.00  0.00    -0.086 C  
HETATM   16  O   UNL     1      -6.828   4.890  68.231  1.00  0.00    -0.053 OA 
BRANCH  15  17
HETATM   17  C   UNL     1      -8.184   5.912  70.013  1.00  0.00    -0.121 C  
HETATM   18  C   UNL     1      -8.555   7.365  70.358  1.00  0.00    -0.144 C  
HETATM   19  C   UNL     1      -9.486   5.111  69.868  1.00  0.00    -0.221 C  
HETATM   20  C   UNL     1      -7.315   5.334  71.134  1.00  0.00    -0.082 C  
ENDBRANCH  15  17
ENDBRANCH  14  15
ENDBRANCH  10  14
BRANCH  11  21
HETATM   21  O   UNL     1      -6.801   9.114  66.235  1.00  0.00    -0.079 OA 
BRANCH  21  22
HETATM   22  C   UNL     1      -6.053   9.675  65.185  1.00  0.00    -0.076 C  
HETATM   23  O   UNL     1      -5.395   9.039  64.369  1.00  0.00    -0.053 OA 
BRANCH  22  24
HETATM   24  C   UNL     1      -6.138  11.210  65.198  1.00  0.00     0.511 C  
HETATM   25  C   UNL     1      -7.600  11.644  64.963  1.00  0.00     1.670 C  
HETATM   26  C   UNL     1      -5.691  11.764  66.557  1.00  0.00     0.031 C  
HETATM   27  C   UNL     1      -5.268  11.774  64.071  1.00  0.00     2.510 C  
ENDBRANCH  22  24
ENDBRANCH  21  22
ENDBRANCH  11  21
ENDBRANCH   5   8
ENDBRANCH   4   5
ENDBRANCH   2   4
TORSDOF 9
ENDMDL
MODEL      207
REMARK 921   NORMALIZED FREE ENERGY PREDICTED BY IDOCK:   59.93 KCAL/MOL
REMARK 922        TOTAL FREE ENERGY PREDICTED BY IDOCK:   90.18 KCAL/MOL
REMARK 923 INTER-LIGAND FREE ENERGY PREDICTED BY IDOCK:   91.03 KCAL/MOL
REMARK 924 INTRA-LIGAND FREE ENERGY PREDICTED BY IDOCK:   -0.85 KCAL/MOL
REMARK 927      BINDING AFFINITY PREDICTED BY RF-SCORE:    0.00 PKD
ROOT
HETATM    1  C   UNL     1     -10.070   6.258  66.741  1.00  0.00    -0.180 C  
HETATM    2  N   UNL     1      -8.926   6.586  65.907  1.00  0.00    -0.285 NA 
HETATM    3  H   UNL     1      -9.134   6.453  64.917  1.00  0.00     0.000 HD 
ENDROOT
BRANCH   2   4
HETATM    4  C   UNL     1      -8.438   7.948  66.178  1.00  0.00    -0.133 C  
BRANCH   4   5
HETATM    5  C   UNL     1      -8.529   8.287  67.689  1.00  0.00    -0.130 C  
HETATM    6  H   UNL     1      -7.306   8.273  69.226  1.00  0.00     0.000 HD 
HETATM    7  O   UNL     1      -7.251   8.066  68.300  1.00  0.00    -0.088 OA 
BRANCH   5   8
HETATM    8  C   UNL     1      -8.990   9.713  67.936  1.00  0.00    -0.120 A  
HETATM    9  C   UNL     1      -8.829  10.332  69.184  1.00  0.00    -0.182 A  
HETATM   10  C   UNL     1      -9.245  11.657  69.395  1.00  0.00     0.738 A  
HETATM   11  C   UNL     1      -9.809  12.389  68.341  1.00  0.00    -0.198 A  
HETATM   12  C   UNL     1      -9.998  11.769  67.104  1.00  0.00    -0.221 A  
HETATM   13  C   UNL     1      -9.579  10.450  66.900  1.00  0.00    -0.207 A  
BRANCH  10  14
HETATM   14  O   UNL     1      -8.952  12.324  70.607  1.00  0.00     5.524 OA 
BRANCH  14  15
HETATM   15  C   UNL     1      -9.822  12.192  71.701  1.00  0.00    13.536 C  
HETATM   16  O   UNL     1     -11.024  12.414  71.664  1.00  0.00     4.487 OA 
BRANCH  15  17
HETATM   17  C   UNL     1      -9.037  11.684  72.921  1.00  0.00    22.840 C  
HETATM   18  C   UNL     1      -9.699  12.173  74.221  1.00  0.00    21.449 C  
HETATM   19  C   UNL     1      -9.065  10.149  72.921  1.00  0.00     8.050 C  
HETATM   20  C   UNL     1      -7.595  12.199  72.864  1.00  0.00    15.573 C  
ENDBRANCH  15  17
ENDBRANCH  14  15
ENDBRANCH  10  14
BRANCH  11  21
HETATM   21  O   UNL     1     -10.241  13.721  68.570  1.00  0.00    -0.233 OA 
BRANCH  21  22
HETATM   22  C   UNL     1     -11.517  14.147  68.160  1.00  0.00    -0.310 C  
HETATM   23  O   UNL     1     -12.287  13.497  67.461  1.00  0.00    -0.259 OA 
BRANCH  22  24
HETATM   24  C   UNL     1     -11.825  15.561  68.677  1.00  0.00    -0.318 C  
HETATM   25  C   UNL     1     -13.008  15.498  69.665  1.00  0.00     0.413 C  
HETATM   26  C   UNL     1     -10.615  16.140  69.420  1.00  0.00    -0.300 C  
HETATM   27  C   UNL     1     -12.215  16.456  67.497  1.00  0.00     1.587 C  
ENDBRANCH  22  24
ENDBRANCH  21  22
ENDBRANCH  11  21
ENDBRANCH   5   8
ENDBRANCH   4   5
ENDBRANCH   2   4
TORSDOF 9
ENDMDL
