MODEL        1
REMARK 921   NORMALIZED FREE ENERGY PREDICTED BY IDOCK:   -8.21 KCAL/MOL
REMARK 922        TOTAL FREE ENERGY PREDICTED BY IDOCK:  -14.88 KCAL/MOL
REMARK 923 INTER-LIGAND FREE ENERGY PREDICTED BY IDOCK:  -13.97 KCAL/MOL
REMARK 924 INTRA-LIGAND FREE ENERGY PREDICTED BY IDOCK:   -0.92 KCAL/MOL
REMARK 927      BINDING AFFINITY PREDICTED BY RF-SCORE:    0.00 PKD
ROOT
HETATM    1  O   UNL     1     -11.201   7.665  69.023  1.00  0.00    -0.420 OA 
HETATM    2  H   UNL     1     -10.756   7.022  68.484  1.00  0.00     0.000 HD 
HETATM    3  C   UNL     1     -10.403   8.074  70.133  1.00  0.00    -0.215 C  
ENDROOT
BRANCH   3   4
HETATM    4  C   UNL     1     -11.129   9.120  71.009  1.00  0.00    -0.305 C  
BRANCH   4   5
HETATM    5  N   UNL     1     -12.276   9.800  70.373  1.00  0.00    -0.126 NA 
BRANCH   5   6
HETATM    6  C   UNL     1     -11.956  10.893  69.588  1.00  0.00    -0.343 A  
HETATM    7  C   UNL     1     -11.758  14.533  69.763  1.00  0.00    -0.303 A  
HETATM    8  N   UNL     1     -11.350  15.569  68.990  1.00  0.00    -0.302 NA 
HETATM    9  N   UNL     1     -12.057  12.126  70.087  1.00  0.00    -0.319 NA 
HETATM   10  C   UNL     1     -11.680  13.194  69.332  1.00  0.00    -0.327 A  
HETATM   11  N   UNL     1     -11.521  10.680  68.353  1.00  0.00    -0.336 NA 
HETATM   12  C   UNL     1     -10.902  15.327  67.765  1.00  0.00    -0.295 A  
HETATM   13  C   UNL     1     -11.208  13.047  68.040  1.00  0.00    -0.278 A  
HETATM   14  C   UNL     1     -11.157  11.724  67.582  1.00  0.00    -0.252 A  
HETATM   15  N   UNL     1     -10.868  14.101  67.258  1.00  0.00    -0.282 NA 
BRANCH  14  16
HETATM   16  N   UNL     1     -10.791  11.405  66.279  1.00  0.00    -0.276 NA 
HETATM   17  C   UNL     1      -8.973  10.646  64.897  1.00  0.00    -0.218 C  
HETATM   18  C   UNL     1      -9.690  11.227  63.673  1.00  0.00    -0.351 C  
HETATM   19  C   UNL     1      -9.976  10.233  65.974  1.00  0.00    -0.245 C  
HETATM   20  C   UNL     1     -11.620  11.882  65.174  1.00  0.00    -0.215 C  
HETATM   21  C   UNL     1     -10.676  12.335  64.057  1.00  0.00    -0.438 C  
ENDBRANCH  14  16
BRANCH  12  22
HETATM   22  N   UNL     1     -10.435  16.360  66.981  1.00  0.00    -0.301 NA 
BRANCH  22  23
HETATM   23  C   UNL     1     -10.210  16.069  65.561  1.00  0.00    -0.360 C  
BRANCH  23  24
HETATM   24  C   UNL     1     -11.496  15.699  64.800  1.00  0.00    -0.283 C  
HETATM   25  O   UNL     1     -11.732  16.583  63.705  1.00  0.00    -1.548 OA 
HETATM   26  H   UNL     1     -12.526  16.354  63.236  1.00  0.00     0.000 HD 
ENDBRANCH  23  24
ENDBRANCH  22  23
BRANCH  22  27
HETATM   27  C   UNL     1     -10.644  17.746  67.405  1.00  0.00    -0.335 C  
BRANCH  27  28
HETATM   28  C   UNL     1      -9.981  18.743  66.436  1.00  0.00    -0.392 C  
HETATM   29  O   UNL     1     -10.477  20.069  66.629  1.00  0.00    -0.449 OA 
HETATM   30  H   UNL     1     -10.068  20.684  66.032  1.00  0.00     0.000 HD 
ENDBRANCH  27  28
ENDBRANCH  22  27
ENDBRANCH  12  22
BRANCH   7  31
HETATM   31  N   UNL     1     -12.210  14.915  71.025  1.00  0.00    -0.294 NA 
HETATM   32  C   UNL     1     -11.315  15.268  72.121  1.00  0.00    -0.323 C  
HETATM   33  C   UNL     1     -13.540  14.449  71.424  1.00  0.00    -0.360 C  
HETATM   34  C   UNL     1     -11.963  16.390  72.934  1.00  0.00    -0.569 C  
HETATM   35  C   UNL     1     -14.231  15.552  72.225  1.00  0.00    -0.617 C  
HETATM   36  C   UNL     1     -13.368  16.015  73.398  1.00  0.00    -0.582 C  
ENDBRANCH   7  31
ENDBRANCH   5   6
BRANCH   5  37
HETATM   37  C   UNL     1     -13.530   9.855  71.137  1.00  0.00    -0.240 C  
BRANCH  37  38
HETATM   38  C   UNL     1     -13.856   8.517  71.831  1.00  0.00    -0.424 C  
HETATM   39  O   UNL     1     -14.126   8.684  73.222  1.00  0.00    -1.041 OA 
HETATM   40  H   UNL     1     -14.327   7.860  73.650  1.00  0.00     0.000 HD 
ENDBRANCH  37  38
ENDBRANCH   5  37
ENDBRANCH   4   5
ENDBRANCH   3   4
TORSDOF 12
ENDMDL
MODEL        2
REMARK 921   NORMALIZED FREE ENERGY PREDICTED BY IDOCK:   -8.20 KCAL/MOL
REMARK 922        TOTAL FREE ENERGY PREDICTED BY IDOCK:  -14.86 KCAL/MOL
REMARK 923 INTER-LIGAND FREE ENERGY PREDICTED BY IDOCK:  -13.13 KCAL/MOL
REMARK 924 INTRA-LIGAND FREE ENERGY PREDICTED BY IDOCK:   -1.74 KCAL/MOL
REMARK 927      BINDING AFFINITY PREDICTED BY RF-SCORE:    0.00 PKD
ROOT
HETATM    1  O   UNL     1     -10.697  18.942  65.449  1.00  0.00    -0.536 OA 
HETATM    2  H   UNL     1     -11.064  19.818  65.409  1.00  0.00     0.000 HD 
HETATM    3  C   UNL     1     -10.472  18.521  66.793  1.00  0.00    -0.394 C  
ENDROOT
BRANCH   3   4
HETATM    4  C   UNL     1      -9.876  17.097  66.858  1.00  0.00    -0.285 C  
BRANCH   4   5
HETATM    5  N   UNL     1     -10.758  16.013  66.375  1.00  0.00    -0.275 NA 
BRANCH   5   6
HETATM    6  C   UNL     1     -11.086  15.053  67.316  1.00  0.00    -0.334 A  
HETATM    7  C   UNL     1     -11.043  11.436  67.793  1.00  0.00    -0.265 A  
HETATM    8  N   UNL     1     -11.294  10.535  68.774  1.00  0.00    -0.260 NA 
HETATM    9  N   UNL     1     -10.916  13.761  67.038  1.00  0.00    -0.287 NA 
HETATM   10  C   UNL     1     -11.180  12.823  67.990  1.00  0.00    -0.270 A  
HETATM   11  N   UNL     1     -11.539  15.454  68.497  1.00  0.00    -0.351 NA 
HETATM   12  C   UNL     1     -11.728  10.963  69.952  1.00  0.00    -0.339 A  
HETATM   13  C   UNL     1     -11.645  13.168  69.247  1.00  0.00    -0.314 A  
HETATM   14  C   UNL     1     -11.822  14.543  69.450  1.00  0.00    -0.325 A  
HETATM   15  N   UNL     1     -11.955  12.248  70.193  1.00  0.00    -0.335 NA 
BRANCH  14  16
HETATM   16  N   UNL     1     -12.364  15.055  70.623  1.00  0.00    -0.321 NA 
HETATM   17  C   UNL     1     -11.960  15.391  72.971  1.00  0.00    -0.557 C  
HETATM   18  C   UNL     1     -13.471  15.533  73.189  1.00  0.00    -0.585 C  
HETATM   19  C   UNL     1     -11.566  15.836  71.563  1.00  0.00    -0.459 C  
HETATM   20  C   UNL     1     -13.804  15.297  70.690  1.00  0.00     0.059 C  
HETATM   21  C   UNL     1     -14.277  14.854  72.077  1.00  0.00    -0.638 C  
ENDBRANCH  14  16
BRANCH  12  22
HETATM   22  N   UNL     1     -11.941  10.068  70.978  1.00  0.00    -0.346 NA 
BRANCH  22  23
HETATM   23  C   UNL     1     -13.155  10.254  71.782  1.00  0.00    -0.465 C  
BRANCH  23  24
HETATM   24  C   UNL     1     -13.840   8.931  72.169  1.00  0.00    -0.473 C  
HETATM   25  O   UNL     1     -14.074   8.851  73.574  1.00  0.00    -1.189 OA 
HETATM   26  H   UNL     1     -14.497   8.035  73.813  1.00  0.00     0.000 HD 
ENDBRANCH  23  24
ENDBRANCH  22  23
BRANCH  22  27
HETATM   27  C   UNL     1     -11.298   8.753  70.942  1.00  0.00    -0.275 C  
BRANCH  27  28
HETATM   28  C   UNL     1     -10.010   8.725  71.786  1.00  0.00    -0.326 C  
HETATM   29  O   UNL     1      -9.003   9.573  71.231  1.00  0.00    -0.314 OA 
HETATM   30  H   UNL     1      -8.209   9.555  71.751  1.00  0.00     0.000 HD 
ENDBRANCH  27  28
ENDBRANCH  22  27
ENDBRANCH  12  22
BRANCH   7  31
HETATM   31  N   UNL     1     -10.597  10.864  66.602  1.00  0.00    -0.254 NA 
HETATM   32  C   UNL     1     -11.082  11.273  65.289  1.00  0.00    -0.076 C  
HETATM   33  C   UNL     1     -10.059   9.504  66.678  1.00  0.00    -0.252 C  
HETATM   34  C   UNL     1      -9.922  11.189  64.296  1.00  0.00    -0.359 C  
HETATM   35  C   UNL     1      -8.882   9.383  65.712  1.00  0.00    -0.204 C  
HETATM   36  C   UNL     1      -9.274   9.807  64.296  1.00  0.00    -0.286 C  
ENDBRANCH   7  31
ENDBRANCH   5   6
BRANCH   5  37
HETATM   37  C   UNL     1     -10.577  15.570  64.986  1.00  0.00    -0.409 C  
BRANCH  37  38
HETATM   38  C   UNL     1     -11.906  15.519  64.206  1.00  0.00    -0.173 C  
HETATM   39  O   UNL     1     -12.530  14.238  64.288  1.00  0.00    -0.657 OA 
HETATM   40  H   UNL     1     -13.349  14.207  63.808  1.00  0.00     0.000 HD 
ENDBRANCH  37  38
ENDBRANCH   5  37
ENDBRANCH   4   5
ENDBRANCH   3   4
TORSDOF 12
ENDMDL
MODEL        3
REMARK 921   NORMALIZED FREE ENERGY PREDICTED BY IDOCK:   -8.15 KCAL/MOL
REMARK 922        TOTAL FREE ENERGY PREDICTED BY IDOCK:  -14.78 KCAL/MOL
REMARK 923 INTER-LIGAND FREE ENERGY PREDICTED BY IDOCK:  -13.17 KCAL/MOL
REMARK 924 INTRA-LIGAND FREE ENERGY PREDICTED BY IDOCK:   -1.61 KCAL/MOL
REMARK 927      BINDING AFFINITY PREDICTED BY RF-SCORE:    0.00 PKD
ROOT
HETATM    1  O   UNL     1     -13.940   8.888  73.337  1.00  0.00    -1.236 OA 
HETATM    2  H   UNL     1     -14.127   8.156  73.913  1.00  0.00     0.000 HD 
HETATM    3  C   UNL     1     -13.933   8.496  71.965  1.00  0.00    -0.433 C  
ENDROOT
BRANCH   3   4
HETATM    4  C   UNL     1     -13.630   9.686  71.027  1.00  0.00    -0.101 C  
BRANCH   4   5
HETATM    5  N   UNL     1     -12.200   9.924  70.739  1.00  0.00    -0.298 NA 
BRANCH   5   6
HETATM    6  C   UNL     1     -11.939  10.935  69.831  1.00  0.00    -0.353 A  
HETATM    7  C   UNL     1     -12.038  14.572  69.553  1.00  0.00    -0.306 A  
HETATM    8  N   UNL     1     -11.687  15.536  68.667  1.00  0.00    -0.363 NA 
HETATM    9  N   UNL     1     -12.156  12.206  70.169  1.00  0.00    -0.319 NA 
HETATM   10  C   UNL     1     -11.839  13.202  69.296  1.00  0.00    -0.323 A  
HETATM   11  N   UNL     1     -11.444  10.608  68.644  1.00  0.00    -0.277 NA 
HETATM   12  C   UNL     1     -11.177  15.183  67.494  1.00  0.00    -0.330 A  
HETATM   13  C   UNL     1     -11.309  12.937  68.046  1.00  0.00    -0.292 A  
HETATM   14  C   UNL     1     -11.137  11.577  67.758  1.00  0.00    -0.260 A  
HETATM   15  N   UNL     1     -11.027  13.912  67.147  1.00  0.00    -0.287 NA 
BRANCH  14  16
HETATM   16  N   UNL     1     -10.699  11.131  66.516  1.00  0.00    -0.267 NA 
HETATM   17  C   UNL     1      -8.799  10.278  65.310  1.00  0.00    -0.200 C  
HETATM   18  C   UNL     1      -9.466  10.708  63.999  1.00  0.00    -0.329 C  
HETATM   19  C   UNL     1      -9.846   9.956  66.377  1.00  0.00    -0.227 C  
HETATM   20  C   UNL     1     -11.482  11.468  65.328  1.00  0.00    -0.021 C  
HETATM   21  C   UNL     1     -10.493  11.824  64.215  1.00  0.00    -0.373 C  
ENDBRANCH  14  16
BRANCH  12  22
HETATM   22  N   UNL     1     -10.766  16.147  66.599  1.00  0.00    -0.275 NA 
BRANCH  22  23
HETATM   23  C   UNL     1     -10.187  17.373  67.161  1.00  0.00    -0.323 C  
BRANCH  23  24
HETATM   24  C   UNL     1     -10.384  18.609  66.265  1.00  0.00    -0.444 C  
HETATM   25  O   UNL     1      -9.138  19.223  65.935  1.00  0.00    -0.429 OA 
HETATM   26  H   UNL     1      -9.259  19.986  65.382  1.00  0.00     0.000 HD 
ENDBRANCH  23  24
ENDBRANCH  22  23
BRANCH  22  27
HETATM   27  C   UNL     1     -10.451  15.773  65.219  1.00  0.00    -0.401 C  
BRANCH  27  28
HETATM   28  C   UNL     1     -11.636  16.039  64.273  1.00  0.00    -0.138 C  
HETATM   29  O   UNL     1     -12.294  14.825  63.905  1.00  0.00    -0.981 OA 
HETATM   30  H   UNL     1     -13.025  14.990  63.321  1.00  0.00     0.000 HD 
ENDBRANCH  27  28
ENDBRANCH  22  27
ENDBRANCH  12  22
BRANCH   7  31
HETATM   31  N   UNL     1     -12.565  15.067  70.745  1.00  0.00    -0.343 NA 
HETATM   32  C   UNL     1     -13.997  15.168  71.003  1.00  0.00    -0.303 C  
HETATM   33  C   UNL     1     -11.721  15.981  71.517  1.00  0.00    -0.484 C  
HETATM   34  C   UNL     1     -14.246  14.872  72.483  1.00  0.00    -0.382 C  
HETATM   35  C   UNL     1     -11.925  15.705  73.006  1.00  0.00    -0.590 C  
HETATM   36  C   UNL     1     -13.404  15.768  73.389  1.00  0.00    -0.585 C  
ENDBRANCH   7  31
ENDBRANCH   5   6
BRANCH   5  37
HETATM   37  C   UNL     1     -11.316   8.751  70.724  1.00  0.00    -0.272 C  
BRANCH  37  38
HETATM   38  C   UNL     1     -10.239   8.810  71.827  1.00  0.00    -0.338 C  
HETATM   39  O   UNL     1      -8.983   9.271  71.329  1.00  0.00    -0.285 OA 
HETATM   40  H   UNL     1      -8.321   9.307  72.009  1.00  0.00     0.000 HD 
ENDBRANCH  37  38
ENDBRANCH   5  37
ENDBRANCH   4   5
ENDBRANCH   3   4
TORSDOF 12
ENDMDL
MODEL        4
REMARK 921   NORMALIZED FREE ENERGY PREDICTED BY IDOCK:   -8.10 KCAL/MOL
REMARK 922        TOTAL FREE ENERGY PREDICTED BY IDOCK:  -14.69 KCAL/MOL
REMARK 923 INTER-LIGAND FREE ENERGY PREDICTED BY IDOCK:  -13.05 KCAL/MOL
REMARK 924 INTRA-LIGAND FREE ENERGY PREDICTED BY IDOCK:   -1.64 KCAL/MOL
REMARK 927      BINDING AFFINITY PREDICTED BY RF-SCORE:    0.00 PKD
ROOT
HETATM    1  O   UNL     1     -12.391  14.791  63.910  1.00  0.00    -0.981 OA 
HETATM    2  H   UNL     1     -13.241  14.829  63.487  1.00  0.00     0.000 HD 
HETATM    3  C   UNL     1     -11.952  16.080  64.336  1.00  0.00     0.070 C  
ENDROOT
BRANCH   3   4
HETATM    4  C   UNL     1     -10.569  16.020  65.023  1.00  0.00    -0.316 C  
BRANCH   4   5
HETATM    5  N   UNL     1     -10.560  16.329  66.469  1.00  0.00    -0.291 NA 
BRANCH   5   6
HETATM    6  C   UNL     1     -10.974  15.301  67.297  1.00  0.00    -0.327 A  
HETATM    7  C   UNL     1     -11.214  11.660  67.371  1.00  0.00    -0.298 A  
HETATM    8  N   UNL     1     -11.547  10.679  68.245  1.00  0.00    -0.431 NA 
HETATM    9  N   UNL     1     -10.899  14.037  66.879  1.00  0.00    -0.288 NA 
HETATM   10  C   UNL     1     -11.248  13.024  67.719  1.00  0.00    -0.279 A  
HETATM   11  N   UNL     1     -11.413  15.603  68.512  1.00  0.00    -0.362 NA 
HETATM   12  C   UNL     1     -11.964  11.008  69.461  1.00  0.00    -0.342 A  
HETATM   13  C   UNL     1     -11.703  13.264  69.004  1.00  0.00    -0.322 A  
HETATM   14  C   UNL     1     -11.778  14.618  69.356  1.00  0.00    -0.316 A  
HETATM   15  N   UNL     1     -12.096  12.272  69.841  1.00  0.00    -0.282 NA 
BRANCH  14  16
HETATM   16  N   UNL     1     -12.296  15.039  70.576  1.00  0.00    -0.331 NA 
HETATM   17  C   UNL     1     -11.780  15.367  72.903  1.00  0.00    -0.508 C  
HETATM   18  C   UNL     1     -13.279  15.330  73.219  1.00  0.00    -0.593 C  
HETATM   19  C   UNL     1     -11.531  15.884  71.486  1.00  0.00    -0.410 C  
HETATM   20  C   UNL     1     -13.747  15.113  70.740  1.00  0.00    -0.183 C  
HETATM   21  C   UNL     1     -14.075  14.588  72.140  1.00  0.00    -0.616 C  
ENDBRANCH  14  16
BRANCH  12  22
HETATM   22  N   UNL     1     -12.259  10.026  70.381  1.00  0.00    -0.214 NA 
BRANCH  22  23
HETATM   23  C   UNL     1     -11.314   8.908  70.488  1.00  0.00    -0.234 C  
BRANCH  23  24
HETATM   24  C   UNL     1     -10.300   9.072  71.635  1.00  0.00    -0.350 C  
HETATM   25  O   UNL     1     -10.636   8.256  72.756  1.00  0.00    -0.340 OA 
HETATM   26  H   UNL     1     -10.011   8.357  73.463  1.00  0.00     0.000 HD 
ENDBRANCH  23  24
ENDBRANCH  22  23
BRANCH  22  27
HETATM   27  C   UNL     1     -13.145  10.326  71.508  1.00  0.00    -0.433 C  
BRANCH  27  28
HETATM   28  C   UNL     1     -13.961   9.093  71.935  1.00  0.00    -0.345 C  
HETATM   29  O   UNL     1     -14.032   8.980  73.358  1.00  0.00    -1.220 OA 
HETATM   30  H   UNL     1     -14.536   8.219  73.621  1.00  0.00     0.000 HD 
ENDBRANCH  27  28
ENDBRANCH  22  27
ENDBRANCH  12  22
BRANCH   7  31
HETATM   31  N   UNL     1     -10.796  11.189  66.128  1.00  0.00    -0.227 NA 
HETATM   32  C   UNL     1     -11.358  11.658  64.866  1.00  0.00    -0.184 C  
HETATM   33  C   UNL     1     -10.192   9.855  66.090  1.00  0.00    -0.207 C  
HETATM   34  C   UNL     1     -10.242  11.697  63.822  1.00  0.00    -0.430 C  
HETATM   35  C   UNL     1      -9.055   9.856  65.069  1.00  0.00    -0.264 C  
HETATM   36  C   UNL     1      -9.531  10.351  63.703  1.00  0.00    -0.353 C  
ENDBRANCH   7  31
ENDBRANCH   5   6
BRANCH   5  37
HETATM   37  C   UNL     1     -10.907  17.701  66.862  1.00  0.00    -0.032 C  
BRANCH  37  38
HETATM   38  C   UNL     1     -10.245  18.759  65.956  1.00  0.00    -0.372 C  
HETATM   39  O   UNL     1      -8.831  18.817  66.139  1.00  0.00    -0.440 OA 
HETATM   40  H   UNL     1      -8.424  19.468  65.581  1.00  0.00     0.000 HD 
ENDBRANCH  37  38
ENDBRANCH   5  37
ENDBRANCH   4   5
ENDBRANCH   3   4
TORSDOF 12
ENDMDL
MODEL        5
REMARK 921   NORMALIZED FREE ENERGY PREDICTED BY IDOCK:   -8.07 KCAL/MOL
REMARK 922        TOTAL FREE ENERGY PREDICTED BY IDOCK:  -14.65 KCAL/MOL
REMARK 923 INTER-LIGAND FREE ENERGY PREDICTED BY IDOCK:  -12.96 KCAL/MOL
REMARK 924 INTRA-LIGAND FREE ENERGY PREDICTED BY IDOCK:   -1.70 KCAL/MOL
REMARK 927      BINDING AFFINITY PREDICTED BY RF-SCORE:    0.00 PKD
ROOT
HETATM    1  O   UNL     1      -8.915   9.236  69.717  1.00  0.00    -0.147 OA 
HETATM    2  H   UNL     1      -8.383   8.660  69.179  1.00  0.00     0.000 HD 
HETATM    3  C   UNL     1      -9.992   8.537  70.339  1.00  0.00    -0.183 C  
ENDROOT
BRANCH   3   4
HETATM    4  C   UNL     1     -10.856   9.473  71.214  1.00  0.00    -0.343 C  
BRANCH   4   5
HETATM    5  N   UNL     1     -12.047  10.046  70.553  1.00  0.00    -0.269 NA 
BRANCH   5   6
HETATM    6  C   UNL     1     -11.791  11.073  69.660  1.00  0.00    -0.342 A  
HETATM    7  C   UNL     1     -11.848  14.715  69.458  1.00  0.00    -0.330 A  
HETATM    8  N   UNL     1     -11.503  15.693  68.584  1.00  0.00    -0.359 NA 
HETATM    9  N   UNL     1     -11.985  12.339  70.028  1.00  0.00    -0.333 NA 
HETATM   10  C   UNL     1     -11.672  13.348  69.169  1.00  0.00    -0.326 A  
HETATM   11  N   UNL     1     -11.325  10.764  68.457  1.00  0.00    -0.279 NA 
HETATM   12  C   UNL     1     -11.021  15.357  67.394  1.00  0.00    -0.312 A  
HETATM   13  C   UNL     1     -11.172  13.102  67.903  1.00  0.00    -0.270 A  
HETATM   14  C   UNL     1     -11.023  11.746  67.585  1.00  0.00    -0.233 A  
HETATM   15  N   UNL     1     -10.895  14.092  67.018  1.00  0.00    -0.288 NA 
BRANCH  14  16
HETATM   16  N   UNL     1     -10.616  11.321  66.325  1.00  0.00    -0.258 NA 
HETATM   17  C   UNL     1      -8.739  10.522  65.050  1.00  0.00    -0.193 C  
HETATM   18  C   UNL     1      -9.458  10.946  63.765  1.00  0.00    -0.308 C  
HETATM   19  C   UNL     1      -9.742  10.166  66.148  1.00  0.00    -0.218 C  
HETATM   20  C   UNL     1     -11.446  11.648  65.166  1.00  0.00    -0.111 C  
HETATM   21  C   UNL     1     -10.503  12.036  64.024  1.00  0.00    -0.410 C  
ENDBRANCH  14  16
BRANCH  12  22
HETATM   22  N   UNL     1     -10.616  16.335  66.511  1.00  0.00    -0.291 NA 
BRANCH  22  23
HETATM   23  C   UNL     1      -9.844  17.453  67.063  1.00  0.00    -0.286 C  
BRANCH  23  24
HETATM   24  C   UNL     1     -10.554  18.812  66.931  1.00  0.00    -0.409 C  
HETATM   25  O   UNL     1     -10.512  19.549  68.152  1.00  0.00    -0.422 OA 
HETATM   26  H   UNL     1     -10.950  20.388  68.070  1.00  0.00     0.000 HD 
ENDBRANCH  23  24
ENDBRANCH  22  23
BRANCH  22  27
HETATM   27  C   UNL     1     -10.510  16.026  65.083  1.00  0.00    -0.303 C  
BRANCH  27  28
HETATM   28  C   UNL     1     -11.860  16.196  64.362  1.00  0.00     0.051 C  
HETATM   29  O   UNL     1     -12.339  14.951  63.848  1.00  0.00    -0.980 OA 
HETATM   30  H   UNL     1     -13.171  15.057  63.403  1.00  0.00     0.000 HD 
ENDBRANCH  27  28
ENDBRANCH  22  27
ENDBRANCH  12  22
BRANCH   7  31
HETATM   31  N   UNL     1     -12.345  15.193  70.670  1.00  0.00    -0.340 NA 
HETATM   32  C   UNL     1     -13.768  15.365  70.937  1.00  0.00    -0.236 C  
HETATM   33  C   UNL     1     -11.449  16.027  71.474  1.00  0.00    -0.385 C  
HETATM   34  C   UNL     1     -14.031  15.026  72.405  1.00  0.00    -0.593 C  
HETATM   35  C   UNL     1     -11.666  15.704  72.951  1.00  0.00    -0.512 C  
HETATM   36  C   UNL     1     -13.138  15.836  73.342  1.00  0.00    -0.690 C  
ENDBRANCH   7  31
ENDBRANCH   5   6
BRANCH   5  37
HETATM   37  C   UNL     1     -13.281  10.125  71.345  1.00  0.00    -0.380 C  
BRANCH  37  38
HETATM   38  C   UNL     1     -13.684   8.762  71.943  1.00  0.00    -0.433 C  
HETATM   39  O   UNL     1     -14.008   8.857  73.330  1.00  0.00    -1.236 OA 
HETATM   40  H   UNL     1     -14.257   8.017  73.698  1.00  0.00     0.000 HD 
ENDBRANCH  37  38
ENDBRANCH   5  37
ENDBRANCH   4   5
ENDBRANCH   3   4
TORSDOF 12
ENDMDL
MODEL        6
REMARK 921   NORMALIZED FREE ENERGY PREDICTED BY IDOCK:   -8.06 KCAL/MOL
REMARK 922        TOTAL FREE ENERGY PREDICTED BY IDOCK:  -14.64 KCAL/MOL
REMARK 923 INTER-LIGAND FREE ENERGY PREDICTED BY IDOCK:  -12.81 KCAL/MOL
REMARK 924 INTRA-LIGAND FREE ENERGY PREDICTED BY IDOCK:   -1.83 KCAL/MOL
REMARK 927      BINDING AFFINITY PREDICTED BY RF-SCORE:    0.00 PKD
ROOT
HETATM    1  O   UNL     1     -11.262   7.987  69.079  1.00  0.00    -0.409 OA 
HETATM    2  H   UNL     1     -11.232   7.100  68.740  1.00  0.00     0.000 HD 
HETATM    3  C   UNL     1     -10.778   8.060  70.420  1.00  0.00    -0.233 C  
ENDROOT
BRANCH   3   4
HETATM    4  C   UNL     1     -10.826   9.503  70.971  1.00  0.00    -0.353 C  
BRANCH   4   5
HETATM    5  N   UNL     1     -11.977  10.318  70.529  1.00  0.00    -0.301 NA 
BRANCH   5   6
HETATM    6  C   UNL     1     -11.664  11.397  69.722  1.00  0.00    -0.344 A  
HETATM    7  C   UNL     1     -11.803  15.043  69.705  1.00  0.00    -0.321 A  
HETATM    8  N   UNL     1     -11.400  16.074  68.923  1.00  0.00    -0.357 NA 
HETATM    9  N   UNL     1     -11.928  12.637  70.134  1.00  0.00    -0.341 NA 
HETATM   10  C   UNL     1     -11.561  13.698  69.365  1.00  0.00    -0.312 A  
HETATM   11  N   UNL     1     -11.073  11.166  68.557  1.00  0.00    -0.222 NA 
HETATM   12  C   UNL     1     -10.794  15.816  67.772  1.00  0.00    -0.316 A  
HETATM   13  C   UNL     1     -10.931  13.533  68.144  1.00  0.00    -0.254 A  
HETATM   14  C   UNL     1     -10.714  12.200  67.772  1.00  0.00    -0.209 A  
HETATM   15  N   UNL     1     -10.596  14.576  67.344  1.00  0.00    -0.268 NA 
BRANCH  14  16
HETATM   16  N   UNL     1     -10.173  11.854  66.539  1.00  0.00    -0.200 NA 
HETATM   17  C   UNL     1     -10.711  11.113  64.314  1.00  0.00    -0.403 C  
HETATM   18  C   UNL     1      -9.272  10.607  64.157  1.00  0.00    -0.267 C  
HETATM   19  C   UNL     1     -10.774  12.293  65.284  1.00  0.00    -0.292 C  
HETATM   20  C   UNL     1      -8.750  11.527  66.458  1.00  0.00    -0.183 C  
HETATM   21  C   UNL     1      -8.610  10.332  65.511  1.00  0.00    -0.173 C  
ENDBRANCH  14  16
BRANCH  12  22
HETATM   22  N   UNL     1     -10.331  16.849  66.985  1.00  0.00    -0.311 NA 
BRANCH  22  23
HETATM   23  C   UNL     1     -10.324  18.189  67.584  1.00  0.00    -0.397 C  
BRANCH  23  24
HETATM   24  C   UNL     1     -10.647  19.310  66.579  1.00  0.00    -0.446 C  
HETATM   25  O   UNL     1      -9.500  20.110  66.298  1.00  0.00    -0.507 OA 
HETATM   26  H   UNL     1      -9.699  20.802  65.678  1.00  0.00     0.000 HD 
ENDBRANCH  23  24
ENDBRANCH  22  23
BRANCH  22  27
HETATM   27  C   UNL     1      -9.444  16.563  65.856  1.00  0.00    -0.219 C  
BRANCH  27  28
HETATM   28  C   UNL     1      -7.969  16.828  66.210  1.00  0.00    -0.316 C  
HETATM   29  O   UNL     1      -7.465  17.976  65.525  1.00  0.00    -0.538 OA 
HETATM   30  H   UNL     1      -6.555  18.138  65.743  1.00  0.00     0.000 HD 
ENDBRANCH  27  28
ENDBRANCH  22  27
ENDBRANCH  12  22
BRANCH   7  31
HETATM   31  N   UNL     1     -12.430  15.442  70.885  1.00  0.00    -0.384 NA 
HETATM   32  C   UNL     1     -13.876  15.408  71.071  1.00  0.00    -0.276 C  
HETATM   33  C   UNL     1     -11.709  16.394  71.733  1.00  0.00    -0.324 C  
HETATM   34  C   UNL     1     -14.170  15.032  72.524  1.00  0.00    -0.407 C  
HETATM   35  C   UNL     1     -11.961  16.040  73.198  1.00  0.00    -0.570 C  
HETATM   36  C   UNL     1     -13.456  15.960  73.505  1.00  0.00    -0.384 C  
ENDBRANCH   7  31
ENDBRANCH   5   6
BRANCH   5  37
HETATM   37  C   UNL     1     -13.089  10.476  71.477  1.00  0.00    -0.430 C  
BRANCH  37  38
HETATM   38  C   UNL     1     -13.779   9.137  71.805  1.00  0.00    -0.404 C  
HETATM   39  O   UNL     1     -14.183   9.060  73.172  1.00  0.00    -1.142 OA 
HETATM   40  H   UNL     1     -14.609   8.235  73.373  1.00  0.00     0.000 HD 
ENDBRANCH  37  38
ENDBRANCH   5  37
ENDBRANCH   4   5
ENDBRANCH   3   4
TORSDOF 12
ENDMDL
MODEL        7
REMARK 921   NORMALIZED FREE ENERGY PREDICTED BY IDOCK:   -7.89 KCAL/MOL
REMARK 922        TOTAL FREE ENERGY PREDICTED BY IDOCK:  -14.34 KCAL/MOL
REMARK 923 INTER-LIGAND FREE ENERGY PREDICTED BY IDOCK:  -13.09 KCAL/MOL
REMARK 924 INTRA-LIGAND FREE ENERGY PREDICTED BY IDOCK:   -1.25 KCAL/MOL
REMARK 927      BINDING AFFINITY PREDICTED BY RF-SCORE:    0.00 PKD
ROOT
HETATM    1  O   UNL     1      -9.229  19.293  65.984  1.00  0.00    -0.430 OA 
HETATM    2  H   UNL     1      -9.472  20.212  65.988  1.00  0.00     0.000 HD 
HETATM    3  C   UNL     1     -10.213  18.481  66.624  1.00  0.00    -0.399 C  
ENDROOT
BRANCH   3   4
HETATM    4  C   UNL     1      -9.818  16.987  66.617  1.00  0.00    -0.290 C  
BRANCH   4   5
HETATM    5  N   UNL     1     -10.893  16.044  66.242  1.00  0.00    -0.228 NA 
BRANCH   5   6
HETATM    6  C   UNL     1     -11.173  15.063  67.177  1.00  0.00    -0.336 A  
HETATM    7  C   UNL     1     -11.073  11.439  67.583  1.00  0.00    -0.268 A  
HETATM    8  N   UNL     1     -11.276  10.516  68.556  1.00  0.00    -0.273 NA 
HETATM    9  N   UNL     1     -11.001  13.778  66.868  1.00  0.00    -0.288 NA 
HETATM   10  C   UNL     1     -11.217  12.820  67.812  1.00  0.00    -0.275 A  
HETATM   11  N   UNL     1     -11.583  15.437  68.382  1.00  0.00    -0.354 NA 
HETATM   12  C   UNL     1     -11.667  10.918  69.758  1.00  0.00    -0.338 A  
HETATM   13  C   UNL     1     -11.636  13.137  69.092  1.00  0.00    -0.316 A  
HETATM   14  C   UNL     1     -11.819  14.505  69.328  1.00  0.00    -0.323 A  
HETATM   15  N   UNL     1     -11.898  12.195  70.032  1.00  0.00    -0.330 NA 
BRANCH  14  16
HETATM   16  N   UNL     1     -12.319  14.990  70.531  1.00  0.00    -0.331 NA 
HETATM   17  C   UNL     1     -11.705  15.790  72.715  1.00  0.00    -0.515 C  
HETATM   18  C   UNL     1     -13.121  15.473  73.207  1.00  0.00    -0.658 C  
HETATM   19  C   UNL     1     -11.703  16.118  71.222  1.00  0.00    -0.425 C  
HETATM   20  C   UNL     1     -13.728  14.766  70.853  1.00  0.00    -0.159 C  
HETATM   21  C   UNL     1     -13.805  14.411  72.340  1.00  0.00    -0.595 C  
ENDBRANCH  14  16
BRANCH  12  22
HETATM   22  N   UNL     1     -11.830  10.002  70.775  1.00  0.00    -0.321 NA 
BRANCH  22  23
HETATM   23  C   UNL     1     -10.655   9.205  71.147  1.00  0.00    -0.309 C  
BRANCH  23  24
HETATM   24  C   UNL     1     -10.733   7.743  70.673  1.00  0.00    -0.231 C  
HETATM   25  O   UNL     1     -10.213   7.590  69.353  1.00  0.00    -0.193 OA 
HETATM   26  H   UNL     1     -10.261   6.687  69.061  1.00  0.00     0.000 HD 
ENDBRANCH  23  24
ENDBRANCH  22  23
BRANCH  22  27
HETATM   27  C   UNL     1     -12.916  10.175  71.743  1.00  0.00    -0.462 C  
BRANCH  27  28
HETATM   28  C   UNL     1     -13.474   8.820  72.219  1.00  0.00    -0.420 C  
HETATM   29  O   UNL     1     -14.179   8.951  73.455  1.00  0.00    -1.241 OA 
HETATM   30  H   UNL     1     -14.522   8.116  73.748  1.00  0.00     0.000 HD 
ENDBRANCH  27  28
ENDBRANCH  22  27
ENDBRANCH  12  22
BRANCH   7  31
HETATM   31  N   UNL     1     -10.669  10.894  66.365  1.00  0.00    -0.229 NA 
HETATM   32  C   UNL     1     -11.275  11.254  65.089  1.00  0.00    -0.001 C  
HETATM   33  C   UNL     1     -10.023   9.580  66.406  1.00  0.00    -0.269 C  
HETATM   34  C   UNL     1     -10.185  11.253  64.016  1.00  0.00    -0.403 C  
HETATM   35  C   UNL     1      -8.911   9.543  65.359  1.00  0.00    -0.213 C  
HETATM   36  C   UNL     1      -9.434   9.924  63.974  1.00  0.00    -0.231 C  
ENDBRANCH   7  31
ENDBRANCH   5   6
BRANCH   5  37
HETATM   37  C   UNL     1     -11.000  15.681  64.823  1.00  0.00    -0.400 C  
BRANCH  37  38
HETATM   38  C   UNL     1     -12.446  15.335  64.411  1.00  0.00    -0.029 C  
HETATM   39  O   UNL     1     -12.508  14.167  63.593  1.00  0.00    -1.009 OA 
HETATM   40  H   UNL     1     -13.398  13.954  63.340  1.00  0.00     0.000 HD 
ENDBRANCH  37  38
ENDBRANCH   5  37
ENDBRANCH   4   5
ENDBRANCH   3   4
TORSDOF 12
ENDMDL
MODEL        8
REMARK 921   NORMALIZED FREE ENERGY PREDICTED BY IDOCK:   -7.67 KCAL/MOL
REMARK 922        TOTAL FREE ENERGY PREDICTED BY IDOCK:  -13.97 KCAL/MOL
REMARK 923 INTER-LIGAND FREE ENERGY PREDICTED BY IDOCK:  -12.76 KCAL/MOL
REMARK 924 INTRA-LIGAND FREE ENERGY PREDICTED BY IDOCK:   -1.21 KCAL/MOL
REMARK 927      BINDING AFFINITY PREDICTED BY RF-SCORE:    0.00 PKD
ROOT
HETATM    1  O   UNL     1     -14.149   8.795  73.426  1.00  0.00    -1.167 OA 
HETATM    2  H   UNL     1     -14.700   8.028  73.539  1.00  0.00     0.000 HD 
HETATM    3  C   UNL     1     -14.023   9.160  72.053  1.00  0.00    -0.371 C  
ENDROOT
BRANCH   3   4
HETATM    4  C   UNL     1     -13.128  10.407  71.869  1.00  0.00    -0.458 C  
BRANCH   4   5
HETATM    5  N   UNL     1     -11.900  10.200  71.072  1.00  0.00    -0.357 NA 
BRANCH   5   6
HETATM    6  C   UNL     1     -11.606  11.203  70.167  1.00  0.00    -0.323 A  
HETATM    7  C   UNL     1     -11.826  14.827  69.799  1.00  0.00    -0.316 A  
HETATM    8  N   UNL     1     -11.441  15.787  68.923  1.00  0.00    -0.357 NA 
HETATM    9  N   UNL     1     -11.900  12.471  70.457  1.00  0.00    -0.186 NA 
HETATM   10  C   UNL     1     -11.551  13.461  69.591  1.00  0.00    -0.268 A  
HETATM   11  N   UNL     1     -11.003  10.874  69.031  1.00  0.00    -0.217 NA 
HETATM   12  C   UNL     1     -10.823  15.433  67.804  1.00  0.00    -0.302 A  
HETATM   13  C   UNL     1     -10.911  13.194  68.393  1.00  0.00    -0.262 A  
HETATM   14  C   UNL     1     -10.662  11.837  68.152  1.00  0.00    -0.214 A  
HETATM   15  N   UNL     1     -10.595  14.163  67.499  1.00  0.00    -0.256 NA 
BRANCH  14  16
HETATM   16  N   UNL     1     -10.106  11.387  66.960  1.00  0.00    -0.204 NA 
HETATM   17  C   UNL     1     -10.603  10.775  64.686  1.00  0.00    -0.269 C  
HETATM   18  C   UNL     1      -9.293   9.981  64.636  1.00  0.00    -0.338 C  
HETATM   19  C   UNL     1     -10.500  11.941  65.669  1.00  0.00    -0.262 C  
HETATM   20  C   UNL     1      -8.780  10.770  66.986  1.00  0.00    -0.136 C  
HETATM   21  C   UNL     1      -8.815   9.573  66.033  1.00  0.00    -0.183 C  
ENDBRANCH  14  16
BRANCH  12  22
HETATM   22  N   UNL     1     -10.378  16.396  66.924  1.00  0.00    -0.297 NA 
BRANCH  22  23
HETATM   23  C   UNL     1     -10.307  16.021  65.507  1.00  0.00    -0.390 C  
BRANCH  23  24
HETATM   24  C   UNL     1     -11.680  15.697  64.891  1.00  0.00    -0.055 C  
HETATM   25  O   UNL     1     -11.816  16.257  63.585  1.00  0.00    -1.404 OA 
HETATM   26  H   UNL     1     -12.663  16.057  63.205  1.00  0.00     0.000 HD 
ENDBRANCH  23  24
ENDBRANCH  22  23
BRANCH  22  27
HETATM   27  C   UNL     1     -10.469  17.812  67.288  1.00  0.00    -0.353 C  
BRANCH  27  28
HETATM   28  C   UNL     1      -9.093  18.502  67.237  1.00  0.00    -0.277 C  
HETATM   29  O   UNL     1      -8.108  17.758  67.956  1.00  0.00    -0.229 OA 
HETATM   30  H   UNL     1      -7.259  18.184  67.924  1.00  0.00     0.000 HD 
ENDBRANCH  27  28
ENDBRANCH  22  27
ENDBRANCH  12  22
BRANCH   7  31
HETATM   31  N   UNL     1     -12.468  15.323  70.933  1.00  0.00    -0.355 NA 
HETATM   32  C   UNL     1     -13.918  15.322  71.093  1.00  0.00    -0.374 C  
HETATM   33  C   UNL     1     -11.749  16.327  71.720  1.00  0.00    -0.429 C  
HETATM   34  C   UNL     1     -14.243  15.061  72.564  1.00  0.00    -0.407 C  
HETATM   35  C   UNL     1     -12.033  16.090  73.202  1.00  0.00    -0.570 C  
HETATM   36  C   UNL     1     -13.535  16.052  73.485  1.00  0.00    -0.371 C  
ENDBRANCH   7  31
ENDBRANCH   5   6
BRANCH   5  37
HETATM   37  C   UNL     1     -11.575   8.820  70.689  1.00  0.00    -0.205 C  
BRANCH  37  38
HETATM   38  C   UNL     1     -10.528   8.179  71.623  1.00  0.00    -0.228 C  
HETATM   39  O   UNL     1     -11.085   7.813  72.885  1.00  0.00    -0.368 OA 
HETATM   40  H   UNL     1     -10.440   7.419  73.460  1.00  0.00     0.000 HD 
ENDBRANCH  37  38
ENDBRANCH   5  37
ENDBRANCH   4   5
ENDBRANCH   3   4
TORSDOF 12
ENDMDL
MODEL        9
REMARK 921   NORMALIZED FREE ENERGY PREDICTED BY IDOCK:   -7.65 KCAL/MOL
REMARK 922        TOTAL FREE ENERGY PREDICTED BY IDOCK:  -13.93 KCAL/MOL
REMARK 923 INTER-LIGAND FREE ENERGY PREDICTED BY IDOCK:  -12.97 KCAL/MOL
REMARK 924 INTRA-LIGAND FREE ENERGY PREDICTED BY IDOCK:   -0.96 KCAL/MOL
REMARK 927      BINDING AFFINITY PREDICTED BY RF-SCORE:    0.00 PKD
ROOT
HETATM    1  O   UNL     1     -12.422  14.330  63.317  1.00  0.00    -1.133 OA 
HETATM    2  H   UNL     1     -12.977  13.571  63.176  1.00  0.00     0.000 HD 
HETATM    3  C   UNL     1     -12.191  14.569  64.704  1.00  0.00    -0.460 C  
ENDROOT
BRANCH   3   4
HETATM    4  C   UNL     1     -11.290  15.803  64.933  1.00  0.00    -0.280 C  
BRANCH   4   5
HETATM    5  N   UNL     1     -10.442  15.759  66.143  1.00  0.00    -0.305 NA 
BRANCH   5   6
HETATM    6  C   UNL     1     -10.821  14.833  67.098  1.00  0.00    -0.311 A  
HETATM    7  C   UNL     1     -10.913  11.227  67.652  1.00  0.00    -0.259 A  
HETATM    8  N   UNL     1     -11.214  10.357  68.647  1.00  0.00    -0.260 NA 
HETATM    9  N   UNL     1     -10.691  13.529  66.851  1.00  0.00    -0.273 NA 
HETATM   10  C   UNL     1     -11.005  12.622  67.817  1.00  0.00    -0.234 A  
HETATM   11  N   UNL     1     -11.281  15.274  68.261  1.00  0.00    -0.299 NA 
HETATM   12  C   UNL     1     -11.654  10.825  69.806  1.00  0.00    -0.317 A  
HETATM   13  C   UNL     1     -11.481  13.010  69.057  1.00  0.00    -0.303 A  
HETATM   14  C   UNL     1     -11.613  14.395  69.227  1.00  0.00    -0.304 A  
HETATM   15  N   UNL     1     -11.840  12.122  70.016  1.00  0.00    -0.330 NA 
BRANCH  14  16
HETATM   16  N   UNL     1     -12.158  14.951  70.379  1.00  0.00    -0.307 NA 
HETATM   17  C   UNL     1     -11.823  15.258  72.742  1.00  0.00    -0.521 C  
HETATM   18  C   UNL     1     -13.325  15.520  72.899  1.00  0.00    -0.646 C  
HETATM   19  C   UNL     1     -11.338  15.666  71.351  1.00  0.00    -0.381 C  
HETATM   20  C   UNL     1     -13.576  15.308  70.389  1.00  0.00     0.179 C  
HETATM   21  C   UNL     1     -14.138  14.906  71.756  1.00  0.00    -0.609 C  
ENDBRANCH  14  16
BRANCH  12  22
HETATM   22  N   UNL     1     -11.917   9.961  70.848  1.00  0.00    -0.321 NA 
BRANCH  22  23
HETATM   23  C   UNL     1     -13.070  10.276  71.699  1.00  0.00    -0.449 C  
BRANCH  23  24
HETATM   24  C   UNL     1     -13.968   9.060  71.987  1.00  0.00    -0.410 C  
HETATM   25  O   UNL     1     -14.254   8.936  73.380  1.00  0.00    -1.241 OA 
HETATM   26  H   UNL     1     -14.809   8.185  73.558  1.00  0.00     0.000 HD 
ENDBRANCH  23  24
ENDBRANCH  22  23
BRANCH  22  27
HETATM   27  C   UNL     1     -11.419   8.585  70.795  1.00  0.00    -0.253 C  
BRANCH  27  28
HETATM   28  C   UNL     1     -10.382   8.312  71.900  1.00  0.00    -0.255 C  
HETATM   29  O   UNL     1     -11.005   7.840  73.096  1.00  0.00    -0.396 OA 
HETATM   30  H   UNL     1     -10.364   7.672  73.778  1.00  0.00     0.000 HD 
ENDBRANCH  27  28
ENDBRANCH  22  27
ENDBRANCH  12  22
BRANCH   7  31
HETATM   31  N   UNL     1     -10.466  10.614  66.482  1.00  0.00    -0.239 NA 
HETATM   32  C   UNL     1     -10.935  10.991  65.154  1.00  0.00    -0.033 C  
HETATM   33  C   UNL     1      -9.947   9.250  66.603  1.00  0.00    -0.264 C  
HETATM   34  C   UNL     1      -9.768  10.862  64.173  1.00  0.00    -0.347 C  
HETATM   35  C   UNL     1      -8.764   9.085  65.650  1.00  0.00    -0.205 C  
HETATM   36  C   UNL     1      -9.140   9.472  64.220  1.00  0.00    -0.220 C  
ENDBRANCH   7  31
ENDBRANCH   5   6
BRANCH   5  37
HETATM   37  C   UNL     1      -9.881  17.032  66.615  1.00  0.00    -0.290 C  
BRANCH  37  38
HETATM   38  C   UNL     1     -10.649  18.253  66.069  1.00  0.00    -0.296 C  
HETATM   39  O   UNL     1     -10.413  19.428  66.843  1.00  0.00    -0.402 OA 
HETATM   40  H   UNL     1     -10.886  20.180  66.507  1.00  0.00     0.000 HD 
ENDBRANCH  37  38
ENDBRANCH   5  37
ENDBRANCH   4   5
ENDBRANCH   3   4
TORSDOF 12
ENDMDL
MODEL       10
REMARK 921   NORMALIZED FREE ENERGY PREDICTED BY IDOCK:   -7.62 KCAL/MOL
REMARK 922        TOTAL FREE ENERGY PREDICTED BY IDOCK:  -13.89 KCAL/MOL
REMARK 923 INTER-LIGAND FREE ENERGY PREDICTED BY IDOCK:  -11.74 KCAL/MOL
REMARK 924 INTRA-LIGAND FREE ENERGY PREDICTED BY IDOCK:   -2.14 KCAL/MOL
REMARK 927      BINDING AFFINITY PREDICTED BY RF-SCORE:    0.00 PKD
ROOT
HETATM    1  O   UNL     1      -7.484  10.809  65.171  1.00  0.00    -0.346 OA 
HETATM    2  H   UNL     1      -6.602  11.133  65.311  1.00  0.00     0.000 HD 
HETATM    3  C   UNL     1      -7.574   9.402  65.386  1.00  0.00    -0.100 C  
ENDROOT
BRANCH   3   4
HETATM    4  C   UNL     1      -9.009   8.875  65.158  1.00  0.00    -0.137 C  
BRANCH   4   5
HETATM    5  N   UNL     1      -9.793   8.608  66.383  1.00  0.00    -0.269 NA 
BRANCH   5   6
HETATM    6  C   UNL     1     -10.344   9.724  66.988  1.00  0.00    -0.239 A  
HETATM    7  C   UNL     1     -11.937  10.743  70.108  1.00  0.00    -0.349 A  
HETATM    8  N   UNL     1     -12.386  11.878  70.700  1.00  0.00    -0.349 NA 
HETATM    9  N   UNL     1     -10.870   9.628  68.209  1.00  0.00    -0.215 NA 
HETATM   10  C   UNL     1     -11.354  10.741  68.827  1.00  0.00    -0.288 A  
HETATM   11  N   UNL     1     -10.305  10.880  66.339  1.00  0.00    -0.245 NA 
HETATM   12  C   UNL     1     -12.319  13.025  70.036  1.00  0.00    -0.152 A  
HETATM   13  C   UNL     1     -11.336  11.982  68.216  1.00  0.00    -0.286 A  
HETATM   14  C   UNL     1     -10.792  11.993  66.925  1.00  0.00    -0.259 A  
HETATM   15  N   UNL     1     -11.852  13.093  68.797  1.00  0.00    -0.320 NA 
BRANCH  14  16
HETATM   16  N   UNL     1     -10.777  13.137  66.136  1.00  0.00    -0.276 NA 
HETATM   17  C   UNL     1     -10.529  15.530  66.179  1.00  0.00    -0.323 C  
HETATM   18  C   UNL     1     -11.242  15.607  64.824  1.00  0.00    -0.391 C  
HETATM   19  C   UNL     1      -9.796  14.198  66.337  1.00  0.00    -0.296 C  
HETATM   20  C   UNL     1     -11.352  13.078  64.793  1.00  0.00    -0.317 C  
HETATM   21  C   UNL     1     -12.124  14.381  64.569  1.00  0.00    -0.498 C  
ENDBRANCH  14  16
BRANCH  12  22
HETATM   22  N   UNL     1     -12.723  14.197  70.638  1.00  0.00    -0.333 NA 
BRANCH  22  23
HETATM   23  C   UNL     1     -13.088  14.126  72.057  1.00  0.00    -0.387 C  
BRANCH  23  24
HETATM   24  C   UNL     1     -14.232  15.081  72.443  1.00  0.00    -0.421 C  
HETATM   25  O   UNL     1     -13.787  16.100  73.338  1.00  0.00    -0.832 OA 
HETATM   26  H   UNL     1     -14.493  16.690  73.576  1.00  0.00     0.000 HD 
ENDBRANCH  23  24
ENDBRANCH  22  23
BRANCH  22  27
HETATM   27  C   UNL     1     -12.324  15.484  70.064  1.00  0.00    -0.317 C  
BRANCH  27  28
HETATM   28  C   UNL     1     -10.949  15.940  70.587  1.00  0.00    -0.291 C  
HETATM   29  O   UNL     1      -9.895  15.132  70.060  1.00  0.00    -0.471 OA 
HETATM   30  H   UNL     1      -9.048  15.413  70.383  1.00  0.00     0.000 HD 
ENDBRANCH  27  28
ENDBRANCH  22  27
ENDBRANCH  12  22
BRANCH   7  31
HETATM   31  N   UNL     1     -12.066   9.605  70.903  1.00  0.00    -0.302 NA 
HETATM   32  C   UNL     1     -13.334   9.172  71.478  1.00  0.00    -0.355 C  
HETATM   33  C   UNL     1     -10.866   9.146  71.607  1.00  0.00    -0.372 C  
HETATM   34  C   UNL     1     -13.369   7.643  71.481  1.00  0.00    -0.383 C  
HETATM   35  C   UNL     1     -10.852   7.619  71.617  1.00  0.00    -0.260 C  
HETATM   36  C   UNL     1     -12.152   7.051  72.188  1.00  0.00    -0.281 C  
ENDBRANCH   7  31
ENDBRANCH   5   6
BRANCH   5  37
HETATM   37  C   UNL     1      -9.325   7.522  67.254  1.00  0.00    -0.140 C  
BRANCH  37  38
HETATM   38  C   UNL     1     -10.233   6.278  67.184  1.00  0.00    -0.196 C  
HETATM   39  O   UNL     1     -11.618   6.617  67.247  1.00  0.00    -0.747 OA 
HETATM   40  H   UNL     1     -12.177   5.851  67.204  1.00  0.00     0.000 HD 
ENDBRANCH  37  38
ENDBRANCH   5  37
ENDBRANCH   4   5
ENDBRANCH   3   4
TORSDOF 12
ENDMDL
MODEL       11
REMARK 921   NORMALIZED FREE ENERGY PREDICTED BY IDOCK:   -7.49 KCAL/MOL
REMARK 922        TOTAL FREE ENERGY PREDICTED BY IDOCK:  -13.67 KCAL/MOL
REMARK 923 INTER-LIGAND FREE ENERGY PREDICTED BY IDOCK:  -12.31 KCAL/MOL
REMARK 924 INTRA-LIGAND FREE ENERGY PREDICTED BY IDOCK:   -1.36 KCAL/MOL
REMARK 927      BINDING AFFINITY PREDICTED BY RF-SCORE:    0.00 PKD
ROOT
HETATM    1  O   UNL     1     -10.844  12.590  63.134  1.00  0.00    -0.643 OA 
HETATM    2  H   UNL     1     -10.628  12.101  62.348  1.00  0.00     0.000 HD 
HETATM    3  C   UNL     1     -12.110  12.207  63.668  1.00  0.00    -0.551 C  
ENDROOT
BRANCH   3   4
HETATM    4  C   UNL     1     -12.460  13.002  64.946  1.00  0.00    -0.455 C  
BRANCH   4   5
HETATM    5  N   UNL     1     -11.354  13.181  65.910  1.00  0.00    -0.304 NA 
BRANCH   5   6
HETATM    6  C   UNL     1     -11.280  12.227  66.909  1.00  0.00    -0.312 A  
HETATM    7  C   UNL     1     -12.051  11.781  70.447  1.00  0.00    -0.352 A  
HETATM    8  N   UNL     1     -12.044  10.792  71.375  1.00  0.00    -0.263 NA 
HETATM    9  N   UNL     1     -11.677  12.525  68.146  1.00  0.00    -0.336 NA 
HETATM   10  C   UNL     1     -11.662  11.565  69.111  1.00  0.00    -0.329 A  
HETATM   11  N   UNL     1     -10.837  11.016  66.597  1.00  0.00    -0.252 NA 
HETATM   12  C   UNL     1     -11.614   9.585  71.031  1.00  0.00    -0.344 A  
HETATM   13  C   UNL     1     -11.223  10.278  68.856  1.00  0.00    -0.207 A  
HETATM   14  C   UNL     1     -10.798  10.054  67.540  1.00  0.00    -0.265 A  
HETATM   15  N   UNL     1     -11.160   9.320  69.813  1.00  0.00    -0.197 NA 
BRANCH  14  16
HETATM   16  N   UNL     1     -10.247   8.844  67.135  1.00  0.00    -0.245 NA 
HETATM   17  C   UNL     1     -10.141   6.490  67.624  1.00  0.00    -0.180 C  
HETATM   18  C   UNL     1      -8.834   6.405  66.827  1.00  0.00    -0.124 C  
HETATM   19  C   UNL     1     -11.032   7.614  67.096  1.00  0.00    -0.028 C  
HETATM   20  C   UNL     1      -9.082   8.858  66.250  1.00  0.00    -0.190 C  
HETATM   21  C   UNL     1      -8.129   7.761  66.734  1.00  0.00    -0.115 C  
ENDBRANCH  14  16
BRANCH  12  22
HETATM   22  N   UNL     1     -11.646   8.553  71.944  1.00  0.00    -0.316 NA 
BRANCH  22  23
HETATM   23  C   UNL     1     -12.768   7.613  71.847  1.00  0.00    -0.293 C  
BRANCH  23  24
HETATM   24  C   UNL     1     -14.139   8.270  72.090  1.00  0.00    -0.343 C  
HETATM   25  O   UNL     1     -14.152   9.028  73.299  1.00  0.00    -1.218 OA 
HETATM   26  H   UNL     1     -14.998   9.433  73.449  1.00  0.00     0.000 HD 
ENDBRANCH  23  24
ENDBRANCH  22  23
BRANCH  22  27
HETATM   27  C   UNL     1     -10.411   8.129  72.607  1.00  0.00    -0.328 C  
BRANCH  27  28
HETATM   28  C   UNL     1     -10.111   6.640  72.353  1.00  0.00    -0.167 C  
HETATM   29  O   UNL     1      -9.497   6.440  71.078  1.00  0.00    -0.169 OA 
HETATM   30  H   UNL     1      -9.313   5.521  70.922  1.00  0.00     0.000 HD 
ENDBRANCH  27  28
ENDBRANCH  22  27
ENDBRANCH  12  22
BRANCH   7  31
HETATM   31  N   UNL     1     -12.519  13.002  70.929  1.00  0.00    -0.357 NA 
HETATM   32  C   UNL     1     -11.896  14.280  70.605  1.00  0.00    -0.281 C  
HETATM   33  C   UNL     1     -13.286  12.975  72.177  1.00  0.00    -0.524 C  
HETATM   34  C   UNL     1     -12.994  15.338  70.484  1.00  0.00    -0.380 C  
HETATM   35  C   UNL     1     -14.409  14.008  72.089  1.00  0.00    -0.577 C  
HETATM   36  C   UNL     1     -13.868  15.393  71.734  1.00  0.00    -0.620 C  
ENDBRANCH   7  31
ENDBRANCH   5   6
BRANCH   5  37
HETATM   37  C   UNL     1     -10.983  14.560  66.256  1.00  0.00    -0.323 C  
BRANCH  37  38
HETATM   38  C   UNL     1      -9.496  14.857  65.979  1.00  0.00    -0.281 C  
HETATM   39  O   UNL     1      -8.639  13.832  66.482  1.00  0.00    -0.441 OA 
HETATM   40  H   UNL     1      -7.723  14.015  66.311  1.00  0.00     0.000 HD 
ENDBRANCH  37  38
ENDBRANCH   5  37
ENDBRANCH   4   5
ENDBRANCH   3   4
TORSDOF 12
ENDMDL
MODEL       12
REMARK 921   NORMALIZED FREE ENERGY PREDICTED BY IDOCK:   -7.46 KCAL/MOL
REMARK 922        TOTAL FREE ENERGY PREDICTED BY IDOCK:  -13.61 KCAL/MOL
REMARK 923 INTER-LIGAND FREE ENERGY PREDICTED BY IDOCK:  -11.28 KCAL/MOL
REMARK 924 INTRA-LIGAND FREE ENERGY PREDICTED BY IDOCK:   -2.33 KCAL/MOL
REMARK 927      BINDING AFFINITY PREDICTED BY RF-SCORE:    0.00 PKD
ROOT
HETATM    1  O   UNL     1      -9.742   9.792  63.477  1.00  0.00    -0.495 OA 
HETATM    2  H   UNL     1      -9.749   9.709  62.530  1.00  0.00     0.000 HD 
HETATM    3  C   UNL     1      -8.777   8.931  64.079  1.00  0.00    -0.038 C  
ENDROOT
BRANCH   3   4
HETATM    4  C   UNL     1      -8.765   9.068  65.618  1.00  0.00    -0.175 C  
BRANCH   4   5
HETATM    5  N   UNL     1     -10.084   8.972  66.278  1.00  0.00    -0.286 NA 
BRANCH   5   6
HETATM    6  C   UNL     1     -10.549  10.145  66.844  1.00  0.00    -0.200 A  
HETATM    7  C   UNL     1     -11.896  11.422  69.986  1.00  0.00    -0.359 A  
HETATM    8  N   UNL     1     -12.260  12.609  70.531  1.00  0.00    -0.353 NA 
HETATM    9  N   UNL     1     -10.999  10.147  68.099  1.00  0.00    -0.266 NA 
HETATM   10  C   UNL     1     -11.397  11.316  68.674  1.00  0.00    -0.273 A  
HETATM   11  N   UNL     1     -10.505  11.258  66.123  1.00  0.00    -0.248 NA 
HETATM   12  C   UNL     1     -12.188  13.709  69.794  1.00  0.00    -0.291 A  
HETATM   13  C   UNL     1     -11.368  12.516  67.986  1.00  0.00    -0.289 A  
HETATM   14  C   UNL     1     -10.908  12.424  66.666  1.00  0.00    -0.246 A  
HETATM   15  N   UNL     1     -11.800  13.682  68.526  1.00  0.00    -0.356 NA 
BRANCH  14  16
HETATM   16  N   UNL     1     -10.897  13.517  65.807  1.00  0.00    -0.273 NA 
HETATM   17  C   UNL     1     -10.419  15.870  65.654  1.00  0.00    -0.411 C  
HETATM   18  C   UNL     1     -11.307  15.948  64.407  1.00  0.00    -0.276 C  
HETATM   19  C   UNL     1      -9.801  14.480  65.800  1.00  0.00    -0.314 C  
HETATM   20  C   UNL     1     -11.661  13.446  64.562  1.00  0.00    -0.371 C  
HETATM   21  C   UNL     1     -12.330  14.808  64.358  1.00  0.00    -0.389 C  
ENDBRANCH  14  16
BRANCH  12  22
HETATM   22  N   UNL     1     -12.505  14.933  70.344  1.00  0.00    -0.340 NA 
BRANCH  22  23
HETATM   23  C   UNL     1     -13.890  15.124  70.789  1.00  0.00    -0.108 C  
BRANCH  23  24
HETATM   24  C   UNL     1     -14.070  14.968  72.310  1.00  0.00    -0.513 C  
HETATM   25  O   UNL     1     -14.081  13.595  72.700  1.00  0.00    -0.746 OA 
HETATM   26  H   UNL     1     -14.193  13.499  73.638  1.00  0.00     0.000 HD 
ENDBRANCH  23  24
ENDBRANCH  22  23
BRANCH  22  27
HETATM   27  C   UNL     1     -11.446  15.772  70.911  1.00  0.00    -0.403 C  
BRANCH  27  28
HETATM   28  C   UNL     1     -10.767  16.637  69.833  1.00  0.00    -0.202 C  
HETATM   29  O   UNL     1      -9.672  15.951  69.225  1.00  0.00    -0.233 OA 
HETATM   30  H   UNL     1      -9.254  16.485  68.560  1.00  0.00     0.000 HD 
ENDBRANCH  27  28
ENDBRANCH  22  27
ENDBRANCH  12  22
BRANCH   7  31
HETATM   31  N   UNL     1     -12.020  10.340  70.857  1.00  0.00    -0.344 NA 
HETATM   32  C   UNL     1     -13.080  10.235  71.853  1.00  0.00    -0.463 C  
HETATM   33  C   UNL     1     -10.803   9.580  71.151  1.00  0.00    -0.355 C  
HETATM   34  C   UNL     1     -13.484   8.765  71.977  1.00  0.00    -0.461 C  
HETATM   35  C   UNL     1     -11.160   8.099  71.265  1.00  0.00    -0.287 C  
HETATM   36  C   UNL     1     -12.283   7.871  72.276  1.00  0.00    -0.333 C  
ENDBRANCH   7  31
ENDBRANCH   5   6
BRANCH   5  37
HETATM   37  C   UNL     1     -10.400   7.713  66.965  1.00  0.00    -0.330 C  
BRANCH  37  38
HETATM   38  C   UNL     1      -9.184   7.127  67.710  1.00  0.00    -0.125 C  
HETATM   39  O   UNL     1      -8.684   8.016  68.709  1.00  0.00    -0.131 OA 
HETATM   40  H   UNL     1      -7.935   7.655  69.168  1.00  0.00     0.000 HD 
ENDBRANCH  37  38
ENDBRANCH   5  37
ENDBRANCH   4   5
ENDBRANCH   3   4
TORSDOF 12
ENDMDL
MODEL       13
REMARK 921   NORMALIZED FREE ENERGY PREDICTED BY IDOCK:   -7.41 KCAL/MOL
REMARK 922        TOTAL FREE ENERGY PREDICTED BY IDOCK:  -13.53 KCAL/MOL
REMARK 923 INTER-LIGAND FREE ENERGY PREDICTED BY IDOCK:  -12.84 KCAL/MOL
REMARK 924 INTRA-LIGAND FREE ENERGY PREDICTED BY IDOCK:   -0.68 KCAL/MOL
REMARK 927      BINDING AFFINITY PREDICTED BY RF-SCORE:    0.00 PKD
ROOT
HETATM    1  O   UNL     1     -14.284   9.141  73.045  1.00  0.00    -1.082 OA 
HETATM    2  H   UNL     1     -15.183   9.449  73.030  1.00  0.00     0.000 HD 
HETATM    3  C   UNL     1     -13.991   8.301  71.930  1.00  0.00    -0.403 C  
ENDROOT
BRANCH   3   4
HETATM    4  C   UNL     1     -12.529   7.802  71.955  1.00  0.00    -0.314 C  
BRANCH   4   5
HETATM    5  N   UNL     1     -11.497   8.852  72.083  1.00  0.00    -0.356 NA 
BRANCH   5   6
HETATM    6  C   UNL     1     -11.536   9.841  71.116  1.00  0.00    -0.392 A  
HETATM    7  C   UNL     1     -10.701  10.391  67.606  1.00  0.00    -0.286 A  
HETATM    8  N   UNL     1     -10.839  11.358  66.666  1.00  0.00    -0.280 NA 
HETATM    9  N   UNL     1     -11.071   9.595  69.890  1.00  0.00    -0.241 NA 
HETATM   10  C   UNL     1     -11.170  10.549  68.925  1.00  0.00    -0.266 A  
HETATM   11  N   UNL     1     -12.071  11.014  71.430  1.00  0.00    -0.176 NA 
HETATM   12  C   UNL     1     -11.394  12.514  67.002  1.00  0.00    -0.328 A  
HETATM   13  C   UNL     1     -11.725  11.791  69.178  1.00  0.00    -0.325 A  
HETATM   14  C   UNL     1     -12.165  11.979  70.494  1.00  0.00    -0.325 A  
HETATM   15  N   UNL     1     -11.793  12.769  68.241  1.00  0.00    -0.330 NA 
BRANCH  14  16
HETATM   16  N   UNL     1     -12.667  13.196  70.941  1.00  0.00    -0.277 NA 
HETATM   17  C   UNL     1     -12.262  15.567  71.001  1.00  0.00    -0.449 C  
HETATM   18  C   UNL     1     -13.212  15.678  72.199  1.00  0.00    -0.547 C  
HETATM   19  C   UNL     1     -12.647  14.391  70.104  1.00  0.00    -0.286 C  
HETATM   20  C   UNL     1     -13.684  13.199  71.992  1.00  0.00    -0.398 C  
HETATM   21  C   UNL     1     -13.349  14.348  72.947  1.00  0.00    -0.575 C  
ENDBRANCH  14  16
BRANCH  12  22
HETATM   22  N   UNL     1     -11.590  13.491  66.050  1.00  0.00    -0.326 NA 
BRANCH  22  23
HETATM   23  C   UNL     1     -12.728  13.315  65.139  1.00  0.00    -0.402 C  
BRANCH  23  24
HETATM   24  C   UNL     1     -12.355  12.608  63.824  1.00  0.00    -0.478 C  
HETATM   25  O   UNL     1     -12.370  13.511  62.719  1.00  0.00    -0.855 OA 
HETATM   26  H   UNL     1     -12.140  13.075  61.907  1.00  0.00     0.000 HD 
ENDBRANCH  23  24
ENDBRANCH  22  23
BRANCH  22  27
HETATM   27  C   UNL     1     -11.040  14.832  66.259  1.00  0.00    -0.341 C  
BRANCH  27  28
HETATM   28  C   UNL     1     -10.287  15.339  65.015  1.00  0.00    -0.342 C  
HETATM   29  O   UNL     1     -11.097  16.222  64.237  1.00  0.00    -1.120 OA 
HETATM   30  H   UNL     1     -10.631  16.534  63.470  1.00  0.00     0.000 HD 
ENDBRANCH  27  28
ENDBRANCH  22  27
ENDBRANCH  12  22
BRANCH   7  31
HETATM   31  N   UNL     1     -10.101   9.226  67.133  1.00  0.00    -0.218 NA 
HETATM   32  C   UNL     1     -10.450   7.895  67.616  1.00  0.00    -0.234 C  
HETATM   33  C   UNL     1      -8.760   9.354  66.557  1.00  0.00    -0.134 C  
HETATM   34  C   UNL     1     -10.364   6.915  66.445  1.00  0.00     0.031 C  
HETATM   35  C   UNL     1      -8.639   8.403  65.368  1.00  0.00    -0.193 C  
HETATM   36  C   UNL     1      -9.002   6.970  65.759  1.00  0.00    -0.037 C  
ENDBRANCH   7  31
ENDBRANCH   5   6
BRANCH   5  37
HETATM   37  C   UNL     1     -10.178   8.440  72.581  1.00  0.00    -0.249 C  
BRANCH  37  38
HETATM   38  C   UNL     1      -9.730   7.081  72.004  1.00  0.00    -0.155 C  
HETATM   39  O   UNL     1      -9.038   7.224  70.764  1.00  0.00    -0.151 OA 
HETATM   40  H   UNL     1      -8.762   6.388  70.409  1.00  0.00     0.000 HD 
ENDBRANCH  37  38
ENDBRANCH   5  37
ENDBRANCH   4   5
ENDBRANCH   3   4
TORSDOF 12
ENDMDL
MODEL       14
REMARK 921   NORMALIZED FREE ENERGY PREDICTED BY IDOCK:   -7.41 KCAL/MOL
REMARK 922        TOTAL FREE ENERGY PREDICTED BY IDOCK:  -13.52 KCAL/MOL
REMARK 923 INTER-LIGAND FREE ENERGY PREDICTED BY IDOCK:  -11.45 KCAL/MOL
REMARK 924 INTRA-LIGAND FREE ENERGY PREDICTED BY IDOCK:   -2.07 KCAL/MOL
REMARK 927      BINDING AFFINITY PREDICTED BY RF-SCORE:    0.00 PKD
ROOT
HETATM    1  O   UNL     1      -8.712  10.408  63.610  1.00  0.00    -0.177 OA 
HETATM    2  H   UNL     1      -8.901  10.536  62.687  1.00  0.00     0.000 HD 
HETATM    3  C   UNL     1      -8.744   9.029  63.974  1.00  0.00    -0.086 C  
ENDROOT
BRANCH   3   4
HETATM    4  C   UNL     1      -8.436   8.822  65.474  1.00  0.00    -0.165 C  
BRANCH   4   5
HETATM    5  N   UNL     1      -9.603   8.528  66.331  1.00  0.00    -0.231 NA 
BRANCH   5   6
HETATM    6  C   UNL     1     -10.161   9.624  66.966  1.00  0.00    -0.244 A  
HETATM    7  C   UNL     1     -11.723  10.559  70.129  1.00  0.00    -0.326 A  
HETATM    8  N   UNL     1     -12.179  11.675  70.749  1.00  0.00    -0.375 NA 
HETATM    9  N   UNL     1     -10.668   9.497  68.193  1.00  0.00    -0.220 NA 
HETATM   10  C   UNL     1     -11.158  10.590  68.839  1.00  0.00    -0.261 A  
HETATM   11  N   UNL     1     -10.149  10.793  66.340  1.00  0.00    -0.220 NA 
HETATM   12  C   UNL     1     -12.138  12.835  70.107  1.00  0.00    -0.298 A  
HETATM   13  C   UNL     1     -11.168  11.843  68.252  1.00  0.00    -0.261 A  
HETATM   14  C   UNL     1     -10.643  11.887  66.954  1.00  0.00    -0.230 A  
HETATM   15  N   UNL     1     -11.691  12.935  68.863  1.00  0.00    -0.309 NA 
BRANCH  14  16
HETATM   16  N   UNL     1     -10.657  13.046  66.188  1.00  0.00    -0.273 NA 
HETATM   17  C   UNL     1     -10.228  15.414  66.228  1.00  0.00    -0.303 C  
HETATM   18  C   UNL     1     -11.121  15.575  64.992  1.00  0.00    -0.411 C  
HETATM   19  C   UNL     1      -9.581  14.029  66.260  1.00  0.00    -0.265 C  
HETATM   20  C   UNL     1     -11.422  13.062  64.942  1.00  0.00    -0.316 C  
HETATM   21  C   UNL     1     -12.119  14.422  64.851  1.00  0.00    -0.442 C  
ENDBRANCH  14  16
BRANCH  12  22
HETATM   22  N   UNL     1     -12.550  13.990  70.738  1.00  0.00    -0.349 NA 
BRANCH  22  23
HETATM   23  C   UNL     1     -12.392  15.246  69.995  1.00  0.00    -0.328 C  
BRANCH  23  24
HETATM   24  C   UNL     1     -11.110  16.015  70.359  1.00  0.00    -0.364 C  
HETATM   25  O   UNL     1      -9.942  15.224  70.138  1.00  0.00    -0.483 OA 
HETATM   26  H   UNL     1      -9.150  15.699  70.363  1.00  0.00     0.000 HD 
ENDBRANCH  23  24
ENDBRANCH  22  23
BRANCH  22  27
HETATM   27  C   UNL     1     -13.531  13.916  71.823  1.00  0.00    -0.384 C  
BRANCH  27  28
HETATM   28  C   UNL     1     -13.163  14.856  72.987  1.00  0.00    -0.494 C  
HETATM   29  O   UNL     1     -14.127  15.899  73.141  1.00  0.00    -0.650 OA 
HETATM   30  H   UNL     1     -13.899  16.478  73.859  1.00  0.00     0.000 HD 
ENDBRANCH  27  28
ENDBRANCH  22  27
ENDBRANCH  12  22
BRANCH   7  31
HETATM   31  N   UNL     1     -11.823   9.404  70.902  1.00  0.00    -0.290 NA 
HETATM   32  C   UNL     1     -13.080   8.929  71.470  1.00  0.00    -0.329 C  
HETATM   33  C   UNL     1     -10.612   8.962  71.599  1.00  0.00    -0.352 C  
HETATM   34  C   UNL     1     -13.077   7.400  71.445  1.00  0.00    -0.401 C  
HETATM   35  C   UNL     1     -10.560   7.435  71.580  1.00  0.00    -0.229 C  
HETATM   36  C   UNL     1     -11.845   6.825  72.141  1.00  0.00    -0.326 C  
ENDBRANCH   7  31
ENDBRANCH   5   6
BRANCH   5  37
HETATM   37  C   UNL     1      -9.599   7.251  67.055  1.00  0.00    -0.166 C  
BRANCH  37  38
HETATM   38  C   UNL     1     -10.934   6.491  66.919  1.00  0.00    -0.338 C  
HETATM   39  O   UNL     1     -11.658   6.450  68.148  1.00  0.00    -0.557 OA 
HETATM   40  H   UNL     1     -12.480   5.982  68.064  1.00  0.00     0.000 HD 
ENDBRANCH  37  38
ENDBRANCH   5  37
ENDBRANCH   4   5
ENDBRANCH   3   4
TORSDOF 12
ENDMDL
MODEL       15
REMARK 921   NORMALIZED FREE ENERGY PREDICTED BY IDOCK:   -7.35 KCAL/MOL
REMARK 922        TOTAL FREE ENERGY PREDICTED BY IDOCK:  -13.42 KCAL/MOL
REMARK 923 INTER-LIGAND FREE ENERGY PREDICTED BY IDOCK:  -12.61 KCAL/MOL
REMARK 924 INTRA-LIGAND FREE ENERGY PREDICTED BY IDOCK:   -0.82 KCAL/MOL
REMARK 927      BINDING AFFINITY PREDICTED BY RF-SCORE:    0.00 PKD
ROOT
HETATM    1  O   UNL     1     -14.286   7.271  71.718  1.00  0.00    -0.461 OA 
HETATM    2  H   UNL     1     -14.945   6.848  71.179  1.00  0.00     0.000 HD 
HETATM    3  C   UNL     1     -14.117   8.644  71.371  1.00  0.00    -0.273 C  
ENDROOT
BRANCH   3   4
HETATM    4  C   UNL     1     -13.047   9.333  72.247  1.00  0.00    -0.441 C  
BRANCH   4   5
HETATM    5  N   UNL     1     -11.682   9.365  71.681  1.00  0.00    -0.381 NA 
BRANCH   5   6
HETATM    6  C   UNL     1     -11.517  10.187  70.581  1.00  0.00    -0.349 A  
HETATM    7  C   UNL     1     -11.895  13.677  69.584  1.00  0.00    -0.335 A  
HETATM    8  N   UNL     1     -11.635  14.463  68.510  1.00  0.00    -0.297 NA 
HETATM    9  N   UNL     1     -11.822  11.482  70.665  1.00  0.00    -0.279 NA 
HETATM   10  C   UNL     1     -11.598  12.300  69.600  1.00  0.00    -0.278 A  
HETATM   11  N   UNL     1     -11.024   9.662  69.467  1.00  0.00    -0.229 NA 
HETATM   12  C   UNL     1     -11.125  13.917  67.415  1.00  0.00    -0.298 A  
HETATM   13  C   UNL     1     -11.077  11.825  68.409  1.00  0.00    -0.237 A  
HETATM   14  C   UNL     1     -10.808  10.450  68.394  1.00  0.00    -0.245 A  
HETATM   15  N   UNL     1     -10.887  12.615  67.324  1.00  0.00    -0.243 NA 
BRANCH  14  16
HETATM   16  N   UNL     1     -10.365   9.794  67.252  1.00  0.00    -0.232 NA 
HETATM   17  C   UNL     1      -9.146   7.879  66.454  1.00  0.00    -0.221 C  
HETATM   18  C   UNL     1      -8.921   8.604  65.121  1.00  0.00    -0.111 C  
HETATM   19  C   UNL     1     -10.442   8.343  67.118  1.00  0.00    -0.310 C  
HETATM   20  C   UNL     1     -10.322  10.527  65.987  1.00  0.00    -0.211 C  
HETATM   21  C   UNL     1      -9.031  10.125  65.270  1.00  0.00    -0.218 C  
ENDBRANCH  14  16
BRANCH  12  22
HETATM   22  N   UNL     1     -10.806  14.706  66.331  1.00  0.00    -0.309 NA 
BRANCH  22  23
HETATM   23  C   UNL     1     -11.381  14.323  65.037  1.00  0.00    -0.365 C  
BRANCH  23  24
HETATM   24  C   UNL     1     -12.405  15.338  64.497  1.00  0.00    -0.133 C  
HETATM   25  O   UNL     1     -11.781  16.338  63.693  1.00  0.00    -1.447 OA 
HETATM   26  H   UNL     1     -12.413  16.965  63.361  1.00  0.00     0.000 HD 
ENDBRANCH  23  24
ENDBRANCH  22  23
BRANCH  22  27
HETATM   27  C   UNL     1     -10.369  16.088  66.541  1.00  0.00    -0.299 C  
BRANCH  27  28
HETATM   28  C   UNL     1      -8.855  16.248  66.306  1.00  0.00    -0.331 C  
HETATM   29  O   UNL     1      -8.537  17.549  65.808  1.00  0.00    -0.521 OA 
HETATM   30  H   UNL     1      -7.604  17.647  65.664  1.00  0.00     0.000 HD 
ENDBRANCH  27  28
ENDBRANCH  22  27
ENDBRANCH  12  22
BRANCH   7  31
HETATM   31  N   UNL     1     -12.433  14.365  70.670  1.00  0.00    -0.330 NA 
HETATM   32  C   UNL     1     -13.844  14.307  71.032  1.00  0.00    -0.023 C  
HETATM   33  C   UNL     1     -11.716  15.560  71.122  1.00  0.00    -0.391 C  
HETATM   34  C   UNL     1     -13.957  14.352  72.557  1.00  0.00    -0.508 C  
HETATM   35  C   UNL     1     -11.788  15.632  72.647  1.00  0.00    -0.590 C  
HETATM   36  C   UNL     1     -13.232  15.562  73.142  1.00  0.00    -0.657 C  
ENDBRANCH   7  31
ENDBRANCH   5   6
BRANCH   5  37
HETATM   37  C   UNL     1     -10.912   8.115  71.719  1.00  0.00    -0.261 C  
BRANCH  37  38
HETATM   38  C   UNL     1     -11.144   7.318  73.018  1.00  0.00    -0.317 C  
HETATM   39  O   UNL     1     -11.756   6.052  72.772  1.00  0.00    -0.477 OA 
HETATM   40  H   UNL     1     -11.899   5.561  73.572  1.00  0.00     0.000 HD 
ENDBRANCH  37  38
ENDBRANCH   5  37
ENDBRANCH   4   5
ENDBRANCH   3   4
TORSDOF 12
ENDMDL
MODEL       16
REMARK 921   NORMALIZED FREE ENERGY PREDICTED BY IDOCK:   -7.26 KCAL/MOL
REMARK 922        TOTAL FREE ENERGY PREDICTED BY IDOCK:  -13.28 KCAL/MOL
REMARK 923 INTER-LIGAND FREE ENERGY PREDICTED BY IDOCK:  -12.15 KCAL/MOL
REMARK 924 INTRA-LIGAND FREE ENERGY PREDICTED BY IDOCK:   -1.13 KCAL/MOL
REMARK 927      BINDING AFFINITY PREDICTED BY RF-SCORE:    0.00 PKD
ROOT
HETATM    1  O   UNL     1     -11.750  11.342  63.275  1.00  0.00    -0.831 OA 
HETATM    2  H   UNL     1     -11.513  11.099  62.387  1.00  0.00     0.000 HD 
HETATM    3  C   UNL     1     -12.277  12.666  63.341  1.00  0.00    -0.517 C  
ENDROOT
BRANCH   3   4
HETATM    4  C   UNL     1     -12.663  13.061  64.785  1.00  0.00    -0.342 C  
BRANCH   4   5
HETATM    5  N   UNL     1     -11.531  13.349  65.691  1.00  0.00    -0.311 NA 
BRANCH   5   6
HETATM    6  C   UNL     1     -11.325  12.420  66.695  1.00  0.00    -0.339 A  
HETATM    7  C   UNL     1     -11.962  11.920  70.253  1.00  0.00    -0.330 A  
HETATM    8  N   UNL     1     -11.819  10.947  71.187  1.00  0.00    -0.204 NA 
HETATM    9  N   UNL     1     -11.727  12.681  67.939  1.00  0.00    -0.350 NA 
HETATM   10  C   UNL     1     -11.580  11.738  68.910  1.00  0.00    -0.309 A  
HETATM   11  N   UNL     1     -10.752  11.265  66.381  1.00  0.00    -0.270 NA 
HETATM   12  C   UNL     1     -11.260   9.795  70.841  1.00  0.00    -0.359 A  
HETATM   13  C   UNL     1     -11.000  10.508  68.653  1.00  0.00    -0.248 A  
HETATM   14  C   UNL     1     -10.581  10.323  67.329  1.00  0.00    -0.267 A  
HETATM   15  N   UNL     1     -10.806   9.573  69.615  1.00  0.00    -0.236 NA 
BRANCH  14  16
HETATM   16  N   UNL     1      -9.902   9.181  66.920  1.00  0.00    -0.198 NA 
HETATM   17  C   UNL     1      -9.476   6.872  67.448  1.00  0.00    -0.151 C  
HETATM   18  C   UNL     1      -8.210   6.931  66.586  1.00  0.00    -0.115 C  
HETATM   19  C   UNL     1     -10.527   7.862  66.946  1.00  0.00    -0.318 C  
HETATM   20  C   UNL     1      -8.794   9.317  65.976  1.00  0.00    -0.160 C  
HETATM   21  C   UNL     1      -7.687   8.362  66.430  1.00  0.00    -0.094 C  
ENDBRANCH  14  16
BRANCH  12  22
HETATM   22  N   UNL     1     -11.152   8.774  71.762  1.00  0.00    -0.322 NA 
BRANCH  22  23
HETATM   23  C   UNL     1      -9.861   8.625  72.442  1.00  0.00    -0.245 C  
BRANCH  23  24
HETATM   24  C   UNL     1      -9.164   7.285  72.147  1.00  0.00    -0.132 C  
HETATM   25  O   UNL     1      -8.411   7.339  70.935  1.00  0.00    -0.125 OA 
HETATM   26  H   UNL     1      -7.982   6.512  70.753  1.00  0.00     0.000 HD 
ENDBRANCH  23  24
ENDBRANCH  22  23
BRANCH  22  27
HETATM   27  C   UNL     1     -12.359   8.225  72.385  1.00  0.00    -0.327 C  
BRANCH  27  28
HETATM   28  C   UNL     1     -13.144   7.328  71.411  1.00  0.00    -0.361 C  
HETATM   29  O   UNL     1     -12.293   6.781  70.402  1.00  0.00    -0.584 OA 
HETATM   30  H   UNL     1     -12.778   6.228  69.801  1.00  0.00     0.000 HD 
ENDBRANCH  27  28
ENDBRANCH  22  27
ENDBRANCH  12  22
BRANCH   7  31
HETATM   31  N   UNL     1     -12.558  13.083  70.738  1.00  0.00    -0.286 NA 
HETATM   32  C   UNL     1     -13.645  13.077  71.710  1.00  0.00    -0.214 C  
HETATM   33  C   UNL     1     -12.478  14.275  69.890  1.00  0.00    -0.264 C  
HETATM   34  C   UNL     1     -13.473  14.281  72.637  1.00  0.00    -0.623 C  
HETATM   35  C   UNL     1     -12.287  15.502  70.779  1.00  0.00    -0.463 C  
HETATM   36  C   UNL     1     -13.370  15.588  71.854  1.00  0.00    -0.569 C  
ENDBRANCH   7  31
ENDBRANCH   5   6
BRANCH   5  37
HETATM   37  C   UNL     1     -11.267  14.760  66.005  1.00  0.00    -0.341 C  
BRANCH  37  38
HETATM   38  C   UNL     1     -10.571  15.501  64.846  1.00  0.00    -0.342 C  
HETATM   39  O   UNL     1     -11.229  16.724  64.516  1.00  0.00    -0.997 OA 
HETATM   40  H   UNL     1     -10.799  17.180  63.803  1.00  0.00     0.000 HD 
ENDBRANCH  37  38
ENDBRANCH   5  37
ENDBRANCH   4   5
ENDBRANCH   3   4
TORSDOF 12
ENDMDL
MODEL       17
REMARK 921   NORMALIZED FREE ENERGY PREDICTED BY IDOCK:   -7.13 KCAL/MOL
REMARK 922        TOTAL FREE ENERGY PREDICTED BY IDOCK:  -13.06 KCAL/MOL
REMARK 923 INTER-LIGAND FREE ENERGY PREDICTED BY IDOCK:  -12.64 KCAL/MOL
REMARK 924 INTRA-LIGAND FREE ENERGY PREDICTED BY IDOCK:   -0.41 KCAL/MOL
REMARK 927      BINDING AFFINITY PREDICTED BY RF-SCORE:    0.00 PKD
ROOT
HETATM    1  O   UNL     1     -14.171   8.813  73.428  1.00  0.00    -1.173 OA 
HETATM    2  H   UNL     1     -14.971   9.174  73.792  1.00  0.00     0.000 HD 
HETATM    3  C   UNL     1     -14.296   8.543  72.033  1.00  0.00    -0.447 C  
ENDROOT
BRANCH   3   4
HETATM    4  C   UNL     1     -12.994   7.955  71.442  1.00  0.00    -0.271 C  
BRANCH   4   5
HETATM    5  N   UNL     1     -11.775   8.766  71.650  1.00  0.00    -0.308 NA 
BRANCH   5   6
HETATM    6  C   UNL     1     -11.637   9.854  70.808  1.00  0.00    -0.349 A  
HETATM    7  C   UNL     1     -10.255  10.742  67.549  1.00  0.00    -0.196 A  
HETATM    8  N   UNL     1     -10.218  11.810  66.715  1.00  0.00    -0.208 NA 
HETATM    9  N   UNL     1     -10.996   9.721  69.646  1.00  0.00    -0.240 NA 
HETATM   10  C   UNL     1     -10.917  10.777  68.792  1.00  0.00    -0.247 A  
HETATM   11  N   UNL     1     -12.180  11.009  71.170  1.00  0.00    -0.337 NA 
HETATM   12  C   UNL     1     -10.785  12.948  67.094  1.00  0.00    -0.253 A  
HETATM   13  C   UNL     1     -11.468  12.009  69.098  1.00  0.00    -0.300 A  
HETATM   14  C   UNL     1     -12.101  12.073  70.347  1.00  0.00    -0.321 A  
HETATM   15  N   UNL     1     -11.363  13.084  68.280  1.00  0.00    -0.268 NA 
BRANCH  14  16
HETATM   16  N   UNL     1     -12.631  13.256  70.849  1.00  0.00    -0.335 NA 
HETATM   17  C   UNL     1     -12.363  15.647  70.893  1.00  0.00    -0.479 C  
HETATM   18  C   UNL     1     -13.203  15.696  72.174  1.00  0.00    -0.547 C  
HETATM   19  C   UNL     1     -12.758  14.453  70.024  1.00  0.00    -0.136 C  
HETATM   20  C   UNL     1     -13.544  13.195  71.989  1.00  0.00    -0.465 C  
HETATM   21  C   UNL     1     -13.191  14.358  72.920  1.00  0.00    -0.613 C  
ENDBRANCH  14  16
BRANCH  12  22
HETATM   22  N   UNL     1     -10.804  14.030  66.240  1.00  0.00    -0.290 NA 
BRANCH  22  23
HETATM   23  C   UNL     1     -10.548  15.348  66.832  1.00  0.00    -0.309 C  
BRANCH  23  24
HETATM   24  C   UNL     1      -9.092  15.820  66.669  1.00  0.00    -0.268 C  
HETATM   25  O   UNL     1      -8.167  14.753  66.876  1.00  0.00    -0.306 OA 
HETATM   26  H   UNL     1      -7.268  15.045  66.775  1.00  0.00     0.000 HD 
ENDBRANCH  23  24
ENDBRANCH  22  23
BRANCH  22  27
HETATM   27  C   UNL     1     -10.578  13.831  64.807  1.00  0.00    -0.428 C  
BRANCH  27  28
HETATM   28  C   UNL     1     -11.847  13.327  64.095  1.00  0.00    -0.443 C  
HETATM   29  O   UNL     1     -12.535  14.393  63.437  1.00  0.00    -1.109 OA 
HETATM   30  H   UNL     1     -13.318  14.082  62.998  1.00  0.00     0.000 HD 
ENDBRANCH  27  28
ENDBRANCH  22  27
ENDBRANCH  12  22
BRANCH   7  31
HETATM   31  N   UNL     1      -9.622   9.608  67.042  1.00  0.00    -0.166 NA 
HETATM   32  C   UNL     1      -8.345   9.654  66.339  1.00  0.00    -0.119 C  
HETATM   33  C   UNL     1     -10.471   8.456  66.729  1.00  0.00    -0.245 C  
HETATM   34  C   UNL     1      -7.550   8.397  66.695  1.00  0.00    -0.089 C  
HETATM   35  C   UNL     1      -9.719   7.176  67.089  1.00  0.00    -0.212 C  
HETATM   36  C   UNL     1      -8.347   7.125  66.416  1.00  0.00    -0.125 C  
ENDBRANCH   7  31
ENDBRANCH   5   6
BRANCH   5  37
HETATM   37  C   UNL     1     -10.555   8.050  72.045  1.00  0.00    -0.248 C  
BRANCH  37  38
HETATM   38  C   UNL     1     -10.691   7.367  73.421  1.00  0.00    -0.357 C  
HETATM   39  O   UNL     1     -11.196   6.037  73.314  1.00  0.00    -0.438 OA 
HETATM   40  H   UNL     1     -11.279   5.616  74.162  1.00  0.00     0.000 HD 
ENDBRANCH  37  38
ENDBRANCH   5  37
ENDBRANCH   4   5
ENDBRANCH   3   4
TORSDOF 12
ENDMDL
MODEL       18
REMARK 921   NORMALIZED FREE ENERGY PREDICTED BY IDOCK:   -7.11 KCAL/MOL
REMARK 922        TOTAL FREE ENERGY PREDICTED BY IDOCK:  -13.02 KCAL/MOL
REMARK 923 INTER-LIGAND FREE ENERGY PREDICTED BY IDOCK:  -11.96 KCAL/MOL
REMARK 924 INTRA-LIGAND FREE ENERGY PREDICTED BY IDOCK:   -1.06 KCAL/MOL
REMARK 927      BINDING AFFINITY PREDICTED BY RF-SCORE:    0.00 PKD
ROOT
HETATM    1  O   UNL     1     -12.053  11.420  62.934  1.00  0.00    -0.919 OA 
HETATM    2  H   UNL     1     -12.855  11.283  62.442  1.00  0.00     0.000 HD 
HETATM    3  C   UNL     1     -12.137  12.566  63.778  1.00  0.00    -0.529 C  
ENDROOT
BRANCH   3   4
HETATM    4  C   UNL     1     -10.833  12.788  64.579  1.00  0.00    -0.347 C  
BRANCH   4   5
HETATM    5  N   UNL     1     -10.971  13.586  65.815  1.00  0.00    -0.277 NA 
BRANCH   5   6
HETATM    6  C   UNL     1     -11.139  12.853  66.977  1.00  0.00    -0.275 A  
HETATM    7  C   UNL     1     -10.592   9.497  68.300  1.00  0.00    -0.216 A  
HETATM    8  N   UNL     1     -10.690   8.839  69.482  1.00  0.00    -0.217 NA 
HETATM    9  N   UNL     1     -10.803  11.563  67.006  1.00  0.00    -0.259 NA 
HETATM   10  C   UNL     1     -10.911  10.862  68.168  1.00  0.00    -0.234 A  
HETATM   11  N   UNL     1     -11.609  13.471  68.053  1.00  0.00    -0.316 NA 
HETATM   12  C   UNL     1     -11.145   9.486  70.547  1.00  0.00    -0.283 A  
HETATM   13  C   UNL     1     -11.382  11.444  69.332  1.00  0.00    -0.297 A  
HETATM   14  C   UNL     1     -11.738  12.793  69.211  1.00  0.00    -0.319 A  
HETATM   15  N   UNL     1     -11.537  10.751  70.487  1.00  0.00    -0.332 NA 
BRANCH  14  16
HETATM   16  N   UNL     1     -12.311  13.505  70.258  1.00  0.00    -0.322 NA 
HETATM   17  C   UNL     1     -11.881  15.148  71.962  1.00  0.00    -0.495 C  
HETATM   18  C   UNL     1     -13.107  14.642  72.731  1.00  0.00    -0.580 C  
HETATM   19  C   UNL     1     -12.045  14.926  70.459  1.00  0.00    -0.320 C  
HETATM   20  C   UNL     1     -13.566  13.026  70.836  1.00  0.00     0.750 C  
HETATM   21  C   UNL     1     -13.465  13.201  72.354  1.00  0.00    -0.643 C  
ENDBRANCH  14  16
BRANCH  12  22
HETATM   22  N   UNL     1     -11.205   8.851  71.769  1.00  0.00    -0.340 NA 
BRANCH  22  23
HETATM   23  C   UNL     1      -9.929   8.570  72.437  1.00  0.00    -0.295 C  
BRANCH  23  24
HETATM   24  C   UNL     1      -9.907   7.218  73.172  1.00  0.00    -0.235 C  
HETATM   25  O   UNL     1     -10.432   6.169  72.359  1.00  0.00    -0.190 OA 
HETATM   26  H   UNL     1     -10.419   5.334  72.813  1.00  0.00     0.000 HD 
ENDBRANCH  23  24
ENDBRANCH  22  23
BRANCH  22  27
HETATM   27  C   UNL     1     -12.431   8.921  72.566  1.00  0.00    -0.274 C  
BRANCH  27  28
HETATM   28  C   UNL     1     -13.612   8.234  71.855  1.00  0.00    -0.357 C  
HETATM   29  O   UNL     1     -13.172   7.138  71.051  1.00  0.00    -0.551 OA 
HETATM   30  H   UNL     1     -13.901   6.715  70.612  1.00  0.00     0.000 HD 
ENDBRANCH  27  28
ENDBRANCH  22  27
ENDBRANCH  12  22
BRANCH   7  31
HETATM   31  N   UNL     1     -10.106   8.711  67.256  1.00  0.00    -0.220 NA 
HETATM   32  C   UNL     1      -9.546   9.269  66.031  1.00  0.00    -0.270 C  
HETATM   33  C   UNL     1     -10.641   7.353  67.141  1.00  0.00    -0.342 C  
HETATM   34  C   UNL     1      -8.399   8.369  65.568  1.00  0.00    -0.161 C  
HETATM   35  C   UNL     1      -9.520   6.415  66.698  1.00  0.00    -0.191 C  
HETATM   36  C   UNL     1      -8.844   6.916  65.421  1.00  0.00     0.085 C  
ENDBRANCH   7  31
ENDBRANCH   5   6
BRANCH   5  37
HETATM   37  C   UNL     1     -11.681  14.867  65.710  1.00  0.00    -0.179 C  
BRANCH  37  38
HETATM   38  C   UNL     1     -10.905  15.904  64.873  1.00  0.00    -0.400 C  
HETATM   39  O   UNL     1     -11.651  16.349  63.740  1.00  0.00    -1.605 OA 
HETATM   40  H   UNL     1     -11.172  16.988  63.225  1.00  0.00     0.000 HD 
ENDBRANCH  37  38
ENDBRANCH   5  37
ENDBRANCH   4   5
ENDBRANCH   3   4
TORSDOF 12
ENDMDL
MODEL       19
REMARK 921   NORMALIZED FREE ENERGY PREDICTED BY IDOCK:   -7.07 KCAL/MOL
REMARK 922        TOTAL FREE ENERGY PREDICTED BY IDOCK:  -12.95 KCAL/MOL
REMARK 923 INTER-LIGAND FREE ENERGY PREDICTED BY IDOCK:  -11.41 KCAL/MOL
REMARK 924 INTRA-LIGAND FREE ENERGY PREDICTED BY IDOCK:   -1.54 KCAL/MOL
REMARK 927      BINDING AFFINITY PREDICTED BY RF-SCORE:    0.00 PKD
ROOT
HETATM    1  O   UNL     1     -10.479   5.588  67.838  1.00  0.00    -0.207 OA 
HETATM    2  H   UNL     1     -10.089   5.054  68.521  1.00  0.00     0.000 HD 
HETATM    3  C   UNL     1     -10.097   6.958  67.952  1.00  0.00    -0.162 C  
ENDROOT
BRANCH   3   4
HETATM    4  C   UNL     1     -10.731   7.826  66.842  1.00  0.00    -0.174 C  
BRANCH   4   5
HETATM    5  N   UNL     1      -9.983   9.049  66.483  1.00  0.00    -0.269 NA 
BRANCH   5   6
HETATM    6  C   UNL     1     -10.486  10.227  67.007  1.00  0.00    -0.244 A  
HETATM    7  C   UNL     1     -11.940  11.552  70.080  1.00  0.00    -0.369 A  
HETATM    8  N   UNL     1     -12.342  12.744  70.586  1.00  0.00    -0.345 NA 
HETATM    9  N   UNL     1     -10.969  10.250  68.250  1.00  0.00    -0.258 NA 
HETATM   10  C   UNL     1     -11.404  11.424  68.785  1.00  0.00    -0.271 A  
HETATM   11  N   UNL     1     -10.445  11.322  66.260  1.00  0.00    -0.251 NA 
HETATM   12  C   UNL     1     -12.272  13.827  69.824  1.00  0.00    -0.310 A  
HETATM   13  C   UNL     1     -11.381  12.607  68.067  1.00  0.00    -0.290 A  
HETATM   14  C   UNL     1     -10.884  12.493  66.763  1.00  0.00    -0.249 A  
HETATM   15  N   UNL     1     -11.850  13.777  68.567  1.00  0.00    -0.355 NA 
BRANCH  14  16
HETATM   16  N   UNL     1     -10.873  13.564  65.877  1.00  0.00    -0.274 NA 
HETATM   17  C   UNL     1     -10.438  15.922  65.678  1.00  0.00    -0.411 C  
HETATM   18  C   UNL     1     -11.295  15.951  64.407  1.00  0.00    -0.276 C  
HETATM   19  C   UNL     1      -9.796  14.549  65.875  1.00  0.00    -0.321 C  
HETATM   20  C   UNL     1     -11.601  13.447  64.615  1.00  0.00    -0.355 C  
HETATM   21  C   UNL     1     -12.292  14.789  64.360  1.00  0.00    -0.389 C  
ENDBRANCH  14  16
BRANCH  12  22
HETATM   22  N   UNL     1     -12.627  15.058  70.334  1.00  0.00    -0.355 NA 
BRANCH  22  23
HETATM   23  C   UNL     1     -13.907  15.138  71.048  1.00  0.00    -0.349 C  
BRANCH  23  24
HETATM   24  C   UNL     1     -13.749  15.325  72.568  1.00  0.00    -0.526 C  
HETATM   25  O   UNL     1     -13.314  14.124  73.203  1.00  0.00    -0.634 OA 
HETATM   26  H   UNL     1     -13.216  14.239  74.141  1.00  0.00     0.000 HD 
ENDBRANCH  23  24
ENDBRANCH  22  23
BRANCH  22  27
HETATM   27  C   UNL     1     -11.595  16.061  70.598  1.00  0.00    -0.383 C  
BRANCH  27  28
HETATM   28  C   UNL     1     -10.741  16.343  69.348  1.00  0.00    -0.324 C  
HETATM   29  O   UNL     1      -9.428  15.794  69.476  1.00  0.00    -0.259 OA 
HETATM   30  H   UNL     1      -8.902  15.968  68.705  1.00  0.00     0.000 HD 
ENDBRANCH  27  28
ENDBRANCH  22  27
ENDBRANCH  12  22
BRANCH   7  31
HETATM   31  N   UNL     1     -12.065  10.490  70.974  1.00  0.00    -0.369 NA 
HETATM   32  C   UNL     1     -13.065  10.454  72.036  1.00  0.00    -0.416 C  
HETATM   33  C   UNL     1     -10.874   9.669  71.204  1.00  0.00    -0.334 C  
HETATM   34  C   UNL     1     -13.537   9.009  72.209  1.00  0.00    -0.540 C  
HETATM   35  C   UNL     1     -11.301   8.211  71.363  1.00  0.00    -0.299 C  
HETATM   36  C   UNL     1     -12.368   8.056  72.447  1.00  0.00    -0.299 C  
ENDBRANCH   7  31
ENDBRANCH   5   6
BRANCH   5  37
HETATM   37  C   UNL     1      -9.390   9.101  65.140  1.00  0.00    -0.110 C  
BRANCH  37  38
HETATM   38  C   UNL     1      -7.863   9.313  65.179  1.00  0.00    -0.110 C  
HETATM   39  O   UNL     1      -7.503  10.681  64.993  1.00  0.00    -0.327 OA 
HETATM   40  H   UNL     1      -6.563  10.811  65.017  1.00  0.00     0.000 HD 
ENDBRANCH  37  38
ENDBRANCH   5  37
ENDBRANCH   4   5
ENDBRANCH   3   4
TORSDOF 12
ENDMDL
MODEL       20
REMARK 921   NORMALIZED FREE ENERGY PREDICTED BY IDOCK:   -7.05 KCAL/MOL
REMARK 922        TOTAL FREE ENERGY PREDICTED BY IDOCK:  -12.91 KCAL/MOL
REMARK 923 INTER-LIGAND FREE ENERGY PREDICTED BY IDOCK:  -10.87 KCAL/MOL
REMARK 924 INTRA-LIGAND FREE ENERGY PREDICTED BY IDOCK:   -2.04 KCAL/MOL
REMARK 927      BINDING AFFINITY PREDICTED BY RF-SCORE:    0.00 PKD
ROOT
HETATM    1  O   UNL     1     -10.083   4.796  66.476  1.00  0.00    -0.211 OA 
HETATM    2  H   UNL     1      -9.523   4.039  66.605  1.00  0.00     0.000 HD 
HETATM    3  C   UNL     1      -9.413   6.014  66.795  1.00  0.00    -0.144 C  
ENDROOT
BRANCH   3   4
HETATM    4  C   UNL     1     -10.324   7.245  66.586  1.00  0.00    -0.158 C  
BRANCH   4   5
HETATM    5  N   UNL     1      -9.623   8.531  66.385  1.00  0.00    -0.231 NA 
BRANCH   5   6
HETATM    6  C   UNL     1     -10.204   9.624  67.004  1.00  0.00    -0.244 A  
HETATM    7  C   UNL     1     -11.780  10.575  70.154  1.00  0.00    -0.326 A  
HETATM    8  N   UNL     1     -12.260  11.691  70.757  1.00  0.00    -0.375 NA 
HETATM    9  N   UNL     1     -10.706   9.505  68.233  1.00  0.00    -0.218 NA 
HETATM   10  C   UNL     1     -11.219  10.598  68.863  1.00  0.00    -0.275 A  
HETATM   11  N   UNL     1     -10.217  10.784  66.359  1.00  0.00    -0.233 NA 
HETATM   12  C   UNL     1     -12.244  12.841  70.097  1.00  0.00    -0.249 A  
HETATM   13  C   UNL     1     -11.256  11.841  68.256  1.00  0.00    -0.255 A  
HETATM   14  C   UNL     1     -10.733  11.876  66.957  1.00  0.00    -0.240 A  
HETATM   15  N   UNL     1     -11.801  12.931  68.850  1.00  0.00    -0.314 NA 
BRANCH  14  16
HETATM   16  N   UNL     1     -10.772  13.023  66.173  1.00  0.00    -0.271 NA 
HETATM   17  C   UNL     1     -10.391  15.399  66.175  1.00  0.00    -0.325 C  
HETATM   18  C   UNL     1     -11.290  15.522  64.939  1.00  0.00    -0.339 C  
HETATM   19  C   UNL     1      -9.716  14.028  66.226  1.00  0.00    -0.295 C  
HETATM   20  C   UNL     1     -11.540  13.003  64.929  1.00  0.00    -0.326 C  
HETATM   21  C   UNL     1     -12.265  14.348  64.819  1.00  0.00    -0.458 C  
ENDBRANCH  14  16
BRANCH  12  22
HETATM   22  N   UNL     1     -12.680  13.997  70.710  1.00  0.00    -0.334 NA 
BRANCH  22  23
HETATM   23  C   UNL     1     -12.443  15.258  69.998  1.00  0.00    -0.293 C  
BRANCH  23  24
HETATM   24  C   UNL     1     -11.228  16.041  70.527  1.00  0.00    -0.378 C  
HETATM   25  O   UNL     1     -11.598  16.947  71.566  1.00  0.00    -0.484 OA 
HETATM   26  H   UNL     1     -10.849  17.430  71.893  1.00  0.00     0.000 HD 
ENDBRANCH  23  24
ENDBRANCH  22  23
BRANCH  22  27
HETATM   27  C   UNL     1     -13.739  13.931  71.719  1.00  0.00    -0.377 C  
BRANCH  27  28
HETATM   28  C   UNL     1     -13.295  14.557  73.053  1.00  0.00    -0.407 C  
HETATM   29  O   UNL     1     -13.806  15.883  73.205  1.00  0.00    -0.674 OA 
HETATM   30  H   UNL     1     -13.532  16.269  74.028  1.00  0.00     0.000 HD 
ENDBRANCH  27  28
ENDBRANCH  22  27
ENDBRANCH  12  22
BRANCH   7  31
HETATM   31  N   UNL     1     -11.855   9.430  70.945  1.00  0.00    -0.290 NA 
HETATM   32  C   UNL     1     -13.098   8.949  71.537  1.00  0.00    -0.329 C  
HETATM   33  C   UNL     1     -10.630   9.013  71.630  1.00  0.00    -0.364 C  
HETATM   34  C   UNL     1     -13.077   7.420  71.535  1.00  0.00    -0.424 C  
HETATM   35  C   UNL     1     -10.559   7.487  71.633  1.00  0.00    -0.232 C  
HETATM   36  C   UNL     1     -11.828   6.870  72.221  1.00  0.00    -0.274 C  
ENDBRANCH   7  31
ENDBRANCH   5   6
BRANCH   5  37
HETATM   37  C   UNL     1      -8.982   8.748  65.081  1.00  0.00    -0.100 C  
BRANCH  37  38
HETATM   38  C   UNL     1      -7.524   9.232  65.215  1.00  0.00    -0.098 C  
HETATM   39  O   UNL     1      -7.407  10.644  65.042  1.00  0.00    -0.329 OA 
HETATM   40  H   UNL     1      -6.509  10.942  65.125  1.00  0.00     0.000 HD 
ENDBRANCH  37  38
ENDBRANCH   5  37
ENDBRANCH   4   5
ENDBRANCH   3   4
TORSDOF 12
ENDMDL
MODEL       21
REMARK 921   NORMALIZED FREE ENERGY PREDICTED BY IDOCK:   -7.04 KCAL/MOL
REMARK 922        TOTAL FREE ENERGY PREDICTED BY IDOCK:  -12.89 KCAL/MOL
REMARK 923 INTER-LIGAND FREE ENERGY PREDICTED BY IDOCK:  -12.04 KCAL/MOL
REMARK 924 INTRA-LIGAND FREE ENERGY PREDICTED BY IDOCK:   -0.86 KCAL/MOL
REMARK 927      BINDING AFFINITY PREDICTED BY RF-SCORE:    0.00 PKD
ROOT
HETATM    1  O   UNL     1      -9.508   8.756  72.349  1.00  0.00    -0.293 OA 
HETATM    2  H   UNL     1      -8.682   9.130  72.632  1.00  0.00     0.000 HD 
HETATM    3  C   UNL     1     -10.014   9.404  71.183  1.00  0.00    -0.241 C  
ENDROOT
BRANCH   3   4
HETATM    4  C   UNL     1     -11.357   8.795  70.722  1.00  0.00    -0.272 C  
BRANCH   4   5
HETATM    5  N   UNL     1     -12.400   9.768  70.332  1.00  0.00    -0.088 NA 
BRANCH   5   6
HETATM    6  C   UNL     1     -11.931  10.997  69.902  1.00  0.00    -0.351 A  
HETATM    7  C   UNL     1      -9.974  12.482  67.204  1.00  0.00    -0.216 A  
HETATM    8  N   UNL     1      -9.609  13.714  66.768  1.00  0.00    -0.267 NA 
HETATM    9  N   UNL     1     -11.181  11.076  68.802  1.00  0.00    -0.242 NA 
HETATM   10  C   UNL     1     -10.775  12.293  68.346  1.00  0.00    -0.234 A  
HETATM   11  N   UNL     1     -12.271  12.080  70.588  1.00  0.00    -0.371 NA 
HETATM   12  C   UNL     1      -9.979  14.782  67.462  1.00  0.00    -0.219 A  
HETATM   13  C   UNL     1     -11.100  13.466  69.004  1.00  0.00    -0.249 A  
HETATM   14  C   UNL     1     -11.867  13.295  70.164  1.00  0.00    -0.263 A  
HETATM   15  N   UNL     1     -10.670  14.683  68.590  1.00  0.00    -0.242 NA 
BRANCH  14  16
HETATM   16  N   UNL     1     -12.208  14.359  70.991  1.00  0.00    -0.332 NA 
HETATM   17  C   UNL     1     -11.749  15.405  73.109  1.00  0.00    -0.443 C  
HETATM   18  C   UNL     1     -13.111  16.104  73.034  1.00  0.00    -0.486 C  
HETATM   19  C   UNL     1     -11.198  15.128  71.710  1.00  0.00    -0.223 C  
HETATM   20  C   UNL     1     -13.465  15.066  70.753  1.00  0.00    -0.270 C  
HETATM   21  C   UNL     1     -14.089  15.361  72.120  1.00  0.00    -0.651 C  
ENDBRANCH  14  16
BRANCH  12  22
HETATM   22  N   UNL     1      -9.662  16.045  67.010  1.00  0.00    -0.226 NA 
BRANCH  22  23
HETATM   23  C   UNL     1     -10.584  16.657  66.046  1.00  0.00    -0.233 C  
BRANCH  23  24
HETATM   24  C   UNL     1     -10.893  15.755  64.838  1.00  0.00    -0.413 C  
HETATM   25  O   UNL     1     -11.542  16.479  63.793  1.00  0.00    -1.617 OA 
HETATM   26  H   UNL     1     -11.734  15.922  63.048  1.00  0.00     0.000 HD 
ENDBRANCH  23  24
ENDBRANCH  22  23
BRANCH  22  27
HETATM   27  C   UNL     1      -8.782  16.903  67.805  1.00  0.00    -0.212 C  
BRANCH  27  28
HETATM   28  C   UNL     1      -7.605  16.112  68.406  1.00  0.00    -0.158 C  
HETATM   29  O   UNL     1      -6.963  16.843  69.452  1.00  0.00    -0.236 OA 
HETATM   30  H   UNL     1      -6.238  16.354  69.822  1.00  0.00     0.000 HD 
ENDBRANCH  27  28
ENDBRANCH  22  27
ENDBRANCH  12  22
BRANCH   7  31
HETATM   31  N   UNL     1      -9.523  11.441  66.394  1.00  0.00    -0.198 NA 
HETATM   32  C   UNL     1     -10.386  10.723  65.463  1.00  0.00    -0.241 C  
HETATM   33  C   UNL     1      -8.341  10.707  66.850  1.00  0.00    -0.125 C  
HETATM   34  C   UNL     1      -9.569  10.365  64.221  1.00  0.00    -0.377 C  
HETATM   35  C   UNL     1      -7.485  10.346  65.637  1.00  0.00    -0.149 C  
HETATM   36  C   UNL     1      -8.298   9.599  64.581  1.00  0.00    -0.162 C  
ENDBRANCH   7  31
ENDBRANCH   5   6
BRANCH   5  37
HETATM   37  C   UNL     1     -13.654   9.748  71.096  1.00  0.00    -0.168 C  
BRANCH  37  38
HETATM   38  C   UNL     1     -13.778   8.500  71.993  1.00  0.00    -0.403 C  
HETATM   39  O   UNL     1     -14.127   8.835  73.336  1.00  0.00    -1.167 OA 
HETATM   40  H   UNL     1     -14.203   8.066  73.889  1.00  0.00     0.000 HD 
ENDBRANCH  37  38
ENDBRANCH   5  37
ENDBRANCH   4   5
ENDBRANCH   3   4
TORSDOF 12
ENDMDL
MODEL       22
REMARK 921   NORMALIZED FREE ENERGY PREDICTED BY IDOCK:   -7.04 KCAL/MOL
REMARK 922        TOTAL FREE ENERGY PREDICTED BY IDOCK:  -12.89 KCAL/MOL
REMARK 923 INTER-LIGAND FREE ENERGY PREDICTED BY IDOCK:  -11.64 KCAL/MOL
REMARK 924 INTRA-LIGAND FREE ENERGY PREDICTED BY IDOCK:   -1.25 KCAL/MOL
REMARK 927      BINDING AFFINITY PREDICTED BY RF-SCORE:    0.00 PKD
ROOT
HETATM    1  O   UNL     1     -13.643  15.554  73.750  1.00  0.00    -0.573 OA 
HETATM    2  H   UNL     1     -13.826  16.308  74.299  1.00  0.00     0.000 HD 
HETATM    3  C   UNL     1     -14.103  15.745  72.413  1.00  0.00    -0.403 C  
ENDROOT
BRANCH   3   4
HETATM    4  C   UNL     1     -13.805  14.519  71.521  1.00  0.00    -0.402 C  
BRANCH   4   5
HETATM    5  N   UNL     1     -12.605  14.629  70.664  1.00  0.00    -0.339 NA 
BRANCH   5   6
HETATM    6  C   UNL     1     -12.222  13.461  70.029  1.00  0.00    -0.298 A  
HETATM    7  C   UNL     1     -11.019  12.270  66.797  1.00  0.00    -0.276 A  
HETATM    8  N   UNL     1     -10.567  11.120  66.239  1.00  0.00    -0.260 NA 
HETATM    9  N   UNL     1     -11.855  13.488  68.748  1.00  0.00    -0.339 NA 
HETATM   10  C   UNL     1     -11.418  12.348  68.145  1.00  0.00    -0.318 A  
HETATM   11  N   UNL     1     -12.202  12.335  70.732  1.00  0.00    -0.346 NA 
HETATM   12  C   UNL     1     -10.540  10.013  66.969  1.00  0.00    -0.212 A  
HETATM   13  C   UNL     1     -11.360  11.141  68.818  1.00  0.00    -0.277 A  
HETATM   14  C   UNL     1     -11.788  11.191  70.151  1.00  0.00    -0.365 A  
HETATM   15  N   UNL     1     -10.969   9.987  68.223  1.00  0.00    -0.246 NA 
BRANCH  14  16
HETATM   16  N   UNL     1     -11.877  10.054  70.945  1.00  0.00    -0.339 NA 
HETATM   17  C   UNL     1     -10.945   7.869  71.330  1.00  0.00    -0.266 C  
HETATM   18  C   UNL     1     -12.232   7.472  72.061  1.00  0.00    -0.314 C  
HETATM   19  C   UNL     1     -10.689   9.371  71.448  1.00  0.00    -0.337 C  
HETATM   20  C   UNL     1     -13.092   9.830  71.727  1.00  0.00    -0.431 C  
HETATM   21  C   UNL     1     -13.423   8.338  71.638  1.00  0.00    -0.358 C  
ENDBRANCH  14  16
BRANCH  12  22
HETATM   22  N   UNL     1     -10.037   8.845  66.437  1.00  0.00    -0.291 NA 
BRANCH  22  23
HETATM   23  C   UNL     1      -8.668   8.888  65.909  1.00  0.00    -0.170 C  
BRANCH  23  24
HETATM   24  C   UNL     1      -8.591   9.361  64.447  1.00  0.00    -0.194 C  
HETATM   25  O   UNL     1      -8.427  10.776  64.359  1.00  0.00    -0.328 OA 
HETATM   26  H   UNL     1      -8.379  11.068  63.457  1.00  0.00     0.000 HD 
ENDBRANCH  23  24
ENDBRANCH  22  23
BRANCH  22  27
HETATM   27  C   UNL     1     -10.612   7.558  66.833  1.00  0.00    -0.297 C  
BRANCH  27  28
HETATM   28  C   UNL     1      -9.562   6.431  66.802  1.00  0.00    -0.155 C  
HETATM   29  O   UNL     1      -9.927   5.402  65.880  1.00  0.00    -0.320 OA 
HETATM   30  H   UNL     1      -9.279   4.708  65.862  1.00  0.00     0.000 HD 
ENDBRANCH  27  28
ENDBRANCH  22  27
ENDBRANCH  12  22
BRANCH   7  31
HETATM   31  N   UNL     1     -11.004  13.361  65.930  1.00  0.00    -0.274 NA 
HETATM   32  C   UNL     1     -11.673  13.360  64.634  1.00  0.00    -0.372 C  
HETATM   33  C   UNL     1      -9.887  14.300  66.060  1.00  0.00    -0.314 C  
HETATM   34  C   UNL     1     -12.227  14.761  64.372  1.00  0.00    -0.447 C  
HETATM   35  C   UNL     1     -10.403  15.718  65.824  1.00  0.00    -0.390 C  
HETATM   36  C   UNL     1     -11.143  15.830  64.491  1.00  0.00    -0.293 C  
ENDBRANCH   7  31
ENDBRANCH   5   6
BRANCH   5  37
HETATM   37  C   UNL     1     -11.544  15.540  71.112  1.00  0.00    -0.397 C  
BRANCH  37  38
HETATM   38  C   UNL     1     -10.581  15.928  69.972  1.00  0.00    -0.316 C  
HETATM   39  O   UNL     1     -10.782  17.271  69.531  1.00  0.00    -0.386 OA 
HETATM   40  H   UNL     1     -10.189  17.510  68.829  1.00  0.00     0.000 HD 
ENDBRANCH  37  38
ENDBRANCH   5  37
ENDBRANCH   4   5
ENDBRANCH   3   4
TORSDOF 12
ENDMDL
MODEL       23
REMARK 921   NORMALIZED FREE ENERGY PREDICTED BY IDOCK:   -7.02 KCAL/MOL
REMARK 922        TOTAL FREE ENERGY PREDICTED BY IDOCK:  -12.87 KCAL/MOL
REMARK 923 INTER-LIGAND FREE ENERGY PREDICTED BY IDOCK:  -12.71 KCAL/MOL
REMARK 924 INTRA-LIGAND FREE ENERGY PREDICTED BY IDOCK:   -0.16 KCAL/MOL
REMARK 927      BINDING AFFINITY PREDICTED BY RF-SCORE:    0.00 PKD
ROOT
HETATM    1  O   UNL     1     -11.562  16.204  63.906  1.00  0.00    -1.369 OA 
HETATM    2  H   UNL     1     -11.074  16.702  63.261  1.00  0.00     0.000 HD 
HETATM    3  C   UNL     1     -10.724  15.734  64.961  1.00  0.00    -0.421 C  
ENDROOT
BRANCH   3   4
HETATM    4  C   UNL     1     -11.518  14.924  66.011  1.00  0.00    -0.275 C  
BRANCH   4   5
HETATM    5  N   UNL     1     -11.435  13.454  65.879  1.00  0.00    -0.314 NA 
BRANCH   5   6
HETATM    6  C   UNL     1     -11.458  12.751  67.071  1.00  0.00    -0.341 A  
HETATM    7  C   UNL     1     -10.653   9.459  68.421  1.00  0.00    -0.204 A  
HETATM    8  N   UNL     1     -10.608   8.834  69.624  1.00  0.00    -0.221 NA 
HETATM    9  N   UNL     1     -11.072  11.476  67.100  1.00  0.00    -0.282 NA 
HETATM   10  C   UNL     1     -11.036  10.807  68.286  1.00  0.00    -0.255 A  
HETATM   11  N   UNL     1     -11.841  13.385  68.172  1.00  0.00    -0.358 NA 
HETATM   12  C   UNL     1     -10.978   9.496  70.712  1.00  0.00    -0.321 A  
HETATM   13  C   UNL     1     -11.410  11.406  69.475  1.00  0.00    -0.289 A  
HETATM   14  C   UNL     1     -11.829  12.738  69.355  1.00  0.00    -0.300 A  
HETATM   15  N   UNL     1     -11.422  10.744  70.658  1.00  0.00    -0.298 NA 
BRANCH  14  16
HETATM   16  N   UNL     1     -12.320  13.461  70.435  1.00  0.00    -0.333 NA 
HETATM   17  C   UNL     1     -14.226  13.761  71.873  1.00  0.00    -0.349 C  
HETATM   18  C   UNL     1     -13.702  15.155  72.241  1.00  0.00    -0.596 C  
HETATM   19  C   UNL     1     -13.076  12.823  71.508  1.00  0.00    -0.286 C  
HETATM   20  C   UNL     1     -11.663  14.713  70.807  1.00  0.00    -0.279 C  
HETATM   21  C   UNL     1     -12.763  15.715  71.169  1.00  0.00    -0.525 C  
ENDBRANCH  14  16
BRANCH  12  22
HETATM   22  N   UNL     1     -10.891   8.896  71.950  1.00  0.00    -0.356 NA 
BRANCH  22  23
HETATM   23  C   UNL     1     -12.138   8.387  72.532  1.00  0.00    -0.337 C  
BRANCH  23  24
HETATM   24  C   UNL     1     -13.359   8.561  71.610  1.00  0.00    -0.343 C  
HETATM   25  O   UNL     1     -13.692   7.344  70.942  1.00  0.00    -0.622 OA 
HETATM   26  H   UNL     1     -14.445   7.452  70.374  1.00  0.00     0.000 HD 
ENDBRANCH  23  24
ENDBRANCH  22  23
BRANCH  22  27
HETATM   27  C   UNL     1      -9.612   8.349  72.406  1.00  0.00    -0.303 C  
BRANCH  27  28
HETATM   28  C   UNL     1      -9.792   7.407  73.611  1.00  0.00    -0.315 C  
HETATM   29  O   UNL     1      -8.570   7.242  74.333  1.00  0.00    -0.184 OA 
HETATM   30  H   UNL     1      -8.682   6.660  75.075  1.00  0.00     0.000 HD 
ENDBRANCH  27  28
ENDBRANCH  22  27
ENDBRANCH  12  22
BRANCH   7  31
HETATM   31  N   UNL     1     -10.245   8.659  67.355  1.00  0.00    -0.241 NA 
HETATM   32  C   UNL     1      -9.726   9.201  66.104  1.00  0.00    -0.287 C  
HETATM   33  C   UNL     1     -10.829   7.319  67.266  1.00  0.00    -0.284 C  
HETATM   34  C   UNL     1      -8.634   8.264  65.586  1.00  0.00    -0.189 C  
HETATM   35  C   UNL     1      -9.761   6.346  66.768  1.00  0.00    -0.199 C  
HETATM   36  C   UNL     1      -9.132   6.827  65.461  1.00  0.00     0.174 C  
ENDBRANCH   7  31
ENDBRANCH   5   6
BRANCH   5  37
HETATM   37  C   UNL     1     -10.601  12.924  64.793  1.00  0.00    -0.342 C  
BRANCH  37  38
HETATM   38  C   UNL     1     -11.439  12.418  63.601  1.00  0.00    -0.489 C  
HETATM   39  O   UNL     1     -10.837  11.294  62.959  1.00  0.00    -0.778 OA 
HETATM   40  H   UNL     1     -11.353  10.982  62.225  1.00  0.00     0.000 HD 
ENDBRANCH  37  38
ENDBRANCH   5  37
ENDBRANCH   4   5
ENDBRANCH   3   4
TORSDOF 12
ENDMDL
MODEL       24
REMARK 921   NORMALIZED FREE ENERGY PREDICTED BY IDOCK:   -7.01 KCAL/MOL
REMARK 922        TOTAL FREE ENERGY PREDICTED BY IDOCK:  -12.84 KCAL/MOL
REMARK 923 INTER-LIGAND FREE ENERGY PREDICTED BY IDOCK:  -11.78 KCAL/MOL
REMARK 924 INTRA-LIGAND FREE ENERGY PREDICTED BY IDOCK:   -1.06 KCAL/MOL
REMARK 927      BINDING AFFINITY PREDICTED BY RF-SCORE:    0.00 PKD
ROOT
HETATM    1  O   UNL     1      -9.458   7.446  69.848  1.00  0.00    -0.155 OA 
HETATM    2  H   UNL     1      -9.307   6.695  69.285  1.00  0.00     0.000 HD 
HETATM    3  C   UNL     1     -10.818   7.527  70.272  1.00  0.00    -0.246 C  
ENDROOT
BRANCH   3   4
HETATM    4  C   UNL     1     -11.064   8.747  71.189  1.00  0.00    -0.276 C  
BRANCH   4   5
HETATM    5  N   UNL     1     -12.201   9.611  70.810  1.00  0.00    -0.264 NA 
BRANCH   5   6
HETATM    6  C   UNL     1     -11.858  10.838  70.269  1.00  0.00    -0.349 A  
HETATM    7  C   UNL     1     -10.116  12.268  67.399  1.00  0.00    -0.200 A  
HETATM    8  N   UNL     1      -9.877  13.487  66.856  1.00  0.00    -0.250 NA 
HETATM    9  N   UNL     1     -11.148  10.894  69.142  1.00  0.00    -0.224 NA 
HETATM   10  C   UNL     1     -10.866  12.101  68.579  1.00  0.00    -0.236 A  
HETATM   11  N   UNL     1     -12.278  11.939  70.878  1.00  0.00    -0.324 NA 
HETATM   12  C   UNL     1     -10.324  14.571  67.476  1.00  0.00    -0.244 A  
HETATM   13  C   UNL     1     -11.281  13.290  69.153  1.00  0.00    -0.251 A  
HETATM   14  C   UNL     1     -11.998  13.146  70.348  1.00  0.00    -0.266 A  
HETATM   15  N   UNL     1     -10.974  14.503  68.631  1.00  0.00    -0.242 NA 
BRANCH  14  16
HETATM   16  N   UNL     1     -12.413  14.239  71.100  1.00  0.00    -0.340 NA 
HETATM   17  C   UNL     1     -11.972  15.512  73.093  1.00  0.00    -0.577 C  
HETATM   18  C   UNL     1     -13.404  16.058  73.035  1.00  0.00    -0.589 C  
HETATM   19  C   UNL     1     -11.459  15.170  71.694  1.00  0.00    -0.380 C  
HETATM   20  C   UNL     1     -13.749  14.788  70.873  1.00  0.00    -0.159 C  
HETATM   21  C   UNL     1     -14.337  15.138  72.242  1.00  0.00    -0.559 C  
ENDBRANCH  14  16
BRANCH  12  22
HETATM   22  N   UNL     1     -10.137  15.817  66.916  1.00  0.00    -0.259 NA 
BRANCH  22  23
HETATM   23  C   UNL     1      -9.398  16.801  67.715  1.00  0.00    -0.233 C  
BRANCH  23  24
HETATM   24  C   UNL     1     -10.301  17.870  68.357  1.00  0.00    -0.374 C  
HETATM   25  O   UNL     1     -11.010  18.620  67.371  1.00  0.00    -0.399 OA 
HETATM   26  H   UNL     1     -11.567  19.280  67.767  1.00  0.00     0.000 HD 
ENDBRANCH  23  24
ENDBRANCH  22  23
BRANCH  22  27
HETATM   27  C   UNL     1     -10.205  15.978  65.462  1.00  0.00    -0.360 C  
BRANCH  27  28
HETATM   28  C   UNL     1     -11.463  15.314  64.874  1.00  0.00    -0.343 C  
HETATM   29  O   UNL     1     -11.935  16.016  63.722  1.00  0.00    -1.339 OA 
HETATM   30  H   UNL     1     -12.712  15.606  63.360  1.00  0.00     0.000 HD 
ENDBRANCH  27  28
ENDBRANCH  22  27
ENDBRANCH  12  22
BRANCH   7  31
HETATM   31  N   UNL     1      -9.593  11.209  66.658  1.00  0.00    -0.187 NA 
HETATM   32  C   UNL     1     -10.361  10.481  65.655  1.00  0.00    -0.204 C  
HETATM   33  C   UNL     1      -8.473  10.474  67.248  1.00  0.00    -0.122 C  
HETATM   34  C   UNL     1      -9.422  10.094  64.511  1.00  0.00    -0.364 C  
HETATM   35  C   UNL     1      -7.498  10.084  66.138  1.00  0.00    -0.109 C  
HETATM   36  C   UNL     1      -8.204   9.324  65.015  1.00  0.00    -0.146 C  
ENDBRANCH   7  31
ENDBRANCH   5   6
BRANCH   5  37
HETATM   37  C   UNL     1     -13.399   9.553  71.658  1.00  0.00    -0.407 C  
BRANCH  37  38
HETATM   38  C   UNL     1     -14.386   8.456  71.209  1.00  0.00    -0.239 C  
HETATM   39  O   UNL     1     -14.280   7.277  72.007  1.00  0.00    -0.562 OA 
HETATM   40  H   UNL     1     -14.889   6.602  71.730  1.00  0.00     0.000 HD 
ENDBRANCH  37  38
ENDBRANCH   5  37
ENDBRANCH   4   5
ENDBRANCH   3   4
TORSDOF 12
ENDMDL
MODEL       25
REMARK 921   NORMALIZED FREE ENERGY PREDICTED BY IDOCK:   -7.01 KCAL/MOL
REMARK 922        TOTAL FREE ENERGY PREDICTED BY IDOCK:  -12.84 KCAL/MOL
REMARK 923 INTER-LIGAND FREE ENERGY PREDICTED BY IDOCK:  -11.78 KCAL/MOL
REMARK 924 INTRA-LIGAND FREE ENERGY PREDICTED BY IDOCK:   -1.07 KCAL/MOL
REMARK 927      BINDING AFFINITY PREDICTED BY RF-SCORE:    0.00 PKD
ROOT
HETATM    1  O   UNL     1     -11.186  16.298  67.094  1.00  0.00    -0.092 OA 
HETATM    2  H   UNL     1     -11.453  17.209  67.129  1.00  0.00     0.000 HD 
HETATM    3  C   UNL     1      -9.859  16.150  66.593  1.00  0.00    -0.249 C  
ENDROOT
BRANCH   3   4
HETATM    4  C   UNL     1      -9.426  14.668  66.537  1.00  0.00    -0.297 C  
BRANCH   4   5
HETATM    5  N   UNL     1     -10.510  13.695  66.286  1.00  0.00    -0.286 NA 
BRANCH   5   6
HETATM    6  C   UNL     1     -10.605  12.665  67.206  1.00  0.00    -0.228 A  
HETATM    7  C   UNL     1     -11.979  11.951  70.510  1.00  0.00    -0.267 A  
HETATM    8  N   UNL     1     -12.128  10.892  71.344  1.00  0.00    -0.224 NA 
HETATM    9  N   UNL     1     -11.214  12.869  68.374  1.00  0.00    -0.252 NA 
HETATM   10  C   UNL     1     -11.362  11.837  69.249  1.00  0.00    -0.286 A  
HETATM   11  N   UNL     1     -10.108  11.479  66.881  1.00  0.00    -0.209 NA 
HETATM   12  C   UNL     1     -11.638   9.713  70.987  1.00  0.00    -0.359 A  
HETATM   13  C   UNL     1     -10.878  10.570  68.974  1.00  0.00    -0.232 A  
HETATM   14  C   UNL     1     -10.230  10.445  67.738  1.00  0.00    -0.193 A  
HETATM   15  N   UNL     1     -10.978   9.540  69.850  1.00  0.00    -0.236 NA 
BRANCH  14  16
HETATM   16  N   UNL     1      -9.609   9.266  67.343  1.00  0.00    -0.145 NA 
HETATM   17  C   UNL     1      -9.968   6.927  66.906  1.00  0.00    -0.264 C  
HETATM   18  C   UNL     1      -8.466   6.684  67.088  1.00  0.00    -0.113 C  
HETATM   19  C   UNL     1     -10.237   8.345  66.401  1.00  0.00    -0.098 C  
HETATM   20  C   UNL     1      -8.152   9.175  67.412  1.00  0.00    -0.107 C  
HETATM   21  C   UNL     1      -7.806   7.778  67.933  1.00  0.00    -0.127 C  
ENDBRANCH  14  16
BRANCH  12  22
HETATM   22  N   UNL     1     -11.823   8.613  71.797  1.00  0.00    -0.313 NA 
BRANCH  22  23
HETATM   23  C   UNL     1     -12.938   7.719  71.462  1.00  0.00    -0.325 C  
BRANCH  23  24
HETATM   24  C   UNL     1     -14.295   8.206  71.999  1.00  0.00    -0.430 C  
HETATM   25  O   UNL     1     -14.136   9.070  73.125  1.00  0.00    -1.130 OA 
HETATM   26  H   UNL     1     -14.974   9.370  73.456  1.00  0.00     0.000 HD 
ENDBRANCH  23  24
ENDBRANCH  22  23
BRANCH  22  27
HETATM   27  C   UNL     1     -10.706   8.099  72.593  1.00  0.00    -0.351 C  
BRANCH  27  28
HETATM   28  C   UNL     1     -11.001   6.692  73.146  1.00  0.00    -0.231 C  
HETATM   29  O   UNL     1     -10.049   5.735  72.675  1.00  0.00    -0.175 OA 
HETATM   30  H   UNL     1     -10.232   4.868  73.017  1.00  0.00     0.000 HD 
ENDBRANCH  27  28
ENDBRANCH  22  27
ENDBRANCH  12  22
BRANCH   7  31
HETATM   31  N   UNL     1     -12.530  13.135  70.997  1.00  0.00    -0.364 NA 
HETATM   32  C   UNL     1     -13.616  13.168  71.970  1.00  0.00    -0.465 C  
HETATM   33  C   UNL     1     -12.407  14.324  70.151  1.00  0.00    -0.353 C  
HETATM   34  C   UNL     1     -13.399  14.363  72.899  1.00  0.00    -0.575 C  
HETATM   35  C   UNL     1     -12.169  15.542  71.042  1.00  0.00    -0.449 C  
HETATM   36  C   UNL     1     -13.247  15.667  72.119  1.00  0.00    -0.547 C  
ENDBRANCH   7  31
ENDBRANCH   5   6
BRANCH   5  37
HETATM   37  C   UNL     1     -10.823  13.387  64.885  1.00  0.00    -0.352 C  
BRANCH  37  38
HETATM   38  C   UNL     1     -11.851  14.366  64.282  1.00  0.00    -0.364 C  
HETATM   39  O   UNL     1     -12.534  13.806  63.161  1.00  0.00    -1.089 OA 
HETATM   40  H   UNL     1     -13.168  14.409  62.790  1.00  0.00     0.000 HD 
ENDBRANCH  37  38
ENDBRANCH   5  37
ENDBRANCH   4   5
ENDBRANCH   3   4
TORSDOF 12
ENDMDL
MODEL       26
REMARK 921   NORMALIZED FREE ENERGY PREDICTED BY IDOCK:   -6.98 KCAL/MOL
REMARK 922        TOTAL FREE ENERGY PREDICTED BY IDOCK:  -12.79 KCAL/MOL
REMARK 923 INTER-LIGAND FREE ENERGY PREDICTED BY IDOCK:  -12.01 KCAL/MOL
REMARK 924 INTRA-LIGAND FREE ENERGY PREDICTED BY IDOCK:   -0.78 KCAL/MOL
REMARK 927      BINDING AFFINITY PREDICTED BY RF-SCORE:    0.00 PKD
ROOT
HETATM    1  O   UNL     1     -11.464   6.155  70.644  1.00  0.00    -0.338 OA 
HETATM    2  H   UNL     1     -11.704   5.608  69.905  1.00  0.00     0.000 HD 
HETATM    3  C   UNL     1     -12.431   7.175  70.886  1.00  0.00    -0.258 C  
ENDROOT
BRANCH   3   4
HETATM    4  C   UNL     1     -12.042   8.064  72.089  1.00  0.00    -0.343 C  
BRANCH   4   5
HETATM    5  N   UNL     1     -10.894   8.968  71.870  1.00  0.00    -0.362 NA 
BRANCH   5   6
HETATM    6  C   UNL     1     -11.055   9.894  70.854  1.00  0.00    -0.348 A  
HETATM    7  C   UNL     1     -10.422  10.302  67.284  1.00  0.00    -0.253 A  
HETATM    8  N   UNL     1     -10.678  11.200  66.300  1.00  0.00    -0.261 NA 
HETATM    9  N   UNL     1     -10.626   9.613  69.623  1.00  0.00    -0.220 NA 
HETATM   10  C   UNL     1     -10.843  10.500  68.613  1.00  0.00    -0.237 A  
HETATM   11  N   UNL     1     -11.667  11.038  71.131  1.00  0.00    -0.014 NA 
HETATM   12  C   UNL     1     -11.309  12.327  66.600  1.00  0.00    -0.343 A  
HETATM   13  C   UNL     1     -11.484  11.708  68.825  1.00  0.00    -0.285 A  
HETATM   14  C   UNL     1     -11.879  11.937  70.149  1.00  0.00    -0.308 A  
HETATM   15  N   UNL     1     -11.671  12.622  67.841  1.00  0.00    -0.350 NA 
BRANCH  14  16
HETATM   16  N   UNL     1     -12.456  13.136  70.553  1.00  0.00    -0.289 NA 
HETATM   17  C   UNL     1     -12.105  15.510  70.718  1.00  0.00    -0.435 C  
HETATM   18  C   UNL     1     -13.204  15.577  71.784  1.00  0.00    -0.567 C  
HETATM   19  C   UNL     1     -12.348  14.351  69.752  1.00  0.00    -0.285 C  
HETATM   20  C   UNL     1     -13.601  13.098  71.462  1.00  0.00    -0.019 C  
HETATM   21  C   UNL     1     -13.414  14.228  72.478  1.00  0.00    -0.613 C  
ENDBRANCH  14  16
BRANCH  12  22
HETATM   22  N   UNL     1     -11.624  13.230  65.606  1.00  0.00    -0.324 NA 
BRANCH  22  23
HETATM   23  C   UNL     1     -10.567  14.160  65.192  1.00  0.00    -0.398 C  
BRANCH  23  24
HETATM   24  C   UNL     1     -11.000  15.636  65.234  1.00  0.00    -0.364 C  
HETATM   25  O   UNL     1     -11.431  16.095  63.953  1.00  0.00    -1.351 OA 
HETATM   26  H   UNL     1     -11.698  17.006  63.980  1.00  0.00     0.000 HD 
ENDBRANCH  23  24
ENDBRANCH  22  23
BRANCH  22  27
HETATM   27  C   UNL     1     -12.729  12.945  64.689  1.00  0.00    -0.330 C  
BRANCH  27  28
HETATM   28  C   UNL     1     -12.224  12.631  63.269  1.00  0.00    -0.417 C  
HETATM   29  O   UNL     1     -11.654  11.322  63.194  1.00  0.00    -0.847 OA 
HETATM   30  H   UNL     1     -11.342  11.129  62.318  1.00  0.00     0.000 HD 
ENDBRANCH  27  28
ENDBRANCH  22  27
ENDBRANCH  12  22
BRANCH   7  31
HETATM   31  N   UNL     1      -9.752   9.161  66.845  1.00  0.00    -0.178 NA 
HETATM   32  C   UNL     1      -8.748   9.182  65.788  1.00  0.00    -0.165 C  
HETATM   33  C   UNL     1     -10.423   7.876  67.051  1.00  0.00    -0.349 C  
HETATM   34  C   UNL     1      -7.665   8.157  66.127  1.00  0.00    -0.090 C  
HETATM   35  C   UNL     1      -9.375   6.823  67.411  1.00  0.00    -0.140 C  
HETATM   36  C   UNL     1      -8.256   6.770  66.371  1.00  0.00    -0.117 C  
ENDBRANCH   7  31
ENDBRANCH   5   6
BRANCH   5  37
HETATM   37  C   UNL     1      -9.551   8.409  72.075  1.00  0.00    -0.274 C  
BRANCH  37  38
HETATM   38  C   UNL     1      -9.360   7.842  73.496  1.00  0.00    -0.290 C  
HETATM   39  O   UNL     1      -8.165   8.322  74.111  1.00  0.00    -0.252 OA 
HETATM   40  H   UNL     1      -8.047   7.972  74.987  1.00  0.00     0.000 HD 
ENDBRANCH  37  38
ENDBRANCH   5  37
ENDBRANCH   4   5
ENDBRANCH   3   4
TORSDOF 12
ENDMDL
MODEL       27
REMARK 921   NORMALIZED FREE ENERGY PREDICTED BY IDOCK:   -6.93 KCAL/MOL
REMARK 922        TOTAL FREE ENERGY PREDICTED BY IDOCK:  -12.71 KCAL/MOL
REMARK 923 INTER-LIGAND FREE ENERGY PREDICTED BY IDOCK:  -10.97 KCAL/MOL
REMARK 924 INTRA-LIGAND FREE ENERGY PREDICTED BY IDOCK:   -1.74 KCAL/MOL
REMARK 927      BINDING AFFINITY PREDICTED BY RF-SCORE:    0.00 PKD
ROOT
HETATM    1  O   UNL     1     -14.097   8.999  72.988  1.00  0.00    -1.086 OA 
HETATM    2  H   UNL     1     -14.813   8.374  72.993  1.00  0.00     0.000 HD 
HETATM    3  C   UNL     1     -13.681   9.320  71.661  1.00  0.00    -0.354 C  
ENDROOT
BRANCH   3   4
HETATM    4  C   UNL     1     -12.517  10.336  71.653  1.00  0.00    -0.392 C  
BRANCH   4   5
HETATM    5  N   UNL     1     -12.579  11.370  70.599  1.00  0.00    -0.298 NA 
BRANCH   5   6
HETATM    6  C   UNL     1     -11.872  11.082  69.445  1.00  0.00    -0.335 A  
HETATM    7  C   UNL     1      -9.833   8.441  67.970  1.00  0.00    -0.169 A  
HETATM    8  N   UNL     1      -9.226   8.161  66.790  1.00  0.00    -0.154 NA 
HETATM    9  N   UNL     1     -11.209   9.930  69.339  1.00  0.00    -0.194 NA 
HETATM   10  C   UNL     1     -10.567   9.624  68.178  1.00  0.00    -0.226 A  
HETATM   11  N   UNL     1     -11.898  11.960  68.451  1.00  0.00    -0.416 NA 
HETATM   12  C   UNL     1      -9.283   9.047  65.805  1.00  0.00    -0.232 A  
HETATM   13  C   UNL     1     -10.561  10.486  67.096  1.00  0.00    -0.264 A  
HETATM   14  C   UNL     1     -11.257  11.685  67.298  1.00  0.00    -0.304 A  
HETATM   15  N   UNL     1      -9.891  10.218  65.948  1.00  0.00    -0.222 NA 
BRANCH  14  16
HETATM   16  N   UNL     1     -11.277  12.699  66.347  1.00  0.00    -0.291 NA 
HETATM   17  C   UNL     1     -10.420  14.881  65.806  1.00  0.00    -0.345 C  
HETATM   18  C   UNL     1     -11.589  15.076  64.834  1.00  0.00    -0.374 C  
HETATM   19  C   UNL     1     -10.063  13.402  65.944  1.00  0.00    -0.293 C  
HETATM   20  C   UNL     1     -12.356  12.722  65.360  1.00  0.00    -0.470 C  
HETATM   21  C   UNL     1     -12.782  14.182  65.184  1.00  0.00    -0.387 C  
ENDBRANCH  14  16
BRANCH  12  22
HETATM   22  N   UNL     1      -8.717   8.761  64.582  1.00  0.00    -0.123 NA 
BRANCH  22  23
HETATM   23  C   UNL     1      -8.385   9.901  63.719  1.00  0.00    -0.168 C  
BRANCH  23  24
HETATM   24  C   UNL     1      -9.179   9.922  62.400  1.00  0.00    -0.284 C  
HETATM   25  O   UNL     1     -10.408  10.636  62.538  1.00  0.00    -0.751 OA 
HETATM   26  H   UNL     1     -10.898  10.649  61.724  1.00  0.00     0.000 HD 
ENDBRANCH  23  24
ENDBRANCH  22  23
BRANCH  22  27
HETATM   27  C   UNL     1      -8.030   7.484  64.378  1.00  0.00    -0.117 C  
BRANCH  27  28
HETATM   28  C   UNL     1      -6.511   7.613  64.599  1.00  0.00    -0.044 C  
HETATM   29  O   UNL     1      -6.167   7.442  65.975  1.00  0.00    -0.039 OA 
HETATM   30  H   UNL     1      -5.230   7.522  66.110  1.00  0.00     0.000 HD 
ENDBRANCH  27  28
ENDBRANCH  22  27
ENDBRANCH  12  22
BRANCH   7  31
HETATM   31  N   UNL     1      -9.698   7.434  68.925  1.00  0.00    -0.149 NA 
HETATM   32  C   UNL     1      -8.438   7.130  69.592  1.00  0.00    -0.134 C  
HETATM   33  C   UNL     1     -10.664   6.335  68.874  1.00  0.00    -0.299 C  
HETATM   34  C   UNL     1      -8.738   6.724  71.035  1.00  0.00    -0.137 C  
HETATM   35  C   UNL     1     -11.007   5.910  70.301  1.00  0.00    -0.390 C  
HETATM   36  C   UNL     1      -9.748   5.581  71.104  1.00  0.00    -0.226 C  
ENDBRANCH   7  31
ENDBRANCH   5   6
BRANCH   5  37
HETATM   37  C   UNL     1     -12.627  12.771  71.036  1.00  0.00    -0.271 C  
BRANCH  37  38
HETATM   38  C   UNL     1     -13.620  12.993  72.196  1.00  0.00    -0.526 C  
HETATM   39  O   UNL     1     -13.477  14.284  72.787  1.00  0.00    -0.505 OA 
HETATM   40  H   UNL     1     -14.089  14.420  73.501  1.00  0.00     0.000 HD 
ENDBRANCH  37  38
ENDBRANCH   5  37
ENDBRANCH   4   5
ENDBRANCH   3   4
TORSDOF 12
ENDMDL
MODEL       28
REMARK 921   NORMALIZED FREE ENERGY PREDICTED BY IDOCK:   -6.87 KCAL/MOL
REMARK 922        TOTAL FREE ENERGY PREDICTED BY IDOCK:  -12.61 KCAL/MOL
REMARK 923 INTER-LIGAND FREE ENERGY PREDICTED BY IDOCK:  -11.48 KCAL/MOL
REMARK 924 INTRA-LIGAND FREE ENERGY PREDICTED BY IDOCK:   -1.13 KCAL/MOL
REMARK 927      BINDING AFFINITY PREDICTED BY RF-SCORE:    0.00 PKD
ROOT
HETATM    1  O   UNL     1     -10.814  17.667  67.605  1.00  0.00    -0.350 OA 
HETATM    2  H   UNL     1     -11.035  18.592  67.594  1.00  0.00     0.000 HD 
HETATM    3  C   UNL     1      -9.641  17.392  66.841  1.00  0.00    -0.277 C  
ENDROOT
BRANCH   3   4
HETATM    4  C   UNL     1      -9.282  15.889  66.859  1.00  0.00    -0.226 C  
BRANCH   4   5
HETATM    5  N   UNL     1     -10.363  14.969  66.443  1.00  0.00    -0.278 NA 
BRANCH   5   6
HETATM    6  C   UNL     1     -10.407  13.763  67.120  1.00  0.00    -0.261 A  
HETATM    7  C   UNL     1     -11.720  12.298  70.193  1.00  0.00    -0.198 A  
HETATM    8  N   UNL     1     -11.816  11.080  70.781  1.00  0.00    -0.321 NA 
HETATM    9  N   UNL     1     -11.013  13.685  68.305  1.00  0.00    -0.245 NA 
HETATM   10  C   UNL     1     -11.110  12.484  68.938  1.00  0.00    -0.260 A  
HETATM   11  N   UNL     1      -9.863  12.697  66.549  1.00  0.00    -0.250 NA 
HETATM   12  C   UNL     1     -11.280  10.026  70.179  1.00  0.00    -0.304 A  
HETATM   13  C   UNL     1     -10.575  11.328  68.397  1.00  0.00    -0.197 A  
HETATM   14  C   UNL     1      -9.932  11.499  67.164  1.00  0.00    -0.199 A  
HETATM   15  N   UNL     1     -10.623  10.130  69.032  1.00  0.00    -0.210 NA 
BRANCH  14  16
HETATM   16  N   UNL     1      -9.266  10.460  66.525  1.00  0.00    -0.158 NA 
HETATM   17  C   UNL     1      -9.241   8.078  66.185  1.00  0.00    -0.219 C  
HETATM   18  C   UNL     1      -7.768   8.174  65.772  1.00  0.00    -0.092 C  
HETATM   19  C   UNL     1      -9.985   9.375  65.866  1.00  0.00    -0.256 C  
HETATM   20  C   UNL     1      -7.909  10.689  66.030  1.00  0.00    -0.156 C  
HETATM   21  C   UNL     1      -7.094   9.429  66.335  1.00  0.00    -0.088 C  
ENDBRANCH  14  16
BRANCH  12  22
HETATM   22  N   UNL     1     -11.411   8.771  70.734  1.00  0.00    -0.277 NA 
BRANCH  22  23
HETATM   23  C   UNL     1     -10.479   7.738  70.270  1.00  0.00    -0.225 C  
BRANCH  23  24
HETATM   24  C   UNL     1     -11.178   6.532  69.617  1.00  0.00    -0.384 C  
HETATM   25  O   UNL     1     -10.599   5.297  70.039  1.00  0.00    -0.302 OA 
HETATM   26  H   UNL     1     -11.030   4.553  69.635  1.00  0.00     0.000 HD 
ENDBRANCH  23  24
ENDBRANCH  22  23
BRANCH  22  27
HETATM   27  C   UNL     1     -12.065   8.615  72.035  1.00  0.00    -0.375 C  
BRANCH  27  28
HETATM   28  C   UNL     1     -11.383   7.531  72.889  1.00  0.00    -0.304 C  
HETATM   29  O   UNL     1     -12.027   6.264  72.739  1.00  0.00    -0.501 OA 
HETATM   30  H   UNL     1     -11.606   5.596  73.265  1.00  0.00     0.000 HD 
ENDBRANCH  27  28
ENDBRANCH  22  27
ENDBRANCH  12  22
BRANCH   7  31
HETATM   31  N   UNL     1     -12.317  13.325  70.923  1.00  0.00    -0.368 NA 
HETATM   32  C   UNL     1     -11.734  14.655  71.053  1.00  0.00    -0.277 C  
HETATM   33  C   UNL     1     -13.235  12.933  71.995  1.00  0.00    -0.448 C  
HETATM   34  C   UNL     1     -12.867  15.682  71.076  1.00  0.00    -0.521 C  
HETATM   35  C   UNL     1     -14.396  13.925  72.039  1.00  0.00    -0.477 C  
HETATM   36  C   UNL     1     -13.896  15.365  72.158  1.00  0.00    -0.636 C  
ENDBRANCH   7  31
ENDBRANCH   5   6
BRANCH   5  37
HETATM   37  C   UNL     1     -10.729  14.965  65.021  1.00  0.00    -0.431 C  
BRANCH  37  38
HETATM   38  C   UNL     1     -12.147  14.410  64.779  1.00  0.00    -0.452 C  
HETATM   39  O   UNL     1     -12.593  14.636  63.442  1.00  0.00    -0.956 OA 
HETATM   40  H   UNL     1     -13.467  14.293  63.294  1.00  0.00     0.000 HD 
ENDBRANCH  37  38
ENDBRANCH   5  37
ENDBRANCH   4   5
ENDBRANCH   3   4
TORSDOF 12
ENDMDL
MODEL       29
REMARK 921   NORMALIZED FREE ENERGY PREDICTED BY IDOCK:   -6.87 KCAL/MOL
REMARK 922        TOTAL FREE ENERGY PREDICTED BY IDOCK:  -12.60 KCAL/MOL
REMARK 923 INTER-LIGAND FREE ENERGY PREDICTED BY IDOCK:  -11.65 KCAL/MOL
REMARK 924 INTRA-LIGAND FREE ENERGY PREDICTED BY IDOCK:   -0.95 KCAL/MOL
REMARK 927      BINDING AFFINITY PREDICTED BY RF-SCORE:    0.00 PKD
ROOT
HETATM    1  O   UNL     1     -10.896  17.494  68.138  1.00  0.00    -0.361 OA 
HETATM    2  H   UNL     1     -11.199  18.366  68.363  1.00  0.00     0.000 HD 
HETATM    3  C   UNL     1      -9.987  17.515  67.038  1.00  0.00    -0.311 C  
ENDROOT
BRANCH   3   4
HETATM    4  C   UNL     1      -9.494  16.097  66.671  1.00  0.00    -0.247 C  
BRANCH   4   5
HETATM    5  N   UNL     1     -10.549  15.133  66.292  1.00  0.00    -0.302 NA 
BRANCH   5   6
HETATM    6  C   UNL     1     -10.519  13.926  66.968  1.00  0.00    -0.278 A  
HETATM    7  C   UNL     1     -11.696  12.399  70.066  1.00  0.00    -0.230 A  
HETATM    8  N   UNL     1     -11.721  11.178  70.655  1.00  0.00    -0.288 NA 
HETATM    9  N   UNL     1     -11.097  13.819  68.165  1.00  0.00    -0.250 NA 
HETATM   10  C   UNL     1     -11.121  12.614  68.799  1.00  0.00    -0.263 A  
HETATM   11  N   UNL     1      -9.934  12.888  66.386  1.00  0.00    -0.261 NA 
HETATM   12  C   UNL     1     -11.145  10.152  70.042  1.00  0.00    -0.308 A  
HETATM   13  C   UNL     1     -10.541  11.486  68.247  1.00  0.00    -0.200 A  
HETATM   14  C   UNL     1      -9.932  11.689  67.002  1.00  0.00    -0.204 A  
HETATM   15  N   UNL     1     -10.516  10.288  68.882  1.00  0.00    -0.198 NA 
BRANCH  14  16
HETATM   16  N   UNL     1      -9.227  10.684  66.349  1.00  0.00    -0.164 NA 
HETATM   17  C   UNL     1      -7.024   9.899  65.785  1.00  0.00    -0.109 C  
HETATM   18  C   UNL     1      -7.633   9.070  64.649  1.00  0.00    -0.107 C  
HETATM   19  C   UNL     1      -8.026  10.088  66.924  1.00  0.00    -0.113 C  
HETATM   20  C   UNL     1      -9.930   9.841  65.383  1.00  0.00    -0.232 C  
HETATM   21  C   UNL     1      -8.987   9.624  64.196  1.00  0.00    -0.269 C  
ENDBRANCH  14  16
BRANCH  12  22
HETATM   22  N   UNL     1     -11.202   8.892  70.599  1.00  0.00    -0.262 NA 
BRANCH  22  23
HETATM   23  C   UNL     1     -11.915   8.760  71.875  1.00  0.00    -0.365 C  
BRANCH  23  24
HETATM   24  C   UNL     1     -13.387   8.341  71.713  1.00  0.00    -0.352 C  
HETATM   25  O   UNL     1     -13.590   6.978  72.084  1.00  0.00    -0.539 OA 
HETATM   26  H   UNL     1     -14.498   6.719  71.984  1.00  0.00     0.000 HD 
ENDBRANCH  23  24
ENDBRANCH  22  23
BRANCH  22  27
HETATM   27  C   UNL     1     -11.028   7.712  69.749  1.00  0.00    -0.170 C  
BRANCH  27  28
HETATM   28  C   UNL     1     -10.367   6.551  70.516  1.00  0.00    -0.201 C  
HETATM   29  O   UNL     1     -10.642   5.293  69.897  1.00  0.00    -0.306 OA 
HETATM   30  H   UNL     1     -10.234   4.577  70.370  1.00  0.00     0.000 HD 
ENDBRANCH  27  28
ENDBRANCH  22  27
ENDBRANCH  12  22
BRANCH   7  31
HETATM   31  N   UNL     1     -12.329  13.395  70.808  1.00  0.00    -0.365 NA 
HETATM   32  C   UNL     1     -11.824  14.759  70.907  1.00  0.00    -0.322 C  
HETATM   33  C   UNL     1     -13.185  12.959  71.914  1.00  0.00    -0.423 C  
HETATM   34  C   UNL     1     -13.016  15.716  70.962  1.00  0.00    -0.518 C  
HETATM   35  C   UNL     1     -14.401  13.880  71.991  1.00  0.00    -0.477 C  
HETATM   36  C   UNL     1     -13.986  15.348  72.082  1.00  0.00    -0.649 C  
ENDBRANCH   7  31
ENDBRANCH   5   6
BRANCH   5  37
HETATM   37  C   UNL     1     -10.962  15.112  64.882  1.00  0.00    -0.419 C  
BRANCH  37  38
HETATM   38  C   UNL     1     -12.174  14.191  64.637  1.00  0.00    -0.445 C  
HETATM   39  O   UNL     1     -12.529  14.123  63.256  1.00  0.00    -1.146 OA 
HETATM   40  H   UNL     1     -13.275  13.556  63.106  1.00  0.00     0.000 HD 
ENDBRANCH  37  38
ENDBRANCH   5  37
ENDBRANCH   4   5
ENDBRANCH   3   4
TORSDOF 12
ENDMDL
MODEL       30
REMARK 921   NORMALIZED FREE ENERGY PREDICTED BY IDOCK:   -6.84 KCAL/MOL
REMARK 922        TOTAL FREE ENERGY PREDICTED BY IDOCK:  -12.56 KCAL/MOL
REMARK 923 INTER-LIGAND FREE ENERGY PREDICTED BY IDOCK:  -11.78 KCAL/MOL
REMARK 924 INTRA-LIGAND FREE ENERGY PREDICTED BY IDOCK:   -0.78 KCAL/MOL
REMARK 927      BINDING AFFINITY PREDICTED BY RF-SCORE:    0.00 PKD
ROOT
HETATM    1  O   UNL     1      -8.093   9.269  71.158  1.00  0.00    -0.298 OA 
HETATM    2  H   UNL     1      -7.350   8.814  70.779  1.00  0.00     0.000 HD 
HETATM    3  C   UNL     1      -9.301   8.524  71.014  1.00  0.00    -0.185 C  
ENDROOT
BRANCH   3   4
HETATM    4  C   UNL     1     -10.510   9.263  71.632  1.00  0.00    -0.258 C  
BRANCH   4   5
HETATM    5  N   UNL     1     -11.544   9.707  70.674  1.00  0.00    -0.284 NA 
BRANCH   5   6
HETATM    6  C   UNL     1     -11.185  10.770  69.865  1.00  0.00    -0.300 A  
HETATM    7  C   UNL     1     -11.467  14.404  69.690  1.00  0.00    -0.283 A  
HETATM    8  N   UNL     1     -11.019  15.425  68.918  1.00  0.00    -0.247 NA 
HETATM    9  N   UNL     1     -11.544  12.011  70.196  1.00  0.00    -0.214 NA 
HETATM   10  C   UNL     1     -11.134  13.061  69.432  1.00  0.00    -0.076 A  
HETATM   11  N   UNL     1     -10.457  10.525  68.783  1.00  0.00    -0.184 NA 
HETATM   12  C   UNL     1     -10.277  15.154  67.852  1.00  0.00    -0.232 A  
HETATM   13  C   UNL     1     -10.364  12.882  68.296  1.00  0.00    -0.244 A  
HETATM   14  C   UNL     1     -10.053  11.548  68.003  1.00  0.00    -0.186 A  
HETATM   15  N   UNL     1      -9.983  13.910  67.499  1.00  0.00    -0.237 NA 
BRANCH  14  16
HETATM   16  N   UNL     1      -9.362  11.183  66.853  1.00  0.00    -0.173 NA 
HETATM   17  C   UNL     1      -9.605  10.676  64.513  1.00  0.00    -0.341 C  
HETATM   18  C   UNL     1      -8.263   9.937  64.556  1.00  0.00    -0.162 C  
HETATM   19  C   UNL     1      -9.650  11.791  65.558  1.00  0.00    -0.201 C  
HETATM   20  C   UNL     1      -8.020  10.617  66.982  1.00  0.00    -0.121 C  
HETATM   21  C   UNL     1      -7.908   9.472  65.972  1.00  0.00    -0.100 C  
ENDBRANCH  14  16
BRANCH  12  22
HETATM   22  N   UNL     1      -9.770  16.179  67.083  1.00  0.00    -0.230 NA 
BRANCH  22  23
HETATM   23  C   UNL     1     -10.648  16.728  66.043  1.00  0.00    -0.228 C  
BRANCH  23  24
HETATM   24  C   UNL     1     -10.967  15.726  64.919  1.00  0.00    -0.427 C  
HETATM   25  O   UNL     1     -11.609  16.362  63.814  1.00  0.00    -1.605 OA 
HETATM   26  H   UNL     1     -11.806  15.743  63.121  1.00  0.00     0.000 HD 
ENDBRANCH  23  24
ENDBRANCH  22  23
BRANCH  22  27
HETATM   27  C   UNL     1      -8.665  16.994  67.593  1.00  0.00    -0.215 C  
BRANCH  27  28
HETATM   28  C   UNL     1      -7.315  16.563  66.991  1.00  0.00    -0.210 C  
HETATM   29  O   UNL     1      -6.511  15.872  67.950  1.00  0.00    -0.121 OA 
HETATM   30  H   UNL     1      -5.679  15.607  67.578  1.00  0.00     0.000 HD 
ENDBRANCH  27  28
ENDBRANCH  22  27
ENDBRANCH  12  22
BRANCH   7  31
HETATM   31  N   UNL     1     -12.239  14.815  70.776  1.00  0.00    -0.290 NA 
HETATM   32  C   UNL     1     -13.543  14.244  71.089  1.00  0.00    -0.238 C  
HETATM   33  C   UNL     1     -12.007  16.170  71.282  1.00  0.00    -0.353 C  
HETATM   34  C   UNL     1     -13.697  14.191  72.610  1.00  0.00    -0.568 C  
HETATM   35  C   UNL     1     -12.133  16.158  72.804  1.00  0.00    -0.653 C  
HETATM   36  C   UNL     1     -13.466  15.558  73.250  1.00  0.00    -0.512 C  
ENDBRANCH   7  31
ENDBRANCH   5   6
BRANCH   5  37
HETATM   37  C   UNL     1     -12.943   9.630  71.115  1.00  0.00    -0.309 C  
BRANCH  37  38
HETATM   38  C   UNL     1     -13.123   8.719  72.346  1.00  0.00    -0.391 C  
HETATM   39  O   UNL     1     -14.328   9.006  73.056  1.00  0.00    -1.108 OA 
HETATM   40  H   UNL     1     -14.438   8.445  73.815  1.00  0.00     0.000 HD 
ENDBRANCH  37  38
ENDBRANCH   5  37
ENDBRANCH   4   5
ENDBRANCH   3   4
TORSDOF 12
ENDMDL
MODEL       31
REMARK 921   NORMALIZED FREE ENERGY PREDICTED BY IDOCK:   -6.81 KCAL/MOL
REMARK 922        TOTAL FREE ENERGY PREDICTED BY IDOCK:  -12.51 KCAL/MOL
REMARK 923 INTER-LIGAND FREE ENERGY PREDICTED BY IDOCK:  -10.53 KCAL/MOL
REMARK 924 INTRA-LIGAND FREE ENERGY PREDICTED BY IDOCK:   -1.99 KCAL/MOL
REMARK 927      BINDING AFFINITY PREDICTED BY RF-SCORE:    0.00 PKD
ROOT
HETATM    1  O   UNL     1     -13.675  14.015  72.903  1.00  0.00    -0.677 OA 
HETATM    2  H   UNL     1     -14.341  14.130  73.571  1.00  0.00     0.000 HD 
HETATM    3  C   UNL     1     -13.762  12.733  72.282  1.00  0.00    -0.400 C  
ENDROOT
BRANCH   3   4
HETATM    4  C   UNL     1     -12.679  12.546  71.196  1.00  0.00    -0.245 C  
BRANCH   4   5
HETATM    5  N   UNL     1     -12.387  11.146  70.819  1.00  0.00    -0.382 NA 
BRANCH   5   6
HETATM    6  C   UNL     1     -11.729  10.983  69.613  1.00  0.00    -0.329 A  
HETATM    7  C   UNL     1      -9.731   8.526  67.799  1.00  0.00    -0.162 A  
HETATM    8  N   UNL     1      -9.174   8.371  66.573  1.00  0.00    -0.176 NA 
HETATM    9  N   UNL     1     -11.060   9.856  69.366  1.00  0.00    -0.223 NA 
HETATM   10  C   UNL     1     -10.467   9.673  68.154  1.00  0.00    -0.222 A  
HETATM   11  N   UNL     1     -11.808  11.953  68.712  1.00  0.00    -0.319 NA 
HETATM   12  C   UNL     1      -9.284   9.349  65.683  1.00  0.00    -0.226 A  
HETATM   13  C   UNL     1     -10.517  10.637  67.163  1.00  0.00    -0.245 A  
HETATM   14  C   UNL     1     -11.216  11.800  67.511  1.00  0.00    -0.291 A  
HETATM   15  N   UNL     1      -9.897  10.491  65.966  1.00  0.00    -0.211 NA 
BRANCH  14  16
HETATM   16  N   UNL     1     -11.288  12.902  66.665  1.00  0.00    -0.301 NA 
HETATM   17  C   UNL     1     -11.696  13.594  64.398  1.00  0.00    -0.444 C  
HETATM   18  C   UNL     1     -10.959  14.906  64.688  1.00  0.00    -0.323 C  
HETATM   19  C   UNL     1     -12.342  13.037  65.666  1.00  0.00    -0.446 C  
HETATM   20  C   UNL     1     -10.679  14.161  67.091  1.00  0.00    -0.280 C  
HETATM   21  C   UNL     1      -9.991  14.772  65.867  1.00  0.00    -0.351 C  
ENDBRANCH  14  16
BRANCH  12  22
HETATM   22  N   UNL     1      -8.770   9.192  64.414  1.00  0.00    -0.183 NA 
BRANCH  22  23
HETATM   23  C   UNL     1      -8.165  10.374  63.790  1.00  0.00    -0.122 C  
BRANCH  23  24
HETATM   24  C   UNL     1      -8.884  10.824  62.505  1.00  0.00    -0.296 C  
HETATM   25  O   UNL     1     -10.293  10.619  62.593  1.00  0.00    -0.752 OA 
HETATM   26  H   UNL     1     -10.737  10.897  61.800  1.00  0.00     0.000 HD 
ENDBRANCH  23  24
ENDBRANCH  22  23
BRANCH  22  27
HETATM   27  C   UNL     1      -8.391   7.858  63.943  1.00  0.00     0.078 C  
BRANCH  27  28
HETATM   28  C   UNL     1      -6.863   7.661  63.961  1.00  0.00    -0.054 C  
HETATM   29  O   UNL     1      -6.377   7.469  65.291  1.00  0.00    -0.038 OA 
HETATM   30  H   UNL     1      -5.435   7.348  65.301  1.00  0.00     0.000 HD 
ENDBRANCH  27  28
ENDBRANCH  22  27
ENDBRANCH  12  22
BRANCH   7  31
HETATM   31  N   UNL     1      -9.544   7.434  68.645  1.00  0.00    -0.146 NA 
HETATM   32  C   UNL     1     -10.626   6.542  69.047  1.00  0.00    -0.245 C  
HETATM   33  C   UNL     1      -8.401   7.487  69.559  1.00  0.00    -0.131 C  
HETATM   34  C   UNL     1     -10.068   5.122  69.156  1.00  0.00    -0.274 C  
HETATM   35  C   UNL     1      -7.801   6.087  69.681  1.00  0.00    -0.102 C  
HETATM   36  C   UNL     1      -8.857   5.059  70.084  1.00  0.00    -0.138 C  
ENDBRANCH   7  31
ENDBRANCH   5   6
BRANCH   5  37
HETATM   37  C   UNL     1     -13.379  10.131  71.196  1.00  0.00    -0.295 C  
BRANCH  37  38
HETATM   38  C   UNL     1     -12.922   9.279  72.398  1.00  0.00    -0.377 C  
HETATM   39  O   UNL     1     -14.019   8.861  73.210  1.00  0.00    -1.203 OA 
HETATM   40  H   UNL     1     -13.737   8.336  73.950  1.00  0.00     0.000 HD 
ENDBRANCH  37  38
ENDBRANCH   5  37
ENDBRANCH   4   5
ENDBRANCH   3   4
TORSDOF 12
ENDMDL
MODEL       32
REMARK 921   NORMALIZED FREE ENERGY PREDICTED BY IDOCK:   -6.77 KCAL/MOL
REMARK 922        TOTAL FREE ENERGY PREDICTED BY IDOCK:  -12.44 KCAL/MOL
REMARK 923 INTER-LIGAND FREE ENERGY PREDICTED BY IDOCK:  -11.51 KCAL/MOL
REMARK 924 INTRA-LIGAND FREE ENERGY PREDICTED BY IDOCK:   -0.93 KCAL/MOL
REMARK 927      BINDING AFFINITY PREDICTED BY RF-SCORE:    0.00 PKD
ROOT
HETATM    1  O   UNL     1     -13.989   7.187  72.001  1.00  0.00    -0.545 OA 
HETATM    2  H   UNL     1     -14.556   6.799  71.345  1.00  0.00     0.000 HD 
HETATM    3  C   UNL     1     -12.686   7.458  71.487  1.00  0.00    -0.372 C  
ENDROOT
BRANCH   3   4
HETATM    4  C   UNL     1     -11.766   8.091  72.555  1.00  0.00    -0.387 C  
BRANCH   4   5
HETATM    5  N   UNL     1     -10.580   8.803  72.035  1.00  0.00    -0.345 NA 
BRANCH   5   6
HETATM    6  C   UNL     1     -10.737   9.384  70.789  1.00  0.00    -0.305 A  
HETATM    7  C   UNL     1     -11.873  12.489  69.246  1.00  0.00    -0.304 A  
HETATM    8  N   UNL     1     -11.928  13.054  68.014  1.00  0.00    -0.337 NA 
HETATM    9  N   UNL     1     -11.247  10.611  70.685  1.00  0.00    -0.218 NA 
HETATM   10  C   UNL     1     -11.341  11.204  69.462  1.00  0.00    -0.290 A  
HETATM   11  N   UNL     1     -10.344   8.705  69.719  1.00  0.00    -0.207 NA 
HETATM   12  C   UNL     1     -11.510  12.361  66.964  1.00  0.00    -0.358 A  
HETATM   13  C   UNL     1     -10.940  10.560  68.305  1.00  0.00    -0.263 A  
HETATM   14  C   UNL     1     -10.442   9.265  68.497  1.00  0.00    -0.206 A  
HETATM   15  N   UNL     1     -11.066  11.116  67.075  1.00  0.00    -0.294 NA 
BRANCH  14  16
HETATM   16  N   UNL     1     -10.077   8.446  67.434  1.00  0.00    -0.214 NA 
HETATM   17  C   UNL     1      -9.829   6.158  66.733  1.00  0.00    -0.203 C  
HETATM   18  C   UNL     1      -8.883   6.623  65.621  1.00  0.00    -0.050 C  
HETATM   19  C   UNL     1     -10.838   7.250  67.087  1.00  0.00    -0.308 C  
HETATM   20  C   UNL     1      -9.293   9.016  66.339  1.00  0.00    -0.206 C  
HETATM   21  C   UNL     1      -8.241   7.977  65.942  1.00  0.00    -0.127 C  
ENDBRANCH  14  16
BRANCH  12  22
HETATM   22  N   UNL     1     -11.511  12.934  65.711  1.00  0.00    -0.322 NA 
BRANCH  22  23
HETATM   23  C   UNL     1     -12.136  14.256  65.584  1.00  0.00    -0.393 C  
BRANCH  23  24
HETATM   24  C   UNL     1     -11.254  15.283  64.851  1.00  0.00    -0.415 C  
HETATM   25  O   UNL     1     -11.937  15.868  63.744  1.00  0.00    -1.238 OA 
HETATM   26  H   UNL     1     -11.393  16.502  63.291  1.00  0.00     0.000 HD 
ENDBRANCH  23  24
ENDBRANCH  22  23
BRANCH  22  27
HETATM   27  C   UNL     1     -10.524  12.509  64.715  1.00  0.00    -0.311 C  
BRANCH  27  28
HETATM   28  C   UNL     1     -11.154  11.604  63.641  1.00  0.00    -0.425 C  
HETATM   29  O   UNL     1     -12.388  12.141  63.162  1.00  0.00    -0.732 OA 
HETATM   30  H   UNL     1     -12.776  11.582  62.499  1.00  0.00     0.000 HD 
ENDBRANCH  27  28
ENDBRANCH  22  27
ENDBRANCH  12  22
BRANCH   7  31
HETATM   31  N   UNL     1     -12.343  13.314  70.266  1.00  0.00    -0.298 NA 
HETATM   32  C   UNL     1     -13.654  13.150  70.884  1.00  0.00     0.633 C  
HETATM   33  C   UNL     1     -11.772  14.660  70.351  1.00  0.00    -0.295 C  
HETATM   34  C   UNL     1     -13.538  13.499  72.369  1.00  0.00    -0.709 C  
HETATM   35  C   UNL     1     -11.620  15.041  71.823  1.00  0.00    -0.425 C  
HETATM   36  C   UNL     1     -12.941  14.889  72.579  1.00  0.00    -0.472 C  
ENDBRANCH   7  31
ENDBRANCH   5   6
BRANCH   5  37
HETATM   37  C   UNL     1      -9.263   8.240  72.361  1.00  0.00    -0.256 C  
BRANCH  37  38
HETATM   38  C   UNL     1      -9.336   7.182  73.481  1.00  0.00    -0.191 C  
HETATM   39  O   UNL     1      -8.200   6.319  73.482  1.00  0.00    -0.116 OA 
HETATM   40  H   UNL     1      -8.245   5.668  74.172  1.00  0.00     0.000 HD 
ENDBRANCH  37  38
ENDBRANCH   5  37
ENDBRANCH   4   5
ENDBRANCH   3   4
TORSDOF 12
ENDMDL
MODEL       33
REMARK 921   NORMALIZED FREE ENERGY PREDICTED BY IDOCK:   -6.76 KCAL/MOL
REMARK 922        TOTAL FREE ENERGY PREDICTED BY IDOCK:  -12.43 KCAL/MOL
REMARK 923 INTER-LIGAND FREE ENERGY PREDICTED BY IDOCK:  -11.34 KCAL/MOL
REMARK 924 INTRA-LIGAND FREE ENERGY PREDICTED BY IDOCK:   -1.09 KCAL/MOL
REMARK 927      BINDING AFFINITY PREDICTED BY RF-SCORE:    0.00 PKD
ROOT
HETATM    1  O   UNL     1     -12.398  13.863  63.163  1.00  0.00    -1.122 OA 
HETATM    2  H   UNL     1     -13.256  13.912  62.757  1.00  0.00     0.000 HD 
HETATM    3  C   UNL     1     -12.038  12.520  63.483  1.00  0.00    -0.562 C  
ENDROOT
BRANCH   3   4
HETATM    4  C   UNL     1     -10.642  12.440  64.142  1.00  0.00    -0.385 C  
BRANCH   4   5
HETATM    5  N   UNL     1     -10.070  11.083  64.263  1.00  0.00    -0.310 NA 
BRANCH   5   6
HETATM    6  C   UNL     1     -10.227  10.483  65.500  1.00  0.00    -0.256 A  
HETATM    7  C   UNL     1     -11.302  11.263  68.899  1.00  0.00    -0.275 A  
HETATM    8  N   UNL     1     -11.526  10.618  70.070  1.00  0.00    -0.299 NA 
HETATM    9  N   UNL     1     -10.652  11.201  66.540  1.00  0.00    -0.256 NA 
HETATM   10  C   UNL     1     -10.865  10.593  67.740  1.00  0.00    -0.286 A  
HETATM   11  N   UNL     1      -9.975   9.185  65.611  1.00  0.00    -0.126 NA 
HETATM   12  C   UNL     1     -11.284   9.316  70.149  1.00  0.00    -0.208 A  
HETATM   13  C   UNL     1     -10.635   9.242  67.926  1.00  0.00    -0.231 A  
HETATM   14  C   UNL     1     -10.165   8.565  66.793  1.00  0.00    -0.300 A  
HETATM   15  N   UNL     1     -10.800   8.627  69.124  1.00  0.00    -0.110 NA 
BRANCH  14  16
HETATM   16  N   UNL     1      -9.800   7.224  66.829  1.00  0.00    -0.210 NA 
HETATM   17  C   UNL     1      -8.039   5.669  66.309  1.00  0.00    -0.107 C  
HETATM   18  C   UNL     1      -9.069   4.534  66.311  1.00  0.00    -0.123 C  
HETATM   19  C   UNL     1      -8.467   6.800  67.244  1.00  0.00    -0.120 C  
HETATM   20  C   UNL     1     -10.844   6.211  66.981  1.00  0.00    -0.356 C  
HETATM   21  C   UNL     1     -10.489   5.047  66.052  1.00  0.00    -0.289 C  
ENDBRANCH  14  16
BRANCH  12  22
HETATM   22  N   UNL     1     -11.553   8.631  71.314  1.00  0.00    -0.273 NA 
BRANCH  22  23
HETATM   23  C   UNL     1     -10.542   7.670  71.770  1.00  0.00    -0.214 C  
BRANCH  23  24
HETATM   24  C   UNL     1      -9.718   8.172  72.970  1.00  0.00    -0.257 C  
HETATM   25  O   UNL     1      -8.583   8.928  72.549  1.00  0.00    -0.396 OA 
HETATM   26  H   UNL     1      -8.075   9.238  73.289  1.00  0.00     0.000 HD 
ENDBRANCH  23  24
ENDBRANCH  22  23
BRANCH  22  27
HETATM   27  C   UNL     1     -12.503   9.184  72.281  1.00  0.00    -0.333 C  
BRANCH  27  28
HETATM   28  C   UNL     1     -13.946   8.738  71.981  1.00  0.00    -0.451 C  
HETATM   29  O   UNL     1     -13.976   7.670  71.032  1.00  0.00    -0.638 OA 
HETATM   30  H   UNL     1     -14.866   7.395  70.847  1.00  0.00     0.000 HD 
ENDBRANCH  27  28
ENDBRANCH  22  27
ENDBRANCH  12  22
BRANCH   7  31
HETATM   31  N   UNL     1     -11.589  12.627  68.943  1.00  0.00    -0.296 NA 
HETATM   32  C   UNL     1     -11.978  13.321  70.165  1.00  0.00    -0.318 C  
HETATM   33  C   UNL     1     -12.028  13.255  67.695  1.00  0.00    -0.322 C  
HETATM   34  C   UNL     1     -11.381  14.729  70.134  1.00  0.00    -0.291 C  
HETATM   35  C   UNL     1     -11.436  14.662  67.615  1.00  0.00    -0.364 C  
HETATM   36  C   UNL     1     -11.769  15.480  68.862  1.00  0.00    -0.385 C  
ENDBRANCH   7  31
ENDBRANCH   5   6
BRANCH   5  37
HETATM   37  C   UNL     1      -8.829  10.810  63.527  1.00  0.00    -0.147 C  
BRANCH  37  38
HETATM   38  C   UNL     1      -9.046   9.849  62.341  1.00  0.00    -0.290 C  
HETATM   39  O   UNL     1      -8.864   8.483  62.715  1.00  0.00    -0.433 OA 
HETATM   40  H   UNL     1      -8.998   7.891  61.984  1.00  0.00     0.000 HD 
ENDBRANCH  37  38
ENDBRANCH   5  37
ENDBRANCH   4   5
ENDBRANCH   3   4
TORSDOF 12
ENDMDL
MODEL       34
REMARK 921   NORMALIZED FREE ENERGY PREDICTED BY IDOCK:   -6.73 KCAL/MOL
REMARK 922        TOTAL FREE ENERGY PREDICTED BY IDOCK:  -12.36 KCAL/MOL
REMARK 923 INTER-LIGAND FREE ENERGY PREDICTED BY IDOCK:  -11.39 KCAL/MOL
REMARK 924 INTRA-LIGAND FREE ENERGY PREDICTED BY IDOCK:   -0.97 KCAL/MOL
REMARK 927      BINDING AFFINITY PREDICTED BY RF-SCORE:    0.00 PKD
ROOT
HETATM    1  O   UNL     1     -11.987  15.988  63.751  1.00  0.00    -1.339 OA 
HETATM    2  H   UNL     1     -12.162  15.756  62.846  1.00  0.00     0.000 HD 
HETATM    3  C   UNL     1     -11.398  14.907  64.472  1.00  0.00    -0.300 C  
ENDROOT
BRANCH   3   4
HETATM    4  C   UNL     1     -11.113  15.284  65.944  1.00  0.00    -0.287 C  
BRANCH   4   5
HETATM    5  N   UNL     1      -9.868  14.728  66.516  1.00  0.00    -0.260 NA 
BRANCH   5   6
HETATM    6  C   UNL     1     -10.019  13.554  67.233  1.00  0.00    -0.236 A  
HETATM    7  C   UNL     1     -11.814  12.219  70.116  1.00  0.00    -0.272 A  
HETATM    8  N   UNL     1     -12.002  11.029  70.737  1.00  0.00    -0.343 NA 
HETATM    9  N   UNL     1     -10.811  13.525  68.305  1.00  0.00    -0.251 NA 
HETATM   10  C   UNL     1     -11.007  12.353  68.970  1.00  0.00    -0.197 A  
HETATM   11  N   UNL     1      -9.386  12.468  66.810  1.00  0.00    -0.225 NA 
HETATM   12  C   UNL     1     -11.372   9.954  70.282  1.00  0.00    -0.291 A  
HETATM   13  C   UNL     1     -10.388  11.179  68.579  1.00  0.00    -0.193 A  
HETATM   14  C   UNL     1      -9.552  11.300  67.461  1.00  0.00    -0.170 A  
HETATM   15  N   UNL     1     -10.536  10.012  69.254  1.00  0.00    -0.210 NA 
BRANCH  14  16
HETATM   16  N   UNL     1      -8.788  10.239  66.989  1.00  0.00    -0.136 NA 
HETATM   17  C   UNL     1      -8.890   7.996  66.125  1.00  0.00    -0.198 C  
HETATM   18  C   UNL     1      -7.420   7.801  66.515  1.00  0.00    -0.088 C  
HETATM   19  C   UNL     1      -9.186   9.464  65.819  1.00  0.00    -0.219 C  
HETATM   20  C   UNL     1      -7.356  10.211  67.288  1.00  0.00    -0.090 C  
HETATM   21  C   UNL     1      -6.989   8.764  67.626  1.00  0.00    -0.075 C  
ENDBRANCH  14  16
BRANCH  12  22
HETATM   22  N   UNL     1     -11.589   8.725  70.867  1.00  0.00    -0.282 NA 
BRANCH  22  23
HETATM   23  C   UNL     1     -10.793   7.599  70.364  1.00  0.00    -0.244 C  
BRANCH  23  24
HETATM   24  C   UNL     1     -11.306   6.227  70.838  1.00  0.00    -0.325 C  
HETATM   25  O   UNL     1     -10.230   5.335  71.127  1.00  0.00    -0.205 OA 
HETATM   26  H   UNL     1     -10.547   4.488  71.419  1.00  0.00     0.000 HD 
ENDBRANCH  23  24
ENDBRANCH  22  23
BRANCH  22  27
HETATM   27  C   UNL     1     -12.169   8.650  72.209  1.00  0.00    -0.378 C  
BRANCH  27  28
HETATM   28  C   UNL     1     -13.708   8.691  72.167  1.00  0.00    -0.415 C  
HETATM   29  O   UNL     1     -14.262   8.893  73.469  1.00  0.00    -1.194 OA 
HETATM   30  H   UNL     1     -15.211   8.918  73.442  1.00  0.00     0.000 HD 
ENDBRANCH  27  28
ENDBRANCH  22  27
ENDBRANCH  12  22
BRANCH   7  31
HETATM   31  N   UNL     1     -12.525  13.273  70.688  1.00  0.00    -0.328 NA 
HETATM   32  C   UNL     1     -13.409  13.108  71.837  1.00  0.00    -0.455 C  
HETATM   33  C   UNL     1     -12.818  14.423  69.830  1.00  0.00     0.084 C  
HETATM   34  C   UNL     1     -13.309  14.360  72.709  1.00  0.00    -0.606 C  
HETATM   35  C   UNL     1     -12.710  15.700  70.661  1.00  0.00    -0.443 C  
HETATM   36  C   UNL     1     -13.589  15.630  71.910  1.00  0.00    -0.521 C  
ENDBRANCH   7  31
ENDBRANCH   5   6
BRANCH   5  37
HETATM   37  C   UNL     1      -8.860  15.687  66.984  1.00  0.00    -0.225 C  
BRANCH  37  38
HETATM   38  C   UNL     1      -9.480  16.852  67.782  1.00  0.00    -0.237 C  
HETATM   39  O   UNL     1      -9.919  16.444  69.078  1.00  0.00    -0.242 OA 
HETATM   40  H   UNL     1     -10.300  17.161  69.569  1.00  0.00     0.000 HD 
ENDBRANCH  37  38
ENDBRANCH   5  37
ENDBRANCH   4   5
ENDBRANCH   3   4
TORSDOF 12
ENDMDL
MODEL       35
REMARK 921   NORMALIZED FREE ENERGY PREDICTED BY IDOCK:   -6.72 KCAL/MOL
REMARK 922        TOTAL FREE ENERGY PREDICTED BY IDOCK:  -12.35 KCAL/MOL
REMARK 923 INTER-LIGAND FREE ENERGY PREDICTED BY IDOCK:  -11.28 KCAL/MOL
REMARK 924 INTRA-LIGAND FREE ENERGY PREDICTED BY IDOCK:   -1.07 KCAL/MOL
REMARK 927      BINDING AFFINITY PREDICTED BY RF-SCORE:    0.00 PKD
ROOT
HETATM    1  O   UNL     1     -10.659   4.956  72.555  1.00  0.00    -0.206 OA 
HETATM    2  H   UNL     1     -10.768   4.287  73.221  1.00  0.00     0.000 HD 
HETATM    3  C   UNL     1     -11.773   5.847  72.508  1.00  0.00    -0.236 C  
ENDROOT
BRANCH   3   4
HETATM    4  C   UNL     1     -11.595   6.935  71.426  1.00  0.00    -0.299 C  
BRANCH   4   5
HETATM    5  N   UNL     1     -11.156   8.259  71.916  1.00  0.00    -0.271 NA 
BRANCH   5   6
HETATM    6  C   UNL     1     -11.258   9.292  71.002  1.00  0.00    -0.321 A  
HETATM    7  C   UNL     1     -10.598  10.027  67.490  1.00  0.00    -0.280 A  
HETATM    8  N   UNL     1     -10.797  11.036  66.605  1.00  0.00    -0.252 NA 
HETATM    9  N   UNL     1     -10.847   9.114  69.746  1.00  0.00    -0.227 NA 
HETATM   10  C   UNL     1     -11.007  10.112  68.834  1.00  0.00    -0.223 A  
HETATM   11  N   UNL     1     -11.796  10.438  71.399  1.00  0.00    -0.293 NA 
HETATM   12  C   UNL     1     -11.354  12.164  67.024  1.00  0.00    -0.337 A  
HETATM   13  C   UNL     1     -11.570  11.330  69.174  1.00  0.00    -0.319 A  
HETATM   14  C   UNL     1     -11.950  11.446  70.517  1.00  0.00    -0.356 A  
HETATM   15  N   UNL     1     -11.698  12.351  68.291  1.00  0.00    -0.332 NA 
BRANCH  14  16
HETATM   16  N   UNL     1     -12.451  12.630  71.046  1.00  0.00    -0.335 NA 
HETATM   17  C   UNL     1     -14.401  13.666  72.002  1.00  0.00    -0.287 C  
HETATM   18  C   UNL     1     -13.820  15.039  71.645  1.00  0.00    -0.571 C  
HETATM   19  C   UNL     1     -13.289  12.646  72.241  1.00  0.00    -0.422 C  
HETATM   20  C   UNL     1     -11.744  13.881  70.774  1.00  0.00    -0.066 C  
HETATM   21  C   UNL     1     -12.803  14.953  70.503  1.00  0.00    -0.376 C  
ENDBRANCH  14  16
BRANCH  12  22
HETATM   22  N   UNL     1     -11.611  13.182  66.131  1.00  0.00    -0.338 NA 
BRANCH  22  23
HETATM   23  C   UNL     1     -12.646  12.936  65.120  1.00  0.00    -0.471 C  
BRANCH  23  24
HETATM   24  C   UNL     1     -12.113  12.969  63.677  1.00  0.00    -0.531 C  
HETATM   25  O   UNL     1     -12.448  14.191  63.020  1.00  0.00    -1.077 OA 
HETATM   26  H   UNL     1     -12.118  14.211  62.129  1.00  0.00     0.000 HD 
ENDBRANCH  23  24
ENDBRANCH  22  23
BRANCH  22  27
HETATM   27  C   UNL     1     -11.263  14.561  66.480  1.00  0.00    -0.344 C  
BRANCH  27  28
HETATM   28  C   UNL     1      -9.935  14.995  65.831  1.00  0.00    -0.326 C  
HETATM   29  O   UNL     1     -10.092  15.241  64.432  1.00  0.00    -0.322 OA 
HETATM   30  H   UNL     1      -9.273  15.508  64.033  1.00  0.00     0.000 HD 
ENDBRANCH  27  28
ENDBRANCH  22  27
ENDBRANCH  12  22
BRANCH   7  31
HETATM   31  N   UNL     1     -10.002   8.898  66.932  1.00  0.00    -0.222 NA 
HETATM   32  C   UNL     1      -9.055   8.960  65.824  1.00  0.00    -0.221 C  
HETATM   33  C   UNL     1     -10.714   7.627  67.080  1.00  0.00    -0.270 C  
HETATM   34  C   UNL     1      -8.001   7.871  66.025  1.00  0.00    -0.103 C  
HETATM   35  C   UNL     1      -9.695   6.511  67.302  1.00  0.00    -0.160 C  
HETATM   36  C   UNL     1      -8.636   6.493  66.200  1.00  0.00    -0.146 C  
ENDBRANCH   7  31
ENDBRANCH   5   6
BRANCH   5  37
HETATM   37  C   UNL     1     -10.024   8.285  72.851  1.00  0.00    -0.226 C  
BRANCH  37  38
HETATM   38  C   UNL     1      -8.681   7.975  72.158  1.00  0.00    -0.157 C  
HETATM   39  O   UNL     1      -7.792   9.091  72.184  1.00  0.00    -0.355 OA 
HETATM   40  H   UNL     1      -6.965   8.900  71.758  1.00  0.00     0.000 HD 
ENDBRANCH  37  38
ENDBRANCH   5  37
ENDBRANCH   4   5
ENDBRANCH   3   4
TORSDOF 12
ENDMDL
MODEL       36
REMARK 921   NORMALIZED FREE ENERGY PREDICTED BY IDOCK:   -6.71 KCAL/MOL
REMARK 922        TOTAL FREE ENERGY PREDICTED BY IDOCK:  -12.33 KCAL/MOL
REMARK 923 INTER-LIGAND FREE ENERGY PREDICTED BY IDOCK:  -10.24 KCAL/MOL
REMARK 924 INTRA-LIGAND FREE ENERGY PREDICTED BY IDOCK:   -2.09 KCAL/MOL
REMARK 927      BINDING AFFINITY PREDICTED BY RF-SCORE:    0.00 PKD
ROOT
HETATM    1  O   UNL     1     -14.288   9.171  73.111  1.00  0.00    -1.102 OA 
HETATM    2  H   UNL     1     -15.137   8.748  73.160  1.00  0.00     0.000 HD 
HETATM    3  C   UNL     1     -14.046   9.732  71.822  1.00  0.00     0.098 C  
ENDROOT
BRANCH   3   4
HETATM    4  C   UNL     1     -12.665  10.420  71.743  1.00  0.00    -0.421 C  
BRANCH   4   5
HETATM    5  N   UNL     1     -12.598  11.621  70.883  1.00  0.00    -0.348 NA 
BRANCH   5   6
HETATM    6  C   UNL     1     -11.920  11.456  69.689  1.00  0.00    -0.348 A  
HETATM    7  C   UNL     1     -10.098   8.916  67.805  1.00  0.00    -0.210 A  
HETATM    8  N   UNL     1      -9.520   8.771  66.587  1.00  0.00    -0.185 NA 
HETATM    9  N   UNL     1     -11.349  10.285  69.402  1.00  0.00    -0.237 NA 
HETATM   10  C   UNL     1     -10.737  10.108  68.198  1.00  0.00    -0.244 A  
HETATM   11  N   UNL     1     -11.881  12.472  68.837  1.00  0.00    -0.311 NA 
HETATM   12  C   UNL     1      -9.512   9.797  65.746  1.00  0.00    -0.240 A  
HETATM   13  C   UNL     1     -10.668  11.119  67.257  1.00  0.00    -0.258 A  
HETATM   14  C   UNL     1     -11.268  12.324  67.645  1.00  0.00    -0.290 A  
HETATM   15  N   UNL     1     -10.027  10.975  66.071  1.00  0.00    -0.228 NA 
BRANCH  14  16
HETATM   16  N   UNL     1     -11.214  13.467  66.857  1.00  0.00    -0.303 NA 
HETATM   17  C   UNL     1     -11.816  14.389  64.717  1.00  0.00    -0.439 C  
HETATM   18  C   UNL     1     -10.746  15.471  64.906  1.00  0.00    -0.415 C  
HETATM   19  C   UNL     1     -12.356  13.912  66.065  1.00  0.00    -0.475 C  
HETATM   20  C   UNL     1     -10.257  14.519  67.200  1.00  0.00    -0.260 C  
HETATM   21  C   UNL     1      -9.656  15.035  65.890  1.00  0.00    -0.356 C  
ENDBRANCH  14  16
BRANCH  12  22
HETATM   22  N   UNL     1      -8.975   9.655  64.485  1.00  0.00    -0.228 NA 
BRANCH  22  23
HETATM   23  C   UNL     1      -7.864   8.708  64.338  1.00  0.00    -0.138 C  
BRANCH  23  24
HETATM   24  C   UNL     1      -6.516   9.264  64.832  1.00  0.00    -0.075 C  
HETATM   25  O   UNL     1      -6.176  10.482  64.171  1.00  0.00    -0.310 OA 
HETATM   26  H   UNL     1      -5.344  10.825  64.475  1.00  0.00     0.000 HD 
ENDBRANCH  23  24
ENDBRANCH  22  23
BRANCH  22  27
HETATM   27  C   UNL     1      -9.772  10.014  63.310  1.00  0.00     0.104 C  
BRANCH  27  28
HETATM   28  C   UNL     1      -9.487  11.455  62.848  1.00  0.00    -0.345 C  
HETATM   29  O   UNL     1      -8.145  11.597  62.377  1.00  0.00    -0.646 OA 
HETATM   30  H   UNL     1      -7.970  12.486  62.092  1.00  0.00     0.000 HD 
ENDBRANCH  27  28
ENDBRANCH  22  27
ENDBRANCH  12  22
BRANCH   7  31
HETATM   31  N   UNL     1     -10.039   7.772  68.597  1.00  0.00    -0.194 NA 
HETATM   32  C   UNL     1      -8.821   7.324  69.263  1.00  0.00    -0.136 C  
HETATM   33  C   UNL     1     -11.031   6.727  68.334  1.00  0.00    -0.187 C  
HETATM   34  C   UNL     1      -9.202   6.712  70.612  1.00  0.00    -0.159 C  
HETATM   35  C   UNL     1     -11.454   6.101  69.662  1.00  0.00    -0.332 C  
HETATM   36  C   UNL     1     -10.246   5.609  70.458  1.00  0.00    -0.297 C  
ENDBRANCH   7  31
ENDBRANCH   5   6
BRANCH   5  37
HETATM   37  C   UNL     1     -12.485  12.921  71.556  1.00  0.00    -0.056 C  
BRANCH  37  38
HETATM   38  C   UNL     1     -13.722  13.813  71.327  1.00  0.00    -0.038 C  
HETATM   39  O   UNL     1     -13.421  14.957  70.529  1.00  0.00    -0.628 OA 
HETATM   40  H   UNL     1     -14.183  15.506  70.387  1.00  0.00     0.000 HD 
ENDBRANCH  37  38
ENDBRANCH   5  37
ENDBRANCH   4   5
ENDBRANCH   3   4
TORSDOF 12
ENDMDL
MODEL       37
REMARK 921   NORMALIZED FREE ENERGY PREDICTED BY IDOCK:   -6.70 KCAL/MOL
REMARK 922        TOTAL FREE ENERGY PREDICTED BY IDOCK:  -12.33 KCAL/MOL
REMARK 923 INTER-LIGAND FREE ENERGY PREDICTED BY IDOCK:  -10.90 KCAL/MOL
REMARK 924 INTRA-LIGAND FREE ENERGY PREDICTED BY IDOCK:   -1.43 KCAL/MOL
REMARK 927      BINDING AFFINITY PREDICTED BY RF-SCORE:    0.00 PKD
ROOT
HETATM    1  O   UNL     1     -14.397   8.805  73.445  1.00  0.00    -1.155 OA 
HETATM    2  H   UNL     1     -15.076   9.358  73.815  1.00  0.00     0.000 HD 
HETATM    3  C   UNL     1     -13.791   9.402  72.299  1.00  0.00    -0.371 C  
ENDROOT
BRANCH   3   4
HETATM    4  C   UNL     1     -12.687   8.504  71.698  1.00  0.00    -0.332 C  
BRANCH   4   5
HETATM    5  N   UNL     1     -11.374   9.153  71.499  1.00  0.00    -0.342 NA 
BRANCH   5   6
HETATM    6  C   UNL     1     -11.154   9.667  70.233  1.00  0.00    -0.276 A  
HETATM    7  C   UNL     1     -10.048   8.626  66.916  1.00  0.00    -0.285 A  
HETATM    8  N   UNL     1      -9.931   9.149  65.670  1.00  0.00    -0.126 NA 
HETATM    9  N   UNL     1     -10.692   8.878  69.263  1.00  0.00    -0.202 NA 
HETATM   10  C   UNL     1     -10.538   9.373  68.005  1.00  0.00    -0.226 A  
HETATM   11  N   UNL     1     -11.443  10.943  70.010  1.00  0.00    -0.308 NA 
HETATM   12  C   UNL     1     -10.244  10.422  65.470  1.00  0.00    -0.246 A  
HETATM   13  C   UNL     1     -10.828  10.690  67.696  1.00  0.00    -0.292 A  
HETATM   14  C   UNL     1     -11.283  11.459  68.775  1.00  0.00    -0.247 A  
HETATM   15  N   UNL     1     -10.640  11.212  66.459  1.00  0.00    -0.256 NA 
BRANCH  14  16
HETATM   16  N   UNL     1     -11.537  12.821  68.660  1.00  0.00    -0.292 NA 
HETATM   17  C   UNL     1     -11.334  14.724  67.202  1.00  0.00    -0.363 C  
HETATM   18  C   UNL     1     -11.465  15.645  68.421  1.00  0.00    -0.374 C  
HETATM   19  C   UNL     1     -12.068  13.404  67.432  1.00  0.00    -0.293 C  
HETATM   20  C   UNL     1     -11.798  13.597  69.872  1.00  0.00    -0.320 C  
HETATM   21  C   UNL     1     -11.071  14.936  69.721  1.00  0.00    -0.300 C  
ENDBRANCH  14  16
BRANCH  12  22
HETATM   22  N   UNL     1     -10.180  10.960  64.202  1.00  0.00    -0.341 NA 
BRANCH  22  23
HETATM   23  C   UNL     1     -10.491  12.387  64.069  1.00  0.00    -0.416 C  
BRANCH  23  24
HETATM   24  C   UNL     1     -11.901  12.657  63.514  1.00  0.00    -0.541 C  
HETATM   25  O   UNL     1     -12.911  12.080  64.341  1.00  0.00    -0.600 OA 
HETATM   26  H   UNL     1     -13.782  12.246  63.998  1.00  0.00     0.000 HD 
ENDBRANCH  23  24
ENDBRANCH  22  23
BRANCH  22  27
HETATM   27  C   UNL     1      -9.373  10.302  63.173  1.00  0.00    -0.312 C  
BRANCH  27  28
HETATM   28  C   UNL     1      -8.546  11.318  62.362  1.00  0.00    -0.154 C  
HETATM   29  O   UNL     1      -7.161  11.261  62.710  1.00  0.00    -0.277 OA 
HETATM   30  H   UNL     1      -6.652  11.887  62.210  1.00  0.00     0.000 HD 
ENDBRANCH  27  28
ENDBRANCH  22  27
ENDBRANCH  12  22
BRANCH   7  31
HETATM   31  N   UNL     1      -9.686   7.283  67.000  1.00  0.00    -0.168 NA 
HETATM   32  C   UNL     1      -8.302   6.825  66.956  1.00  0.00    -0.114 C  
HETATM   33  C   UNL     1     -10.687   6.296  66.589  1.00  0.00    -0.216 C  
HETATM   34  C   UNL     1      -8.159   5.621  67.888  1.00  0.00    -0.101 C  
HETATM   35  C   UNL     1     -10.592   5.081  67.510  1.00  0.00    -0.019 C  
HETATM   36  C   UNL     1      -9.169   4.524  67.555  1.00  0.00    -0.156 C  
ENDBRANCH   7  31
ENDBRANCH   5   6
BRANCH   5  37
HETATM   37  C   UNL     1     -10.225   8.572  72.206  1.00  0.00    -0.325 C  
BRANCH  37  38
HETATM   38  C   UNL     1     -10.608   7.324  73.027  1.00  0.00    -0.326 C  
HETATM   39  O   UNL     1     -10.634   7.587  74.429  1.00  0.00    -0.224 OA 
HETATM   40  H   UNL     1     -10.870   6.818  74.934  1.00  0.00     0.000 HD 
ENDBRANCH  37  38
ENDBRANCH   5  37
ENDBRANCH   4   5
ENDBRANCH   3   4
TORSDOF 12
ENDMDL
MODEL       38
REMARK 921   NORMALIZED FREE ENERGY PREDICTED BY IDOCK:   -6.70 KCAL/MOL
REMARK 922        TOTAL FREE ENERGY PREDICTED BY IDOCK:  -12.32 KCAL/MOL
REMARK 923 INTER-LIGAND FREE ENERGY PREDICTED BY IDOCK:  -11.67 KCAL/MOL
REMARK 924 INTRA-LIGAND FREE ENERGY PREDICTED BY IDOCK:   -0.65 KCAL/MOL
REMARK 927      BINDING AFFINITY PREDICTED BY RF-SCORE:    0.00 PKD
ROOT
HETATM    1  O   UNL     1     -12.488  11.541  62.926  1.00  0.00    -0.964 OA 
HETATM    2  H   UNL     1     -13.382  11.365  62.655  1.00  0.00     0.000 HD 
HETATM    3  C   UNL     1     -12.437  12.386  64.074  1.00  0.00    -0.459 C  
ENDROOT
BRANCH   3   4
HETATM    4  C   UNL     1     -10.983  12.671  64.515  1.00  0.00    -0.332 C  
BRANCH   4   5
HETATM    5  N   UNL     1     -10.834  13.420  65.780  1.00  0.00    -0.273 NA 
BRANCH   5   6
HETATM    6  C   UNL     1     -10.984  12.670  66.933  1.00  0.00    -0.262 A  
HETATM    7  C   UNL     1     -10.184   9.375  68.280  1.00  0.00    -0.196 A  
HETATM    8  N   UNL     1     -10.271   8.706  69.456  1.00  0.00    -0.204 NA 
HETATM    9  N   UNL     1     -10.530  11.417  66.977  1.00  0.00    -0.226 NA 
HETATM   10  C   UNL     1     -10.622  10.705  68.134  1.00  0.00    -0.202 A  
HETATM   11  N   UNL     1     -11.555  13.238  67.988  1.00  0.00    -0.314 NA 
HETATM   12  C   UNL     1     -10.830   9.303  70.500  1.00  0.00    -0.263 A  
HETATM   13  C   UNL     1     -11.196  11.235  69.276  1.00  0.00    -0.272 A  
HETATM   14  C   UNL     1     -11.670  12.546  69.139  1.00  0.00    -0.321 A  
HETATM   15  N   UNL     1     -11.335  10.527  70.424  1.00  0.00    -0.321 NA 
BRANCH  14  16
HETATM   16  N   UNL     1     -12.351  13.198  70.161  1.00  0.00    -0.258 NA 
HETATM   17  C   UNL     1     -12.296  15.096  71.638  1.00  0.00    -0.415 C  
HETATM   18  C   UNL     1     -13.272  14.371  72.572  1.00  0.00    -0.558 C  
HETATM   19  C   UNL     1     -12.490  14.650  70.189  1.00  0.00    -0.317 C  
HETATM   20  C   UNL     1     -13.376  12.467  70.906  1.00  0.00     0.528 C  
HETATM   21  C   UNL     1     -13.228  12.852  72.381  1.00  0.00    -0.447 C  
ENDBRANCH  14  16
BRANCH  12  22
HETATM   22  N   UNL     1     -10.883   8.660  71.719  1.00  0.00    -0.299 NA 
BRANCH  22  23
HETATM   23  C   UNL     1     -11.957   7.678  71.907  1.00  0.00    -0.295 C  
BRANCH  23  24
HETATM   24  C   UNL     1     -13.353   8.315  72.032  1.00  0.00    -0.313 C  
HETATM   25  O   UNL     1     -13.447   9.153  73.183  1.00  0.00    -0.899 OA 
HETATM   26  H   UNL     1     -14.309   9.546  73.261  1.00  0.00     0.000 HD 
ENDBRANCH  23  24
ENDBRANCH  22  23
BRANCH  22  27
HETATM   27  C   UNL     1      -9.681   8.576  72.550  1.00  0.00    -0.256 C  
BRANCH  27  28
HETATM   28  C   UNL     1      -9.742   7.381  73.520  1.00  0.00    -0.288 C  
HETATM   29  O   UNL     1      -8.440   7.016  73.982  1.00  0.00    -0.133 OA 
HETATM   30  H   UNL     1      -8.479   6.279  74.580  1.00  0.00     0.000 HD 
ENDBRANCH  27  28
ENDBRANCH  22  27
ENDBRANCH  12  22
BRANCH   7  31
HETATM   31  N   UNL     1      -9.582   8.641  67.258  1.00  0.00    -0.158 NA 
HETATM   32  C   UNL     1      -8.874   9.259  66.143  1.00  0.00    -0.155 C  
HETATM   33  C   UNL     1     -10.111   7.300  67.002  1.00  0.00    -0.246 C  
HETATM   34  C   UNL     1      -7.688   8.369  65.769  1.00  0.00    -0.094 C  
HETATM   35  C   UNL     1      -8.952   6.372  66.642  1.00  0.00    -0.145 C  
HETATM   36  C   UNL     1      -8.123   6.933  65.487  1.00  0.00    -0.132 C  
ENDBRANCH   7  31
ENDBRANCH   5   6
BRANCH   5  37
HETATM   37  C   UNL     1     -11.324  14.805  65.800  1.00  0.00    -0.336 C  
BRANCH  37  38
HETATM   38  C   UNL     1     -10.666  15.678  64.713  1.00  0.00    -0.276 C  
HETATM   39  O   UNL     1     -11.631  16.377  63.926  1.00  0.00    -1.564 OA 
HETATM   40  H   UNL     1     -11.225  16.915  63.257  1.00  0.00     0.000 HD 
ENDBRANCH  37  38
ENDBRANCH   5  37
ENDBRANCH   4   5
ENDBRANCH   3   4
TORSDOF 12
ENDMDL
MODEL       39
REMARK 921   NORMALIZED FREE ENERGY PREDICTED BY IDOCK:   -6.65 KCAL/MOL
REMARK 922        TOTAL FREE ENERGY PREDICTED BY IDOCK:  -12.23 KCAL/MOL
REMARK 923 INTER-LIGAND FREE ENERGY PREDICTED BY IDOCK:  -10.78 KCAL/MOL
REMARK 924 INTRA-LIGAND FREE ENERGY PREDICTED BY IDOCK:   -1.45 KCAL/MOL
REMARK 927      BINDING AFFINITY PREDICTED BY RF-SCORE:    0.00 PKD
ROOT
HETATM    1  O   UNL     1      -9.748   7.328  69.546  1.00  0.00    -0.158 OA 
HETATM    2  H   UNL     1      -9.713   6.648  68.884  1.00  0.00     0.000 HD 
HETATM    3  C   UNL     1     -11.086   7.753  69.800  1.00  0.00    -0.089 C  
ENDROOT
BRANCH   3   4
HETATM    4  C   UNL     1     -11.145   8.860  70.877  1.00  0.00    -0.271 C  
BRANCH   4   5
HETATM    5  N   UNL     1     -12.250   9.831  70.736  1.00  0.00    -0.278 NA 
BRANCH   5   6
HETATM    6  C   UNL     1     -11.878  11.091  70.300  1.00  0.00    -0.367 A  
HETATM    7  C   UNL     1     -10.056  12.715  67.589  1.00  0.00    -0.218 A  
HETATM    8  N   UNL     1      -9.788  13.970  67.149  1.00  0.00    -0.235 NA 
HETATM    9  N   UNL     1     -11.143  11.225  69.196  1.00  0.00    -0.235 NA 
HETATM   10  C   UNL     1     -10.833  12.468  68.736  1.00  0.00    -0.239 A  
HETATM   11  N   UNL     1     -12.296  12.147  70.986  1.00  0.00    -0.313 NA 
HETATM   12  C   UNL     1     -10.234  15.008  67.843  1.00  0.00    -0.228 A  
HETATM   13  C   UNL     1     -11.244  13.614  69.394  1.00  0.00    -0.196 A  
HETATM   14  C   UNL     1     -11.989  13.387  70.558  1.00  0.00    -0.255 A  
HETATM   15  N   UNL     1     -10.909  14.860  68.975  1.00  0.00    -0.236 NA 
BRANCH  14  16
HETATM   16  N   UNL     1     -12.405  14.424  71.386  1.00  0.00    -0.346 NA 
HETATM   17  C   UNL     1     -12.229  15.336  73.605  1.00  0.00    -0.662 C  
HETATM   18  C   UNL     1     -13.532  16.108  73.368  1.00  0.00    -0.407 C  
HETATM   19  C   UNL     1     -11.483  15.103  72.291  1.00  0.00    -0.320 C  
HETATM   20  C   UNL     1     -13.579  15.206  71.003  1.00  0.00    -0.409 C  
HETATM   21  C   UNL     1     -14.391  15.463  72.276  1.00  0.00    -0.576 C  
ENDBRANCH  14  16
BRANCH  12  22
HETATM   22  N   UNL     1     -10.017  16.291  67.387  1.00  0.00    -0.245 NA 
BRANCH  22  23
HETATM   23  C   UNL     1      -9.308  16.432  66.110  1.00  0.00    -0.325 C  
BRANCH  23  24
HETATM   24  C   UNL     1      -7.861  16.931  66.266  1.00  0.00    -0.311 C  
HETATM   25  O   UNL     1      -7.481  17.024  67.638  1.00  0.00    -0.159 OA 
HETATM   26  H   UNL     1      -6.587  17.332  67.734  1.00  0.00     0.000 HD 
ENDBRANCH  23  24
ENDBRANCH  22  23
BRANCH  22  27
HETATM   27  C   UNL     1     -10.868  17.385  67.860  1.00  0.00    -0.270 C  
BRANCH  27  28
HETATM   28  C   UNL     1     -10.587  18.694  67.099  1.00  0.00    -0.417 C  
HETATM   29  O   UNL     1     -10.320  19.774  67.996  1.00  0.00    -0.427 OA 
HETATM   30  H   UNL     1     -10.147  20.581  67.527  1.00  0.00     0.000 HD 
ENDBRANCH  27  28
ENDBRANCH  22  27
ENDBRANCH  12  22
BRANCH   7  31
HETATM   31  N   UNL     1      -9.531  11.710  66.778  1.00  0.00    -0.182 NA 
HETATM   32  C   UNL     1      -8.266  11.041  67.054  1.00  0.00    -0.138 C  
HETATM   33  C   UNL     1      -9.957  11.696  65.376  1.00  0.00    -0.250 C  
HETATM   34  C   UNL     1      -8.390   9.575  66.635  1.00  0.00    -0.116 C  
HETATM   35  C   UNL     1     -10.113  10.245  64.922  1.00  0.00    -0.346 C  
HETATM   36  C   UNL     1      -8.841   9.438  65.183  1.00  0.00    -0.233 C  
ENDBRANCH   7  31
ENDBRANCH   5   6
BRANCH   5  37
HETATM   37  C   UNL     1     -13.347   9.743  71.708  1.00  0.00    -0.413 C  
BRANCH  37  38
HETATM   38  C   UNL     1     -14.260   8.525  71.457  1.00  0.00    -0.374 C  
HETATM   39  O   UNL     1     -14.057   7.493  72.422  1.00  0.00    -0.537 OA 
HETATM   40  H   UNL     1     -14.620   6.744  72.268  1.00  0.00     0.000 HD 
ENDBRANCH  37  38
ENDBRANCH   5  37
ENDBRANCH   4   5
ENDBRANCH   3   4
TORSDOF 12
ENDMDL
MODEL       40
REMARK 921   NORMALIZED FREE ENERGY PREDICTED BY IDOCK:   -6.60 KCAL/MOL
REMARK 922        TOTAL FREE ENERGY PREDICTED BY IDOCK:  -12.15 KCAL/MOL
REMARK 923 INTER-LIGAND FREE ENERGY PREDICTED BY IDOCK:  -11.51 KCAL/MOL
REMARK 924 INTRA-LIGAND FREE ENERGY PREDICTED BY IDOCK:   -0.64 KCAL/MOL
REMARK 927      BINDING AFFINITY PREDICTED BY RF-SCORE:    0.00 PKD
ROOT
HETATM    1  O   UNL     1      -8.167  10.918  63.490  1.00  0.00    -0.364 OA 
HETATM    2  H   UNL     1      -7.440  10.700  62.919  1.00  0.00     0.000 HD 
HETATM    3  C   UNL     1      -9.405  10.959  62.782  1.00  0.00    -0.342 C  
ENDROOT
BRANCH   3   4
HETATM    4  C   UNL     1     -10.588  11.314  63.711  1.00  0.00    -0.392 C  
BRANCH   4   5
HETATM    5  N   UNL     1     -10.223  11.943  64.998  1.00  0.00    -0.269 NA 
BRANCH   5   6
HETATM    6  C   UNL     1     -10.391  11.145  66.115  1.00  0.00    -0.250 A  
HETATM    7  C   UNL     1     -11.634  11.312  69.541  1.00  0.00    -0.328 A  
HETATM    8  N   UNL     1     -11.863  10.475  70.584  1.00  0.00    -0.333 NA 
HETATM    9  N   UNL     1     -10.895  11.663  67.235  1.00  0.00    -0.241 NA 
HETATM   10  C   UNL     1     -11.117  10.860  68.312  1.00  0.00    -0.266 A  
HETATM   11  N   UNL     1     -10.069   9.861  66.030  1.00  0.00    -0.261 NA 
HETATM   12  C   UNL     1     -11.550   9.192  70.466  1.00  0.00    -0.197 A  
HETATM   13  C   UNL     1     -10.815   9.510  68.292  1.00  0.00    -0.145 A  
HETATM   14  C   UNL     1     -10.265   9.050  67.089  1.00  0.00    -0.265 A  
HETATM   15  N   UNL     1     -10.989   8.703  69.368  1.00  0.00    -0.096 NA 
BRANCH  14  16
HETATM   16  N   UNL     1      -9.825   7.741  66.928  1.00  0.00    -0.214 NA 
HETATM   17  C   UNL     1      -8.245   6.346  65.768  1.00  0.00    -0.134 C  
HETATM   18  C   UNL     1      -9.140   5.134  66.050  1.00  0.00    -0.149 C  
HETATM   19  C   UNL     1      -8.406   7.411  66.852  1.00  0.00    -0.122 C  
HETATM   20  C   UNL     1     -10.690   6.645  67.363  1.00  0.00    -0.339 C  
HETATM   21  C   UNL     1     -10.594   5.541  66.306  1.00  0.00    -0.222 C  
ENDBRANCH  14  16
BRANCH  12  22
HETATM   22  N   UNL     1     -11.821   8.315  71.495  1.00  0.00    -0.282 NA 
BRANCH  22  23
HETATM   23  C   UNL     1     -13.136   7.663  71.484  1.00  0.00    -0.338 C  
BRANCH  23  24
HETATM   24  C   UNL     1     -14.280   8.585  71.940  1.00  0.00    -0.455 C  
HETATM   25  O   UNL     1     -13.930   9.316  73.115  1.00  0.00    -1.037 OA 
HETATM   26  H   UNL     1     -14.637   9.885  73.396  1.00  0.00     0.000 HD 
ENDBRANCH  23  24
ENDBRANCH  22  23
BRANCH  22  27
HETATM   27  C   UNL     1     -10.719   7.695  72.232  1.00  0.00    -0.260 C  
BRANCH  27  28
HETATM   28  C   UNL     1     -10.841   6.160  72.253  1.00  0.00    -0.244 C  
HETATM   29  O   UNL     1     -11.307   5.690  73.520  1.00  0.00    -0.462 OA 
HETATM   30  H   UNL     1     -11.382   4.744  73.533  1.00  0.00     0.000 HD 
ENDBRANCH  27  28
ENDBRANCH  22  27
ENDBRANCH  12  22
BRANCH   7  31
HETATM   31  N   UNL     1     -12.001  12.634  69.788  1.00  0.00    -0.317 NA 
HETATM   32  C   UNL     1     -12.731  13.050  70.980  1.00  0.00    -0.262 C  
HETATM   33  C   UNL     1     -12.140  13.514  68.626  1.00  0.00    -0.268 C  
HETATM   34  C   UNL     1     -12.229  14.433  71.398  1.00  0.00    -0.424 C  
HETATM   35  C   UNL     1     -11.630  14.906  68.996  1.00  0.00    -0.330 C  
HETATM   36  C   UNL     1     -12.320  15.438  70.252  1.00  0.00    -0.425 C  
ENDBRANCH   7  31
ENDBRANCH   5   6
BRANCH   5  37
HETATM   37  C   UNL     1     -10.492  13.380  65.141  1.00  0.00    -0.347 C  
BRANCH  37  38
HETATM   38  C   UNL     1     -11.792  13.810  64.430  1.00  0.00    -0.427 C  
HETATM   39  O   UNL     1     -12.956  13.301  65.082  1.00  0.00    -0.705 OA 
HETATM   40  H   UNL     1     -13.756  13.566  64.644  1.00  0.00     0.000 HD 
ENDBRANCH  37  38
ENDBRANCH   5  37
ENDBRANCH   4   5
ENDBRANCH   3   4
TORSDOF 12
ENDMDL
MODEL       41
REMARK 921   NORMALIZED FREE ENERGY PREDICTED BY IDOCK:   -6.58 KCAL/MOL
REMARK 922        TOTAL FREE ENERGY PREDICTED BY IDOCK:  -12.12 KCAL/MOL
REMARK 923 INTER-LIGAND FREE ENERGY PREDICTED BY IDOCK:  -10.32 KCAL/MOL
REMARK 924 INTRA-LIGAND FREE ENERGY PREDICTED BY IDOCK:   -1.80 KCAL/MOL
REMARK 927      BINDING AFFINITY PREDICTED BY RF-SCORE:    0.00 PKD
ROOT
HETATM    1  O   UNL     1     -11.061  16.322  64.236  1.00  0.00    -1.120 OA 
HETATM    2  H   UNL     1     -11.613  17.088  64.126  1.00  0.00     0.000 HD 
HETATM    3  C   UNL     1     -10.732  16.096  65.606  1.00  0.00    -0.310 C  
ENDROOT
BRANCH   3   4
HETATM    4  C   UNL     1      -9.835  14.850  65.785  1.00  0.00    -0.348 C  
BRANCH   4   5
HETATM    5  N   UNL     1     -10.494  13.549  65.548  1.00  0.00    -0.291 NA 
BRANCH   5   6
HETATM    6  C   UNL     1     -10.443  12.658  66.605  1.00  0.00    -0.245 A  
HETATM    7  C   UNL     1      -8.738   9.604  67.643  1.00  0.00    -0.126 A  
HETATM    8  N   UNL     1      -8.654   8.805  68.736  1.00  0.00    -0.135 NA 
HETATM    9  N   UNL     1      -9.641  11.595  66.544  1.00  0.00    -0.203 NA 
HETATM   10  C   UNL     1      -9.547  10.756  67.612  1.00  0.00    -0.158 A  
HETATM   11  N   UNL     1     -11.183  12.907  67.679  1.00  0.00    -0.263 NA 
HETATM   12  C   UNL     1      -9.389   9.087  69.803  1.00  0.00    -0.171 A  
HETATM   13  C   UNL     1     -10.280  10.959  68.768  1.00  0.00    -0.196 A  
HETATM   14  C   UNL     1     -11.117  12.082  68.742  1.00  0.00    -0.249 A  
HETATM   15  N   UNL     1     -10.232  10.112  69.826  1.00  0.00    -0.246 NA 
BRANCH  14  16
HETATM   16  N   UNL     1     -11.986  12.383  69.785  1.00  0.00    -0.310 NA 
HETATM   17  C   UNL     1     -12.422  13.934  71.572  1.00  0.00    -0.384 C  
HETATM   18  C   UNL     1     -13.290  12.871  72.255  1.00  0.00    -0.597 C  
HETATM   19  C   UNL     1     -12.421  13.749  70.055  1.00  0.00    -0.240 C  
HETATM   20  C   UNL     1     -12.887  11.342  70.278  1.00  0.00     0.010 C  
HETATM   21  C   UNL     1     -12.922  11.454  71.805  1.00  0.00    -0.519 C  
ENDBRANCH  14  16
BRANCH  12  22
HETATM   22  N   UNL     1      -9.280   8.319  70.942  1.00  0.00    -0.150 NA 
BRANCH  22  23
HETATM   23  C   UNL     1      -9.935   8.827  72.153  1.00  0.00    -0.289 C  
BRANCH  23  24
HETATM   24  C   UNL     1     -11.086   7.932  72.648  1.00  0.00    -0.385 C  
HETATM   25  O   UNL     1     -10.898   7.537  74.006  1.00  0.00    -0.511 OA 
HETATM   26  H   UNL     1     -11.608   6.984  74.311  1.00  0.00     0.000 HD 
ENDBRANCH  23  24
ENDBRANCH  22  23
BRANCH  22  27
HETATM   27  C   UNL     1      -8.993   6.887  70.829  1.00  0.00    -0.150 C  
BRANCH  27  28
HETATM   28  C   UNL     1      -7.555   6.559  71.275  1.00  0.00    -0.094 C  
HETATM   29  O   UNL     1      -6.591   7.097  70.368  1.00  0.00    -0.045 OA 
HETATM   30  H   UNL     1      -5.705   6.894  70.643  1.00  0.00     0.000 HD 
ENDBRANCH  27  28
ENDBRANCH  22  27
ENDBRANCH  12  22
BRANCH   7  31
HETATM   31  N   UNL     1      -7.922   9.202  66.587  1.00  0.00    -0.103 NA 
HETATM   32  C   UNL     1      -6.672   9.871  66.246  1.00  0.00    -0.090 C  
HETATM   33  C   UNL     1      -8.562   8.469  65.493  1.00  0.00    -0.180 C  
HETATM   34  C   UNL     1      -5.674   8.817  65.763  1.00  0.00    -0.050 C  
HETATM   35  C   UNL     1      -7.603   7.390  64.993  1.00  0.00    -0.103 C  
HETATM   36  C   UNL     1      -6.243   7.980  64.620  1.00  0.00    -0.049 C  
ENDBRANCH   7  31
ENDBRANCH   5   6
BRANCH   5  37
HETATM   37  C   UNL     1     -10.417  12.997  64.189  1.00  0.00    -0.372 C  
BRANCH  37  38
HETATM   38  C   UNL     1     -11.809  12.698  63.595  1.00  0.00    -0.530 C  
HETATM   39  O   UNL     1     -12.486  13.885  63.184  1.00  0.00    -1.121 OA 
HETATM   40  H   UNL     1     -13.342  13.701  62.818  1.00  0.00     0.000 HD 
ENDBRANCH  37  38
ENDBRANCH   5  37
ENDBRANCH   4   5
ENDBRANCH   3   4
TORSDOF 12
ENDMDL
MODEL       42
REMARK 921   NORMALIZED FREE ENERGY PREDICTED BY IDOCK:   -6.58 KCAL/MOL
REMARK 922        TOTAL FREE ENERGY PREDICTED BY IDOCK:  -12.12 KCAL/MOL
REMARK 923 INTER-LIGAND FREE ENERGY PREDICTED BY IDOCK:  -10.93 KCAL/MOL
REMARK 924 INTRA-LIGAND FREE ENERGY PREDICTED BY IDOCK:   -1.19 KCAL/MOL
REMARK 927      BINDING AFFINITY PREDICTED BY RF-SCORE:    0.00 PKD
ROOT
HETATM    1  O   UNL     1     -14.115   8.839  73.328  1.00  0.00    -1.180 OA 
HETATM    2  H   UNL     1     -14.838   8.225  73.384  1.00  0.00     0.000 HD 
HETATM    3  C   UNL     1     -13.887   9.272  71.988  1.00  0.00    -0.382 C  
ENDROOT
BRANCH   3   4
HETATM    4  C   UNL     1     -12.712  10.271  71.897  1.00  0.00    -0.379 C  
BRANCH   4   5
HETATM    5  N   UNL     1     -12.642  11.065  70.652  1.00  0.00    -0.344 NA 
BRANCH   5   6
HETATM    6  C   UNL     1     -11.892  10.504  69.634  1.00  0.00    -0.234 A  
HETATM    7  C   UNL     1     -10.799  11.199  66.223  1.00  0.00    -0.205 A  
HETATM    8  N   UNL     1      -9.983  10.658  65.284  1.00  0.00    -0.274 NA 
HETATM    9  N   UNL     1     -11.773  11.138  68.467  1.00  0.00    -0.445 NA 
HETATM   10  C   UNL     1     -10.982  10.614  67.490  1.00  0.00    -0.310 A  
HETATM   11  N   UNL     1     -11.278   9.350  69.861  1.00  0.00    -0.201 NA 
HETATM   12  C   UNL     1      -9.367   9.513  65.544  1.00  0.00    -0.255 A  
HETATM   13  C   UNL     1     -10.303   9.420  67.661  1.00  0.00    -0.246 A  
HETATM   14  C   UNL     1     -10.502   8.805  68.904  1.00  0.00    -0.197 A  
HETATM   15  N   UNL     1      -9.546   8.861  66.685  1.00  0.00    -0.198 NA 
BRANCH  14  16
HETATM   16  N   UNL     1      -9.966   7.559  69.208  1.00  0.00    -0.175 NA 
HETATM   17  C   UNL     1     -10.515   5.296  69.812  1.00  0.00    -0.340 C  
HETATM   18  C   UNL     1      -9.097   5.122  70.367  1.00  0.00    -0.173 C  
HETATM   19  C   UNL     1     -10.539   6.325  68.682  1.00  0.00    -0.264 C  
HETATM   20  C   UNL     1      -8.556   7.469  69.588  1.00  0.00    -0.136 C  
HETATM   21  C   UNL     1      -8.457   6.463  70.738  1.00  0.00    -0.135 C  
ENDBRANCH  14  16
BRANCH  12  22
HETATM   22  N   UNL     1      -8.494   8.972  64.624  1.00  0.00    -0.173 NA 
BRANCH  22  23
HETATM   23  C   UNL     1      -7.690   7.826  65.064  1.00  0.00    -0.107 C  
BRANCH  23  24
HETATM   24  C   UNL     1      -7.856   6.583  64.171  1.00  0.00    -0.111 C  
HETATM   25  O   UNL     1      -8.923   5.750  64.623  1.00  0.00    -0.362 OA 
HETATM   26  H   UNL     1      -9.026   4.982  64.072  1.00  0.00     0.000 HD 
ENDBRANCH  23  24
ENDBRANCH  22  23
BRANCH  22  27
HETATM   27  C   UNL     1      -8.725   9.179  63.193  1.00  0.00    -0.143 C  
BRANCH  27  28
HETATM   28  C   UNL     1      -7.998  10.435  62.676  1.00  0.00    -0.157 C  
HETATM   29  O   UNL     1      -8.890  11.546  62.563  1.00  0.00    -0.535 OA 
HETATM   30  H   UNL     1      -8.441  12.320  62.244  1.00  0.00     0.000 HD 
ENDBRANCH  27  28
ENDBRANCH  22  27
ENDBRANCH  12  22
BRANCH   7  31
HETATM   31  N   UNL     1     -11.392  12.398  65.831  1.00  0.00    -0.339 NA 
HETATM   32  C   UNL     1     -11.564  13.534  66.728  1.00  0.00    -0.363 C  
HETATM   33  C   UNL     1     -12.323  12.342  64.701  1.00  0.00    -0.441 C  
HETATM   34  C   UNL     1     -11.376  14.821  65.924  1.00  0.00    -0.331 C  
HETATM   35  C   UNL     1     -12.154  13.605  63.858  1.00  0.00    -0.462 C  
HETATM   36  C   UNL     1     -12.298  14.868  64.707  1.00  0.00    -0.241 C  
ENDBRANCH   7  31
ENDBRANCH   5   6
BRANCH   5  37
HETATM   37  C   UNL     1     -12.618  12.527  70.790  1.00  0.00    -0.212 C  
BRANCH  37  38
HETATM   38  C   UNL     1     -13.434  13.018  72.003  1.00  0.00    -0.492 C  
HETATM   39  O   UNL     1     -12.871  14.190  72.592  1.00  0.00    -0.384 OA 
HETATM   40  H   UNL     1     -13.373  14.492  73.339  1.00  0.00     0.000 HD 
ENDBRANCH  37  38
ENDBRANCH   5  37
ENDBRANCH   4   5
ENDBRANCH   3   4
TORSDOF 12
ENDMDL
MODEL       43
REMARK 921   NORMALIZED FREE ENERGY PREDICTED BY IDOCK:   -6.53 KCAL/MOL
REMARK 922        TOTAL FREE ENERGY PREDICTED BY IDOCK:  -12.03 KCAL/MOL
REMARK 923 INTER-LIGAND FREE ENERGY PREDICTED BY IDOCK:  -11.52 KCAL/MOL
REMARK 924 INTRA-LIGAND FREE ENERGY PREDICTED BY IDOCK:   -0.51 KCAL/MOL
REMARK 927      BINDING AFFINITY PREDICTED BY RF-SCORE:    0.00 PKD
ROOT
HETATM    1  O   UNL     1     -10.010  10.347  62.522  1.00  0.00    -0.714 OA 
HETATM    2  H   UNL     1      -9.620  10.079  61.698  1.00  0.00     0.000 HD 
HETATM    3  C   UNL     1      -9.058  10.352  63.585  1.00  0.00    -0.253 C  
ENDROOT
BRANCH   3   4
HETATM    4  C   UNL     1      -9.693  10.787  64.924  1.00  0.00    -0.276 C  
BRANCH   4   5
HETATM    5  N   UNL     1      -9.829  12.246  65.123  1.00  0.00    -0.208 NA 
BRANCH   5   6
HETATM    6  C   UNL     1     -10.313  12.632  66.360  1.00  0.00    -0.249 A  
HETATM    7  C   UNL     1     -10.954  15.638  68.326  1.00  0.00    -0.315 A  
HETATM    8  N   UNL     1     -11.518  15.980  69.511  1.00  0.00    -0.334 NA 
HETATM    9  N   UNL     1     -10.346  13.924  66.690  1.00  0.00    -0.275 NA 
HETATM   10  C   UNL     1     -10.882  14.304  67.882  1.00  0.00    -0.253 A  
HETATM   11  N   UNL     1     -10.767  11.696  67.183  1.00  0.00    -0.235 NA 
HETATM   12  C   UNL     1     -11.980  15.025  70.307  1.00  0.00    -0.315 A  
HETATM   13  C   UNL     1     -11.384  13.384  68.785  1.00  0.00    -0.292 A  
HETATM   14  C   UNL     1     -11.288  12.048  68.375  1.00  0.00    -0.279 A  
HETATM   15  N   UNL     1     -11.882  13.740  69.995  1.00  0.00    -0.307 NA 
BRANCH  14  16
HETATM   16  N   UNL     1     -11.663  10.992  69.198  1.00  0.00    -0.309 NA 
HETATM   17  C   UNL     1     -12.900  10.408  71.177  1.00  0.00    -0.511 C  
HETATM   18  C   UNL     1     -12.089   9.111  71.276  1.00  0.00    -0.392 C  
HETATM   19  C   UNL     1     -13.018  10.871  69.726  1.00  0.00     0.359 C  
HETATM   20  C   UNL     1     -10.920   9.735  69.119  1.00  0.00    -0.175 C  
HETATM   21  C   UNL     1     -10.745   9.218  70.549  1.00  0.00    -0.313 C  
ENDBRANCH  14  16
BRANCH  12  22
HETATM   22  N   UNL     1     -12.602  15.353  71.493  1.00  0.00    -0.360 NA 
BRANCH  22  23
HETATM   23  C   UNL     1     -11.907  16.304  72.368  1.00  0.00    -0.512 C  
BRANCH  23  24
HETATM   24  C   UNL     1     -12.159  16.054  73.866  1.00  0.00    -0.412 C  
HETATM   25  O   UNL     1     -13.236  16.850  74.359  1.00  0.00    -0.257 OA 
HETATM   26  H   UNL     1     -13.391  16.696  75.283  1.00  0.00     0.000 HD 
ENDBRANCH  23  24
ENDBRANCH  22  23
BRANCH  22  27
HETATM   27  C   UNL     1     -14.050  15.181  71.627  1.00  0.00    -0.549 C  
BRANCH  27  28
HETATM   28  C   UNL     1     -14.402  13.901  72.407  1.00  0.00    -0.302 C  
HETATM   29  O   UNL     1     -13.261  13.054  72.563  1.00  0.00    -0.453 OA 
HETATM   30  H   UNL     1     -13.479  12.265  73.044  1.00  0.00     0.000 HD 
ENDBRANCH  27  28
ENDBRANCH  22  27
ENDBRANCH  12  22
BRANCH   7  31
HETATM   31  N   UNL     1     -10.503  16.727  67.582  1.00  0.00    -0.320 NA 
HETATM   32  C   UNL     1     -10.688  16.841  66.140  1.00  0.00    -0.116 C  
HETATM   33  C   UNL     1      -9.382  17.492  68.134  1.00  0.00    -0.276 C  
HETATM   34  C   UNL     1     -10.931  18.311  65.796  1.00  0.00     0.213 C  
HETATM   35  C   UNL     1      -9.596  18.974  67.828  1.00  0.00    -0.365 C  
HETATM   36  C   UNL     1      -9.820  19.210  66.335  1.00  0.00    -0.437 C  
ENDBRANCH   7  31
ENDBRANCH   5   6
BRANCH   5  37
HETATM   37  C   UNL     1     -10.223  13.047  63.957  1.00  0.00    -0.142 C  
BRANCH  37  38
HETATM   38  C   UNL     1     -11.712  12.870  63.597  1.00  0.00    -0.508 C  
HETATM   39  O   UNL     1     -12.412  14.114  63.574  1.00  0.00    -1.076 OA 
HETATM   40  H   UNL     1     -13.329  14.005  63.352  1.00  0.00     0.000 HD 
ENDBRANCH  37  38
ENDBRANCH   5  37
ENDBRANCH   4   5
ENDBRANCH   3   4
TORSDOF 12
ENDMDL
MODEL       44
REMARK 921   NORMALIZED FREE ENERGY PREDICTED BY IDOCK:   -6.46 KCAL/MOL
REMARK 922        TOTAL FREE ENERGY PREDICTED BY IDOCK:  -11.90 KCAL/MOL
REMARK 923 INTER-LIGAND FREE ENERGY PREDICTED BY IDOCK:  -10.49 KCAL/MOL
REMARK 924 INTRA-LIGAND FREE ENERGY PREDICTED BY IDOCK:   -1.41 KCAL/MOL
REMARK 927      BINDING AFFINITY PREDICTED BY RF-SCORE:    0.00 PKD
ROOT
HETATM    1  O   UNL     1      -9.796   6.736  70.726  1.00  0.00    -0.182 OA 
HETATM    2  H   UNL     1      -9.653   5.807  70.860  1.00  0.00     0.000 HD 
HETATM    3  C   UNL     1     -10.282   7.375  71.906  1.00  0.00    -0.187 C  
ENDROOT
BRANCH   3   4
HETATM    4  C   UNL     1     -10.515   8.887  71.689  1.00  0.00    -0.338 C  
BRANCH   4   5
HETATM    5  N   UNL     1     -11.578   9.237  70.724  1.00  0.00    -0.281 NA 
BRANCH   5   6
HETATM    6  C   UNL     1     -11.265  10.256  69.842  1.00  0.00    -0.299 A  
HETATM    7  C   UNL     1     -11.468  13.887  69.538  1.00  0.00    -0.274 A  
HETATM    8  N   UNL     1     -11.065  14.862  68.686  1.00  0.00    -0.251 NA 
HETATM    9  N   UNL     1     -11.561  11.519  70.150  1.00  0.00    -0.286 NA 
HETATM   10  C   UNL     1     -11.194  12.524  69.309  1.00  0.00    -0.194 A  
HETATM   11  N   UNL     1     -10.644   9.947  68.711  1.00  0.00    -0.214 NA 
HETATM   12  C   UNL     1     -10.429  14.526  67.572  1.00  0.00    -0.253 A  
HETATM   13  C   UNL     1     -10.534  12.278  68.118  1.00  0.00    -0.217 A  
HETATM   14  C   UNL     1     -10.284  10.924  67.856  1.00  0.00    -0.179 A  
HETATM   15  N   UNL     1     -10.199  13.261  67.247  1.00  0.00    -0.239 NA 
BRANCH  14  16
HETATM   16  N   UNL     1      -9.709  10.494  66.666  1.00  0.00    -0.183 NA 
HETATM   17  C   UNL     1      -7.624  10.220  65.496  1.00  0.00    -0.149 C  
HETATM   18  C   UNL     1      -8.396  10.188  64.172  1.00  0.00    -0.168 C  
HETATM   19  C   UNL     1      -8.486   9.698  66.645  1.00  0.00    -0.123 C  
HETATM   20  C   UNL     1     -10.556  10.351  65.482  1.00  0.00    -0.018 C  
HETATM   21  C   UNL     1      -9.759  10.877  64.285  1.00  0.00    -0.347 C  
ENDBRANCH  14  16
BRANCH  12  22
HETATM   22  N   UNL     1      -9.966  15.504  66.718  1.00  0.00    -0.243 NA 
BRANCH  22  23
HETATM   23  C   UNL     1      -8.576  15.386  66.261  1.00  0.00    -0.113 C  
BRANCH  23  24
HETATM   24  C   UNL     1      -7.549  15.899  67.286  1.00  0.00    -0.203 C  
HETATM   25  O   UNL     1      -8.097  16.928  68.109  1.00  0.00    -0.188 OA 
HETATM   26  H   UNL     1      -7.462  17.245  68.741  1.00  0.00     0.000 HD 
ENDBRANCH  23  24
ENDBRANCH  22  23
BRANCH  22  27
HETATM   27  C   UNL     1     -10.916  16.290  65.928  1.00  0.00    -0.037 C  
BRANCH  27  28
HETATM   28  C   UNL     1     -10.934  15.846  64.453  1.00  0.00    -0.013 C  
HETATM   29  O   UNL     1     -12.234  15.993  63.879  1.00  0.00    -1.176 OA 
HETATM   30  H   UNL     1     -12.245  15.719  62.970  1.00  0.00     0.000 HD 
ENDBRANCH  27  28
ENDBRANCH  22  27
ENDBRANCH  12  22
BRANCH   7  31
HETATM   31  N   UNL     1     -12.129  14.363  70.669  1.00  0.00    -0.313 NA 
HETATM   32  C   UNL     1     -13.490  13.975  71.021  1.00  0.00    -0.117 C  
HETATM   33  C   UNL     1     -11.683  15.651  71.207  1.00  0.00    -0.422 C  
HETATM   34  C   UNL     1     -13.590  13.887  72.545  1.00  0.00    -0.680 C  
HETATM   35  C   UNL     1     -11.750  15.599  72.732  1.00  0.00    -0.537 C  
HETATM   36  C   UNL     1     -13.138  15.181  73.217  1.00  0.00    -0.622 C  
ENDBRANCH   7  31
ENDBRANCH   5   6
BRANCH   5  37
HETATM   37  C   UNL     1     -12.967   9.147  71.194  1.00  0.00    -0.177 C  
BRANCH  37  38
HETATM   38  C   UNL     1     -13.059   8.887  72.712  1.00  0.00    -0.146 C  
HETATM   39  O   UNL     1     -14.409   8.769  73.157  1.00  0.00    -1.119 OA 
HETATM   40  H   UNL     1     -14.466   8.608  74.092  1.00  0.00     0.000 HD 
ENDBRANCH  37  38
ENDBRANCH   5  37
ENDBRANCH   4   5
ENDBRANCH   3   4
TORSDOF 12
ENDMDL
MODEL       45
REMARK 921   NORMALIZED FREE ENERGY PREDICTED BY IDOCK:   -6.44 KCAL/MOL
REMARK 922        TOTAL FREE ENERGY PREDICTED BY IDOCK:  -11.87 KCAL/MOL
REMARK 923 INTER-LIGAND FREE ENERGY PREDICTED BY IDOCK:  -10.16 KCAL/MOL
REMARK 924 INTRA-LIGAND FREE ENERGY PREDICTED BY IDOCK:   -1.72 KCAL/MOL
REMARK 927      BINDING AFFINITY PREDICTED BY RF-SCORE:    0.00 PKD
ROOT
HETATM    1  O   UNL     1     -11.081  12.197  62.908  1.00  0.00    -0.626 OA 
HETATM    2  H   UNL     1     -10.929  11.732  62.093  1.00  0.00     0.000 HD 
HETATM    3  C   UNL     1     -12.437  12.089  63.337  1.00  0.00    -0.509 C  
ENDROOT
BRANCH   3   4
HETATM    4  C   UNL     1     -12.684  12.845  64.662  1.00  0.00    -0.330 C  
BRANCH   4   5
HETATM    5  N   UNL     1     -11.470  13.283  65.383  1.00  0.00    -0.300 NA 
BRANCH   5   6
HETATM    6  C   UNL     1     -10.891  12.330  66.202  1.00  0.00    -0.279 A  
HETATM    7  C   UNL     1     -11.064  11.065  69.620  1.00  0.00    -0.256 A  
HETATM    8  N   UNL     1     -10.536  10.061  70.363  1.00  0.00    -0.279 NA 
HETATM    9  N   UNL     1     -11.267  12.229  67.477  1.00  0.00    -0.278 NA 
HETATM   10  C   UNL     1     -10.741  11.249  68.262  1.00  0.00    -0.194 A  
HETATM   11  N   UNL     1      -9.988  11.511  65.680  1.00  0.00    -0.226 NA 
HETATM   12  C   UNL     1      -9.648   9.245  69.811  1.00  0.00    -0.190 A  
HETATM   13  C   UNL     1      -9.802  10.352  67.782  1.00  0.00    -0.168 A  
HETATM   14  C   UNL     1      -9.442  10.542  66.442  1.00  0.00    -0.171 A  
HETATM   15  N   UNL     1      -9.236   9.397  68.560  1.00  0.00    -0.131 NA 
BRANCH  14  16
HETATM   16  N   UNL     1      -8.450   9.787  65.827  1.00  0.00    -0.130 NA 
HETATM   17  C   UNL     1      -7.822   7.558  65.173  1.00  0.00    -0.122 C  
HETATM   18  C   UNL     1      -6.358   8.011  65.114  1.00  0.00    -0.045 C  
HETATM   19  C   UNL     1      -8.768   8.723  64.881  1.00  0.00    -0.125 C  
HETATM   20  C   UNL     1      -7.112  10.360  65.682  1.00  0.00    -0.142 C  
HETATM   21  C   UNL     1      -6.104   9.247  65.982  1.00  0.00    -0.059 C  
ENDBRANCH  14  16
BRANCH  12  22
HETATM   22  N   UNL     1      -9.138   8.187  70.533  1.00  0.00    -0.148 NA 
BRANCH  22  23
HETATM   23  C   UNL     1      -8.465   7.126  69.774  1.00  0.00    -0.137 C  
BRANCH  23  24
HETATM   24  C   UNL     1      -9.164   5.759  69.882  1.00  0.00    -0.144 C  
HETATM   25  O   UNL     1     -10.584   5.888  69.809  1.00  0.00    -0.243 OA 
HETATM   26  H   UNL     1     -11.015   5.044  69.876  1.00  0.00     0.000 HD 
ENDBRANCH  23  24
ENDBRANCH  22  23
BRANCH  22  27
HETATM   27  C   UNL     1      -8.829   8.358  71.954  1.00  0.00    -0.203 C  
BRANCH  27  28
HETATM   28  C   UNL     1      -9.881   7.677  72.850  1.00  0.00    -0.242 C  
HETATM   29  O   UNL     1     -11.152   7.604  72.201  1.00  0.00    -0.239 OA 
HETATM   30  H   UNL     1     -11.800   7.184  72.754  1.00  0.00     0.000 HD 
ENDBRANCH  27  28
ENDBRANCH  22  27
ENDBRANCH  12  22
BRANCH   7  31
HETATM   31  N   UNL     1     -11.980  11.856  70.312  1.00  0.00    -0.352 NA 
HETATM   32  C   UNL     1     -13.138  11.311  71.011  1.00  0.00    -0.080 C  
HETATM   33  C   UNL     1     -12.098  13.256  69.896  1.00  0.00    -0.308 C  
HETATM   34  C   UNL     1     -13.376  12.139  72.274  1.00  0.00    -0.316 C  
HETATM   35  C   UNL     1     -12.319  14.123  71.135  1.00  0.00    -0.447 C  
HETATM   36  C   UNL     1     -13.507  13.628  71.959  1.00  0.00    -0.573 C  
ENDBRANCH   7  31
ENDBRANCH   5   6
BRANCH   5  37
HETATM   37  C   UNL     1     -11.424  14.682  65.829  1.00  0.00    -0.338 C  
BRANCH  37  38
HETATM   38  C   UNL     1     -10.654  15.588  64.847  1.00  0.00    -0.342 C  
HETATM   39  O   UNL     1     -11.525  16.253  63.932  1.00  0.00    -1.484 OA 
HETATM   40  H   UNL     1     -11.051  16.811  63.327  1.00  0.00     0.000 HD 
ENDBRANCH  37  38
ENDBRANCH   5  37
ENDBRANCH   4   5
ENDBRANCH   3   4
TORSDOF 12
ENDMDL
MODEL       46
REMARK 921   NORMALIZED FREE ENERGY PREDICTED BY IDOCK:   -6.42 KCAL/MOL
REMARK 922        TOTAL FREE ENERGY PREDICTED BY IDOCK:  -11.85 KCAL/MOL
REMARK 923 INTER-LIGAND FREE ENERGY PREDICTED BY IDOCK:   -9.74 KCAL/MOL
REMARK 924 INTRA-LIGAND FREE ENERGY PREDICTED BY IDOCK:   -2.11 KCAL/MOL
REMARK 927      BINDING AFFINITY PREDICTED BY RF-SCORE:    0.00 PKD
ROOT
HETATM    1  O   UNL     1     -14.260  14.117  72.547  1.00  0.00    -0.603 OA 
HETATM    2  H   UNL     1     -14.841  14.167  73.298  1.00  0.00     0.000 HD 
HETATM    3  C   UNL     1     -13.667  12.825  72.418  1.00  0.00    -0.360 C  
ENDROOT
BRANCH   3   4
HETATM    4  C   UNL     1     -12.724  12.744  71.197  1.00  0.00    -0.263 C  
BRANCH   4   5
HETATM    5  N   UNL     1     -12.392  11.379  70.736  1.00  0.00    -0.388 NA 
BRANCH   5   6
HETATM    6  C   UNL     1     -11.682  11.312  69.550  1.00  0.00    -0.345 A  
HETATM    7  C   UNL     1      -9.590   9.010  67.642  1.00  0.00    -0.150 A  
HETATM    8  N   UNL     1      -8.981   8.952  66.431  1.00  0.00    -0.149 NA 
HETATM    9  N   UNL     1     -10.995  10.210  69.247  1.00  0.00    -0.231 NA 
HETATM   10  C   UNL     1     -10.350  10.123  68.051  1.00  0.00    -0.190 A  
HETATM   11  N   UNL     1     -11.731  12.347  68.723  1.00  0.00    -0.317 NA 
HETATM   12  C   UNL     1      -9.061   9.995  65.615  1.00  0.00    -0.183 A  
HETATM   13  C   UNL     1     -10.366  11.160  67.134  1.00  0.00    -0.212 A  
HETATM   14  C   UNL     1     -11.087  12.290  67.540  1.00  0.00    -0.275 A  
HETATM   15  N   UNL     1      -9.694  11.109  65.958  1.00  0.00    -0.216 NA 
BRANCH  14  16
HETATM   16  N   UNL     1     -11.133  13.452  66.779  1.00  0.00    -0.288 NA 
HETATM   17  C   UNL     1     -12.017  14.430  64.766  1.00  0.00    -0.455 C  
HETATM   18  C   UNL     1     -10.923  15.502  64.831  1.00  0.00    -0.452 C  
HETATM   19  C   UNL     1     -12.370  13.921  66.163  1.00  0.00    -0.465 C  
HETATM   20  C   UNL     1     -10.130  14.491  67.012  1.00  0.00    -0.254 C  
HETATM   21  C   UNL     1      -9.712  15.037  65.644  1.00  0.00    -0.344 C  
ENDBRANCH  14  16
BRANCH  12  22
HETATM   22  N   UNL     1      -8.493   9.937  64.361  1.00  0.00    -0.163 NA 
BRANCH  22  23
HETATM   23  C   UNL     1      -7.092   9.509  64.284  1.00  0.00    -0.108 C  
BRANCH  23  24
HETATM   24  C   UNL     1      -6.614   9.233  62.847  1.00  0.00    -0.093 C  
HETATM   25  O   UNL     1      -5.254   9.624  62.661  1.00  0.00    -0.081 OA 
HETATM   26  H   UNL     1      -4.959   9.454  61.774  1.00  0.00     0.000 HD 
ENDBRANCH  23  24
ENDBRANCH  22  23
BRANCH  22  27
HETATM   27  C   UNL     1      -9.349   9.807  63.179  1.00  0.00    -0.082 C  
BRANCH  27  28
HETATM   28  C   UNL     1      -9.882  11.173  62.710  1.00  0.00    -0.223 C  
HETATM   29  O   UNL     1     -11.157  11.462  63.286  1.00  0.00    -0.739 OA 
HETATM   30  H   UNL     1     -11.486  12.305  62.996  1.00  0.00     0.000 HD 
ENDBRANCH  27  28
ENDBRANCH  22  27
ENDBRANCH  12  22
BRANCH   7  31
HETATM   31  N   UNL     1      -9.431   7.858  68.409  1.00  0.00    -0.147 NA 
HETATM   32  C   UNL     1      -8.204   7.543  69.132  1.00  0.00    -0.131 C  
HETATM   33  C   UNL     1     -10.270   6.708  68.064  1.00  0.00    -0.167 C  
HETATM   34  C   UNL     1      -8.577   6.847  70.441  1.00  0.00    -0.143 C  
HETATM   35  C   UNL     1     -10.682   5.993  69.350  1.00  0.00    -0.403 C  
HETATM   36  C   UNL     1      -9.466   5.629  70.202  1.00  0.00    -0.200 C  
ENDBRANCH   7  31
ENDBRANCH   5   6
BRANCH   5  37
HETATM   37  C   UNL     1     -13.379  10.325  71.000  1.00  0.00    -0.225 C  
BRANCH  37  38
HETATM   38  C   UNL     1     -12.897   9.319  72.065  1.00  0.00    -0.415 C  
HETATM   39  O   UNL     1     -11.796   8.535  71.606  1.00  0.00    -0.277 OA 
HETATM   40  H   UNL     1     -11.499   7.916  72.262  1.00  0.00     0.000 HD 
ENDBRANCH  37  38
ENDBRANCH   5  37
ENDBRANCH   4   5
ENDBRANCH   3   4
TORSDOF 12
ENDMDL
MODEL       47
REMARK 921   NORMALIZED FREE ENERGY PREDICTED BY IDOCK:   -6.41 KCAL/MOL
REMARK 922        TOTAL FREE ENERGY PREDICTED BY IDOCK:  -11.82 KCAL/MOL
REMARK 923 INTER-LIGAND FREE ENERGY PREDICTED BY IDOCK:  -10.52 KCAL/MOL
REMARK 924 INTRA-LIGAND FREE ENERGY PREDICTED BY IDOCK:   -1.30 KCAL/MOL
REMARK 927      BINDING AFFINITY PREDICTED BY RF-SCORE:    0.00 PKD
ROOT
HETATM    1  O   UNL     1     -14.153   8.906  73.350  1.00  0.00    -1.256 OA 
HETATM    2  H   UNL     1     -14.793   9.443  73.803  1.00  0.00     0.000 HD 
HETATM    3  C   UNL     1     -13.594   9.582  72.225  1.00  0.00    -0.418 C  
ENDROOT
BRANCH   3   4
HETATM    4  C   UNL     1     -12.554   8.708  71.488  1.00  0.00    -0.322 C  
BRANCH   4   5
HETATM    5  N   UNL     1     -11.197   9.285  71.379  1.00  0.00    -0.335 NA 
BRANCH   5   6
HETATM    6  C   UNL     1     -10.857   9.765  70.126  1.00  0.00    -0.291 A  
HETATM    7  C   UNL     1      -9.852   8.578  66.826  1.00  0.00    -0.257 A  
HETATM    8  N   UNL     1      -9.612   9.083  65.591  1.00  0.00    -0.223 NA 
HETATM    9  N   UNL     1     -10.510   8.917  69.159  1.00  0.00    -0.227 NA 
HETATM   10  C   UNL     1     -10.237   9.388  67.911  1.00  0.00    -0.211 A  
HETATM   11  N   UNL     1     -10.917  11.073  69.912  1.00  0.00    -0.205 NA 
HETATM   12  C   UNL     1      -9.697  10.393  65.399  1.00  0.00    -0.265 A  
HETATM   13  C   UNL     1     -10.290  10.738  67.612  1.00  0.00    -0.201 A  
HETATM   14  C   UNL     1     -10.637  11.565  68.688  1.00  0.00    -0.208 A  
HETATM   15  N   UNL     1      -9.981  11.231  66.387  1.00  0.00    -0.208 NA 
BRANCH  14  16
HETATM   16  N   UNL     1     -10.651  12.951  68.584  1.00  0.00    -0.249 NA 
HETATM   17  C   UNL     1      -9.512  14.966  69.241  1.00  0.00    -0.118 C  
HETATM   18  C   UNL     1     -10.792  15.758  68.953  1.00  0.00    -0.260 C  
HETATM   19  C   UNL     1      -9.430  13.718  68.362  1.00  0.00    -0.198 C  
HETATM   20  C   UNL     1     -11.882  13.616  68.159  1.00  0.00    -0.372 C  
HETATM   21  C   UNL     1     -12.041  14.874  69.017  1.00  0.00    -0.248 C  
ENDBRANCH  14  16
BRANCH  12  22
HETATM   22  N   UNL     1      -9.507  10.922  64.140  1.00  0.00    -0.240 NA 
BRANCH  22  23
HETATM   23  C   UNL     1      -8.320  10.475  63.403  1.00  0.00    -0.123 C  
BRANCH  23  24
HETATM   24  C   UNL     1      -8.619   9.372  62.372  1.00  0.00    -0.213 C  
HETATM   25  O   UNL     1      -8.413   8.070  62.919  1.00  0.00    -0.382 OA 
HETATM   26  H   UNL     1      -8.598   7.390  62.283  1.00  0.00     0.000 HD 
ENDBRANCH  23  24
ENDBRANCH  22  23
BRANCH  22  27
HETATM   27  C   UNL     1     -10.646  11.469  63.401  1.00  0.00    -0.395 C  
BRANCH  27  28
HETATM   28  C   UNL     1     -11.037  12.869  63.913  1.00  0.00    -0.411 C  
HETATM   29  O   UNL     1     -12.215  13.352  63.264  1.00  0.00    -0.847 OA 
HETATM   30  H   UNL     1     -12.455  14.215  63.579  1.00  0.00     0.000 HD 
ENDBRANCH  27  28
ENDBRANCH  22  27
ENDBRANCH  12  22
BRANCH   7  31
HETATM   31  N   UNL     1      -9.728   7.191  66.902  1.00  0.00    -0.175 NA 
HETATM   32  C   UNL     1     -10.870   6.285  66.892  1.00  0.00    -0.354 C  
HETATM   33  C   UNL     1      -8.514   6.666  67.531  1.00  0.00    -0.121 C  
HETATM   34  C   UNL     1     -10.479   5.018  66.130  1.00  0.00    -0.334 C  
HETATM   35  C   UNL     1      -8.076   5.406  66.785  1.00  0.00    -0.105 C  
HETATM   36  C   UNL     1      -9.211   4.385  66.698  1.00  0.00    -0.143 C  
ENDBRANCH   7  31
ENDBRANCH   5   6
BRANCH   5  37
HETATM   37  C   UNL     1     -10.136   8.659  72.179  1.00  0.00    -0.318 C  
BRANCH  37  38
HETATM   38  C   UNL     1      -9.839   7.213  71.734  1.00  0.00    -0.161 C  
HETATM   39  O   UNL     1      -8.640   7.121  70.966  1.00  0.00    -0.131 OA 
HETATM   40  H   UNL     1      -8.457   6.230  70.692  1.00  0.00     0.000 HD 
ENDBRANCH  37  38
ENDBRANCH   5  37
ENDBRANCH   4   5
ENDBRANCH   3   4
TORSDOF 12
ENDMDL
MODEL       48
REMARK 921   NORMALIZED FREE ENERGY PREDICTED BY IDOCK:   -6.40 KCAL/MOL
REMARK 922        TOTAL FREE ENERGY PREDICTED BY IDOCK:  -11.81 KCAL/MOL
REMARK 923 INTER-LIGAND FREE ENERGY PREDICTED BY IDOCK:  -10.77 KCAL/MOL
REMARK 924 INTRA-LIGAND FREE ENERGY PREDICTED BY IDOCK:   -1.04 KCAL/MOL
REMARK 927      BINDING AFFINITY PREDICTED BY RF-SCORE:    0.00 PKD
ROOT
HETATM    1  O   UNL     1      -9.720  15.226  70.219  1.00  0.00    -0.430 OA 
HETATM    2  H   UNL     1      -9.329  15.607  69.441  1.00  0.00     0.000 HD 
HETATM    3  C   UNL     1     -10.978  15.822  70.528  1.00  0.00    -0.343 C  
ENDROOT
BRANCH   3   4
HETATM    4  C   UNL     1     -11.614  15.202  71.792  1.00  0.00    -0.408 C  
BRANCH   4   5
HETATM    5  N   UNL     1     -12.651  14.177  71.548  1.00  0.00    -0.344 NA 
BRANCH   5   6
HETATM    6  C   UNL     1     -12.266  13.128  70.733  1.00  0.00    -0.290 A  
HETATM    7  C   UNL     1     -11.135  12.469  67.327  1.00  0.00    -0.274 A  
HETATM    8  N   UNL     1     -10.680  11.427  66.588  1.00  0.00    -0.259 NA 
HETATM    9  N   UNL     1     -11.936  13.357  69.462  1.00  0.00    -0.323 NA 
HETATM   10  C   UNL     1     -11.497  12.332  68.681  1.00  0.00    -0.307 A  
HETATM   11  N   UNL     1     -12.206  11.909  71.255  1.00  0.00    -0.094 NA 
HETATM   12  C   UNL     1     -10.612  10.223  67.140  1.00  0.00    -0.260 A  
HETATM   13  C   UNL     1     -11.399  11.038  69.160  1.00  0.00    -0.280 A  
HETATM   14  C   UNL     1     -11.789  10.876  70.496  1.00  0.00    -0.360 A  
HETATM   15  N   UNL     1     -11.005   9.997  68.386  1.00  0.00    -0.236 NA 
BRANCH  14  16
HETATM   16  N   UNL     1     -11.835   9.629  71.109  1.00  0.00    -0.338 NA 
HETATM   17  C   UNL     1     -10.627   7.575  71.439  1.00  0.00    -0.229 C  
HETATM   18  C   UNL     1     -11.946   6.882  71.802  1.00  0.00    -0.372 C  
HETATM   19  C   UNL     1     -10.675   9.062  71.788  1.00  0.00    -0.367 C  
HETATM   20  C   UNL     1     -13.126   9.109  71.558  1.00  0.00    -0.349 C  
HETATM   21  C   UNL     1     -13.158   7.616  71.220  1.00  0.00    -0.279 C  
ENDBRANCH  14  16
BRANCH  12  22
HETATM   22  N   UNL     1     -10.104   9.160  66.423  1.00  0.00    -0.289 NA 
BRANCH  22  23
HETATM   23  C   UNL     1     -10.602   7.825  66.770  1.00  0.00    -0.177 C  
BRANCH  23  24
HETATM   24  C   UNL     1      -9.490   6.767  66.884  1.00  0.00    -0.156 C  
HETATM   25  O   UNL     1      -9.282   6.086  65.648  1.00  0.00    -0.334 OA 
HETATM   26  H   UNL     1      -8.596   5.433  65.718  1.00  0.00     0.000 HD 
ENDBRANCH  23  24
ENDBRANCH  22  23
BRANCH  22  27
HETATM   27  C   UNL     1      -9.524   9.388  65.098  1.00  0.00    -0.185 C  
BRANCH  27  28
HETATM   28  C   UNL     1      -7.985   9.337  65.134  1.00  0.00    -0.116 C  
HETATM   29  O   UNL     1      -7.484   8.182  64.457  1.00  0.00    -0.090 OA 
HETATM   30  H   UNL     1      -6.535   8.151  64.480  1.00  0.00     0.000 HD 
ENDBRANCH  27  28
ENDBRANCH  22  27
ENDBRANCH  12  22
BRANCH   7  31
HETATM   31  N   UNL     1     -11.164  13.679  66.636  1.00  0.00    -0.306 NA 
HETATM   32  C   UNL     1     -10.261  14.787  66.928  1.00  0.00    -0.257 C  
HETATM   33  C   UNL     1     -12.428  14.051  65.997  1.00  0.00    -0.455 C  
HETATM   34  C   UNL     1      -9.914  15.489  65.615  1.00  0.00    -0.394 C  
HETATM   35  C   UNL     1     -12.126  14.741  64.668  1.00  0.00    -0.437 C  
HETATM   36  C   UNL     1     -11.167  15.916  64.853  1.00  0.00    -0.345 C  
ENDBRANCH   7  31
ENDBRANCH   5   6
BRANCH   5  37
HETATM   37  C   UNL     1     -14.041  14.640  71.451  1.00  0.00    -0.392 C  
BRANCH  37  38
HETATM   38  C   UNL     1     -14.308  15.891  72.313  1.00  0.00    -0.084 C  
HETATM   39  O   UNL     1     -13.820  15.740  73.645  1.00  0.00    -0.611 OA 
HETATM   40  H   UNL     1     -13.984  16.511  74.176  1.00  0.00     0.000 HD 
ENDBRANCH  37  38
ENDBRANCH   5  37
ENDBRANCH   4   5
ENDBRANCH   3   4
TORSDOF 12
ENDMDL
MODEL       49
REMARK 921   NORMALIZED FREE ENERGY PREDICTED BY IDOCK:   -6.38 KCAL/MOL
REMARK 922        TOTAL FREE ENERGY PREDICTED BY IDOCK:  -11.77 KCAL/MOL
REMARK 923 INTER-LIGAND FREE ENERGY PREDICTED BY IDOCK:  -10.06 KCAL/MOL
REMARK 924 INTRA-LIGAND FREE ENERGY PREDICTED BY IDOCK:   -1.71 KCAL/MOL
REMARK 927      BINDING AFFINITY PREDICTED BY RF-SCORE:    0.00 PKD
ROOT
HETATM    1  O   UNL     1     -11.136  13.405  69.809  1.00  0.00    -0.464 OA 
HETATM    2  H   UNL     1     -11.441  13.445  70.707  1.00  0.00     0.000 HD 
HETATM    3  C   UNL     1     -12.103  13.920  68.895  1.00  0.00    -0.319 C  
ENDROOT
BRANCH   3   4
HETATM    4  C   UNL     1     -11.605  13.856  67.433  1.00  0.00    -0.368 C  
BRANCH   4   5
HETATM    5  N   UNL     1     -12.055  12.681  66.657  1.00  0.00    -0.539 NA 
BRANCH   5   6
HETATM    6  C   UNL     1     -11.280  11.544  66.801  1.00  0.00    -0.285 A  
HETATM    7  C   UNL     1     -10.755   8.761  69.102  1.00  0.00    -0.131 A  
HETATM    8  N   UNL     1     -10.040   7.610  69.162  1.00  0.00    -0.189 NA 
HETATM    9  N   UNL     1     -11.412  10.780  67.886  1.00  0.00    -0.486 NA 
HETATM   10  C   UNL     1     -10.694   9.629  67.995  1.00  0.00    -0.232 A  
HETATM   11  N   UNL     1     -10.437  11.224  65.828  1.00  0.00    -0.252 NA 
HETATM   12  C   UNL     1      -9.218   7.305  68.167  1.00  0.00    -0.132 A  
HETATM   13  C   UNL     1      -9.804   9.227  67.015  1.00  0.00    -0.198 A  
HETATM   14  C   UNL     1      -9.704  10.097  65.921  1.00  0.00    -0.232 A  
HETATM   15  N   UNL     1      -9.048   8.107  67.124  1.00  0.00    -0.136 NA 
BRANCH  14  16
HETATM   16  N   UNL     1      -8.794   9.890  64.890  1.00  0.00    -0.176 NA 
HETATM   17  C   UNL     1      -8.390   8.651  62.868  1.00  0.00    -0.164 C  
HETATM   18  C   UNL     1      -6.890   8.927  63.024  1.00  0.00    -0.089 C  
HETATM   19  C   UNL     1      -9.221   9.767  63.500  1.00  0.00    -0.184 C  
HETATM   20  C   UNL     1      -7.408  10.320  65.073  1.00  0.00    -0.117 C  
HETATM   21  C   UNL     1      -6.511   9.233  64.476  1.00  0.00    -0.077 C  
ENDBRANCH  14  16
BRANCH  12  22
HETATM   22  N   UNL     1      -8.521   6.116  68.185  1.00  0.00    -0.117 NA 
BRANCH  22  23
HETATM   23  C   UNL     1      -9.278   4.896  67.881  1.00  0.00    -0.122 C  
BRANCH  23  24
HETATM   24  C   UNL     1      -9.773   4.829  66.425  1.00  0.00    -0.195 C  
HETATM   25  O   UNL     1     -11.019   5.506  66.262  1.00  0.00    -0.678 OA 
HETATM   26  H   UNL     1     -11.324   5.464  65.363  1.00  0.00     0.000 HD 
ENDBRANCH  23  24
ENDBRANCH  22  23
BRANCH  22  27
HETATM   27  C   UNL     1      -7.068   6.122  68.005  1.00  0.00    -0.078 C  
BRANCH  27  28
HETATM   28  C   UNL     1      -6.340   6.621  69.267  1.00  0.00    -0.035 C  
HETATM   29  O   UNL     1      -6.988   6.169  70.458  1.00  0.00    -0.059 OA 
HETATM   30  H   UNL     1      -6.539   6.478  71.236  1.00  0.00     0.000 HD 
ENDBRANCH  27  28
ENDBRANCH  22  27
ENDBRANCH  12  22
BRANCH   7  31
HETATM   31  N   UNL     1     -11.578   8.972  70.207  1.00  0.00    -0.135 NA 
HETATM   32  C   UNL     1     -11.619  10.231  70.942  1.00  0.00    -0.365 C  
HETATM   33  C   UNL     1     -11.994   7.788  70.962  1.00  0.00    -0.262 C  
HETATM   34  C   UNL     1     -13.056  10.474  71.407  1.00  0.00    -0.509 C  
HETATM   35  C   UNL     1     -13.436   7.983  71.431  1.00  0.00    -0.263 C  
HETATM   36  C   UNL     1     -13.601   9.291  72.204  1.00  0.00    -0.536 C  
ENDBRANCH   7  31
ENDBRANCH   5   6
BRANCH   5  37
HETATM   37  C   UNL     1     -12.649  12.937  65.338  1.00  0.00    -0.378 C  
BRANCH  37  38
HETATM   38  C   UNL     1     -12.213  14.294  64.749  1.00  0.00    -0.443 C  
HETATM   39  O   UNL     1     -12.453  14.374  63.344  1.00  0.00    -1.109 OA 
HETATM   40  H   UNL     1     -12.185  15.210  62.982  1.00  0.00     0.000 HD 
ENDBRANCH  37  38
ENDBRANCH   5  37
ENDBRANCH   4   5
ENDBRANCH   3   4
TORSDOF 12
ENDMDL
MODEL       50
REMARK 921   NORMALIZED FREE ENERGY PREDICTED BY IDOCK:   -6.32 KCAL/MOL
REMARK 922        TOTAL FREE ENERGY PREDICTED BY IDOCK:  -11.67 KCAL/MOL
REMARK 923 INTER-LIGAND FREE ENERGY PREDICTED BY IDOCK:  -10.27 KCAL/MOL
REMARK 924 INTRA-LIGAND FREE ENERGY PREDICTED BY IDOCK:   -1.40 KCAL/MOL
REMARK 927      BINDING AFFINITY PREDICTED BY RF-SCORE:    0.00 PKD
ROOT
HETATM    1  O   UNL     1     -12.984  15.415  69.917  1.00  0.00    -0.635 OA 
HETATM    2  H   UNL     1     -12.953  16.354  70.056  1.00  0.00     0.000 HD 
HETATM    3  C   UNL     1     -11.973  14.978  69.010  1.00  0.00    -0.264 C  
ENDROOT
BRANCH   3   4
HETATM    4  C   UNL     1     -12.024  13.449  68.785  1.00  0.00    -0.324 C  
BRANCH   4   5
HETATM    5  N   UNL     1     -11.871  13.005  67.383  1.00  0.00    -0.367 NA 
BRANCH   5   6
HETATM    6  C   UNL     1     -11.251  11.780  67.215  1.00  0.00    -0.305 A  
HETATM    7  C   UNL     1     -10.839   8.570  68.900  1.00  0.00     0.023 A  
HETATM    8  N   UNL     1     -10.290   7.354  68.656  1.00  0.00    -0.195 NA 
HETATM    9  N   UNL     1     -11.354  10.845  68.159  1.00  0.00    -0.323 NA 
HETATM   10  C   UNL     1     -10.795   9.619  67.962  1.00  0.00    -0.196 A  
HETATM   11  N   UNL     1     -10.586  11.556  66.088  1.00  0.00    -0.258 NA 
HETATM   12  C   UNL     1      -9.647   7.151  67.514  1.00  0.00    -0.132 A  
HETATM   13  C   UNL     1     -10.097   9.311  66.808  1.00  0.00    -0.261 A  
HETATM   14  C   UNL     1     -10.012  10.355  65.877  1.00  0.00    -0.255 A  
HETATM   15  N   UNL     1      -9.497   8.111  66.611  1.00  0.00    -0.197 NA 
BRANCH  14  16
HETATM   16  N   UNL     1      -9.273  10.245  64.705  1.00  0.00    -0.221 NA 
HETATM   17  C   UNL     1      -9.405   9.711  62.362  1.00  0.00    -0.142 C  
HETATM   18  C   UNL     1      -7.896   9.443  62.360  1.00  0.00    -0.122 C  
HETATM   19  C   UNL     1      -9.777  10.742  63.428  1.00  0.00    -0.351 C  
HETATM   20  C   UNL     1      -7.818  10.140  64.793  1.00  0.00    -0.146 C  
HETATM   21  C   UNL     1      -7.372   9.102  63.758  1.00  0.00    -0.100 C  
ENDBRANCH  14  16
BRANCH  12  22
HETATM   22  N   UNL     1      -9.126   5.908  67.224  1.00  0.00    -0.112 NA 
BRANCH  22  23
HETATM   23  C   UNL     1      -7.746   5.650  67.650  1.00  0.00    -0.097 C  
BRANCH  23  24
HETATM   24  C   UNL     1      -7.437   4.155  67.852  1.00  0.00    -0.068 C  
HETATM   25  O   UNL     1      -6.566   3.657  66.837  1.00  0.00    -0.040 OA 
HETATM   26  H   UNL     1      -6.376   2.734  66.962  1.00  0.00     0.000 HD 
ENDBRANCH  23  24
ENDBRANCH  22  23
BRANCH  22  27
HETATM   27  C   UNL     1     -10.027   4.778  66.987  1.00  0.00    -0.204 C  
BRANCH  27  28
HETATM   28  C   UNL     1     -10.174   4.474  65.484  1.00  0.00    -0.231 C  
HETATM   29  O   UNL     1     -11.541   4.528  65.072  1.00  0.00    -1.101 OA 
HETATM   30  H   UNL     1     -11.632   4.340  64.145  1.00  0.00     0.000 HD 
ENDBRANCH  27  28
ENDBRANCH  22  27
ENDBRANCH  12  22
BRANCH   7  31
HETATM   31  N   UNL     1     -11.483   8.660  70.133  1.00  0.00    -0.089 NA 
HETATM   32  C   UNL     1     -11.422   9.847  70.979  1.00  0.00    -0.388 C  
HETATM   33  C   UNL     1     -11.765   7.404  70.830  1.00  0.00    -0.296 C  
HETATM   34  C   UNL     1     -12.772  10.012  71.680  1.00  0.00    -0.535 C  
HETATM   35  C   UNL     1     -13.118   7.520  71.531  1.00  0.00    -0.402 C  
HETATM   36  C   UNL     1     -13.174   8.749  72.438  1.00  0.00    -0.441 C  
ENDBRANCH   7  31
ENDBRANCH   5   6
BRANCH   5  37
HETATM   37  C   UNL     1     -11.615  14.042  66.376  1.00  0.00    -0.369 C  
BRANCH  37  38
HETATM   38  C   UNL     1     -12.768  14.176  65.360  1.00  0.00    -0.431 C  
HETATM   39  O   UNL     1     -12.847  13.051  64.485  1.00  0.00    -0.692 OA 
HETATM   40  H   UNL     1     -13.557  13.134  63.859  1.00  0.00     0.000 HD 
ENDBRANCH  37  38
ENDBRANCH   5  37
ENDBRANCH   4   5
ENDBRANCH   3   4
TORSDOF 12
ENDMDL
MODEL       51
REMARK 921   NORMALIZED FREE ENERGY PREDICTED BY IDOCK:   -6.25 KCAL/MOL
REMARK 922        TOTAL FREE ENERGY PREDICTED BY IDOCK:  -11.56 KCAL/MOL
REMARK 923 INTER-LIGAND FREE ENERGY PREDICTED BY IDOCK:  -10.18 KCAL/MOL
REMARK 924 INTRA-LIGAND FREE ENERGY PREDICTED BY IDOCK:   -1.38 KCAL/MOL
REMARK 927      BINDING AFFINITY PREDICTED BY RF-SCORE:    0.00 PKD
ROOT
HETATM    1  O   UNL     1     -10.020   6.317  72.557  1.00  0.00    -0.171 OA 
HETATM    2  H   UNL     1     -10.028   5.562  73.134  1.00  0.00     0.000 HD 
HETATM    3  C   UNL     1      -9.813   7.533  73.274  1.00  0.00    -0.288 C  
ENDROOT
BRANCH   3   4
HETATM    4  C   UNL     1      -9.800   8.760  72.335  1.00  0.00    -0.156 C  
BRANCH   4   5
HETATM    5  N   UNL     1     -11.027   8.967  71.537  1.00  0.00    -0.321 NA 
BRANCH   5   6
HETATM    6  C   UNL     1     -10.888   9.807  70.446  1.00  0.00    -0.311 A  
HETATM    7  C   UNL     1     -11.718  13.193  69.368  1.00  0.00    -0.327 A  
HETATM    8  N   UNL     1     -11.484  14.013  68.314  1.00  0.00    -0.285 NA 
HETATM    9  N   UNL     1     -11.402  11.037  70.482  1.00  0.00    -0.163 NA 
HETATM   10  C   UNL     1     -11.209  11.882  69.432  1.00  0.00    -0.211 A  
HETATM   11  N   UNL     1     -10.213   9.369  69.392  1.00  0.00    -0.198 NA 
HETATM   12  C   UNL     1     -10.789  13.556  67.280  1.00  0.00    -0.276 A  
HETATM   13  C   UNL     1     -10.506  11.497  68.304  1.00  0.00    -0.197 A  
HETATM   14  C   UNL     1     -10.023  10.183  68.334  1.00  0.00    -0.156 A  
HETATM   15  N   UNL     1     -10.340  12.309  67.230  1.00  0.00    -0.213 NA 
BRANCH  14  16
HETATM   16  N   UNL     1      -9.372   9.608  67.248  1.00  0.00    -0.137 NA 
HETATM   17  C   UNL     1      -7.220   9.254  66.230  1.00  0.00    -0.088 C  
HETATM   18  C   UNL     1      -7.920   8.996  64.891  1.00  0.00    -0.126 C  
HETATM   19  C   UNL     1      -8.123   8.869  67.403  1.00  0.00    -0.108 C  
HETATM   20  C   UNL     1     -10.150   9.258  66.061  1.00  0.00    -0.192 C  
HETATM   21  C   UNL     1      -9.311   9.636  64.837  1.00  0.00    -0.306 C  
ENDBRANCH  14  16
BRANCH  12  22
HETATM   22  N   UNL     1     -10.497  14.388  66.221  1.00  0.00    -0.284 NA 
BRANCH  22  23
HETATM   23  C   UNL     1     -11.583  14.667  65.274  1.00  0.00    -0.354 C  
BRANCH  23  24
HETATM   24  C   UNL     1     -11.766  13.569  64.211  1.00  0.00    -0.416 C  
HETATM   25  O   UNL     1     -12.945  12.800  64.447  1.00  0.00    -0.723 OA 
HETATM   26  H   UNL     1     -13.057  12.122  63.791  1.00  0.00     0.000 HD 
ENDBRANCH  23  24
ENDBRANCH  22  23
BRANCH  22  27
HETATM   27  C   UNL     1      -9.371  15.320  66.316  1.00  0.00    -0.310 C  
BRANCH  27  28
HETATM   28  C   UNL     1      -9.831  16.783  66.182  1.00  0.00    -0.309 C  
HETATM   29  O   UNL     1      -8.954  17.673  66.876  1.00  0.00    -0.233 OA 
HETATM   30  H   UNL     1      -9.238  18.575  66.794  1.00  0.00     0.000 HD 
ENDBRANCH  27  28
ENDBRANCH  22  27
ENDBRANCH  12  22
BRANCH   7  31
HETATM   31  N   UNL     1     -12.461  13.785  70.388  1.00  0.00    -0.331 NA 
HETATM   32  C   UNL     1     -13.396  13.045  71.228  1.00  0.00    -0.006 C  
HETATM   33  C   UNL     1     -12.719  15.223  70.275  1.00  0.00    -0.314 C  
HETATM   34  C   UNL     1     -13.344  13.627  72.641  1.00  0.00    -0.587 C  
HETATM   35  C   UNL     1     -12.657  15.847  71.668  1.00  0.00    -0.475 C  
HETATM   36  C   UNL     1     -13.593  15.133  72.643  1.00  0.00    -0.594 C  
ENDBRANCH   7  31
ENDBRANCH   5   6
BRANCH   5  37
HETATM   37  C   UNL     1     -12.302   9.002  72.265  1.00  0.00    -0.332 C  
BRANCH  37  38
HETATM   38  C   UNL     1     -13.456   8.370  71.462  1.00  0.00    -0.286 C  
HETATM   39  O   UNL     1     -14.286   9.355  70.846  1.00  0.00    -0.396 OA 
HETATM   40  H   UNL     1     -14.997   8.966  70.351  1.00  0.00     0.000 HD 
ENDBRANCH  37  38
ENDBRANCH   5  37
ENDBRANCH   4   5
ENDBRANCH   3   4
TORSDOF 12
ENDMDL
MODEL       52
REMARK 921   NORMALIZED FREE ENERGY PREDICTED BY IDOCK:   -6.23 KCAL/MOL
REMARK 922        TOTAL FREE ENERGY PREDICTED BY IDOCK:  -11.52 KCAL/MOL
REMARK 923 INTER-LIGAND FREE ENERGY PREDICTED BY IDOCK:  -10.43 KCAL/MOL
REMARK 924 INTRA-LIGAND FREE ENERGY PREDICTED BY IDOCK:   -1.09 KCAL/MOL
REMARK 927      BINDING AFFINITY PREDICTED BY RF-SCORE:    0.00 PKD
ROOT
HETATM    1  O   UNL     1     -11.743  16.449  63.629  1.00  0.00    -1.520 OA 
HETATM    2  H   UNL     1     -12.002  15.875  62.917  1.00  0.00     0.000 HD 
HETATM    3  C   UNL     1     -11.394  15.717  64.803  1.00  0.00    -0.343 C  
ENDROOT
BRANCH   3   4
HETATM    4  C   UNL     1     -10.972  16.650  65.960  1.00  0.00     0.085 C  
BRANCH   4   5
HETATM    5  N   UNL     1      -9.898  16.137  66.835  1.00  0.00    -0.235 NA 
BRANCH   5   6
HETATM    6  C   UNL     1     -10.223  15.013  67.574  1.00  0.00    -0.234 A  
HETATM    7  C   UNL     1      -9.871  11.382  67.490  1.00  0.00    -0.178 A  
HETATM    8  N   UNL     1     -10.130  10.315  68.285  1.00  0.00    -0.149 NA 
HETATM    9  N   UNL     1      -9.899  13.801  67.122  1.00  0.00    -0.237 NA 
HETATM   10  C   UNL     1     -10.164  12.702  67.881  1.00  0.00    -0.220 A  
HETATM   11  N   UNL     1     -10.831  15.176  68.742  1.00  0.00    -0.238 NA 
HETATM   12  C   UNL     1     -10.721  10.508  69.457  1.00  0.00    -0.255 A  
HETATM   13  C   UNL     1     -10.785  12.798  69.114  1.00  0.00    -0.016 A  
HETATM   14  C   UNL     1     -11.117  14.102  69.504  1.00  0.00    -0.178 A  
HETATM   15  N   UNL     1     -11.097  11.713  69.865  1.00  0.00    -0.059 NA 
BRANCH  14  16
HETATM   16  N   UNL     1     -11.822  14.369  70.672  1.00  0.00    -0.302 NA 
HETATM   17  C   UNL     1     -14.021  14.446  71.646  1.00  0.00    -0.506 C  
HETATM   18  C   UNL     1     -13.479  15.370  72.743  1.00  0.00    -0.637 C  
HETATM   19  C   UNL     1     -12.924  13.522  71.117  1.00  0.00    -0.262 C  
HETATM   20  C   UNL     1     -11.170  15.138  71.731  1.00  0.00    -0.223 C  
HETATM   21  C   UNL     1     -12.212  16.106  72.300  1.00  0.00    -0.577 C  
ENDBRANCH  14  16
BRANCH  12  22
HETATM   22  N   UNL     1     -10.947   9.443  70.303  1.00  0.00    -0.249 NA 
BRANCH  22  23
HETATM   23  C   UNL     1     -10.007   8.319  70.223  1.00  0.00    -0.186 C  
BRANCH  23  24
HETATM   24  C   UNL     1     -10.619   7.052  69.600  1.00  0.00    -0.234 C  
HETATM   25  O   UNL     1     -11.016   7.271  68.247  1.00  0.00    -0.428 OA 
HETATM   26  H   UNL     1     -11.394   6.489  67.862  1.00  0.00     0.000 HD 
ENDBRANCH  23  24
ENDBRANCH  22  23
BRANCH  22  27
HETATM   27  C   UNL     1     -11.731   9.637  71.524  1.00  0.00    -0.400 C  
BRANCH  27  28
HETATM   28  C   UNL     1     -12.780   8.525  71.710  1.00  0.00    -0.349 C  
HETATM   29  O   UNL     1     -12.345   7.551  72.662  1.00  0.00    -0.535 OA 
HETATM   30  H   UNL     1     -12.992   6.865  72.776  1.00  0.00     0.000 HD 
ENDBRANCH  27  28
ENDBRANCH  22  27
ENDBRANCH  12  22
BRANCH   7  31
HETATM   31  N   UNL     1      -9.253  11.050  66.285  1.00  0.00    -0.176 NA 
HETATM   32  C   UNL     1      -7.806  10.967  66.127  1.00  0.00    -0.144 C  
HETATM   33  C   UNL     1     -10.006  11.314  65.057  1.00  0.00    -0.274 C  
HETATM   34  C   UNL     1      -7.489   9.833  65.151  1.00  0.00    -0.122 C  
HETATM   35  C   UNL     1      -9.731  10.190  64.058  1.00  0.00    -0.273 C  
HETATM   36  C   UNL     1      -8.232  10.000  63.828  1.00  0.00    -0.161 C  
ENDBRANCH   7  31
ENDBRANCH   5   6
BRANCH   5  37
HETATM   37  C   UNL     1      -9.010  17.127  67.459  1.00  0.00    -0.221 C  
BRANCH  37  38
HETATM   38  C   UNL     1      -7.535  16.679  67.458  1.00  0.00    -0.153 C  
HETATM   39  O   UNL     1      -7.312  15.559  66.602  1.00  0.00    -0.241 OA 
HETATM   40  H   UNL     1      -6.404  15.283  66.602  1.00  0.00     0.000 HD 
ENDBRANCH  37  38
ENDBRANCH   5  37
ENDBRANCH   4   5
ENDBRANCH   3   4
TORSDOF 12
ENDMDL
MODEL       53
REMARK 921   NORMALIZED FREE ENERGY PREDICTED BY IDOCK:   -6.14 KCAL/MOL
REMARK 922        TOTAL FREE ENERGY PREDICTED BY IDOCK:  -11.36 KCAL/MOL
REMARK 923 INTER-LIGAND FREE ENERGY PREDICTED BY IDOCK:  -10.32 KCAL/MOL
REMARK 924 INTRA-LIGAND FREE ENERGY PREDICTED BY IDOCK:   -1.04 KCAL/MOL
REMARK 927      BINDING AFFINITY PREDICTED BY RF-SCORE:    0.00 PKD
ROOT
HETATM    1  O   UNL     1      -9.309   6.173  72.788  1.00  0.00    -0.149 OA 
HETATM    2  H   UNL     1      -8.833   5.520  73.288  1.00  0.00     0.000 HD 
HETATM    3  C   UNL     1      -9.441   7.400  73.505  1.00  0.00    -0.256 C  
ENDROOT
BRANCH   3   4
HETATM    4  C   UNL     1     -10.216   8.461  72.691  1.00  0.00    -0.249 C  
BRANCH   4   5
HETATM    5  N   UNL     1     -11.168   7.931  71.693  1.00  0.00    -0.245 NA 
BRANCH   5   6
HETATM    6  C   UNL     1     -10.956   8.351  70.392  1.00  0.00    -0.239 A  
HETATM    7  C   UNL     1     -11.245  11.332  68.307  1.00  0.00    -0.267 A  
HETATM    8  N   UNL     1     -10.941  11.726  67.046  1.00  0.00    -0.269 NA 
HETATM    9  N   UNL     1     -11.241   9.605  70.041  1.00  0.00    -0.243 NA 
HETATM   10  C   UNL     1     -10.973  10.033  68.777  1.00  0.00    -0.202 A  
HETATM   11  N   UNL     1     -10.440   7.490  69.524  1.00  0.00    -0.223 NA 
HETATM   12  C   UNL     1     -10.407  10.851  66.204  1.00  0.00    -0.248 A  
HETATM   13  C   UNL     1     -10.424   9.194  67.823  1.00  0.00    -0.247 A  
HETATM   14  C   UNL     1     -10.179   7.886  68.262  1.00  0.00    -0.203 A  
HETATM   15  N   UNL     1     -10.190   9.588  66.547  1.00  0.00    -0.253 NA 
BRANCH  14  16
HETATM   16  N   UNL     1      -9.713   6.893  67.409  1.00  0.00    -0.133 NA 
HETATM   17  C   UNL     1      -8.465   6.484  65.393  1.00  0.00    -0.119 C  
HETATM   18  C   UNL     1      -9.138   5.110  65.281  1.00  0.00    -0.126 C  
HETATM   19  C   UNL     1      -8.365   6.927  66.852  1.00  0.00    -0.114 C  
HETATM   20  C   UNL     1     -10.318   5.563  67.474  1.00  0.00    -0.214 C  
HETATM   21  C   UNL     1     -10.469   5.060  66.036  1.00  0.00    -0.289 C  
ENDBRANCH  14  16
BRANCH  12  22
HETATM   22  N   UNL     1     -10.044  11.245  64.934  1.00  0.00    -0.262 NA 
BRANCH  22  23
HETATM   23  C   UNL     1      -9.584  10.195  64.018  1.00  0.00    -0.257 C  
BRANCH  23  24
HETATM   24  C   UNL     1      -8.073  10.256  63.726  1.00  0.00    -0.143 C  
HETATM   25  O   UNL     1      -7.333  10.673  64.872  1.00  0.00    -0.338 OA 
HETATM   26  H   UNL     1      -6.401  10.711  64.692  1.00  0.00     0.000 HD 
ENDBRANCH  23  24
ENDBRANCH  22  23
BRANCH  22  27
HETATM   27  C   UNL     1     -10.562  12.499  64.385  1.00  0.00    -0.350 C  
BRANCH  27  28
HETATM   28  C   UNL     1     -11.985  12.330  63.823  1.00  0.00    -0.519 C  
HETATM   29  O   UNL     1     -12.372  13.455  63.031  1.00  0.00    -0.867 OA 
HETATM   30  H   UNL     1     -13.250  13.350  62.684  1.00  0.00     0.000 HD 
ENDBRANCH  27  28
ENDBRANCH  22  27
ENDBRANCH  12  22
BRANCH   7  31
HETATM   31  N   UNL     1     -11.803  12.338  69.093  1.00  0.00    -0.310 NA 
HETATM   32  C   UNL     1     -12.801  12.084  70.125  1.00  0.00     0.382 C  
HETATM   33  C   UNL     1     -11.805  13.693  68.537  1.00  0.00    -0.371 C  
HETATM   34  C   UNL     1     -12.556  13.049  71.286  1.00  0.00    -0.373 C  
HETATM   35  C   UNL     1     -11.543  14.691  69.665  1.00  0.00    -0.349 C  
HETATM   36  C   UNL     1     -12.528  14.502  70.818  1.00  0.00    -0.420 C  
ENDBRANCH   7  31
ENDBRANCH   5   6
BRANCH   5  37
HETATM   37  C   UNL     1     -12.557   7.737  72.128  1.00  0.00    -0.219 C  
BRANCH  37  38
HETATM   38  C   UNL     1     -13.268   9.070  72.438  1.00  0.00    -0.447 C  
HETATM   39  O   UNL     1     -14.155   8.961  73.552  1.00  0.00    -1.189 OA 
HETATM   40  H   UNL     1     -14.592   9.783  73.742  1.00  0.00     0.000 HD 
ENDBRANCH  37  38
ENDBRANCH   5  37
ENDBRANCH   4   5
ENDBRANCH   3   4
TORSDOF 12
ENDMDL
MODEL       54
REMARK 921   NORMALIZED FREE ENERGY PREDICTED BY IDOCK:   -6.12 KCAL/MOL
REMARK 922        TOTAL FREE ENERGY PREDICTED BY IDOCK:  -11.32 KCAL/MOL
REMARK 923 INTER-LIGAND FREE ENERGY PREDICTED BY IDOCK:   -9.92 KCAL/MOL
REMARK 924 INTRA-LIGAND FREE ENERGY PREDICTED BY IDOCK:   -1.40 KCAL/MOL
REMARK 927      BINDING AFFINITY PREDICTED BY RF-SCORE:    0.00 PKD
ROOT
HETATM    1  O   UNL     1      -9.870   6.687  72.473  1.00  0.00    -0.165 OA 
HETATM    2  H   UNL     1     -10.006   5.828  72.855  1.00  0.00     0.000 HD 
HETATM    3  C   UNL     1     -11.011   7.528  72.634  1.00  0.00    -0.336 C  
ENDROOT
BRANCH   3   4
HETATM    4  C   UNL     1     -10.789   8.925  72.013  1.00  0.00    -0.334 C  
BRANCH   4   5
HETATM    5  N   UNL     1     -11.796   9.348  71.017  1.00  0.00    -0.305 NA 
BRANCH   5   6
HETATM    6  C   UNL     1     -11.287   9.752  69.795  1.00  0.00    -0.158 A  
HETATM    7  C   UNL     1      -9.720   8.380  66.799  1.00  0.00    -0.242 A  
HETATM    8  N   UNL     1      -9.313   8.803  65.577  1.00  0.00    -0.154 NA 
HETATM    9  N   UNL     1     -10.751   8.855  68.967  1.00  0.00    -0.176 NA 
HETATM   10  C   UNL     1     -10.309   9.246  67.740  1.00  0.00    -0.237 A  
HETATM   11  N   UNL     1     -11.374  11.034  69.465  1.00  0.00    -0.262 NA 
HETATM   12  C   UNL     1      -9.430  10.087  65.264  1.00  0.00    -0.263 A  
HETATM   13  C   UNL     1     -10.378  10.563  67.324  1.00  0.00    -0.228 A  
HETATM   14  C   UNL     1     -10.929  11.447  68.261  1.00  0.00    -0.216 A  
HETATM   15  N   UNL     1      -9.904  10.980  66.123  1.00  0.00    -0.217 NA 
BRANCH  14  16
HETATM   16  N   UNL     1     -10.992  12.818  68.040  1.00  0.00    -0.229 NA 
HETATM   17  C   UNL     1     -11.610  14.507  66.442  1.00  0.00    -0.370 C  
HETATM   18  C   UNL     1     -10.708  15.504  67.179  1.00  0.00    -0.315 C  
HETATM   19  C   UNL     1     -12.145  13.441  67.398  1.00  0.00    -0.293 C  
HETATM   20  C   UNL     1     -10.206  13.709  68.892  1.00  0.00    -0.077 C  
HETATM   21  C   UNL     1      -9.618  14.799  67.992  1.00  0.00    -0.209 C  
ENDBRANCH  14  16
BRANCH  12  22
HETATM   22  N   UNL     1      -9.069  10.530  64.010  1.00  0.00    -0.213 NA 
BRANCH  22  23
HETATM   23  C   UNL     1      -7.754  10.115  63.510  1.00  0.00    -0.144 C  
BRANCH  23  24
HETATM   24  C   UNL     1      -6.588  10.557  64.414  1.00  0.00     0.072 C  
HETATM   25  O   UNL     1      -5.497  11.071  63.651  1.00  0.00    -0.372 OA 
HETATM   26  H   UNL     1      -4.778  11.343  64.209  1.00  0.00     0.000 HD 
ENDBRANCH  23  24
ENDBRANCH  22  23
BRANCH  22  27
HETATM   27  C   UNL     1     -10.104  10.934  63.056  1.00  0.00    -0.201 C  
BRANCH  27  28
HETATM   28  C   UNL     1     -10.867  12.183  63.538  1.00  0.00    -0.458 C  
HETATM   29  O   UNL     1      -9.974  13.256  63.840  1.00  0.00    -0.753 OA 
HETATM   30  H   UNL     1     -10.444  14.026  64.137  1.00  0.00     0.000 HD 
ENDBRANCH  27  28
ENDBRANCH  22  27
ENDBRANCH  12  22
BRANCH   7  31
HETATM   31  N   UNL     1      -9.543   7.013  67.009  1.00  0.00    -0.149 NA 
HETATM   32  C   UNL     1     -10.644   6.100  67.293  1.00  0.00    -0.290 C  
HETATM   33  C   UNL     1      -8.227   6.577  67.482  1.00  0.00    -0.121 C  
HETATM   34  C   UNL     1     -10.346   4.757  66.625  1.00  0.00    -0.258 C  
HETATM   35  C   UNL     1      -7.881   5.244  66.821  1.00  0.00    -0.100 C  
HETATM   36  C   UNL     1      -8.983   4.208  67.041  1.00  0.00    -0.137 C  
ENDBRANCH   7  31
ENDBRANCH   5   6
BRANCH   5  37
HETATM   37  C   UNL     1     -12.986  10.045  71.521  1.00  0.00    -0.434 C  
BRANCH  37  38
HETATM   38  C   UNL     1     -14.111   9.071  71.929  1.00  0.00    -0.341 C  
HETATM   39  O   UNL     1     -14.225   8.942  73.345  1.00  0.00    -1.241 OA 
HETATM   40  H   UNL     1     -14.917   8.343  73.596  1.00  0.00     0.000 HD 
ENDBRANCH  37  38
ENDBRANCH   5  37
ENDBRANCH   4   5
ENDBRANCH   3   4
TORSDOF 12
ENDMDL
MODEL       55
REMARK 921   NORMALIZED FREE ENERGY PREDICTED BY IDOCK:   -6.09 KCAL/MOL
REMARK 922        TOTAL FREE ENERGY PREDICTED BY IDOCK:  -11.29 KCAL/MOL
REMARK 923 INTER-LIGAND FREE ENERGY PREDICTED BY IDOCK:  -10.13 KCAL/MOL
REMARK 924 INTRA-LIGAND FREE ENERGY PREDICTED BY IDOCK:   -1.15 KCAL/MOL
REMARK 927      BINDING AFFINITY PREDICTED BY RF-SCORE:    0.00 PKD
ROOT
HETATM    1  O   UNL     1     -11.143  14.998  72.232  1.00  0.00    -0.440 OA 
HETATM    2  H   UNL     1     -10.598  15.654  72.652  1.00  0.00     0.000 HD 
HETATM    3  C   UNL     1     -12.051  15.581  71.298  1.00  0.00    -0.386 C  
ENDROOT
BRANCH   3   4
HETATM    4  C   UNL     1     -12.938  14.515  70.616  1.00  0.00    -0.301 C  
BRANCH   4   5
HETATM    5  N   UNL     1     -12.479  13.117  70.757  1.00  0.00    -0.339 NA 
BRANCH   5   6
HETATM    6  C   UNL     1     -11.832  12.592  69.653  1.00  0.00    -0.311 A  
HETATM    7  C   UNL     1     -10.173   9.538  68.541  1.00  0.00    -0.199 A  
HETATM    8  N   UNL     1      -9.625   9.031  67.409  1.00  0.00    -0.147 NA 
HETATM    9  N   UNL     1     -11.325  11.360  69.700  1.00  0.00    -0.277 NA 
HETATM   10  C   UNL     1     -10.745  10.824  68.591  1.00  0.00    -0.208 A  
HETATM   11  N   UNL     1     -11.759  13.329  68.552  1.00  0.00    -0.332 NA 
HETATM   12  C   UNL     1      -9.582   9.782  66.317  1.00  0.00    -0.213 A  
HETATM   13  C   UNL     1     -10.644  11.530  67.405  1.00  0.00    -0.214 A  
HETATM   14  C   UNL     1     -11.176  12.825  67.446  1.00  0.00    -0.294 A  
HETATM   15  N   UNL     1     -10.032  11.030  66.303  1.00  0.00    -0.217 NA 
BRANCH  14  16
HETATM   16  N   UNL     1     -11.079  13.700  66.370  1.00  0.00    -0.301 NA 
HETATM   17  C   UNL     1     -10.396  15.912  65.713  1.00  0.00    -0.396 C  
HETATM   18  C   UNL     1     -11.291  15.796  64.473  1.00  0.00    -0.324 C  
HETATM   19  C   UNL     1      -9.902  14.537  66.162  1.00  0.00    -0.318 C  
HETATM   20  C   UNL     1     -11.863  13.430  65.166  1.00  0.00    -0.350 C  
HETATM   21  C   UNL     1     -12.411  14.770  64.667  1.00  0.00    -0.346 C  
ENDBRANCH  14  16
BRANCH  12  22
HETATM   22  N   UNL     1      -9.076   9.268  65.142  1.00  0.00    -0.219 NA 
BRANCH  22  23
HETATM   23  C   UNL     1      -8.539  10.229  64.172  1.00  0.00    -0.192 C  
BRANCH  23  24
HETATM   24  C   UNL     1      -9.344  10.289  62.861  1.00  0.00    -0.311 C  
HETATM   25  O   UNL     1     -10.579  10.982  63.034  1.00  0.00    -0.759 OA 
HETATM   26  H   UNL     1     -11.076  11.019  62.225  1.00  0.00     0.000 HD 
ENDBRANCH  23  24
ENDBRANCH  22  23
BRANCH  22  27
HETATM   27  C   UNL     1      -8.634   7.872  65.089  1.00  0.00    -0.027 C  
BRANCH  27  28
HETATM   28  C   UNL     1      -7.099   7.758  65.150  1.00  0.00    -0.060 C  
HETATM   29  O   UNL     1      -6.615   7.931  66.483  1.00  0.00    -0.052 OA 
HETATM   30  H   UNL     1      -5.668   7.861  66.520  1.00  0.00     0.000 HD 
ENDBRANCH  27  28
ENDBRANCH  22  27
ENDBRANCH  12  22
BRANCH   7  31
HETATM   31  N   UNL     1     -10.155   8.656  69.620  1.00  0.00    -0.196 NA 
HETATM   32  C   UNL     1      -9.220   8.775  70.733  1.00  0.00    -0.198 C  
HETATM   33  C   UNL     1     -10.693   7.313  69.391  1.00  0.00    -0.225 C  
HETATM   34  C   UNL     1      -9.935   8.349  72.016  1.00  0.00    -0.354 C  
HETATM   35  C   UNL     1     -11.434   6.857  70.646  1.00  0.00    -0.383 C  
HETATM   36  C   UNL     1     -10.547   6.957  71.887  1.00  0.00    -0.236 C  
ENDBRANCH   7  31
ENDBRANCH   5   6
BRANCH   5  37
HETATM   37  C   UNL     1     -13.324  12.210  71.545  1.00  0.00    -0.032 C  
BRANCH  37  38
HETATM   38  C   UNL     1     -12.708  10.804  71.686  1.00  0.00    -0.414 C  
HETATM   39  O   UNL     1     -13.379   9.838  70.876  1.00  0.00    -0.562 OA 
HETATM   40  H   UNL     1     -12.999   8.972  70.962  1.00  0.00     0.000 HD 
ENDBRANCH  37  38
ENDBRANCH   5  37
ENDBRANCH   4   5
ENDBRANCH   3   4
TORSDOF 12
ENDMDL
MODEL       56
REMARK 921   NORMALIZED FREE ENERGY PREDICTED BY IDOCK:   -6.09 KCAL/MOL
REMARK 922        TOTAL FREE ENERGY PREDICTED BY IDOCK:  -11.27 KCAL/MOL
REMARK 923 INTER-LIGAND FREE ENERGY PREDICTED BY IDOCK:   -9.77 KCAL/MOL
REMARK 924 INTRA-LIGAND FREE ENERGY PREDICTED BY IDOCK:   -1.50 KCAL/MOL
REMARK 927      BINDING AFFINITY PREDICTED BY RF-SCORE:    0.00 PKD
ROOT
HETATM    1  O   UNL     1      -9.332  14.683  69.619  1.00  0.00    -0.405 OA 
HETATM    2  H   UNL     1      -8.715  14.734  70.340  1.00  0.00     0.000 HD 
HETATM    3  C   UNL     1      -8.682  14.385  68.384  1.00  0.00    -0.180 C  
ENDROOT
BRANCH   3   4
HETATM    4  C   UNL     1      -9.685  14.302  67.211  1.00  0.00    -0.234 C  
BRANCH   4   5
HETATM    5  N   UNL     1     -10.948  13.590  67.501  1.00  0.00    -0.264 NA 
BRANCH   5   6
HETATM    6  C   UNL     1     -10.826  12.228  67.708  1.00  0.00    -0.221 A  
HETATM    7  C   UNL     1      -9.584   9.222  66.054  1.00  0.00    -0.270 A  
HETATM    8  N   UNL     1      -9.402   7.907  66.332  1.00  0.00    -0.192 NA 
HETATM    9  N   UNL     1     -10.298  11.453  66.760  1.00  0.00    -0.225 NA 
HETATM   10  C   UNL     1     -10.121  10.124  66.992  1.00  0.00    -0.223 A  
HETATM   11  N   UNL     1     -11.214  11.727  68.874  1.00  0.00    -0.233 NA 
HETATM   12  C   UNL     1      -9.781   7.436  67.513  1.00  0.00    -0.148 A  
HETATM   13  C   UNL     1     -10.493   9.535  68.188  1.00  0.00    -0.223 A  
HETATM   14  C   UNL     1     -11.062  10.411  69.121  1.00  0.00    -0.246 A  
HETATM   15  N   UNL     1     -10.364   8.206  68.422  1.00  0.00    -0.208 NA 
BRANCH  14  16
HETATM   16  N   UNL     1     -11.570   9.970  70.338  1.00  0.00    -0.284 NA 
HETATM   17  C   UNL     1     -11.467   8.201  71.966  1.00  0.00    -0.380 C  
HETATM   18  C   UNL     1     -12.840   8.636  72.493  1.00  0.00    -0.352 C  
HETATM   19  C   UNL     1     -10.712   9.386  71.363  1.00  0.00    -0.337 C  
HETATM   20  C   UNL     1     -12.817  10.549  70.836  1.00  0.00    -0.394 C  
HETATM   21  C   UNL     1     -13.640   9.409  71.441  1.00  0.00    -0.362 C  
ENDBRANCH  14  16
BRANCH  12  22
HETATM   22  N   UNL     1      -9.559   6.114  67.835  1.00  0.00    -0.118 NA 
BRANCH  22  23
HETATM   23  C   UNL     1     -10.213   5.606  69.046  1.00  0.00    -0.222 C  
BRANCH  23  24
HETATM   24  C   UNL     1      -9.221   5.133  70.124  1.00  0.00    -0.142 C  
HETATM   25  O   UNL     1      -8.898   3.751  69.972  1.00  0.00    -0.074 OA 
HETATM   26  H   UNL     1      -8.287   3.459  70.638  1.00  0.00     0.000 HD 
ENDBRANCH  23  24
ENDBRANCH  22  23
BRANCH  22  27
HETATM   27  C   UNL     1      -9.142   5.172  66.795  1.00  0.00    -0.118 C  
BRANCH  27  28
HETATM   28  C   UNL     1     -10.352   4.556  66.067  1.00  0.00    -0.243 C  
HETATM   29  O   UNL     1     -11.315   5.553  65.718  1.00  0.00    -0.649 OA 
HETATM   30  H   UNL     1     -12.060   5.173  65.269  1.00  0.00     0.000 HD 
ENDBRANCH  27  28
ENDBRANCH  22  27
ENDBRANCH  12  22
BRANCH   7  31
HETATM   31  N   UNL     1      -9.150   9.594  64.783  1.00  0.00    -0.225 NA 
HETATM   32  C   UNL     1      -9.970  10.360  63.852  1.00  0.00    -0.200 C  
HETATM   33  C   UNL     1      -8.103   8.773  64.170  1.00  0.00    -0.162 C  
HETATM   34  C   UNL     1      -9.059  11.303  63.065  1.00  0.00    -0.257 C  
HETATM   35  C   UNL     1      -7.157   9.681  63.387  1.00  0.00    -0.107 C  
HETATM   36  C   UNL     1      -7.917  10.551  62.385  1.00  0.00    -0.206 C  
ENDBRANCH   7  31
ENDBRANCH   5   6
BRANCH   5  37
HETATM   37  C   UNL     1     -12.158  14.069  66.819  1.00  0.00    -0.447 C  
BRANCH  37  38
HETATM   38  C   UNL     1     -12.163  13.724  65.316  1.00  0.00    -0.439 C  
HETATM   39  O   UNL     1     -12.913  12.543  65.037  1.00  0.00    -0.779 OA 
HETATM   40  H   UNL     1     -12.916  12.331  64.111  1.00  0.00     0.000 HD 
ENDBRANCH  37  38
ENDBRANCH   5  37
ENDBRANCH   4   5
ENDBRANCH   3   4
TORSDOF 12
ENDMDL
MODEL       57
REMARK 921   NORMALIZED FREE ENERGY PREDICTED BY IDOCK:   -6.08 KCAL/MOL
REMARK 922        TOTAL FREE ENERGY PREDICTED BY IDOCK:  -11.26 KCAL/MOL
REMARK 923 INTER-LIGAND FREE ENERGY PREDICTED BY IDOCK:   -9.25 KCAL/MOL
REMARK 924 INTRA-LIGAND FREE ENERGY PREDICTED BY IDOCK:   -2.01 KCAL/MOL
REMARK 927      BINDING AFFINITY PREDICTED BY RF-SCORE:    0.00 PKD
ROOT
HETATM    1  O   UNL     1      -7.503   8.867  74.401  1.00  0.00    -0.420 OA 
HETATM    2  H   UNL     1      -7.640   8.742  75.333  1.00  0.00     0.000 HD 
HETATM    3  C   UNL     1      -8.308   7.982  73.622  1.00  0.00    -0.243 C  
ENDROOT
BRANCH   3   4
HETATM    4  C   UNL     1      -8.085   8.186  72.106  1.00  0.00    -0.138 C  
BRANCH   4   5
HETATM    5  N   UNL     1      -9.172   7.699  71.230  1.00  0.00    -0.145 NA 
BRANCH   5   6
HETATM    6  C   UNL     1      -9.334   8.396  70.046  1.00  0.00    -0.159 A  
HETATM    7  C   UNL     1     -11.180  11.226  68.667  1.00  0.00    -0.250 A  
HETATM    8  N   UNL     1     -11.244  11.936  67.514  1.00  0.00    -0.275 NA 
HETATM    9  N   UNL     1     -10.190   9.417  69.985  1.00  0.00    -0.212 NA 
HETATM   10  C   UNL     1     -10.300  10.140  68.837  1.00  0.00    -0.206 A  
HETATM   11  N   UNL     1      -8.601   8.044  68.998  1.00  0.00    -0.136 NA 
HETATM   12  C   UNL     1     -10.486  11.575  66.488  1.00  0.00    -0.244 A  
HETATM   13  C   UNL     1      -9.559   9.837  67.708  1.00  0.00    -0.135 A  
HETATM   14  C   UNL     1      -8.704   8.736  67.846  1.00  0.00    -0.136 A  
HETATM   15  N   UNL     1      -9.687  10.517  66.542  1.00  0.00    -0.185 NA 
BRANCH  14  16
HETATM   16  N   UNL     1      -7.954   8.242  66.785  1.00  0.00    -0.098 NA 
HETATM   17  C   UNL     1      -6.523   8.866  64.954  1.00  0.00    -0.066 C  
HETATM   18  C   UNL     1      -6.825   7.519  64.287  1.00  0.00    -0.052 C  
HETATM   19  C   UNL     1      -6.625   8.760  66.475  1.00  0.00    -0.063 C  
HETATM   20  C   UNL     1      -8.212   6.885  66.307  1.00  0.00    -0.117 C  
HETATM   21  C   UNL     1      -8.145   6.918  64.778  1.00  0.00    -0.095 C  
ENDBRANCH  14  16
BRANCH  12  22
HETATM   22  N   UNL     1     -10.497  12.313  65.324  1.00  0.00    -0.274 NA 
BRANCH  22  23
HETATM   23  C   UNL     1     -10.985  11.641  64.114  1.00  0.00    -0.376 C  
BRANCH  23  24
HETATM   24  C   UNL     1      -9.863  11.259  63.132  1.00  0.00    -0.375 C  
HETATM   25  O   UNL     1      -9.774   9.845  62.960  1.00  0.00    -0.527 OA 
HETATM   26  H   UNL     1      -9.081   9.609  62.354  1.00  0.00     0.000 HD 
ENDBRANCH  23  24
ENDBRANCH  22  23
BRANCH  22  27
HETATM   27  C   UNL     1     -10.520  13.776  65.391  1.00  0.00    -0.331 C  
BRANCH  27  28
HETATM   28  C   UNL     1     -11.878  14.345  64.940  1.00  0.00    -0.417 C  
HETATM   29  O   UNL     1     -12.902  14.078  65.901  1.00  0.00    -0.484 OA 
HETATM   30  H   UNL     1     -13.739  14.429  65.622  1.00  0.00     0.000 HD 
ENDBRANCH  27  28
ENDBRANCH  22  27
ENDBRANCH  12  22
BRANCH   7  31
HETATM   31  N   UNL     1     -12.026  11.700  69.669  1.00  0.00    -0.322 NA 
HETATM   32  C   UNL     1     -12.984  10.855  70.371  1.00  0.00    -0.103 C  
HETATM   33  C   UNL     1     -12.345  13.130  69.649  1.00  0.00    -0.071 C  
HETATM   34  C   UNL     1     -13.067  11.320  71.826  1.00  0.00    -0.527 C  
HETATM   35  C   UNL     1     -12.418  13.640  71.087  1.00  0.00    -0.442 C  
HETATM   36  C   UNL     1     -13.388  12.809  71.927  1.00  0.00    -0.510 C  
ENDBRANCH   7  31
ENDBRANCH   5   6
BRANCH   5  37
HETATM   37  C   UNL     1     -10.379   7.181  71.886  1.00  0.00    -0.192 C  
BRANCH  37  38
HETATM   38  C   UNL     1     -11.196   6.250  70.966  1.00  0.00    -0.312 C  
HETATM   39  O   UNL     1     -12.322   6.913  70.393  1.00  0.00    -0.613 OA 
HETATM   40  H   UNL     1     -12.825   6.340  69.826  1.00  0.00     0.000 HD 
ENDBRANCH  37  38
ENDBRANCH   5  37
ENDBRANCH   4   5
ENDBRANCH   3   4
TORSDOF 12
ENDMDL
MODEL       58
REMARK 921   NORMALIZED FREE ENERGY PREDICTED BY IDOCK:   -6.00 KCAL/MOL
REMARK 922        TOTAL FREE ENERGY PREDICTED BY IDOCK:  -11.13 KCAL/MOL
REMARK 923 INTER-LIGAND FREE ENERGY PREDICTED BY IDOCK:   -8.66 KCAL/MOL
REMARK 924 INTRA-LIGAND FREE ENERGY PREDICTED BY IDOCK:   -2.47 KCAL/MOL
REMARK 927      BINDING AFFINITY PREDICTED BY RF-SCORE:    0.00 PKD
ROOT
HETATM    1  O   UNL     1     -11.501  12.952  70.297  1.00  0.00    -0.515 OA 
HETATM    2  H   UNL     1     -11.987  13.054  71.107  1.00  0.00     0.000 HD 
HETATM    3  C   UNL     1     -12.147  13.600  69.203  1.00  0.00    -0.319 C  
ENDROOT
BRANCH   3   4
HETATM    4  C   UNL     1     -11.355  13.434  67.886  1.00  0.00    -0.289 C  
BRANCH   4   5
HETATM    5  N   UNL     1     -11.716  12.257  67.068  1.00  0.00    -0.513 NA 
BRANCH   5   6
HETATM    6  C   UNL     1     -10.966  11.118  67.306  1.00  0.00    -0.296 A  
HETATM    7  C   UNL     1     -10.734   8.329  69.646  1.00  0.00    -0.194 A  
HETATM    8  N   UNL     1     -10.034   7.177  69.793  1.00  0.00    -0.176 NA 
HETATM    9  N   UNL     1     -11.233  10.352  68.363  1.00  0.00    -0.274 NA 
HETATM   10  C   UNL     1     -10.535   9.200  68.558  1.00  0.00    -0.204 A  
HETATM   11  N   UNL     1     -10.007  10.801  66.445  1.00  0.00    -0.209 NA 
HETATM   12  C   UNL     1      -9.093   6.874  68.908  1.00  0.00    -0.134 A  
HETATM   13  C   UNL     1      -9.529   8.800  67.696  1.00  0.00    -0.141 A  
HETATM   14  C   UNL     1      -9.292   9.673  66.626  1.00  0.00    -0.156 A  
HETATM   15  N   UNL     1      -8.793   7.679  67.897  1.00  0.00    -0.127 NA 
BRANCH  14  16
HETATM   16  N   UNL     1      -8.260   9.468  65.718  1.00  0.00    -0.114 NA 
HETATM   17  C   UNL     1      -7.401   7.957  64.053  1.00  0.00    -0.101 C  
HETATM   18  C   UNL     1      -6.017   8.596  64.219  1.00  0.00    -0.066 C  
HETATM   19  C   UNL     1      -8.509   8.961  64.372  1.00  0.00    -0.153 C  
HETATM   20  C   UNL     1      -7.023  10.233  65.868  1.00  0.00    -0.126 C  
HETATM   21  C   UNL     1      -5.859   9.280  65.580  1.00  0.00    -0.054 C  
ENDBRANCH  14  16
BRANCH  12  22
HETATM   22  N   UNL     1      -8.405   5.685  69.010  1.00  0.00    -0.099 NA 
BRANCH  22  23
HETATM   23  C   UNL     1      -7.140   5.709  69.753  1.00  0.00    -0.064 C  
BRANCH  23  24
HETATM   24  C   UNL     1      -7.146   6.690  70.940  1.00  0.00    -0.069 C  
HETATM   25  O   UNL     1      -7.796   6.130  72.081  1.00  0.00    -0.100 OA 
HETATM   26  H   UNL     1      -7.800   6.735  72.813  1.00  0.00     0.000 HD 
ENDBRANCH  23  24
ENDBRANCH  22  23
BRANCH  22  27
HETATM   27  C   UNL     1      -9.117   4.415  68.848  1.00  0.00    -0.124 C  
BRANCH  27  28
HETATM   28  C   UNL     1      -9.358   3.721  70.201  1.00  0.00    -0.174 C  
HETATM   29  O   UNL     1     -10.278   4.457  71.010  1.00  0.00    -0.161 OA 
HETATM   30  H   UNL     1     -10.426   4.029  71.845  1.00  0.00     0.000 HD 
ENDBRANCH  27  28
ENDBRANCH  22  27
ENDBRANCH  12  22
BRANCH   7  31
HETATM   31  N   UNL     1     -11.689   8.538  70.640  1.00  0.00    -0.205 NA 
HETATM   32  C   UNL     1     -11.710   9.722  71.491  1.00  0.00    -0.375 C  
HETATM   33  C   UNL     1     -12.339   7.350  71.199  1.00  0.00    -0.314 C  
HETATM   34  C   UNL     1     -13.167  10.093  71.772  1.00  0.00    -0.542 C  
HETATM   35  C   UNL     1     -13.807   7.674  71.476  1.00  0.00    -0.466 C  
HETATM   36  C   UNL     1     -13.949   8.918  72.353  1.00  0.00    -0.516 C  
ENDBRANCH   7  31
ENDBRANCH   5   6
BRANCH   5  37
HETATM   37  C   UNL     1     -12.153  12.508  65.689  1.00  0.00    -0.400 C  
BRANCH  37  38
HETATM   38  C   UNL     1     -11.371  13.659  65.023  1.00  0.00    -0.329 C  
HETATM   39  O   UNL     1     -10.247  13.188  64.281  1.00  0.00    -0.557 OA 
HETATM   40  H   UNL     1      -9.766  13.897  63.871  1.00  0.00     0.000 HD 
ENDBRANCH  37  38
ENDBRANCH   5  37
ENDBRANCH   4   5
ENDBRANCH   3   4
TORSDOF 12
ENDMDL
MODEL       59
REMARK 921   NORMALIZED FREE ENERGY PREDICTED BY IDOCK:   -5.96 KCAL/MOL
REMARK 922        TOTAL FREE ENERGY PREDICTED BY IDOCK:  -11.06 KCAL/MOL
REMARK 923 INTER-LIGAND FREE ENERGY PREDICTED BY IDOCK:   -9.31 KCAL/MOL
REMARK 924 INTRA-LIGAND FREE ENERGY PREDICTED BY IDOCK:   -1.75 KCAL/MOL
REMARK 927      BINDING AFFINITY PREDICTED BY RF-SCORE:    0.00 PKD
ROOT
HETATM    1  O   UNL     1     -11.683   4.821  65.322  1.00  0.00    -0.969 OA 
HETATM    2  H   UNL     1     -11.663   4.453  64.446  1.00  0.00     0.000 HD 
HETATM    3  C   UNL     1     -10.421   4.700  65.977  1.00  0.00    -0.264 C  
ENDROOT
BRANCH   3   4
HETATM    4  C   UNL     1     -10.453   5.298  67.402  1.00  0.00    -0.148 C  
BRANCH   4   5
HETATM    5  N   UNL     1      -9.329   6.197  67.742  1.00  0.00    -0.111 NA 
BRANCH   5   6
HETATM    6  C   UNL     1      -9.565   7.544  67.534  1.00  0.00    -0.142 A  
HETATM    7  C   UNL     1     -11.147  10.413  69.141  1.00  0.00    -0.246 A  
HETATM    8  N   UNL     1     -11.280  11.747  68.941  1.00  0.00    -0.233 NA 
HETATM    9  N   UNL     1     -10.254   8.247  68.434  1.00  0.00    -0.205 NA 
HETATM   10  C   UNL     1     -10.429   9.585  68.257  1.00  0.00    -0.223 A  
HETATM   11  N   UNL     1      -9.066   8.113  66.445  1.00  0.00    -0.172 NA 
HETATM   12  C   UNL     1     -10.755  12.295  67.853  1.00  0.00    -0.215 A  
HETATM   13  C   UNL     1      -9.927  10.248  67.150  1.00  0.00    -0.197 A  
HETATM   14  C   UNL     1      -9.240   9.434  66.241  1.00  0.00    -0.180 A  
HETATM   15  N   UNL     1     -10.128  11.572  66.934  1.00  0.00    -0.209 NA 
BRANCH  14  16
HETATM   16  N   UNL     1      -8.749   9.921  65.035  1.00  0.00    -0.161 NA 
HETATM   17  C   UNL     1      -9.260  10.228  62.704  1.00  0.00    -0.318 C  
HETATM   18  C   UNL     1      -7.760  10.346  62.412  1.00  0.00    -0.172 C  
HETATM   19  C   UNL     1      -9.581  10.699  64.122  1.00  0.00    -0.300 C  
HETATM   20  C   UNL     1      -7.310  10.143  64.895  1.00  0.00    -0.136 C  
HETATM   21  C   UNL     1      -6.910   9.672  63.494  1.00  0.00    -0.110 C  
ENDBRANCH  14  16
BRANCH  12  22
HETATM   22  N   UNL     1     -10.834  13.657  67.656  1.00  0.00    -0.254 NA 
BRANCH  22  23
HETATM   23  C   UNL     1     -10.259  14.515  68.699  1.00  0.00    -0.243 C  
BRANCH  23  24
HETATM   24  C   UNL     1     -11.300  15.408  69.399  1.00  0.00    -0.307 C  
HETATM   25  O   UNL     1     -12.366  14.638  69.953  1.00  0.00    -0.374 OA 
HETATM   26  H   UNL     1     -13.008  15.189  70.384  1.00  0.00     0.000 HD 
ENDBRANCH  23  24
ENDBRANCH  22  23
BRANCH  22  27
HETATM   27  C   UNL     1     -10.999  14.188  66.302  1.00  0.00    -0.303 C  
BRANCH  27  28
HETATM   28  C   UNL     1     -12.440  14.005  65.791  1.00  0.00    -0.494 C  
HETATM   29  O   UNL     1     -12.534  12.919  64.867  1.00  0.00    -0.457 OA 
HETATM   30  H   UNL     1     -13.423  12.806  64.552  1.00  0.00     0.000 HD 
ENDBRANCH  27  28
ENDBRANCH  22  27
ENDBRANCH  12  22
BRANCH   7  31
HETATM   31  N   UNL     1     -11.744   9.957  70.315  1.00  0.00    -0.242 NA 
HETATM   32  C   UNL     1     -13.101  10.315  70.712  1.00  0.00    -0.287 C  
HETATM   33  C   UNL     1     -10.850   9.569  71.409  1.00  0.00    -0.312 C  
HETATM   34  C   UNL     1     -13.736   9.111  71.410  1.00  0.00    -0.326 C  
HETATM   35  C   UNL     1     -11.440   8.354  72.123  1.00  0.00    -0.442 C  
HETATM   36  C   UNL     1     -12.879   8.612  72.571  1.00  0.00    -0.352 C  
ENDBRANCH   7  31
ENDBRANCH   5   6
BRANCH   5  37
HETATM   37  C   UNL     1      -7.972   5.696  67.490  1.00  0.00    -0.102 C  
BRANCH  37  38
HETATM   38  C   UNL     1      -7.183   5.452  68.793  1.00  0.00    -0.066 C  
HETATM   39  O   UNL     1      -6.587   6.647  69.295  1.00  0.00    -0.044 OA 
HETATM   40  H   UNL     1      -6.102   6.496  70.097  1.00  0.00     0.000 HD 
ENDBRANCH  37  38
ENDBRANCH   5  37
ENDBRANCH   4   5
ENDBRANCH   3   4
TORSDOF 12
ENDMDL
MODEL       60
REMARK 921   NORMALIZED FREE ENERGY PREDICTED BY IDOCK:   -5.91 KCAL/MOL
REMARK 922        TOTAL FREE ENERGY PREDICTED BY IDOCK:  -10.97 KCAL/MOL
REMARK 923 INTER-LIGAND FREE ENERGY PREDICTED BY IDOCK:   -8.94 KCAL/MOL
REMARK 924 INTRA-LIGAND FREE ENERGY PREDICTED BY IDOCK:   -2.04 KCAL/MOL
REMARK 927      BINDING AFFINITY PREDICTED BY RF-SCORE:    0.00 PKD
ROOT
HETATM    1  O   UNL     1     -10.521   5.347  70.161  1.00  0.00    -0.273 OA 
HETATM    2  H   UNL     1     -10.985   4.580  70.476  1.00  0.00     0.000 HD 
HETATM    3  C   UNL     1      -9.179   5.393  70.643  1.00  0.00    -0.148 C  
ENDROOT
BRANCH   3   4
HETATM    4  C   UNL     1      -8.426   6.641  70.130  1.00  0.00    -0.136 C  
BRANCH   4   5
HETATM    5  N   UNL     1      -9.015   7.943  70.508  1.00  0.00    -0.144 NA 
BRANCH   5   6
HETATM    6  C   UNL     1      -9.246   8.815  69.459  1.00  0.00    -0.149 A  
HETATM    7  C   UNL     1     -11.247  11.747  68.615  1.00  0.00    -0.257 A  
HETATM    8  N   UNL     1     -11.379  12.632  67.595  1.00  0.00    -0.289 NA 
HETATM    9  N   UNL     1     -10.142   9.793  69.590  1.00  0.00    -0.214 NA 
HETATM   10  C   UNL     1     -10.321  10.688  68.579  1.00  0.00    -0.183 A  
HETATM   11  N   UNL     1      -8.536   8.671  68.348  1.00  0.00    -0.134 NA 
HETATM   12  C   UNL     1     -10.644  12.475  66.503  1.00  0.00    -0.242 A  
HETATM   13  C   UNL     1      -9.608  10.605  67.395  1.00  0.00    -0.158 A  
HETATM   14  C   UNL     1      -8.706   9.535  67.327  1.00  0.00    -0.128 A  
HETATM   15  N   UNL     1      -9.802  11.460  66.361  1.00  0.00    -0.206 NA 
BRANCH  14  16
HETATM   16  N   UNL     1      -7.975   9.254  66.179  1.00  0.00    -0.106 NA 
HETATM   17  C   UNL     1      -6.343  10.132  64.644  1.00  0.00    -0.130 C  
HETATM   18  C   UNL     1      -6.811   9.114  63.598  1.00  0.00    -0.090 C  
HETATM   19  C   UNL     1      -6.563   9.602  66.061  1.00  0.00    -0.079 C  
HETATM   20  C   UNL     1      -8.415   8.163  65.310  1.00  0.00    -0.139 C  
HETATM   21  C   UNL     1      -8.240   8.633  63.863  1.00  0.00    -0.147 C  
ENDBRANCH  14  16
BRANCH  12  22
HETATM   22  N   UNL     1     -10.725  13.392  65.476  1.00  0.00    -0.288 NA 
BRANCH  22  23
HETATM   23  C   UNL     1     -10.393  14.784  65.800  1.00  0.00    -0.340 C  
BRANCH  23  24
HETATM   24  C   UNL     1      -9.197  14.921  66.759  1.00  0.00    -0.259 C  
HETATM   25  O   UNL     1      -9.618  15.262  68.079  1.00  0.00    -0.201 OA 
HETATM   26  H   UNL     1      -8.880  15.347  68.671  1.00  0.00     0.000 HD 
ENDBRANCH  23  24
ENDBRANCH  22  23
BRANCH  22  27
HETATM   27  C   UNL     1     -10.638  12.938  64.087  1.00  0.00    -0.416 C  
BRANCH  27  28
HETATM   28  C   UNL     1     -12.033  12.725  63.470  1.00  0.00    -0.555 C  
HETATM   29  O   UNL     1     -12.274  11.345  63.185  1.00  0.00    -0.904 OA 
HETATM   30  H   UNL     1     -13.134  11.214  62.805  1.00  0.00     0.000 HD 
ENDBRANCH  27  28
ENDBRANCH  22  27
ENDBRANCH  12  22
BRANCH   7  31
HETATM   31  N   UNL     1     -12.075  12.015  69.704  1.00  0.00    -0.264 NA 
HETATM   32  C   UNL     1     -12.972  11.024  70.287  1.00  0.00    -0.004 C  
HETATM   33  C   UNL     1     -12.453  13.412  69.925  1.00  0.00    -0.093 C  
HETATM   34  C   UNL     1     -13.022  11.245  71.800  1.00  0.00    -0.519 C  
HETATM   35  C   UNL     1     -12.496  13.681  71.428  1.00  0.00    -0.374 C  
HETATM   36  C   UNL     1     -13.400  12.682  72.150  1.00  0.00    -0.570 C  
ENDBRANCH   7  31
ENDBRANCH   5   6
BRANCH   5  37
HETATM   37  C   UNL     1      -8.598   8.519  71.793  1.00  0.00    -0.190 C  
BRANCH  37  38
HETATM   38  C   UNL     1      -9.599   8.218  72.927  1.00  0.00    -0.249 C  
HETATM   39  O   UNL     1     -10.952   8.417  72.517  1.00  0.00    -0.356 OA 
HETATM   40  H   UNL     1     -11.569   8.231  73.215  1.00  0.00     0.000 HD 
ENDBRANCH  37  38
ENDBRANCH   5  37
ENDBRANCH   4   5
ENDBRANCH   3   4
TORSDOF 12
ENDMDL
MODEL       61
REMARK 921   NORMALIZED FREE ENERGY PREDICTED BY IDOCK:   -5.89 KCAL/MOL
REMARK 922        TOTAL FREE ENERGY PREDICTED BY IDOCK:  -10.94 KCAL/MOL
REMARK 923 INTER-LIGAND FREE ENERGY PREDICTED BY IDOCK:   -9.23 KCAL/MOL
REMARK 924 INTRA-LIGAND FREE ENERGY PREDICTED BY IDOCK:   -1.71 KCAL/MOL
REMARK 927      BINDING AFFINITY PREDICTED BY RF-SCORE:    0.00 PKD
ROOT
HETATM    1  O   UNL     1     -12.438  14.273  63.173  1.00  0.00    -1.102 OA 
HETATM    2  H   UNL     1     -12.128  14.540  62.316  1.00  0.00     0.000 HD 
HETATM    3  C   UNL     1     -12.085  12.923  63.470  1.00  0.00    -0.555 C  
ENDROOT
BRANCH   3   4
HETATM    4  C   UNL     1     -12.588  12.489  64.865  1.00  0.00    -0.390 C  
BRANCH   4   5
HETATM    5  N   UNL     1     -11.613  12.627  65.967  1.00  0.00    -0.371 NA 
BRANCH   5   6
HETATM    6  C   UNL     1     -10.876  11.491  66.251  1.00  0.00    -0.282 A  
HETATM    7  C   UNL     1     -10.460   8.975  68.861  1.00  0.00    -0.210 A  
HETATM    8  N   UNL     1      -9.783   7.818  69.061  1.00  0.00    -0.156 NA 
HETATM    9  N   UNL     1     -11.042  10.861  67.414  1.00  0.00    -0.310 NA 
HETATM   10  C   UNL     1     -10.362   9.709  67.663  1.00  0.00    -0.237 A  
HETATM   11  N   UNL     1     -10.034  11.037  65.331  1.00  0.00    -0.245 NA 
HETATM   12  C   UNL     1      -8.961   7.376  68.118  1.00  0.00    -0.129 A  
HETATM   13  C   UNL     1      -9.475   9.170  66.746  1.00  0.00    -0.175 A  
HETATM   14  C   UNL     1      -9.338   9.906  65.562  1.00  0.00    -0.223 A  
HETATM   15  N   UNL     1      -8.757   8.048  66.993  1.00  0.00    -0.126 NA 
BRANCH  14  16
HETATM   16  N   UNL     1      -8.425   9.555  64.573  1.00  0.00    -0.168 NA 
HETATM   17  C   UNL     1      -7.874   7.879  62.937  1.00  0.00    -0.140 C  
HETATM   18  C   UNL     1      -6.431   8.395  62.926  1.00  0.00    -0.087 C  
HETATM   19  C   UNL     1      -8.853   8.997  63.294  1.00  0.00     0.000 C  
HETATM   20  C   UNL     1      -7.118  10.209  64.553  1.00  0.00    -0.119 C  
HETATM   21  C   UNL     1      -6.077   9.137  64.218  1.00  0.00    -0.072 C  
ENDBRANCH  14  16
BRANCH  12  22
HETATM   22  N   UNL     1      -8.302   6.176  68.280  1.00  0.00    -0.114 NA 
BRANCH  22  23
HETATM   23  C   UNL     1      -6.965   6.227  68.881  1.00  0.00    -0.076 C  
BRANCH  23  24
HETATM   24  C   UNL     1      -6.957   5.904  70.386  1.00  0.00    -0.058 C  
HETATM   25  O   UNL     1      -7.607   6.921  71.146  1.00  0.00    -0.085 OA 
HETATM   26  H   UNL     1      -7.602   6.722  72.075  1.00  0.00     0.000 HD 
ENDBRANCH  23  24
ENDBRANCH  22  23
BRANCH  22  27
HETATM   27  C   UNL     1      -9.066   4.928  68.336  1.00  0.00    -0.114 C  
BRANCH  27  28
HETATM   28  C   UNL     1      -9.837   4.673  67.028  1.00  0.00    -0.205 C  
HETATM   29  O   UNL     1     -10.956   5.553  66.900  1.00  0.00    -0.457 OA 
HETATM   30  H   UNL     1     -11.431   5.395  66.093  1.00  0.00     0.000 HD 
ENDBRANCH  27  28
ENDBRANCH  22  27
ENDBRANCH  12  22
BRANCH   7  31
HETATM   31  N   UNL     1     -11.286   9.337  69.924  1.00  0.00    -0.180 NA 
HETATM   32  C   UNL     1     -11.534  10.722  70.307  1.00  0.00    -0.319 C  
HETATM   33  C   UNL     1     -11.474   8.347  70.987  1.00  0.00    -0.268 C  
HETATM   34  C   UNL     1     -12.982  10.841  70.785  1.00  0.00    -0.348 C  
HETATM   35  C   UNL     1     -12.918   8.420  71.481  1.00  0.00    -0.319 C  
HETATM   36  C   UNL     1     -13.295   9.842  71.896  1.00  0.00    -0.530 C  
ENDBRANCH   7  31
ENDBRANCH   5   6
BRANCH   5  37
HETATM   37  C   UNL     1     -11.991  13.491  67.093  1.00  0.00    -0.381 C  
BRANCH  37  38
HETATM   38  C   UNL     1     -11.261  14.849  67.064  1.00  0.00    -0.344 C  
HETATM   39  O   UNL     1     -10.895  15.237  65.740  1.00  0.00    -0.335 OA 
HETATM   40  H   UNL     1     -10.445  16.073  65.723  1.00  0.00     0.000 HD 
ENDBRANCH  37  38
ENDBRANCH   5  37
ENDBRANCH   4   5
ENDBRANCH   3   4
TORSDOF 12
ENDMDL
MODEL       62
REMARK 921   NORMALIZED FREE ENERGY PREDICTED BY IDOCK:   -5.87 KCAL/MOL
REMARK 922        TOTAL FREE ENERGY PREDICTED BY IDOCK:  -10.90 KCAL/MOL
REMARK 923 INTER-LIGAND FREE ENERGY PREDICTED BY IDOCK:   -9.08 KCAL/MOL
REMARK 924 INTRA-LIGAND FREE ENERGY PREDICTED BY IDOCK:   -1.81 KCAL/MOL
REMARK 927      BINDING AFFINITY PREDICTED BY RF-SCORE:    0.00 PKD
ROOT
HETATM    1  O   UNL     1      -9.696   2.867  67.398  1.00  0.00    -0.373 OA 
HETATM    2  H   UNL     1      -9.209   2.052  67.370  1.00  0.00     0.000 HD 
HETATM    3  C   UNL     1      -9.026   3.911  66.694  1.00  0.00    -0.135 C  
ENDROOT
BRANCH   3   4
HETATM    4  C   UNL     1      -9.819   5.237  66.740  1.00  0.00    -0.176 C  
BRANCH   4   5
HETATM    5  N   UNL     1      -9.533   6.112  67.896  1.00  0.00    -0.116 NA 
BRANCH   5   6
HETATM    6  C   UNL     1      -9.703   7.467  67.670  1.00  0.00    -0.144 A  
HETATM    7  C   UNL     1     -11.119  10.436  69.250  1.00  0.00    -0.253 A  
HETATM    8  N   UNL     1     -11.186  11.772  69.031  1.00  0.00    -0.246 NA 
HETATM    9  N   UNL     1     -10.344   8.217  68.566  1.00  0.00    -0.208 NA 
HETATM   10  C   UNL     1     -10.454   9.560  68.370  1.00  0.00    -0.224 A  
HETATM   11  N   UNL     1      -9.189   7.994  66.566  1.00  0.00    -0.177 NA 
HETATM   12  C   UNL     1     -10.648  12.276  67.928  1.00  0.00    -0.212 A  
HETATM   13  C   UNL     1      -9.933  10.180  67.248  1.00  0.00    -0.195 A  
HETATM   14  C   UNL     1      -9.298   9.319  66.343  1.00  0.00    -0.192 A  
HETATM   15  N   UNL     1     -10.070  11.508  67.014  1.00  0.00    -0.206 NA 
BRANCH  14  16
HETATM   16  N   UNL     1      -8.798   9.762  65.125  1.00  0.00    -0.167 NA 
HETATM   17  C   UNL     1      -9.121   9.687  62.742  1.00  0.00    -0.254 C  
HETATM   18  C   UNL     1      -7.655  10.094  62.551  1.00  0.00    -0.144 C  
HETATM   19  C   UNL     1      -9.675  10.233  64.058  1.00  0.00    -0.278 C  
HETATM   20  C   UNL     1      -7.429  10.273  65.066  1.00  0.00    -0.120 C  
HETATM   21  C   UNL     1      -6.800   9.747  63.774  1.00  0.00    -0.119 C  
ENDBRANCH  14  16
BRANCH  12  22
HETATM   22  N   UNL     1     -10.661  13.637  67.711  1.00  0.00    -0.240 NA 
BRANCH  22  23
HETATM   23  C   UNL     1      -9.612  14.182  66.841  1.00  0.00    -0.270 C  
BRANCH  23  24
HETATM   24  C   UNL     1     -10.163  14.910  65.601  1.00  0.00    -0.358 C  
HETATM   25  O   UNL     1     -10.075  14.096  64.432  1.00  0.00    -0.682 OA 
HETATM   26  H   UNL     1     -10.415  14.545  63.667  1.00  0.00     0.000 HD 
ENDBRANCH  23  24
ENDBRANCH  22  23
BRANCH  22  27
HETATM   27  C   UNL     1     -11.901  14.392  67.899  1.00  0.00    -0.349 C  
BRANCH  27  28
HETATM   28  C   UNL     1     -11.805  15.355  69.097  1.00  0.00    -0.335 C  
HETATM   29  O   UNL     1     -11.061  14.778  70.172  1.00  0.00    -0.341 OA 
HETATM   30  H   UNL     1     -11.002  15.372  70.911  1.00  0.00     0.000 HD 
ENDBRANCH  27  28
ENDBRANCH  22  27
ENDBRANCH  12  22
BRANCH   7  31
HETATM   31  N   UNL     1     -11.724  10.028  70.437  1.00  0.00    -0.279 NA 
HETATM   32  C   UNL     1     -12.963  10.608  70.942  1.00  0.00    -0.340 C  
HETATM   33  C   UNL     1     -10.859   9.415  71.448  1.00  0.00    -0.360 C  
HETATM   34  C   UNL     1     -13.774   9.503  71.621  1.00  0.00    -0.365 C  
HETATM   35  C   UNL     1     -11.627   8.289  72.139  1.00  0.00    -0.428 C  
HETATM   36  C   UNL     1     -12.963   8.784  72.696  1.00  0.00    -0.305 C  
ENDBRANCH   7  31
ENDBRANCH   5   6
BRANCH   5  37
HETATM   37  C   UNL     1      -8.443   5.704  68.792  1.00  0.00    -0.102 C  
BRANCH  37  38
HETATM   38  C   UNL     1      -8.957   5.236  70.169  1.00  0.00    -0.129 C  
HETATM   39  O   UNL     1     -10.382   5.246  70.244  1.00  0.00    -0.260 OA 
HETATM   40  H   UNL     1     -10.698   4.958  71.093  1.00  0.00     0.000 HD 
ENDBRANCH  37  38
ENDBRANCH   5  37
ENDBRANCH   4   5
ENDBRANCH   3   4
TORSDOF 12
ENDMDL
MODEL       63
REMARK 921   NORMALIZED FREE ENERGY PREDICTED BY IDOCK:   -5.85 KCAL/MOL
REMARK 922        TOTAL FREE ENERGY PREDICTED BY IDOCK:  -10.87 KCAL/MOL
REMARK 923 INTER-LIGAND FREE ENERGY PREDICTED BY IDOCK:   -9.40 KCAL/MOL
REMARK 924 INTRA-LIGAND FREE ENERGY PREDICTED BY IDOCK:   -1.47 KCAL/MOL
REMARK 927      BINDING AFFINITY PREDICTED BY RF-SCORE:    0.00 PKD
ROOT
HETATM    1  O   UNL     1     -14.170   9.219  72.833  1.00  0.00    -0.954 OA 
HETATM    2  H   UNL     1     -14.861   8.571  72.769  1.00  0.00     0.000 HD 
HETATM    3  C   UNL     1     -13.887   9.822  71.571  1.00  0.00    -0.092 C  
ENDROOT
BRANCH   3   4
HETATM    4  C   UNL     1     -12.763  10.877  71.676  1.00  0.00    -0.393 C  
BRANCH   4   5
HETATM    5  N   UNL     1     -12.414  11.566  70.415  1.00  0.00    -0.270 NA 
BRANCH   5   6
HETATM    6  C   UNL     1     -11.732  10.797  69.489  1.00  0.00    -0.312 A  
HETATM    7  C   UNL     1     -10.572  10.913  66.032  1.00  0.00    -0.189 A  
HETATM    8  N   UNL     1      -9.823  10.166  65.183  1.00  0.00    -0.310 NA 
HETATM    9  N   UNL     1     -11.544  11.255  68.251  1.00  0.00    -0.422 NA 
HETATM   10  C   UNL     1     -10.818  10.523  67.362  1.00  0.00    -0.291 A  
HETATM   11  N   UNL     1     -11.252   9.621  69.873  1.00  0.00    -0.233 NA 
HETATM   12  C   UNL     1      -9.339   9.004  65.598  1.00  0.00    -0.222 A  
HETATM   13  C   UNL     1     -10.278   9.294  67.696  1.00  0.00    -0.230 A  
HETATM   14  C   UNL     1     -10.543   8.872  69.005  1.00  0.00    -0.183 A  
HETATM   15  N   UNL     1      -9.589   8.531  66.812  1.00  0.00    -0.190 NA 
BRANCH  14  16
HETATM   16  N   UNL     1     -10.150   7.625  69.476  1.00  0.00    -0.187 NA 
HETATM   17  C   UNL     1      -8.287   6.115  69.673  1.00  0.00    -0.124 C  
HETATM   18  C   UNL     1      -9.274   4.957  69.863  1.00  0.00    -0.178 C  
HETATM   19  C   UNL     1      -8.884   7.430  70.174  1.00  0.00    -0.147 C  
HETATM   20  C   UNL     1     -11.176   6.625  69.771  1.00  0.00    -0.356 C  
HETATM   21  C   UNL     1     -10.652   5.274  69.275  1.00  0.00    -0.188 C  
ENDBRANCH  14  16
BRANCH  12  22
HETATM   22  N   UNL     1      -8.534   8.253  64.768  1.00  0.00    -0.118 NA 
BRANCH  22  23
HETATM   23  C   UNL     1      -8.127   8.869  63.500  1.00  0.00    -0.168 C  
BRANCH  23  24
HETATM   24  C   UNL     1      -6.847   9.717  63.615  1.00  0.00    -0.111 C  
HETATM   25  O   UNL     1      -7.000  10.775  64.560  1.00  0.00    -0.348 OA 
HETATM   26  H   UNL     1      -6.211  11.298  64.631  1.00  0.00     0.000 HD 
ENDBRANCH  23  24
ENDBRANCH  22  23
BRANCH  22  27
HETATM   27  C   UNL     1      -7.733   7.161  65.325  1.00  0.00    -0.114 C  
BRANCH  27  28
HETATM   28  C   UNL     1      -8.383   5.789  65.067  1.00  0.00    -0.138 C  
HETATM   29  O   UNL     1      -9.265   5.420  66.130  1.00  0.00    -0.149 OA 
HETATM   30  H   UNL     1      -9.666   4.574  65.970  1.00  0.00     0.000 HD 
ENDBRANCH  27  28
ENDBRANCH  22  27
ENDBRANCH  12  22
BRANCH   7  31
HETATM   31  N   UNL     1     -11.026  12.109  65.479  1.00  0.00    -0.291 NA 
HETATM   32  C   UNL     1     -12.419  12.341  65.113  1.00  0.00    -0.103 C  
HETATM   33  C   UNL     1     -10.044  12.929  64.766  1.00  0.00    -0.220 C  
HETATM   34  C   UNL     1     -12.758  13.805  65.399  1.00  0.00    -0.513 C  
HETATM   35  C   UNL     1     -10.336  14.403  65.041  1.00  0.00    -0.449 C  
HETATM   36  C   UNL     1     -11.786  14.757  64.707  1.00  0.00    -0.422 C  
ENDBRANCH   7  31
ENDBRANCH   5   6
BRANCH   5  37
HETATM   37  C   UNL     1     -12.068  12.991  70.504  1.00  0.00    -0.292 C  
BRANCH  37  38
HETATM   38  C   UNL     1     -12.263  13.729  69.165  1.00  0.00    -0.250 C  
HETATM   39  O   UNL     1     -11.023  14.140  68.590  1.00  0.00    -0.241 OA 
HETATM   40  H   UNL     1     -11.144  14.594  67.765  1.00  0.00     0.000 HD 
ENDBRANCH  37  38
ENDBRANCH   5  37
ENDBRANCH   4   5
ENDBRANCH   3   4
TORSDOF 12
ENDMDL
MODEL       64
REMARK 921   NORMALIZED FREE ENERGY PREDICTED BY IDOCK:   -5.85 KCAL/MOL
REMARK 922        TOTAL FREE ENERGY PREDICTED BY IDOCK:  -10.86 KCAL/MOL
REMARK 923 INTER-LIGAND FREE ENERGY PREDICTED BY IDOCK:   -8.90 KCAL/MOL
REMARK 924 INTRA-LIGAND FREE ENERGY PREDICTED BY IDOCK:   -1.97 KCAL/MOL
REMARK 927      BINDING AFFINITY PREDICTED BY RF-SCORE:    0.00 PKD
ROOT
HETATM    1  O   UNL     1      -5.681  11.021  64.108  1.00  0.00    -0.390 OA 
HETATM    2  H   UNL     1      -4.879  11.140  64.605  1.00  0.00     0.000 HD 
HETATM    3  C   UNL     1      -6.093   9.655  64.082  1.00  0.00    -0.102 C  
ENDROOT
BRANCH   3   4
HETATM    4  C   UNL     1      -7.396   9.462  63.275  1.00  0.00    -0.101 C  
BRANCH   4   5
HETATM    5  N   UNL     1      -8.585  10.164  63.804  1.00  0.00    -0.185 NA 
BRANCH   5   6
HETATM    6  C   UNL     1      -8.986   9.777  65.070  1.00  0.00    -0.207 A  
HETATM    7  C   UNL     1     -10.488  11.152  68.098  1.00  0.00    -0.189 A  
HETATM    8  N   UNL     1     -10.950  10.714  69.295  1.00  0.00    -0.227 NA 
HETATM    9  N   UNL     1      -9.494  10.677  65.913  1.00  0.00    -0.187 NA 
HETATM   10  C   UNL     1      -9.946  10.280  67.134  1.00  0.00    -0.197 A  
HETATM   11  N   UNL     1      -8.882   8.497  65.403  1.00  0.00    -0.164 NA 
HETATM   12  C   UNL     1     -10.851   9.426  69.596  1.00  0.00    -0.228 A  
HETATM   13  C   UNL     1      -9.880   8.961  67.545  1.00  0.00    -0.184 A  
HETATM   14  C   UNL     1      -9.310   8.084  66.613  1.00  0.00    -0.197 A  
HETATM   15  N   UNL     1     -10.285   8.553  68.773  1.00  0.00    -0.198 NA 
BRANCH  14  16
HETATM   16  N   UNL     1      -9.087   6.742  66.898  1.00  0.00    -0.132 NA 
HETATM   17  C   UNL     1     -10.168   4.635  67.325  1.00  0.00    -0.119 C  
HETATM   18  C   UNL     1      -8.885   4.137  67.999  1.00  0.00    -0.134 C  
HETATM   19  C   UNL     1      -9.855   5.680  66.255  1.00  0.00    -0.123 C  
HETATM   20  C   UNL     1      -7.777   6.334  67.402  1.00  0.00    -0.097 C  
HETATM   21  C   UNL     1      -8.014   5.293  68.500  1.00  0.00    -0.087 C  
ENDBRANCH  14  16
BRANCH  12  22
HETATM   22  N   UNL     1     -11.361   8.952  70.786  1.00  0.00    -0.273 NA 
BRANCH  22  23
HETATM   23  C   UNL     1     -10.625   7.863  71.438  1.00  0.00    -0.211 C  
BRANCH  23  24
HETATM   24  C   UNL     1     -11.245   6.475  71.197  1.00  0.00    -0.302 C  
HETATM   25  O   UNL     1     -12.097   6.472  70.052  1.00  0.00    -0.576 OA 
HETATM   26  H   UNL     1     -12.480   5.615  69.903  1.00  0.00     0.000 HD 
ENDBRANCH  23  24
ENDBRANCH  22  23
BRANCH  22  27
HETATM   27  C   UNL     1     -12.247   9.799  71.587  1.00  0.00    -0.404 C  
BRANCH  27  28
HETATM   28  C   UNL     1     -13.552   9.069  71.955  1.00  0.00    -0.431 C  
HETATM   29  O   UNL     1     -14.181   8.509  70.800  1.00  0.00    -0.499 OA 
HETATM   30  H   UNL     1     -14.986   8.060  71.027  1.00  0.00     0.000 HD 
ENDBRANCH  27  28
ENDBRANCH  22  27
ENDBRANCH  12  22
BRANCH   7  31
HETATM   31  N   UNL     1     -10.644  12.523  67.901  1.00  0.00    -0.213 NA 
HETATM   32  C   UNL     1     -11.662  13.093  67.025  1.00  0.00    -0.377 C  
HETATM   33  C   UNL     1      -9.468  13.366  68.131  1.00  0.00    -0.218 C  
HETATM   34  C   UNL     1     -12.157  14.401  67.645  1.00  0.00    -0.312 C  
HETATM   35  C   UNL     1      -9.919  14.679  68.769  1.00  0.00    -0.235 C  
HETATM   36  C   UNL     1     -11.007  15.360  67.938  1.00  0.00    -0.310 C  
ENDBRANCH   7  31
ENDBRANCH   5   6
BRANCH   5  37
HETATM   37  C   UNL     1      -9.631  10.530  62.840  1.00  0.00    -0.322 C  
BRANCH  37  38
HETATM   38  C   UNL     1     -10.337  11.850  63.209  1.00  0.00    -0.391 C  
HETATM   39  O   UNL     1     -11.592  11.629  63.851  1.00  0.00    -0.380 OA 
HETATM   40  H   UNL     1     -12.026  12.442  64.079  1.00  0.00     0.000 HD 
ENDBRANCH  37  38
ENDBRANCH   5  37
ENDBRANCH   4   5
ENDBRANCH   3   4
TORSDOF 12
ENDMDL
MODEL       65
REMARK 921   NORMALIZED FREE ENERGY PREDICTED BY IDOCK:   -5.82 KCAL/MOL
REMARK 922        TOTAL FREE ENERGY PREDICTED BY IDOCK:  -10.82 KCAL/MOL
REMARK 923 INTER-LIGAND FREE ENERGY PREDICTED BY IDOCK:   -9.94 KCAL/MOL
REMARK 924 INTRA-LIGAND FREE ENERGY PREDICTED BY IDOCK:   -0.89 KCAL/MOL
REMARK 927      BINDING AFFINITY PREDICTED BY RF-SCORE:    0.00 PKD
ROOT
HETATM    1  O   UNL     1     -12.227  15.889  63.752  1.00  0.00    -1.213 OA 
HETATM    2  H   UNL     1     -12.540  15.994  62.862  1.00  0.00     0.000 HD 
HETATM    3  C   UNL     1     -12.367  14.545  64.210  1.00  0.00    -0.369 C  
ENDROOT
BRANCH   3   4
HETATM    4  C   UNL     1     -11.857  14.374  65.659  1.00  0.00    -0.355 C  
BRANCH   4   5
HETATM    5  N   UNL     1     -10.422  14.048  65.797  1.00  0.00    -0.298 NA 
BRANCH   5   6
HETATM    6  C   UNL     1     -10.147  12.801  66.330  1.00  0.00    -0.259 A  
HETATM    7  C   UNL     1     -11.098  10.653  69.122  1.00  0.00    -0.255 A  
HETATM    8  N   UNL     1     -10.866   9.392  69.561  1.00  0.00    -0.232 NA 
HETATM    9  N   UNL     1     -10.747  12.409  67.454  1.00  0.00    -0.225 NA 
HETATM   10  C   UNL     1     -10.522  11.158  67.940  1.00  0.00    -0.190 A  
HETATM   11  N   UNL     1      -9.305  12.008  65.681  1.00  0.00    -0.142 NA 
HETATM   12  C   UNL     1     -10.034   8.612  68.884  1.00  0.00    -0.189 A  
HETATM   13  C   UNL     1      -9.665  10.272  67.311  1.00  0.00    -0.166 A  
HETATM   14  C   UNL     1      -9.055  10.770  66.152  1.00  0.00    -0.174 A  
HETATM   15  N   UNL     1      -9.394   9.038  67.803  1.00  0.00    -0.139 NA 
BRANCH  14  16
HETATM   16  N   UNL     1      -8.101  10.045  65.447  1.00  0.00    -0.137 NA 
HETATM   17  C   UNL     1      -5.848  10.092  64.604  1.00  0.00    -0.124 C  
HETATM   18  C   UNL     1      -6.221   8.992  63.604  1.00  0.00    -0.088 C  
HETATM   19  C   UNL     1      -6.704   9.999  65.867  1.00  0.00    -0.103 C  
HETATM   20  C   UNL     1      -8.535   8.913  64.629  1.00  0.00    -0.168 C  
HETATM   21  C   UNL     1      -7.727   8.954  63.329  1.00  0.00    -0.123 C  
ENDBRANCH  14  16
BRANCH  12  22
HETATM   22  N   UNL     1      -9.825   7.310  69.284  1.00  0.00    -0.164 NA 
BRANCH  22  23
HETATM   23  C   UNL     1      -9.091   7.109  70.539  1.00  0.00    -0.155 C  
BRANCH  23  24
HETATM   24  C   UNL     1      -8.168   8.286  70.903  1.00  0.00    -0.117 C  
HETATM   25  O   UNL     1      -8.716   9.078  71.956  1.00  0.00    -0.367 OA 
HETATM   26  H   UNL     1      -8.146   9.804  72.181  1.00  0.00     0.000 HD 
ENDBRANCH  23  24
ENDBRANCH  22  23
BRANCH  22  27
HETATM   27  C   UNL     1     -10.699   6.246  68.787  1.00  0.00    -0.297 C  
BRANCH  27  28
HETATM   28  C   UNL     1     -10.240   5.728  67.411  1.00  0.00    -0.200 C  
HETATM   29  O   UNL     1     -10.623   6.620  66.362  1.00  0.00    -0.487 OA 
HETATM   30  H   UNL     1     -10.340   6.301  65.514  1.00  0.00     0.000 HD 
ENDBRANCH  27  28
ENDBRANCH  22  27
ENDBRANCH  12  22
BRANCH   7  31
HETATM   31  N   UNL     1     -11.985  11.374  69.919  1.00  0.00    -0.336 NA 
HETATM   32  C   UNL     1     -13.019  10.745  70.733  1.00  0.00    -0.262 C  
HETATM   33  C   UNL     1     -12.244  12.764  69.538  1.00  0.00    -0.102 C  
HETATM   34  C   UNL     1     -13.175  11.547  72.026  1.00  0.00    -0.443 C  
HETATM   35  C   UNL     1     -12.388  13.606  70.805  1.00  0.00    -0.446 C  
HETATM   36  C   UNL     1     -13.442  13.024  71.747  1.00  0.00    -0.401 C  
ENDBRANCH   7  31
ENDBRANCH   5   6
BRANCH   5  37
HETATM   37  C   UNL     1      -9.515  15.151  66.140  1.00  0.00    -0.319 C  
BRANCH  37  38
HETATM   38  C   UNL     1     -10.269  16.411  66.610  1.00  0.00    -0.294 C  
HETATM   39  O   UNL     1     -10.167  17.481  65.671  1.00  0.00    -0.595 OA 
HETATM   40  H   UNL     1     -10.633  18.257  65.960  1.00  0.00     0.000 HD 
ENDBRANCH  37  38
ENDBRANCH   5  37
ENDBRANCH   4   5
ENDBRANCH   3   4
TORSDOF 12
ENDMDL
MODEL       66
REMARK 921   NORMALIZED FREE ENERGY PREDICTED BY IDOCK:   -5.81 KCAL/MOL
REMARK 922        TOTAL FREE ENERGY PREDICTED BY IDOCK:  -10.80 KCAL/MOL
REMARK 923 INTER-LIGAND FREE ENERGY PREDICTED BY IDOCK:   -9.58 KCAL/MOL
REMARK 924 INTRA-LIGAND FREE ENERGY PREDICTED BY IDOCK:   -1.22 KCAL/MOL
REMARK 927      BINDING AFFINITY PREDICTED BY RF-SCORE:    0.00 PKD
ROOT
HETATM    1  O   UNL     1     -10.090   3.769  66.588  1.00  0.00    -0.370 OA 
HETATM    2  H   UNL     1      -9.409   3.145  66.367  1.00  0.00     0.000 HD 
HETATM    3  C   UNL     1      -9.568   5.085  66.764  1.00  0.00    -0.155 C  
ENDROOT
BRANCH   3   4
HETATM    4  C   UNL     1     -10.676   6.101  67.123  1.00  0.00    -0.346 C  
BRANCH   4   5
HETATM    5  N   UNL     1     -10.284   7.165  68.071  1.00  0.00    -0.176 NA 
BRANCH   5   6
HETATM    6  C   UNL     1     -10.228   8.441  67.538  1.00  0.00    -0.243 A  
HETATM    7  C   UNL     1     -11.316  11.849  68.257  1.00  0.00    -0.277 A  
HETATM    8  N   UNL     1     -11.163  13.096  67.748  1.00  0.00    -0.264 NA 
HETATM    9  N   UNL     1     -10.826   9.453  68.167  1.00  0.00    -0.169 NA 
HETATM   10  C   UNL     1     -10.715  10.717  67.674  1.00  0.00    -0.267 A  
HETATM   11  N   UNL     1      -9.546   8.630  66.416  1.00  0.00    -0.229 NA 
HETATM   12  C   UNL     1     -10.460  13.260  66.635  1.00  0.00    -0.279 A  
HETATM   13  C   UNL     1     -10.011  10.990  66.515  1.00  0.00    -0.212 A  
HETATM   14  C   UNL     1      -9.436   9.870  65.900  1.00  0.00    -0.215 A  
HETATM   15  N   UNL     1      -9.925  12.235  65.984  1.00  0.00    -0.248 NA 
BRANCH  14  16
HETATM   16  N   UNL     1      -8.769   9.953  64.683  1.00  0.00    -0.177 NA 
HETATM   17  C   UNL     1      -6.605  10.193  63.659  1.00  0.00    -0.122 C  
HETATM   18  C   UNL     1      -7.289  10.676  62.376  1.00  0.00    -0.150 C  
HETATM   19  C   UNL     1      -7.515   9.247  64.443  1.00  0.00    -0.106 C  
HETATM   20  C   UNL     1      -9.533  10.278  63.479  1.00  0.00    -0.298 C  
HETATM   21  C   UNL     1      -8.685  11.245  62.648  1.00  0.00    -0.213 C  
ENDBRANCH  14  16
BRANCH  12  22
HETATM   22  N   UNL     1     -10.249  14.524  66.128  1.00  0.00    -0.293 NA 
BRANCH  22  23
HETATM   23  C   UNL     1     -11.439  15.340  65.859  1.00  0.00    -0.092 C  
BRANCH  23  24
HETATM   24  C   UNL     1     -11.978  15.182  64.426  1.00  0.00    -0.310 C  
HETATM   25  O   UNL     1     -11.744  16.353  63.644  1.00  0.00    -1.520 OA 
HETATM   26  H   UNL     1     -12.077  16.256  62.760  1.00  0.00     0.000 HD 
ENDBRANCH  23  24
ENDBRANCH  22  23
BRANCH  22  27
HETATM   27  C   UNL     1      -8.958  15.184  66.333  1.00  0.00    -0.279 C  
BRANCH  27  28
HETATM   28  C   UNL     1      -9.132  16.646  66.785  1.00  0.00    -0.237 C  
HETATM   29  O   UNL     1      -8.343  17.536  65.993  1.00  0.00    -0.495 OA 
HETATM   30  H   UNL     1      -8.450  18.437  66.272  1.00  0.00     0.000 HD 
ENDBRANCH  27  28
ENDBRANCH  22  27
ENDBRANCH  12  22
BRANCH   7  31
HETATM   31  N   UNL     1     -12.077  11.806  69.424  1.00  0.00    -0.273 NA 
HETATM   32  C   UNL     1     -12.801  10.618  69.862  1.00  0.00     0.102 C  
HETATM   33  C   UNL     1     -12.597  13.080  69.927  1.00  0.00     0.156 C  
HETATM   34  C   UNL     1     -12.752  10.556  71.389  1.00  0.00    -0.547 C  
HETATM   35  C   UNL     1     -12.547  13.067  71.454  1.00  0.00    -0.329 C  
HETATM   36  C   UNL     1     -13.266  11.845  72.026  1.00  0.00    -0.461 C  
ENDBRANCH   7  31
ENDBRANCH   5   6
BRANCH   5  37
HETATM   37  C   UNL     1      -9.298   6.814  69.102  1.00  0.00    -0.135 C  
BRANCH  37  38
HETATM   38  C   UNL     1      -9.791   7.146  70.525  1.00  0.00    -0.179 C  
HETATM   39  O   UNL     1      -9.566   8.513  70.868  1.00  0.00    -0.167 OA 
HETATM   40  H   UNL     1      -9.870   8.717  71.744  1.00  0.00     0.000 HD 
ENDBRANCH  37  38
ENDBRANCH   5  37
ENDBRANCH   4   5
ENDBRANCH   3   4
TORSDOF 12
ENDMDL
MODEL       67
REMARK 921   NORMALIZED FREE ENERGY PREDICTED BY IDOCK:   -5.77 KCAL/MOL
REMARK 922        TOTAL FREE ENERGY PREDICTED BY IDOCK:  -10.73 KCAL/MOL
REMARK 923 INTER-LIGAND FREE ENERGY PREDICTED BY IDOCK:   -9.47 KCAL/MOL
REMARK 924 INTRA-LIGAND FREE ENERGY PREDICTED BY IDOCK:   -1.26 KCAL/MOL
REMARK 927      BINDING AFFINITY PREDICTED BY RF-SCORE:    0.00 PKD
ROOT
HETATM    1  O   UNL     1      -9.887   3.905  70.163  1.00  0.00    -0.200 OA 
HETATM    2  H   UNL     1      -9.432   3.648  70.957  1.00  0.00     0.000 HD 
HETATM    3  C   UNL     1      -9.920   5.322  70.003  1.00  0.00    -0.245 C  
ENDROOT
BRANCH   3   4
HETATM    4  C   UNL     1     -10.660   5.740  68.713  1.00  0.00    -0.251 C  
BRANCH   4   5
HETATM    5  N   UNL     1      -9.822   6.369  67.671  1.00  0.00    -0.117 NA 
BRANCH   5   6
HETATM    6  C   UNL     1     -10.080   7.707  67.432  1.00  0.00    -0.222 A  
HETATM    7  C   UNL     1     -11.419  10.664  69.099  1.00  0.00    -0.280 A  
HETATM    8  N   UNL     1     -11.574  11.989  68.855  1.00  0.00    -0.295 NA 
HETATM    9  N   UNL     1     -10.637   8.459  68.382  1.00  0.00    -0.155 NA 
HETATM   10  C   UNL     1     -10.831   9.789  68.166  1.00  0.00    -0.214 A  
HETATM   11  N   UNL     1      -9.732   8.220  66.259  1.00  0.00    -0.217 NA 
HETATM   12  C   UNL     1     -11.201  12.479  67.680  1.00  0.00    -0.282 A  
HETATM   13  C   UNL     1     -10.483  10.394  66.971  1.00  0.00    -0.251 A  
HETATM   14  C   UNL     1      -9.929   9.531  66.016  1.00  0.00    -0.278 A  
HETATM   15  N   UNL     1     -10.708  11.707  66.721  1.00  0.00    -0.248 NA 
BRANCH  14  16
HETATM   16  N   UNL     1      -9.605   9.956  64.733  1.00  0.00    -0.298 NA 
HETATM   17  C   UNL     1      -7.786  10.309  63.198  1.00  0.00    -0.144 C  
HETATM   18  C   UNL     1      -8.675  11.268  62.398  1.00  0.00    -0.248 C  
HETATM   19  C   UNL     1      -8.626   9.250  63.913  1.00  0.00    -0.192 C  
HETATM   20  C   UNL     1     -10.580  10.747  63.983  1.00  0.00    -0.105 C  
HETATM   21  C   UNL     1      -9.807  11.848  63.251  1.00  0.00    -0.354 C  
ENDBRANCH  14  16
BRANCH  12  22
HETATM   22  N   UNL     1     -11.302  13.831  67.431  1.00  0.00    -0.309 NA 
BRANCH  22  23
HETATM   23  C   UNL     1     -11.300  14.250  66.024  1.00  0.00    -0.335 C  
BRANCH  23  24
HETATM   24  C   UNL     1     -12.706  14.310  65.401  1.00  0.00    -0.369 C  
HETATM   25  O   UNL     1     -13.065  13.070  64.793  1.00  0.00    -0.742 OA 
HETATM   26  H   UNL     1     -13.933  13.108  64.408  1.00  0.00     0.000 HD 
ENDBRANCH  23  24
ENDBRANCH  22  23
BRANCH  22  27
HETATM   27  C   UNL     1     -11.884  14.716  68.442  1.00  0.00    -0.295 C  
BRANCH  27  28
HETATM   28  C   UNL     1     -10.808  15.569  69.138  1.00  0.00    -0.251 C  
HETATM   29  O   UNL     1     -11.276  16.084  70.386  1.00  0.00    -0.342 OA 
HETATM   30  H   UNL     1     -10.611  16.610  70.815  1.00  0.00     0.000 HD 
ENDBRANCH  27  28
ENDBRANCH  22  27
ENDBRANCH  12  22
BRANCH   7  31
HETATM   31  N   UNL     1     -11.852  10.270  70.364  1.00  0.00    -0.289 NA 
HETATM   32  C   UNL     1     -12.897  10.967  71.104  1.00  0.00    -0.392 C  
HETATM   33  C   UNL     1     -10.908   9.503  71.181  1.00  0.00    -0.355 C  
HETATM   34  C   UNL     1     -13.711   9.934  71.885  1.00  0.00    -0.297 C  
HETATM   35  C   UNL     1     -11.680   8.444  71.966  1.00  0.00    -0.417 C  
HETATM   36  C   UNL     1     -12.821   9.066  72.771  1.00  0.00    -0.151 C  
ENDBRANCH   7  31
ENDBRANCH   5   6
BRANCH   5  37
HETATM   37  C   UNL     1      -9.439   5.535  66.524  1.00  0.00    -0.151 C  
BRANCH  37  38
HETATM   38  C   UNL     1      -8.175   4.696  66.803  1.00  0.00    -0.106 C  
HETATM   39  O   UNL     1      -7.074   5.502  67.221  1.00  0.00    -0.070 OA 
HETATM   40  H   UNL     1      -6.296   4.985  67.392  1.00  0.00     0.000 HD 
ENDBRANCH  37  38
ENDBRANCH   5  37
ENDBRANCH   4   5
ENDBRANCH   3   4
TORSDOF 12
ENDMDL
MODEL       68
REMARK 921   NORMALIZED FREE ENERGY PREDICTED BY IDOCK:   -5.75 KCAL/MOL
REMARK 922        TOTAL FREE ENERGY PREDICTED BY IDOCK:  -10.71 KCAL/MOL
REMARK 923 INTER-LIGAND FREE ENERGY PREDICTED BY IDOCK:   -8.67 KCAL/MOL
REMARK 924 INTRA-LIGAND FREE ENERGY PREDICTED BY IDOCK:   -2.04 KCAL/MOL
REMARK 927      BINDING AFFINITY PREDICTED BY RF-SCORE:    0.00 PKD
ROOT
HETATM    1  O   UNL     1      -5.640   6.165  66.867  1.00  0.00    -0.009 OA 
HETATM    2  H   UNL     1      -5.360   5.352  66.462  1.00  0.00     0.000 HD 
HETATM    3  C   UNL     1      -5.605   7.256  65.949  1.00  0.00    -0.032 C  
ENDROOT
BRANCH   3   4
HETATM    4  C   UNL     1      -6.061   8.578  66.608  1.00  0.00    -0.057 C  
BRANCH   4   5
HETATM    5  N   UNL     1      -7.095   9.335  65.871  1.00  0.00    -0.089 NA 
BRANCH   5   6
HETATM    6  C   UNL     1      -8.170   9.761  66.630  1.00  0.00    -0.120 A  
HETATM    7  C   UNL     1      -9.825   9.081  69.811  1.00  0.00    -0.180 A  
HETATM    8  N   UNL     1     -10.834   9.586  70.563  1.00  0.00    -0.266 NA 
HETATM    9  N   UNL     1      -8.437   9.174  67.797  1.00  0.00    -0.117 NA 
HETATM   10  C   UNL     1      -9.458   9.637  68.570  1.00  0.00    -0.141 A  
HETATM   11  N   UNL     1      -8.899  10.776  66.183  1.00  0.00    -0.171 NA 
HETATM   12  C   UNL     1     -11.534  10.614  70.101  1.00  0.00    -0.329 A  
HETATM   13  C   UNL     1     -10.252  10.698  68.173  1.00  0.00    -0.168 A  
HETATM   14  C   UNL     1      -9.924  11.242  66.924  1.00  0.00    -0.207 A  
HETATM   15  N   UNL     1     -11.299  11.146  68.909  1.00  0.00    -0.250 NA 
BRANCH  14  16
HETATM   16  N   UNL     1     -10.674  12.254  66.337  1.00  0.00    -0.244 NA 
HETATM   17  C   UNL     1     -12.040  14.182  66.791  1.00  0.00    -0.474 C  
HETATM   18  C   UNL     1     -12.660  14.044  65.396  1.00  0.00    -0.529 C  
HETATM   19  C   UNL     1     -10.614  13.632  66.813  1.00  0.00    -0.273 C  
HETATM   20  C   UNL     1     -11.101  12.101  64.946  1.00  0.00    -0.319 C  
HETATM   21  C   UNL     1     -12.539  12.617  64.851  1.00  0.00    -0.525 C  
ENDBRANCH  14  16
BRANCH  12  22
HETATM   22  N   UNL     1     -12.530  11.175  70.871  1.00  0.00    -0.391 NA 
BRANCH  22  23
HETATM   23  C   UNL     1     -13.120  10.329  71.916  1.00  0.00    -0.463 C  
BRANCH  23  24
HETATM   24  C   UNL     1     -14.017   9.208  71.361  1.00  0.00    -0.182 C  
HETATM   25  O   UNL     1     -13.287   7.996  71.174  1.00  0.00    -0.523 OA 
HETATM   26  H   UNL     1     -13.840   7.303  70.831  1.00  0.00     0.000 HD 
ENDBRANCH  23  24
ENDBRANCH  22  23
BRANCH  22  27
HETATM   27  C   UNL     1     -12.627  12.631  70.988  1.00  0.00    -0.262 C  
BRANCH  27  28
HETATM   28  C   UNL     1     -13.447  13.050  72.222  1.00  0.00    -0.547 C  
HETATM   29  O   UNL     1     -14.252  14.199  71.949  1.00  0.00    -0.461 OA 
HETATM   30  H   UNL     1     -14.758  14.457  72.711  1.00  0.00     0.000 HD 
ENDBRANCH  27  28
ENDBRANCH  22  27
ENDBRANCH  12  22
BRANCH   7  31
HETATM   31  N   UNL     1      -9.168   8.002  70.400  1.00  0.00    -0.154 NA 
HETATM   32  C   UNL     1      -9.543   6.613  70.163  1.00  0.00    -0.161 C  
HETATM   33  C   UNL     1      -8.467   8.258  71.661  1.00  0.00    -0.149 C  
HETATM   34  C   UNL     1      -8.272   5.762  70.155  1.00  0.00    -0.116 C  
HETATM   35  C   UNL     1      -7.178   7.439  71.685  1.00  0.00    -0.071 C  
HETATM   36  C   UNL     1      -7.451   5.958  71.427  1.00  0.00    -0.096 C  
ENDBRANCH   7  31
ENDBRANCH   5   6
BRANCH   5  37
HETATM   37  C   UNL     1      -7.357   8.934  64.483  1.00  0.00    -0.102 C  
BRANCH  37  38
HETATM   38  C   UNL     1      -6.895   9.997  63.465  1.00  0.00    -0.133 C  
HETATM   39  O   UNL     1      -7.843  11.053  63.321  1.00  0.00    -0.357 OA 
HETATM   40  H   UNL     1      -7.558  11.707  62.694  1.00  0.00     0.000 HD 
ENDBRANCH  37  38
ENDBRANCH   5  37
ENDBRANCH   4   5
ENDBRANCH   3   4
TORSDOF 12
ENDMDL
MODEL       69
REMARK 921   NORMALIZED FREE ENERGY PREDICTED BY IDOCK:   -5.71 KCAL/MOL
REMARK 922        TOTAL FREE ENERGY PREDICTED BY IDOCK:  -10.63 KCAL/MOL
REMARK 923 INTER-LIGAND FREE ENERGY PREDICTED BY IDOCK:   -9.52 KCAL/MOL
REMARK 924 INTRA-LIGAND FREE ENERGY PREDICTED BY IDOCK:   -1.11 KCAL/MOL
REMARK 927      BINDING AFFINITY PREDICTED BY RF-SCORE:    0.00 PKD
ROOT
HETATM    1  O   UNL     1     -11.248  14.850  71.157  1.00  0.00    -0.506 OA 
HETATM    2  H   UNL     1     -11.716  15.003  71.970  1.00  0.00     0.000 HD 
HETATM    3  C   UNL     1     -12.135  14.749  70.044  1.00  0.00    -0.329 C  
ENDROOT
BRANCH   3   4
HETATM    4  C   UNL     1     -11.373  14.501  68.723  1.00  0.00    -0.274 C  
BRANCH   4   5
HETATM    5  N   UNL     1     -12.000  13.535  67.796  1.00  0.00    -0.354 NA 
BRANCH   5   6
HETATM    6  C   UNL     1     -11.592  12.221  67.946  1.00  0.00    -0.354 A  
HETATM    7  C   UNL     1      -9.934   9.552  66.091  1.00  0.00    -0.272 A  
HETATM    8  N   UNL     1      -9.471   8.296  66.308  1.00  0.00    -0.213 NA 
HETATM    9  N   UNL     1     -11.010  11.584  66.930  1.00  0.00    -0.284 NA 
HETATM   10  C   UNL     1     -10.553  10.313  67.101  1.00  0.00    -0.260 A  
HETATM   11  N   UNL     1     -11.768  11.634  69.123  1.00  0.00    -0.298 NA 
HETATM   12  C   UNL     1      -9.643   7.739  67.499  1.00  0.00    -0.148 A  
HETATM   13  C   UNL     1     -10.691   9.642  68.304  1.00  0.00    -0.217 A  
HETATM   14  C   UNL     1     -11.337  10.371  69.311  1.00  0.00    -0.235 A  
HETATM   15  N   UNL     1     -10.282   8.361  68.481  1.00  0.00    -0.198 NA 
BRANCH  14  16
HETATM   16  N   UNL     1     -11.636   9.817  70.551  1.00  0.00    -0.281 NA 
HETATM   17  C   UNL     1     -10.951   8.170  72.165  1.00  0.00    -0.372 C  
HETATM   18  C   UNL     1     -12.362   8.200  72.763  1.00  0.00    -0.106 C  
HETATM   19  C   UNL     1     -10.597   9.514  71.529  1.00  0.00    -0.149 C  
HETATM   20  C   UNL     1     -12.970  10.022  71.114  1.00  0.00    -0.387 C  
HETATM   21  C   UNL     1     -13.402   8.701  71.756  1.00  0.00    -0.410 C  
ENDBRANCH  14  16
BRANCH  12  22
HETATM   22  N   UNL     1      -9.135   6.484  67.756  1.00  0.00    -0.114 NA 
BRANCH  22  23
HETATM   23  C   UNL     1      -8.921   5.603  66.602  1.00  0.00    -0.120 C  
BRANCH  23  24
HETATM   24  C   UNL     1     -10.109   4.665  66.320  1.00  0.00    -0.265 C  
HETATM   25  O   UNL     1     -11.250   5.386  65.855  1.00  0.00    -0.779 OA 
HETATM   26  H   UNL     1     -11.983   4.808  65.682  1.00  0.00     0.000 HD 
ENDBRANCH  23  24
ENDBRANCH  22  23
BRANCH  22  27
HETATM   27  C   UNL     1      -8.389   6.240  68.993  1.00  0.00    -0.117 C  
BRANCH  27  28
HETATM   28  C   UNL     1      -8.013   4.754  69.147  1.00  0.00    -0.071 C  
HETATM   29  O   UNL     1      -6.598   4.565  69.092  1.00  0.00    -0.038 OA 
HETATM   30  H   UNL     1      -6.366   3.648  69.187  1.00  0.00     0.000 HD 
ENDBRANCH  27  28
ENDBRANCH  22  27
ENDBRANCH  12  22
BRANCH   7  31
HETATM   31  N   UNL     1      -9.698  10.025  64.801  1.00  0.00    -0.316 NA 
HETATM   32  C   UNL     1     -10.687  10.772  64.032  1.00  0.00     0.027 C  
HETATM   33  C   UNL     1      -8.685   9.323  64.010  1.00  0.00    -0.171 C  
HETATM   34  C   UNL     1      -9.957  11.824  63.196  1.00  0.00    -0.373 C  
HETATM   35  C   UNL     1      -7.917  10.344  63.172  1.00  0.00    -0.125 C  
HETATM   36  C   UNL     1      -8.863  11.202  62.331  1.00  0.00    -0.333 C  
ENDBRANCH   7  31
ENDBRANCH   5   6
BRANCH   5  37
HETATM   37  C   UNL     1     -12.295  14.005  66.436  1.00  0.00    -0.431 C  
BRANCH  37  38
HETATM   38  C   UNL     1     -11.136  14.823  65.831  1.00  0.00    -0.340 C  
HETATM   39  O   UNL     1      -9.875  14.176  66.000  1.00  0.00    -0.304 OA 
HETATM   40  H   UNL     1      -9.161  14.680  65.627  1.00  0.00     0.000 HD 
ENDBRANCH  37  38
ENDBRANCH   5  37
ENDBRANCH   4   5
ENDBRANCH   3   4
TORSDOF 12
ENDMDL
MODEL       70
REMARK 921   NORMALIZED FREE ENERGY PREDICTED BY IDOCK:   -5.69 KCAL/MOL
REMARK 922        TOTAL FREE ENERGY PREDICTED BY IDOCK:  -10.59 KCAL/MOL
REMARK 923 INTER-LIGAND FREE ENERGY PREDICTED BY IDOCK:   -9.47 KCAL/MOL
REMARK 924 INTRA-LIGAND FREE ENERGY PREDICTED BY IDOCK:   -1.12 KCAL/MOL
REMARK 927      BINDING AFFINITY PREDICTED BY RF-SCORE:    0.00 PKD
ROOT
HETATM    1  O   UNL     1     -12.190  11.450  62.866  1.00  0.00    -0.940 OA 
HETATM    2  H   UNL     1     -11.902  11.449  61.960  1.00  0.00     0.000 HD 
HETATM    3  C   UNL     1     -12.156  12.759  63.432  1.00  0.00    -0.534 C  
ENDROOT
BRANCH   3   4
HETATM    4  C   UNL     1     -12.624  12.761  64.905  1.00  0.00    -0.470 C  
BRANCH   4   5
HETATM    5  N   UNL     1     -11.551  12.870  65.916  1.00  0.00    -0.356 NA 
BRANCH   5   6
HETATM    6  C   UNL     1     -10.843  11.706  66.155  1.00  0.00    -0.294 A  
HETATM    7  C   UNL     1     -10.439   9.119  68.696  1.00  0.00    -0.207 A  
HETATM    8  N   UNL     1      -9.793   7.938  68.853  1.00  0.00    -0.169 NA 
HETATM    9  N   UNL     1     -10.999  11.055  67.307  1.00  0.00    -0.284 NA 
HETATM   10  C   UNL     1     -10.349   9.877  67.513  1.00  0.00    -0.236 A  
HETATM   11  N   UNL     1     -10.038  11.248  65.204  1.00  0.00    -0.259 NA 
HETATM   12  C   UNL     1      -9.010   7.493  67.880  1.00  0.00    -0.131 A  
HETATM   13  C   UNL     1      -9.503   9.333  66.562  1.00  0.00    -0.202 A  
HETATM   14  C   UNL     1      -9.372  10.092  65.391  1.00  0.00    -0.229 A  
HETATM   15  N   UNL     1      -8.813   8.184  66.765  1.00  0.00    -0.132 NA 
BRANCH  14  16
HETATM   16  N   UNL     1      -8.496   9.736  64.372  1.00  0.00    -0.164 NA 
HETATM   17  C   UNL     1      -8.251   8.385  62.396  1.00  0.00    -0.181 C  
HETATM   18  C   UNL     1      -6.729   8.477  62.548  1.00  0.00    -0.095 C  
HETATM   19  C   UNL     1      -8.936   9.618  62.986  1.00  0.00    -0.238 C  
HETATM   20  C   UNL     1      -7.067   9.996  64.544  1.00  0.00    -0.139 C  
HETATM   21  C   UNL     1      -6.313   8.785  63.990  1.00  0.00    -0.072 C  
ENDBRANCH  14  16
BRANCH  12  22
HETATM   22  N   UNL     1      -8.384   6.270  67.998  1.00  0.00    -0.114 NA 
BRANCH  22  23
HETATM   23  C   UNL     1      -9.148   5.089  67.581  1.00  0.00    -0.113 C  
BRANCH  23  24
HETATM   24  C   UNL     1     -10.646   5.372  67.369  1.00  0.00    -0.153 C  
HETATM   25  O   UNL     1     -10.998   5.336  65.987  1.00  0.00    -0.713 OA 
HETATM   26  H   UNL     1     -11.922   5.511  65.856  1.00  0.00     0.000 HD 
ENDBRANCH  23  24
ENDBRANCH  22  23
BRANCH  22  27
HETATM   27  C   UNL     1      -6.922   6.202  68.038  1.00  0.00    -0.076 C  
BRANCH  27  28
HETATM   28  C   UNL     1      -6.409   4.790  67.698  1.00  0.00    -0.040 C  
HETATM   29  O   UNL     1      -5.806   4.750  66.403  1.00  0.00    -0.021 OA 
HETATM   30  H   UNL     1      -5.490   3.879  66.195  1.00  0.00     0.000 HD 
ENDBRANCH  27  28
ENDBRANCH  22  27
ENDBRANCH  12  22
BRANCH   7  31
HETATM   31  N   UNL     1     -11.227   9.481  69.788  1.00  0.00    -0.191 NA 
HETATM   32  C   UNL     1     -11.335  10.851  70.275  1.00  0.00    -0.256 C  
HETATM   33  C   UNL     1     -11.516   8.437  70.774  1.00  0.00    -0.255 C  
HETATM   34  C   UNL     1     -12.765  11.079  70.769  1.00  0.00    -0.414 C  
HETATM   35  C   UNL     1     -12.946   8.618  71.281  1.00  0.00    -0.211 C  
HETATM   36  C   UNL     1     -13.180  10.035  71.804  1.00  0.00    -0.540 C  
ENDBRANCH   7  31
ENDBRANCH   5   6
BRANCH   5  37
HETATM   37  C   UNL     1     -11.792  13.766  67.054  1.00  0.00    -0.410 C  
BRANCH  37  38
HETATM   38  C   UNL     1     -10.846  14.984  67.057  1.00  0.00    -0.311 C  
HETATM   39  O   UNL     1     -10.654  15.520  65.748  1.00  0.00    -0.318 OA 
HETATM   40  H   UNL     1     -10.072  16.270  65.749  1.00  0.00     0.000 HD 
ENDBRANCH  37  38
ENDBRANCH   5  37
ENDBRANCH   4   5
ENDBRANCH   3   4
TORSDOF 12
ENDMDL
MODEL       71
REMARK 921   NORMALIZED FREE ENERGY PREDICTED BY IDOCK:   -5.65 KCAL/MOL
REMARK 922        TOTAL FREE ENERGY PREDICTED BY IDOCK:  -10.53 KCAL/MOL
REMARK 923 INTER-LIGAND FREE ENERGY PREDICTED BY IDOCK:   -9.06 KCAL/MOL
REMARK 924 INTRA-LIGAND FREE ENERGY PREDICTED BY IDOCK:   -1.48 KCAL/MOL
REMARK 927      BINDING AFFINITY PREDICTED BY RF-SCORE:    0.00 PKD
ROOT
HETATM    1  O   UNL     1     -11.498   4.358  65.143  1.00  0.00    -1.069 OA 
HETATM    2  H   UNL     1     -11.550   4.020  64.256  1.00  0.00     0.000 HD 
HETATM    3  C   UNL     1     -10.161   4.341  65.640  1.00  0.00    -0.197 C  
ENDROOT
BRANCH   3   4
HETATM    4  C   UNL     1     -10.077   4.891  67.082  1.00  0.00    -0.187 C  
BRANCH   4   5
HETATM    5  N   UNL     1      -8.984   5.853  67.336  1.00  0.00    -0.109 NA 
BRANCH   5   6
HETATM    6  C   UNL     1      -9.328   7.187  67.210  1.00  0.00    -0.134 A  
HETATM    7  C   UNL     1     -10.720   9.939  69.161  1.00  0.00    -0.224 A  
HETATM    8  N   UNL     1     -10.961  11.266  69.022  1.00  0.00    -0.222 NA 
HETATM    9  N   UNL     1      -9.865   7.838  68.243  1.00  0.00    -0.162 NA 
HETATM   10  C   UNL     1     -10.144   9.166  68.134  1.00  0.00    -0.189 A  
HETATM   11  N   UNL     1      -9.083   7.798  66.058  1.00  0.00    -0.156 NA 
HETATM   12  C   UNL     1     -10.689  11.857  67.866  1.00  0.00    -0.204 A  
HETATM   13  C   UNL     1      -9.905   9.870  66.968  1.00  0.00    -0.191 A  
HETATM   14  C   UNL     1      -9.365   9.109  65.923  1.00  0.00    -0.243 A  
HETATM   15  N   UNL     1     -10.216  11.183  66.827  1.00  0.00    -0.224 NA 
BRANCH  14  16
HETATM   16  N   UNL     1      -9.146   9.639  64.657  1.00  0.00    -0.235 NA 
HETATM   17  C   UNL     1      -7.445  10.285  63.083  1.00  0.00    -0.125 C  
HETATM   18  C   UNL     1      -8.470  11.177  62.373  1.00  0.00    -0.282 C  
HETATM   19  C   UNL     1      -8.128   9.098  63.762  1.00  0.00    -0.156 C  
HETATM   20  C   UNL     1     -10.235  10.353  63.990  1.00  0.00    -0.027 C  
HETATM   21  C   UNL     1      -9.623  11.575  63.299  1.00  0.00    -0.366 C  
ENDBRANCH  14  16
BRANCH  12  22
HETATM   22  N   UNL     1     -10.878  13.214  67.721  1.00  0.00    -0.240 NA 
BRANCH  22  23
HETATM   23  C   UNL     1     -12.058  13.644  66.961  1.00  0.00    -0.380 C  
BRANCH  23  24
HETATM   24  C   UNL     1     -11.758  14.760  65.945  1.00  0.00    -0.248 C  
HETATM   25  O   UNL     1     -10.714  14.387  65.046  1.00  0.00    -0.372 OA 
HETATM   26  H   UNL     1     -10.529  15.076  64.419  1.00  0.00     0.000 HD 
ENDBRANCH  23  24
ENDBRANCH  22  23
BRANCH  22  27
HETATM   27  C   UNL     1     -10.261  14.141  68.671  1.00  0.00    -0.238 C  
BRANCH  27  28
HETATM   28  C   UNL     1     -11.312  14.813  69.575  1.00  0.00    -0.283 C  
HETATM   29  O   UNL     1     -11.712  13.951  70.642  1.00  0.00    -0.484 OA 
HETATM   30  H   UNL     1     -12.360  14.366  71.198  1.00  0.00     0.000 HD 
ENDBRANCH  27  28
ENDBRANCH  22  27
ENDBRANCH  12  22
BRANCH   7  31
HETATM   31  N   UNL     1     -11.050   9.434  70.418  1.00  0.00    -0.248 NA 
HETATM   32  C   UNL     1     -12.284   9.776  71.116  1.00  0.00    -0.362 C  
HETATM   33  C   UNL     1      -9.943   9.000  71.273  1.00  0.00    -0.311 C  
HETATM   34  C   UNL     1     -12.763   8.545  71.886  1.00  0.00    -0.401 C  
HETATM   35  C   UNL     1     -10.375   7.756  72.048  1.00  0.00    -0.267 C  
HETATM   36  C   UNL     1     -11.678   7.997  72.810  1.00  0.00    -0.352 C  
ENDBRANCH   7  31
ENDBRANCH   5   6
BRANCH   5  37
HETATM   37  C   UNL     1      -7.632   5.456  66.920  1.00  0.00    -0.089 C  
BRANCH  37  38
HETATM   38  C   UNL     1      -7.061   4.315  67.784  1.00  0.00    -0.064 C  
HETATM   39  O   UNL     1      -5.702   4.548  68.155  1.00  0.00    -0.019 OA 
HETATM   40  H   UNL     1      -5.351   3.845  68.688  1.00  0.00     0.000 HD 
ENDBRANCH  37  38
ENDBRANCH   5  37
ENDBRANCH   4   5
ENDBRANCH   3   4
TORSDOF 12
ENDMDL
MODEL       72
REMARK 921   NORMALIZED FREE ENERGY PREDICTED BY IDOCK:   -5.63 KCAL/MOL
REMARK 922        TOTAL FREE ENERGY PREDICTED BY IDOCK:  -10.50 KCAL/MOL
REMARK 923 INTER-LIGAND FREE ENERGY PREDICTED BY IDOCK:   -8.89 KCAL/MOL
REMARK 924 INTRA-LIGAND FREE ENERGY PREDICTED BY IDOCK:   -1.61 KCAL/MOL
REMARK 927      BINDING AFFINITY PREDICTED BY RF-SCORE:    0.00 PKD
ROOT
HETATM    1  O   UNL     1     -10.481  15.102  65.438  1.00  0.00    -0.331 OA 
HETATM    2  H   UNL     1     -10.281  15.611  64.661  1.00  0.00     0.000 HD 
HETATM    3  C   UNL     1     -11.886  14.917  65.605  1.00  0.00    -0.131 C  
ENDROOT
BRANCH   3   4
HETATM    4  C   UNL     1     -12.212  14.089  66.868  1.00  0.00    -0.380 C  
BRANCH   4   5
HETATM    5  N   UNL     1     -11.044  13.630  67.649  1.00  0.00    -0.266 NA 
BRANCH   5   6
HETATM    6  C   UNL     1     -10.934  12.259  67.799  1.00  0.00    -0.232 A  
HETATM    7  C   UNL     1      -9.760   9.309  66.000  1.00  0.00    -0.289 A  
HETATM    8  N   UNL     1      -9.589   7.982  66.221  1.00  0.00    -0.188 NA 
HETATM    9  N   UNL     1     -10.434  11.518  66.810  1.00  0.00    -0.230 NA 
HETATM   10  C   UNL     1     -10.269  10.178  66.984  1.00  0.00    -0.234 A  
HETATM   11  N   UNL     1     -11.306  11.716  68.951  1.00  0.00    -0.241 NA 
HETATM   12  C   UNL     1      -9.951   7.468  67.389  1.00  0.00    -0.187 A  
HETATM   13  C   UNL     1     -10.624   9.545  68.162  1.00  0.00    -0.217 A  
HETATM   14  C   UNL     1     -11.166  10.389  69.141  1.00  0.00    -0.246 A  
HETATM   15  N   UNL     1     -10.507   8.206  68.340  1.00  0.00    -0.193 NA 
BRANCH  14  16
HETATM   16  N   UNL     1     -11.655   9.904  70.349  1.00  0.00    -0.275 NA 
HETATM   17  C   UNL     1     -11.469   8.119  71.951  1.00  0.00    -0.357 C  
HETATM   18  C   UNL     1     -12.864   8.474  72.477  1.00  0.00    -0.310 C  
HETATM   19  C   UNL     1     -10.773   9.350  71.370  1.00  0.00    -0.337 C  
HETATM   20  C   UNL     1     -12.933  10.411  70.848  1.00  0.00    -0.387 C  
HETATM   21  C   UNL     1     -13.699   9.221  71.432  1.00  0.00    -0.325 C  
ENDBRANCH  14  16
BRANCH  12  22
HETATM   22  N   UNL     1      -9.739   6.132  67.653  1.00  0.00    -0.114 NA 
BRANCH  22  23
HETATM   23  C   UNL     1      -9.217   5.791  68.981  1.00  0.00    -0.119 C  
BRANCH  23  24
HETATM   24  C   UNL     1     -10.291   5.241  69.938  1.00  0.00    -0.304 C  
HETATM   25  O   UNL     1      -9.727   4.832  71.183  1.00  0.00    -0.159 OA 
HETATM   26  H   UNL     1     -10.389   4.493  71.773  1.00  0.00     0.000 HD 
ENDBRANCH  23  24
ENDBRANCH  22  23
BRANCH  22  27
HETATM   27  C   UNL     1     -10.455   5.114  66.880  1.00  0.00    -0.223 C  
BRANCH  27  28
HETATM   28  C   UNL     1      -9.600   4.576  65.718  1.00  0.00    -0.188 C  
HETATM   29  O   UNL     1      -9.729   3.159  65.587  1.00  0.00    -0.368 OA 
HETATM   30  H   UNL     1      -9.202   2.827  64.870  1.00  0.00     0.000 HD 
ENDBRANCH  27  28
ENDBRANCH  22  27
ENDBRANCH  12  22
BRANCH   7  31
HETATM   31  N   UNL     1      -9.346   9.728  64.737  1.00  0.00    -0.267 NA 
HETATM   32  C   UNL     1     -10.243  10.348  63.768  1.00  0.00     0.070 C  
HETATM   33  C   UNL     1      -8.166   9.070  64.171  1.00  0.00    -0.166 C  
HETATM   34  C   UNL     1      -9.460  11.410  62.993  1.00  0.00    -0.380 C  
HETATM   35  C   UNL     1      -7.344  10.104  63.403  1.00  0.00    -0.132 C  
HETATM   36  C   UNL     1      -8.195  10.833  62.363  1.00  0.00    -0.264 C  
ENDBRANCH   7  31
ENDBRANCH   5   6
BRANCH   5  37
HETATM   37  C   UNL     1     -10.616  14.474  68.772  1.00  0.00    -0.248 C  
BRANCH  37  38
HETATM   38  C   UNL     1     -11.801  15.171  69.471  1.00  0.00    -0.332 C  
HETATM   39  O   UNL     1     -12.554  14.270  70.282  1.00  0.00    -0.348 OA 
HETATM   40  H   UNL     1     -13.284  14.700  70.712  1.00  0.00     0.000 HD 
ENDBRANCH  37  38
ENDBRANCH   5  37
ENDBRANCH   4   5
ENDBRANCH   3   4
TORSDOF 12
ENDMDL
MODEL       73
REMARK 921   NORMALIZED FREE ENERGY PREDICTED BY IDOCK:   -5.54 KCAL/MOL
REMARK 922        TOTAL FREE ENERGY PREDICTED BY IDOCK:  -10.35 KCAL/MOL
REMARK 923 INTER-LIGAND FREE ENERGY PREDICTED BY IDOCK:   -8.48 KCAL/MOL
REMARK 924 INTRA-LIGAND FREE ENERGY PREDICTED BY IDOCK:   -1.86 KCAL/MOL
REMARK 927      BINDING AFFINITY PREDICTED BY RF-SCORE:    0.00 PKD
ROOT
HETATM    1  O   UNL     1      -5.728  11.095  64.408  1.00  0.00    -0.416 OA 
HETATM    2  H   UNL     1      -5.001  11.683  64.577  1.00  0.00     0.000 HD 
HETATM    3  C   UNL     1      -5.343   9.726  64.529  1.00  0.00    -0.067 C  
ENDROOT
BRANCH   3   4
HETATM    4  C   UNL     1      -6.525   8.770  64.253  1.00  0.00    -0.071 C  
BRANCH   4   5
HETATM    5  N   UNL     1      -7.856   9.407  64.167  1.00  0.00    -0.118 NA 
BRANCH   5   6
HETATM    6  C   UNL     1      -8.574   9.441  65.349  1.00  0.00    -0.156 A  
HETATM    7  C   UNL     1      -9.735   7.230  68.009  1.00  0.00    -0.141 A  
HETATM    8  N   UNL     1     -10.367   7.319  69.206  1.00  0.00    -0.201 NA 
HETATM    9  N   UNL     1      -8.793   8.315  66.028  1.00  0.00    -0.161 NA 
HETATM   10  C   UNL     1      -9.446   8.361  67.222  1.00  0.00    -0.154 A  
HETATM   11  N   UNL     1      -9.005  10.614  65.795  1.00  0.00    -0.175 NA 
HETATM   12  C   UNL     1     -10.770   8.507  69.637  1.00  0.00    -0.197 A  
HETATM   13  C   UNL     1      -9.914   9.549  67.754  1.00  0.00    -0.174 A  
HETATM   14  C   UNL     1      -9.667  10.682  66.967  1.00  0.00    -0.176 A  
HETATM   15  N   UNL     1     -10.603   9.610  68.920  1.00  0.00    -0.214 NA 
BRANCH  14  16
HETATM   16  N   UNL     1     -10.145  11.941  67.311  1.00  0.00    -0.195 NA 
HETATM   17  C   UNL     1      -9.529  14.071  68.245  1.00  0.00    -0.216 C  
HETATM   18  C   UNL     1     -11.005  14.334  68.564  1.00  0.00    -0.267 C  
HETATM   19  C   UNL     1      -9.386  13.155  67.030  1.00  0.00    -0.238 C  
HETATM   20  C   UNL     1     -11.587  12.136  67.451  1.00  0.00    -0.340 C  
HETATM   21  C   UNL     1     -11.810  13.035  68.670  1.00  0.00    -0.353 C  
ENDBRANCH  14  16
BRANCH  12  22
HETATM   22  N   UNL     1     -11.369   8.627  70.873  1.00  0.00    -0.268 NA 
BRANCH  22  23
HETATM   23  C   UNL     1     -11.293   7.465  71.766  1.00  0.00    -0.255 C  
BRANCH  23  24
HETATM   24  C   UNL     1     -12.503   6.520  71.643  1.00  0.00    -0.216 C  
HETATM   25  O   UNL     1     -13.697   7.129  72.132  1.00  0.00    -0.537 OA 
HETATM   26  H   UNL     1     -14.443   6.546  72.057  1.00  0.00     0.000 HD 
ENDBRANCH  23  24
ENDBRANCH  22  23
BRANCH  22  27
HETATM   27  C   UNL     1     -11.598   9.956  71.444  1.00  0.00    -0.352 C  
BRANCH  27  28
HETATM   28  C   UNL     1     -13.083  10.358  71.373  1.00  0.00    -0.413 C  
HETATM   29  O   UNL     1     -13.732  10.187  72.635  1.00  0.00    -0.584 OA 
HETATM   30  H   UNL     1     -14.648  10.435  72.590  1.00  0.00     0.000 HD 
ENDBRANCH  27  28
ENDBRANCH  22  27
ENDBRANCH  12  22
BRANCH   7  31
HETATM   31  N   UNL     1      -9.364   5.931  67.664  1.00  0.00    -0.108 NA 
HETATM   32  C   UNL     1     -10.318   4.919  67.224  1.00  0.00    -0.094 C  
HETATM   33  C   UNL     1      -8.124   5.415  68.248  1.00  0.00    -0.095 C  
HETATM   34  C   UNL     1      -9.645   4.048  66.162  1.00  0.00    -0.205 C  
HETATM   35  C   UNL     1      -7.409   4.552  67.210  1.00  0.00    -0.074 C  
HETATM   36  C   UNL     1      -8.328   3.459  66.663  1.00  0.00    -0.101 C  
ENDBRANCH   7  31
ENDBRANCH   5   6
BRANCH   5  37
HETATM   37  C   UNL     1      -8.607   9.223  62.919  1.00  0.00    -0.219 C  
BRANCH  37  38
HETATM   38  C   UNL     1      -9.371  10.494  62.497  1.00  0.00    -0.290 C  
HETATM   39  O   UNL     1      -8.591  11.676  62.678  1.00  0.00    -0.640 OA 
HETATM   40  H   UNL     1      -9.062  12.459  62.418  1.00  0.00     0.000 HD 
ENDBRANCH  37  38
ENDBRANCH   5  37
ENDBRANCH   4   5
ENDBRANCH   3   4
TORSDOF 12
ENDMDL
MODEL       74
REMARK 921   NORMALIZED FREE ENERGY PREDICTED BY IDOCK:   -5.53 KCAL/MOL
REMARK 922        TOTAL FREE ENERGY PREDICTED BY IDOCK:  -10.32 KCAL/MOL
REMARK 923 INTER-LIGAND FREE ENERGY PREDICTED BY IDOCK:   -8.92 KCAL/MOL
REMARK 924 INTRA-LIGAND FREE ENERGY PREDICTED BY IDOCK:   -1.40 KCAL/MOL
REMARK 927      BINDING AFFINITY PREDICTED BY RF-SCORE:    0.00 PKD
ROOT
HETATM    1  O   UNL     1      -7.221   6.115  68.988  1.00  0.00    -0.078 OA 
HETATM    2  H   UNL     1      -7.103   5.304  69.469  1.00  0.00     0.000 HD 
HETATM    3  C   UNL     1      -7.209   5.903  67.577  1.00  0.00    -0.076 C  
ENDROOT
BRANCH   3   4
HETATM    4  C   UNL     1      -7.402   7.222  66.796  1.00  0.00    -0.088 C  
BRANCH   4   5
HETATM    5  N   UNL     1      -8.756   7.446  66.245  1.00  0.00    -0.144 NA 
BRANCH   5   6
HETATM    6  C   UNL     1      -9.401   8.581  66.703  1.00  0.00    -0.189 A  
HETATM    7  C   UNL     1     -10.625  10.076  69.798  1.00  0.00    -0.267 A  
HETATM    8  N   UNL     1     -11.178  11.241  70.218  1.00  0.00    -0.100 NA 
HETATM    9  N   UNL     1      -9.692   8.706  67.998  1.00  0.00    -0.153 NA 
HETATM   10  C   UNL     1     -10.270   9.851  68.455  1.00  0.00    -0.178 A  
HETATM   11  N   UNL     1      -9.688   9.541  65.833  1.00  0.00    -0.265 NA 
HETATM   12  C   UNL     1     -11.437  12.192  69.330  1.00  0.00    -0.290 A  
HETATM   13  C   UNL     1     -10.587  10.898  67.607  1.00  0.00    -0.224 A  
HETATM   14  C   UNL     1     -10.273  10.678  66.260  1.00  0.00    -0.245 A  
HETATM   15  N   UNL     1     -11.201  12.028  68.035  1.00  0.00    -0.238 NA 
BRANCH  14  16
HETATM   16  N   UNL     1     -10.604  11.588  65.263  1.00  0.00    -0.276 NA 
HETATM   17  C   UNL     1     -11.357  13.836  64.850  1.00  0.00    -0.353 C  
HETATM   18  C   UNL     1     -11.825  13.400  63.456  1.00  0.00    -0.399 C  
HETATM   19  C   UNL     1     -10.180  12.983  65.324  1.00  0.00    -0.279 C  
HETATM   20  C   UNL     1     -10.895  11.092  63.919  1.00  0.00    -0.151 C  
HETATM   21  C   UNL     1     -12.085  11.892  63.384  1.00  0.00    -0.539 C  
ENDBRANCH  14  16
BRANCH  12  22
HETATM   22  N   UNL     1     -11.952  13.403  69.743  1.00  0.00    -0.326 NA 
BRANCH  22  23
HETATM   23  C   UNL     1     -12.322  14.360  68.694  1.00  0.00    -0.016 C  
BRANCH  23  24
HETATM   24  C   UNL     1     -11.193  15.344  68.337  1.00  0.00    -0.315 C  
HETATM   25  O   UNL     1     -11.278  16.543  69.106  1.00  0.00    -0.295 OA 
HETATM   26  H   UNL     1     -10.581  17.150  68.885  1.00  0.00     0.000 HD 
ENDBRANCH  23  24
ENDBRANCH  22  23
BRANCH  22  27
HETATM   27  C   UNL     1     -12.560  13.521  71.070  1.00  0.00    -0.359 C  
BRANCH  27  28
HETATM   28  C   UNL     1     -12.258  14.886  71.715  1.00  0.00    -0.348 C  
HETATM   29  O   UNL     1     -10.855  15.157  71.732  1.00  0.00    -0.491 OA 
HETATM   30  H   UNL     1     -10.669  15.999  72.130  1.00  0.00     0.000 HD 
ENDBRANCH  27  28
ENDBRANCH  22  27
ENDBRANCH  12  22
BRANCH   7  31
HETATM   31  N   UNL     1     -10.405   9.156  70.822  1.00  0.00    -0.236 NA 
HETATM   32  C   UNL     1      -9.075   8.711  71.222  1.00  0.00    -0.212 C  
HETATM   33  C   UNL     1     -11.498   8.231  71.132  1.00  0.00    -0.273 C  
HETATM   34  C   UNL     1      -9.070   8.497  72.737  1.00  0.00    -0.218 C  
HETATM   35  C   UNL     1     -11.540   8.005  72.643  1.00  0.00    -0.448 C  
HETATM   36  C   UNL     1     -10.183   7.549  73.178  1.00  0.00    -0.382 C  
ENDBRANCH   7  31
ENDBRANCH   5   6
BRANCH   5  37
HETATM   37  C   UNL     1      -9.576   6.257  65.981  1.00  0.00     0.063 C  
BRANCH  37  38
HETATM   38  C   UNL     1     -10.799   6.165  66.916  1.00  0.00    -0.335 C  
HETATM   39  O   UNL     1     -10.446   5.699  68.219  1.00  0.00    -0.198 OA 
HETATM   40  H   UNL     1     -11.199   5.642  68.795  1.00  0.00     0.000 HD 
ENDBRANCH  37  38
ENDBRANCH   5  37
ENDBRANCH   4   5
ENDBRANCH   3   4
TORSDOF 12
ENDMDL
MODEL       75
REMARK 921   NORMALIZED FREE ENERGY PREDICTED BY IDOCK:   -5.50 KCAL/MOL
REMARK 922        TOTAL FREE ENERGY PREDICTED BY IDOCK:  -10.28 KCAL/MOL
REMARK 923 INTER-LIGAND FREE ENERGY PREDICTED BY IDOCK:   -8.95 KCAL/MOL
REMARK 924 INTRA-LIGAND FREE ENERGY PREDICTED BY IDOCK:   -1.33 KCAL/MOL
REMARK 927      BINDING AFFINITY PREDICTED BY RF-SCORE:    0.00 PKD
ROOT
HETATM    1  O   UNL     1     -12.724  14.604  64.135  1.00  0.00    -0.738 OA 
HETATM    2  H   UNL     1     -12.715  14.403  63.206  1.00  0.00     0.000 HD 
HETATM    3  C   UNL     1     -12.059  13.602  64.903  1.00  0.00    -0.397 C  
ENDROOT
BRANCH   3   4
HETATM    4  C   UNL     1     -12.073  13.930  66.413  1.00  0.00    -0.455 C  
BRANCH   4   5
HETATM    5  N   UNL     1     -10.810  13.668  67.135  1.00  0.00    -0.283 NA 
BRANCH   5   6
HETATM    6  C   UNL     1     -10.565  12.341  67.437  1.00  0.00    -0.222 A  
HETATM    7  C   UNL     1      -8.975   9.373  66.030  1.00  0.00    -0.168 A  
HETATM    8  N   UNL     1      -8.678   8.103  66.402  1.00  0.00    -0.140 NA 
HETATM    9  N   UNL     1      -9.929  11.564  66.561  1.00  0.00    -0.205 NA 
HETATM   10  C   UNL     1      -9.634  10.275  66.888  1.00  0.00    -0.173 A  
HETATM   11  N   UNL     1     -10.950  11.879  68.620  1.00  0.00    -0.215 NA 
HETATM   12  C   UNL     1      -9.058   7.673  67.598  1.00  0.00    -0.129 A  
HETATM   13  C   UNL     1      -9.994   9.730  68.107  1.00  0.00    -0.154 A  
HETATM   14  C   UNL     1     -10.682  10.602  68.960  1.00  0.00    -0.221 A  
HETATM   15  N   UNL     1      -9.748   8.437  68.434  1.00  0.00    -0.152 NA 
BRANCH  14  16
HETATM   16  N   UNL     1     -11.193  10.191  70.185  1.00  0.00    -0.288 NA 
HETATM   17  C   UNL     1     -11.150   8.428  71.822  1.00  0.00    -0.358 C  
HETATM   18  C   UNL     1     -12.494   8.928  72.364  1.00  0.00    -0.405 C  
HETATM   19  C   UNL     1     -10.349   9.573  71.203  1.00  0.00    -0.260 C  
HETATM   20  C   UNL     1     -12.405  10.830  70.697  1.00  0.00    -0.372 C  
HETATM   21  C   UNL     1     -13.272   9.732  71.319  1.00  0.00    -0.452 C  
ENDBRANCH  14  16
BRANCH  12  22
HETATM   22  N   UNL     1      -8.722   6.403  68.015  1.00  0.00    -0.116 NA 
BRANCH  22  23
HETATM   23  C   UNL     1      -9.729   5.352  67.827  1.00  0.00    -0.135 C  
BRANCH  23  24
HETATM   24  C   UNL     1     -10.552   5.517  66.536  1.00  0.00    -0.279 C  
HETATM   25  O   UNL     1     -11.554   6.523  66.677  1.00  0.00    -0.678 OA 
HETATM   26  H   UNL     1     -12.062   6.625  65.880  1.00  0.00     0.000 HD 
ENDBRANCH  23  24
ENDBRANCH  22  23
BRANCH  22  27
HETATM   27  C   UNL     1      -7.312   6.029  68.148  1.00  0.00    -0.085 C  
BRANCH  27  28
HETATM   28  C   UNL     1      -6.820   5.225  66.930  1.00  0.00    -0.063 C  
HETATM   29  O   UNL     1      -6.265   6.080  65.928  1.00  0.00    -0.035 OA 
HETATM   30  H   UNL     1      -5.961   5.583  65.178  1.00  0.00     0.000 HD 
ENDBRANCH  27  28
ENDBRANCH  22  27
ENDBRANCH  12  22
BRANCH   7  31
HETATM   31  N   UNL     1      -8.529   9.705  64.752  1.00  0.00    -0.147 NA 
HETATM   32  C   UNL     1      -9.429   9.990  63.641  1.00  0.00    -0.197 C  
HETATM   33  C   UNL     1      -7.190   9.247  64.375  1.00  0.00    -0.097 C  
HETATM   34  C   UNL     1      -8.802  11.086  62.778  1.00  0.00    -0.297 C  
HETATM   35  C   UNL     1      -6.519  10.325  63.524  1.00  0.00    -0.105 C  
HETATM   36  C   UNL     1      -7.390  10.717  62.331  1.00  0.00    -0.150 C  
ENDBRANCH   7  31
ENDBRANCH   5   6
BRANCH   5  37
HETATM   37  C   UNL     1     -10.372  14.680  68.106  1.00  0.00    -0.230 C  
BRANCH  37  38
HETATM   38  C   UNL     1     -10.719  16.114  67.660  1.00  0.00    -0.318 C  
HETATM   39  O   UNL     1     -11.179  16.919  68.744  1.00  0.00    -0.228 OA 
HETATM   40  H   UNL     1     -11.393  17.803  68.469  1.00  0.00     0.000 HD 
ENDBRANCH  37  38
ENDBRANCH   5  37
ENDBRANCH   4   5
ENDBRANCH   3   4
TORSDOF 12
ENDMDL
MODEL       76
REMARK 921   NORMALIZED FREE ENERGY PREDICTED BY IDOCK:   -5.50 KCAL/MOL
REMARK 922        TOTAL FREE ENERGY PREDICTED BY IDOCK:  -10.28 KCAL/MOL
REMARK 923 INTER-LIGAND FREE ENERGY PREDICTED BY IDOCK:   -8.63 KCAL/MOL
REMARK 924 INTRA-LIGAND FREE ENERGY PREDICTED BY IDOCK:   -1.64 KCAL/MOL
REMARK 927      BINDING AFFINITY PREDICTED BY RF-SCORE:    0.00 PKD
ROOT
HETATM    1  O   UNL     1     -12.295   6.948  70.475  1.00  0.00    -0.593 OA 
HETATM    2  H   UNL     1     -12.860   6.297  70.075  1.00  0.00     0.000 HD 
HETATM    3  C   UNL     1     -11.359   6.357  71.376  1.00  0.00    -0.301 C  
ENDROOT
BRANCH   3   4
HETATM    4  C   UNL     1     -10.440   7.416  72.027  1.00  0.00    -0.199 C  
BRANCH   4   5
HETATM    5  N   UNL     1      -9.239   7.784  71.249  1.00  0.00    -0.140 NA 
BRANCH   5   6
HETATM    6  C   UNL     1      -9.485   8.424  70.047  1.00  0.00    -0.164 A  
HETATM    7  C   UNL     1     -11.418  11.196  68.670  1.00  0.00    -0.298 A  
HETATM    8  N   UNL     1     -11.564  11.850  67.491  1.00  0.00    -0.474 NA 
HETATM    9  N   UNL     1     -10.340   9.446  69.999  1.00  0.00    -0.216 NA 
HETATM   10  C   UNL     1     -10.532  10.113  68.828  1.00  0.00    -0.204 A  
HETATM   11  N   UNL     1      -8.831   8.016  68.967  1.00  0.00    -0.144 NA 
HETATM   12  C   UNL     1     -10.884  11.433  66.431  1.00  0.00    -0.271 A  
HETATM   13  C   UNL     1      -9.876   9.750  67.664  1.00  0.00    -0.165 A  
HETATM   14  C   UNL     1      -9.017   8.652  67.793  1.00  0.00    -0.136 A  
HETATM   15  N   UNL     1     -10.086  10.375  66.479  1.00  0.00    -0.220 NA 
BRANCH  14  16
HETATM   16  N   UNL     1      -8.348   8.103  66.705  1.00  0.00    -0.109 NA 
HETATM   17  C   UNL     1      -8.070   6.103  65.396  1.00  0.00    -0.133 C  
HETATM   18  C   UNL     1      -6.724   6.643  64.896  1.00  0.00    -0.049 C  
HETATM   19  C   UNL     1      -9.026   7.246  65.737  1.00  0.00    -0.015 C  
HETATM   20  C   UNL     1      -7.148   8.770  66.201  1.00  0.00    -0.085 C  
HETATM   21  C   UNL     1      -6.131   7.680  65.854  1.00  0.00    -0.038 C  
ENDBRANCH  14  16
BRANCH  12  22
HETATM   22  N   UNL     1     -10.978  12.115  65.237  1.00  0.00    -0.296 NA 
BRANCH  22  23
HETATM   23  C   UNL     1     -10.535  13.514  65.232  1.00  0.00    -0.336 C  
BRANCH  23  24
HETATM   24  C   UNL     1     -11.593  14.489  64.684  1.00  0.00    -0.408 C  
HETATM   25  O   UNL     1     -12.917  14.056  64.995  1.00  0.00    -0.728 OA 
HETATM   26  H   UNL     1     -13.570  14.658  64.656  1.00  0.00     0.000 HD 
ENDBRANCH  23  24
ENDBRANCH  22  23
BRANCH  22  27
HETATM   27  C   UNL     1     -11.019  11.371  63.976  1.00  0.00    -0.355 C  
BRANCH  27  28
HETATM   28  C   UNL     1      -9.704  11.514  63.187  1.00  0.00    -0.390 C  
HETATM   29  O   UNL     1      -9.205  10.243  62.769  1.00  0.00    -0.246 OA 
HETATM   30  H   UNL     1      -8.394  10.332  62.282  1.00  0.00     0.000 HD 
ENDBRANCH  27  28
ENDBRANCH  22  27
ENDBRANCH  12  22
BRANCH   7  31
HETATM   31  N   UNL     1     -12.186  11.724  69.706  1.00  0.00    -0.242 NA 
HETATM   32  C   UNL     1     -13.182  10.948  70.437  1.00  0.00     0.201 C  
HETATM   33  C   UNL     1     -12.392  13.174  69.710  1.00  0.00    -0.102 C  
HETATM   34  C   UNL     1     -13.175  11.402  71.898  1.00  0.00    -0.485 C  
HETATM   35  C   UNL     1     -12.373  13.672  71.154  1.00  0.00    -0.403 C  
HETATM   36  C   UNL     1     -13.374  12.911  72.023  1.00  0.00    -0.579 C  
ENDBRANCH   7  31
ENDBRANCH   5   6
BRANCH   5  37
HETATM   37  C   UNL     1      -8.094   6.865  71.309  1.00  0.00    -0.110 C  
BRANCH  37  38
HETATM   38  C   UNL     1      -7.728   6.474  72.755  1.00  0.00    -0.102 C  
HETATM   39  O   UNL     1      -7.912   5.080  72.999  1.00  0.00    -0.099 OA 
HETATM   40  H   UNL     1      -7.686   4.840  73.890  1.00  0.00     0.000 HD 
ENDBRANCH  37  38
ENDBRANCH   5  37
ENDBRANCH   4   5
ENDBRANCH   3   4
TORSDOF 12
ENDMDL
MODEL       77
REMARK 921   NORMALIZED FREE ENERGY PREDICTED BY IDOCK:   -5.46 KCAL/MOL
REMARK 922        TOTAL FREE ENERGY PREDICTED BY IDOCK:  -10.21 KCAL/MOL
REMARK 923 INTER-LIGAND FREE ENERGY PREDICTED BY IDOCK:   -9.56 KCAL/MOL
REMARK 924 INTRA-LIGAND FREE ENERGY PREDICTED BY IDOCK:   -0.65 KCAL/MOL
REMARK 927      BINDING AFFINITY PREDICTED BY RF-SCORE:    0.00 PKD
ROOT
HETATM    1  O   UNL     1     -10.006  14.831  69.728  1.00  0.00    -0.430 OA 
HETATM    2  H   UNL     1      -9.385  15.548  69.675  1.00  0.00     0.000 HD 
HETATM    3  C   UNL     1     -11.223  15.132  69.046  1.00  0.00    -0.273 C  
ENDROOT
BRANCH   3   4
HETATM    4  C   UNL     1     -12.234  13.966  69.131  1.00  0.00    -0.267 C  
BRANCH   4   5
HETATM    5  N   UNL     1     -11.791  12.793  69.913  1.00  0.00    -0.326 NA 
BRANCH   5   6
HETATM    6  C   UNL     1     -11.303  11.734  69.167  1.00  0.00    -0.279 A  
HETATM    7  C   UNL     1     -10.501   8.189  69.487  1.00  0.00    -0.227 A  
HETATM    8  N   UNL     1     -10.104   7.159  68.699  1.00  0.00    -0.167 NA 
HETATM    9  N   UNL     1     -11.137  10.539  69.735  1.00  0.00    -0.275 NA 
HETATM   10  C   UNL     1     -10.717   9.486  68.982  1.00  0.00    -0.202 A  
HETATM   11  N   UNL     1     -11.039  11.934  67.883  1.00  0.00    -0.226 NA 
HETATM   12  C   UNL     1      -9.865   7.382  67.414  1.00  0.00    -0.169 A  
HETATM   13  C   UNL     1     -10.433   9.617  67.634  1.00  0.00    -0.261 A  
HETATM   14  C   UNL     1     -10.607  10.909  67.121  1.00  0.00    -0.255 A  
HETATM   15  N   UNL     1      -9.972   8.590  66.878  1.00  0.00    -0.238 NA 
BRANCH  14  16
HETATM   16  N   UNL     1     -10.284  11.235  65.809  1.00  0.00    -0.242 NA 
HETATM   17  C   UNL     1     -11.201  11.847  63.671  1.00  0.00    -0.522 C  
HETATM   18  C   UNL     1      -9.898  11.391  63.005  1.00  0.00    -0.373 C  
HETATM   19  C   UNL     1     -10.948  12.324  65.101  1.00  0.00    -0.303 C  
HETATM   20  C   UNL     1      -8.957  10.890  65.301  1.00  0.00    -0.186 C  
HETATM   21  C   UNL     1      -9.135  10.382  63.868  1.00  0.00    -0.272 C  
ENDBRANCH  14  16
BRANCH  12  22
HETATM   22  N   UNL     1      -9.510   6.339  66.585  1.00  0.00    -0.150 NA 
BRANCH  22  23
HETATM   23  C   UNL     1      -8.333   6.538  65.732  1.00  0.00    -0.143 C  
BRANCH  23  24
HETATM   24  C   UNL     1      -8.525   6.024  64.294  1.00  0.00     0.075 C  
HETATM   25  O   UNL     1      -8.657   7.099  63.365  1.00  0.00    -0.335 OA 
HETATM   26  H   UNL     1      -8.776   6.782  62.477  1.00  0.00     0.000 HD 
ENDBRANCH  23  24
ENDBRANCH  22  23
BRANCH  22  27
HETATM   27  C   UNL     1      -9.945   4.977  66.902  1.00  0.00    -0.212 C  
BRANCH  27  28
HETATM   28  C   UNL     1      -8.825   3.950  66.652  1.00  0.00    -0.126 C  
HETATM   29  O   UNL     1      -9.192   2.651  67.122  1.00  0.00    -0.217 OA 
HETATM   30  H   UNL     1      -8.500   2.018  66.968  1.00  0.00     0.000 HD 
ENDBRANCH  27  28
ENDBRANCH  22  27
ENDBRANCH  12  22
BRANCH   7  31
HETATM   31  N   UNL     1     -10.716   7.831  70.817  1.00  0.00    -0.223 NA 
HETATM   32  C   UNL     1     -11.960   7.235  71.292  1.00  0.00    -0.324 C  
HETATM   33  C   UNL     1      -9.928   8.535  71.832  1.00  0.00    -0.294 C  
HETATM   34  C   UNL     1     -11.625   6.222  72.388  1.00  0.00    -0.325 C  
HETATM   35  C   UNL     1      -9.555   7.550  72.939  1.00  0.00    -0.247 C  
HETATM   36  C   UNL     1     -10.791   6.848  73.503  1.00  0.00    -0.265 C  
ENDBRANCH   7  31
ENDBRANCH   5   6
BRANCH   5  37
HETATM   37  C   UNL     1     -12.547  12.475  71.132  1.00  0.00    -0.253 C  
BRANCH  37  38
HETATM   38  C   UNL     1     -12.806  13.719  72.005  1.00  0.00    -0.288 C  
HETATM   39  O   UNL     1     -14.063  13.652  72.680  1.00  0.00    -0.746 OA 
HETATM   40  H   UNL     1     -14.222  14.418  73.218  1.00  0.00     0.000 HD 
ENDBRANCH  37  38
ENDBRANCH   5  37
ENDBRANCH   4   5
ENDBRANCH   3   4
TORSDOF 12
ENDMDL
MODEL       78
REMARK 921   NORMALIZED FREE ENERGY PREDICTED BY IDOCK:   -5.46 KCAL/MOL
REMARK 922        TOTAL FREE ENERGY PREDICTED BY IDOCK:  -10.21 KCAL/MOL
REMARK 923 INTER-LIGAND FREE ENERGY PREDICTED BY IDOCK:   -8.87 KCAL/MOL
REMARK 924 INTRA-LIGAND FREE ENERGY PREDICTED BY IDOCK:   -1.34 KCAL/MOL
REMARK 927      BINDING AFFINITY PREDICTED BY RF-SCORE:    0.00 PKD
ROOT
HETATM    1  O   UNL     1     -12.968   8.439  72.981  1.00  0.00    -0.704 OA 
HETATM    2  H   UNL     1     -13.508   7.700  73.237  1.00  0.00     0.000 HD 
HETATM    3  C   UNL     1     -12.039   8.088  71.957  1.00  0.00    -0.331 C  
ENDROOT
BRANCH   3   4
HETATM    4  C   UNL     1     -11.161   9.290  71.540  1.00  0.00    -0.386 C  
BRANCH   4   5
HETATM    5  N   UNL     1     -11.554   9.962  70.283  1.00  0.00    -0.259 NA 
BRANCH   5   6
HETATM    6  C   UNL     1     -10.828   9.595  69.164  1.00  0.00    -0.190 A  
HETATM    7  C   UNL     1     -10.113  10.726  65.769  1.00  0.00    -0.261 A  
HETATM    8  N   UNL     1      -9.319  10.380  64.726  1.00  0.00    -0.226 NA 
HETATM    9  N   UNL     1     -10.883  10.341  68.059  1.00  0.00    -0.256 NA 
HETATM   10  C   UNL     1     -10.119  10.012  66.982  1.00  0.00    -0.219 A  
HETATM   11  N   UNL     1     -10.063   8.514  69.232  1.00  0.00    -0.197 NA 
HETATM   12  C   UNL     1      -8.549   9.305  64.827  1.00  0.00    -0.184 A  
HETATM   13  C   UNL     1      -9.289   8.904  66.985  1.00  0.00    -0.152 A  
HETATM   14  C   UNL     1      -9.309   8.160  68.172  1.00  0.00    -0.133 A  
HETATM   15  N   UNL     1      -8.553   8.536  65.908  1.00  0.00    -0.154 NA 
BRANCH  14  16
HETATM   16  N   UNL     1      -8.602   6.971  68.313  1.00  0.00    -0.129 NA 
HETATM   17  C   UNL     1      -8.826   4.604  68.683  1.00  0.00    -0.125 C  
HETATM   18  C   UNL     1      -7.368   4.562  69.155  1.00  0.00    -0.052 C  
HETATM   19  C   UNL     1      -9.044   5.734  67.677  1.00  0.00    -0.106 C  
HETATM   20  C   UNL     1      -7.174   7.029  68.621  1.00  0.00    -0.094 C  
HETATM   21  C   UNL     1      -6.883   5.929  69.646  1.00  0.00    -0.061 C  
ENDBRANCH  14  16
BRANCH  12  22
HETATM   22  N   UNL     1      -7.696   8.964  63.798  1.00  0.00    -0.122 NA 
BRANCH  22  23
HETATM   23  C   UNL     1      -6.261   8.949  64.101  1.00  0.00    -0.072 C  
BRANCH  23  24
HETATM   24  C   UNL     1      -5.611  10.344  64.059  1.00  0.00    -0.143 C  
HETATM   25  O   UNL     1      -6.123  11.193  65.086  1.00  0.00    -0.371 OA 
HETATM   26  H   UNL     1      -5.723  12.054  65.060  1.00  0.00     0.000 HD 
ENDBRANCH  23  24
ENDBRANCH  22  23
BRANCH  22  27
HETATM   27  C   UNL     1      -8.199   8.185  62.665  1.00  0.00    -0.142 C  
BRANCH  27  28
HETATM   28  C   UNL     1      -7.805   6.700  62.776  1.00  0.00    -0.104 C  
HETATM   29  O   UNL     1      -8.949   5.848  62.689  1.00  0.00    -0.338 OA 
HETATM   30  H   UNL     1      -8.706   4.933  62.758  1.00  0.00     0.000 HD 
ENDBRANCH  27  28
ENDBRANCH  22  27
ENDBRANCH  12  22
BRANCH   7  31
HETATM   31  N   UNL     1     -10.877  11.870  65.540  1.00  0.00    -0.288 NA 
HETATM   32  C   UNL     1     -11.573  12.126  64.285  1.00  0.00    -0.370 C  
HETATM   33  C   UNL     1     -10.550  13.057  66.333  1.00  0.00    -0.284 C  
HETATM   34  C   UNL     1     -12.891  12.837  64.599  1.00  0.00    -0.355 C  
HETATM   35  C   UNL     1     -11.844  13.789  66.684  1.00  0.00    -0.445 C  
HETATM   36  C   UNL     1     -12.670  14.095  65.435  1.00  0.00    -0.453 C  
ENDBRANCH   7  31
ENDBRANCH   5   6
BRANCH   5  37
HETATM   37  C   UNL     1     -11.996  11.359  70.380  1.00  0.00    -0.374 C  
BRANCH  37  38
HETATM   38  C   UNL     1     -12.923  11.602  71.589  1.00  0.00    -0.378 C  
HETATM   39  O   UNL     1     -13.166  12.990  71.811  1.00  0.00    -0.415 OA 
HETATM   40  H   UNL     1     -13.737  13.139  72.555  1.00  0.00     0.000 HD 
ENDBRANCH  37  38
ENDBRANCH   5  37
ENDBRANCH   4   5
ENDBRANCH   3   4
TORSDOF 12
ENDMDL
MODEL       79
REMARK 921   NORMALIZED FREE ENERGY PREDICTED BY IDOCK:   -5.46 KCAL/MOL
REMARK 922        TOTAL FREE ENERGY PREDICTED BY IDOCK:  -10.21 KCAL/MOL
REMARK 923 INTER-LIGAND FREE ENERGY PREDICTED BY IDOCK:   -8.74 KCAL/MOL
REMARK 924 INTRA-LIGAND FREE ENERGY PREDICTED BY IDOCK:   -1.47 KCAL/MOL
REMARK 927      BINDING AFFINITY PREDICTED BY RF-SCORE:    0.00 PKD
ROOT
HETATM    1  O   UNL     1      -9.139   2.467  70.137  1.00  0.00    -0.092 OA 
HETATM    2  H   UNL     1      -8.546   2.023  70.732  1.00  0.00     0.000 HD 
HETATM    3  C   UNL     1      -8.939   3.880  70.142  1.00  0.00    -0.102 C  
ENDROOT
BRANCH   3   4
HETATM    4  C   UNL     1      -9.904   4.601  69.174  1.00  0.00    -0.172 C  
BRANCH   4   5
HETATM    5  N   UNL     1      -9.287   5.621  68.300  1.00  0.00    -0.110 NA 
BRANCH   5   6
HETATM    6  C   UNL     1      -9.766   6.909  68.464  1.00  0.00    -0.138 A  
HETATM    7  C   UNL     1      -9.541  10.218  66.943  1.00  0.00    -0.173 A  
HETATM    8  N   UNL     1     -10.101  11.445  67.084  1.00  0.00    -0.195 NA 
HETATM    9  N   UNL     1      -9.374   7.877  67.635  1.00  0.00    -0.142 NA 
HETATM   10  C   UNL     1      -9.896   9.128  67.760  1.00  0.00    -0.174 A  
HETATM   11  N   UNL     1     -10.637   7.142  69.437  1.00  0.00    -0.228 NA 
HETATM   12  C   UNL     1     -10.984  11.646  68.053  1.00  0.00    -0.224 A  
HETATM   13  C   UNL     1     -10.817   9.441  68.744  1.00  0.00    -0.114 A  
HETATM   14  C   UNL     1     -11.156   8.376  69.590  1.00  0.00    -0.002 A  
HETATM   15  N   UNL     1     -11.316  10.690  68.912  1.00  0.00    -0.265 NA 
BRANCH  14  16
HETATM   16  N   UNL     1     -11.999   8.538  70.683  1.00  0.00    -0.120 NA 
HETATM   17  C   UNL     1     -14.166   7.987  71.571  1.00  0.00    -0.513 C  
HETATM   18  C   UNL     1     -14.051   9.176  72.532  1.00  0.00    -0.387 C  
HETATM   19  C   UNL     1     -12.786   7.432  71.218  1.00  0.00    -0.321 C  
HETATM   20  C   UNL     1     -11.726   9.615  71.633  1.00  0.00    -0.369 C  
HETATM   21  C   UNL     1     -13.071  10.236  72.019  1.00  0.00    -0.529 C  
ENDBRANCH  14  16
BRANCH  12  22
HETATM   22  N   UNL     1     -11.604  12.870  68.183  1.00  0.00    -0.315 NA 
BRANCH  22  23
HETATM   23  C   UNL     1     -12.000  13.276  69.536  1.00  0.00    -0.307 C  
BRANCH  23  24
HETATM   24  C   UNL     1     -11.918  14.795  69.769  1.00  0.00    -0.321 C  
HETATM   25  O   UNL     1     -13.188  15.343  70.120  1.00  0.00    -0.659 OA 
HETATM   26  H   UNL     1     -13.138  16.280  70.263  1.00  0.00     0.000 HD 
ENDBRANCH  23  24
ENDBRANCH  22  23
BRANCH  22  27
HETATM   27  C   UNL     1     -11.413  13.895  67.154  1.00  0.00    -0.347 C  
BRANCH  27  28
HETATM   28  C   UNL     1     -12.592  13.934  66.165  1.00  0.00    -0.380 C  
HETATM   29  O   UNL     1     -12.240  13.352  64.908  1.00  0.00    -0.371 OA 
HETATM   30  H   UNL     1     -12.968  13.377  64.298  1.00  0.00     0.000 HD 
ENDBRANCH  27  28
ENDBRANCH  22  27
ENDBRANCH  12  22
BRANCH   7  31
HETATM   31  N   UNL     1      -8.627  10.134  65.894  1.00  0.00    -0.142 NA 
HETATM   32  C   UNL     1      -7.242  10.580  66.004  1.00  0.00    -0.137 C  
HETATM   33  C   UNL     1      -9.173  10.108  64.535  1.00  0.00    -0.257 C  
HETATM   34  C   UNL     1      -6.362   9.638  65.180  1.00  0.00    -0.083 C  
HETATM   35  C   UNL     1      -8.331   9.161  63.682  1.00  0.00    -0.187 C  
HETATM   36  C   UNL     1      -6.848   9.526  63.737  1.00  0.00    -0.105 C  
ENDBRANCH   7  31
ENDBRANCH   5   6
BRANCH   5  37
HETATM   37  C   UNL     1      -8.911   5.202  66.944  1.00  0.00    -0.109 C  
BRANCH  37  38
HETATM   38  C   UNL     1     -10.096   4.598  66.164  1.00  0.00    -0.266 C  
HETATM   39  O   UNL     1      -9.945   3.194  65.956  1.00  0.00    -0.384 OA 
HETATM   40  H   UNL     1     -10.675   2.822  65.476  1.00  0.00     0.000 HD 
ENDBRANCH  37  38
ENDBRANCH   5  37
ENDBRANCH   4   5
ENDBRANCH   3   4
TORSDOF 12
ENDMDL
MODEL       80
REMARK 921   NORMALIZED FREE ENERGY PREDICTED BY IDOCK:   -5.43 KCAL/MOL
REMARK 922        TOTAL FREE ENERGY PREDICTED BY IDOCK:  -10.16 KCAL/MOL
REMARK 923 INTER-LIGAND FREE ENERGY PREDICTED BY IDOCK:   -9.16 KCAL/MOL
REMARK 924 INTRA-LIGAND FREE ENERGY PREDICTED BY IDOCK:   -0.99 KCAL/MOL
REMARK 927      BINDING AFFINITY PREDICTED BY RF-SCORE:    0.00 PKD
ROOT
HETATM    1  O   UNL     1      -9.632   3.740  69.936  1.00  0.00    -0.187 OA 
HETATM    2  H   UNL     1      -9.124   3.487  70.698  1.00  0.00     0.000 HD 
HETATM    3  C   UNL     1      -9.787   5.155  69.845  1.00  0.00    -0.219 C  
ENDROOT
BRANCH   3   4
HETATM    4  C   UNL     1     -10.612   5.567  68.605  1.00  0.00    -0.145 C  
BRANCH   4   5
HETATM    5  N   UNL     1      -9.849   6.211  67.515  1.00  0.00    -0.119 NA 
BRANCH   5   6
HETATM    6  C   UNL     1      -9.967   7.587  67.444  1.00  0.00    -0.187 A  
HETATM    7  C   UNL     1     -11.151  10.424  69.409  1.00  0.00    -0.254 A  
HETATM    8  N   UNL     1     -11.168  11.778  69.337  1.00  0.00    -0.251 NA 
HETATM    9  N   UNL     1     -10.522   8.263  68.451  1.00  0.00    -0.193 NA 
HETATM   10  C   UNL     1     -10.578   9.622  68.404  1.00  0.00    -0.225 A  
HETATM   11  N   UNL     1      -9.491   8.209  66.372  1.00  0.00    -0.217 NA 
HETATM   12  C   UNL     1     -10.668  12.375  68.263  1.00  0.00    -0.230 A  
HETATM   13  C   UNL     1     -10.092  10.337  67.324  1.00  0.00    -0.203 A  
HETATM   14  C   UNL     1      -9.550   9.553  66.297  1.00  0.00    -0.226 A  
HETATM   15  N   UNL     1     -10.179  11.688  67.240  1.00  0.00    -0.199 NA 
BRANCH  14  16
HETATM   16  N   UNL     1      -9.098  10.105  65.104  1.00  0.00    -0.184 NA 
HETATM   17  C   UNL     1      -9.797  11.005  62.985  1.00  0.00    -0.370 C  
HETATM   18  C   UNL     1      -8.393  10.733  62.431  1.00  0.00    -0.289 C  
HETATM   19  C   UNL     1      -9.752  11.257  64.492  1.00  0.00    -0.253 C  
HETATM   20  C   UNL     1      -7.698   9.918  64.725  1.00  0.00    -0.138 C  
HETATM   21  C   UNL     1      -7.666   9.639  63.219  1.00  0.00    -0.130 C  
ENDBRANCH  14  16
BRANCH  12  22
HETATM   22  N   UNL     1     -10.628  13.751  68.191  1.00  0.00    -0.247 NA 
BRANCH  22  23
HETATM   23  C   UNL     1     -11.898  14.464  68.370  1.00  0.00    -0.319 C  
BRANCH  23  24
HETATM   24  C   UNL     1     -11.986  15.235  69.700  1.00  0.00    -0.338 C  
HETATM   25  O   UNL     1     -13.319  15.257  70.208  1.00  0.00    -0.673 OA 
HETATM   26  H   UNL     1     -13.373  15.733  71.028  1.00  0.00     0.000 HD 
ENDBRANCH  23  24
ENDBRANCH  22  23
BRANCH  22  27
HETATM   27  C   UNL     1      -9.369  14.457  68.438  1.00  0.00    -0.206 C  
BRANCH  27  28
HETATM   28  C   UNL     1      -8.408  14.342  67.240  1.00  0.00    -0.209 C  
HETATM   29  O   UNL     1      -9.091  14.541  66.001  1.00  0.00    -0.497 OA 
HETATM   30  H   UNL     1      -8.498  14.470  65.263  1.00  0.00     0.000 HD 
ENDBRANCH  27  28
ENDBRANCH  22  27
ENDBRANCH  12  22
BRANCH   7  31
HETATM   31  N   UNL     1     -11.708   9.916  70.582  1.00  0.00    -0.303 NA 
HETATM   32  C   UNL     1     -13.009  10.331  71.093  1.00  0.00    -0.409 C  
HETATM   33  C   UNL     1     -10.780   9.383  71.582  1.00  0.00    -0.228 C  
HETATM   34  C   UNL     1     -13.686   9.120  71.738  1.00  0.00    -0.465 C  
HETATM   35  C   UNL     1     -11.411   8.157  72.239  1.00  0.00    -0.435 C  
HETATM   36  C   UNL     1     -12.798   8.474  72.799  1.00  0.00    -0.092 C  
ENDBRANCH   7  31
ENDBRANCH   5   6
BRANCH   5  37
HETATM   37  C   UNL     1      -9.732   5.471  66.252  1.00  0.00    -0.151 C  
BRANCH  37  38
HETATM   38  C   UNL     1     -11.092   4.953  65.744  1.00  0.00     0.213 C  
HETATM   39  O   UNL     1     -10.947   4.004  64.687  1.00  0.00    -0.587 OA 
HETATM   40  H   UNL     1     -11.785   3.685  64.375  1.00  0.00     0.000 HD 
ENDBRANCH  37  38
ENDBRANCH   5  37
ENDBRANCH   4   5
ENDBRANCH   3   4
TORSDOF 12
ENDMDL
MODEL       81
REMARK 921   NORMALIZED FREE ENERGY PREDICTED BY IDOCK:   -5.43 KCAL/MOL
REMARK 922        TOTAL FREE ENERGY PREDICTED BY IDOCK:  -10.15 KCAL/MOL
REMARK 923 INTER-LIGAND FREE ENERGY PREDICTED BY IDOCK:   -9.07 KCAL/MOL
REMARK 924 INTRA-LIGAND FREE ENERGY PREDICTED BY IDOCK:   -1.08 KCAL/MOL
REMARK 927      BINDING AFFINITY PREDICTED BY RF-SCORE:    0.00 PKD
ROOT
HETATM    1  O   UNL     1     -14.109   9.167  72.912  1.00  0.00    -0.989 OA 
HETATM    2  H   UNL     1     -14.926   9.586  73.156  1.00  0.00     0.000 HD 
HETATM    3  C   UNL     1     -14.236   8.417  71.705  1.00  0.00    -0.440 C  
ENDROOT
BRANCH   3   4
HETATM    4  C   UNL     1     -12.907   7.736  71.307  1.00  0.00    -0.233 C  
BRANCH   4   5
HETATM    5  N   UNL     1     -11.712   8.604  71.334  1.00  0.00    -0.283 NA 
BRANCH   5   6
HETATM    6  C   UNL     1     -11.149   8.875  70.099  1.00  0.00    -0.201 A  
HETATM    7  C   UNL     1      -9.417   7.201  67.358  1.00  0.00    -0.131 A  
HETATM    8  N   UNL     1      -8.957   7.490  66.116  1.00  0.00    -0.166 NA 
HETATM    9  N   UNL     1     -10.560   7.901  69.406  1.00  0.00    -0.223 NA 
HETATM   10  C   UNL     1     -10.065   8.157  68.165  1.00  0.00    -0.198 A  
HETATM   11  N   UNL     1     -11.239  10.109  69.619  1.00  0.00    -0.256 NA 
HETATM   12  C   UNL     1      -9.077   8.727  65.653  1.00  0.00    -0.191 A  
HETATM   13  C   UNL     1     -10.133   9.417  67.596  1.00  0.00    -0.211 A  
HETATM   14  C   UNL     1     -10.742  10.390  68.398  1.00  0.00    -0.225 A  
HETATM   15  N   UNL     1      -9.607   9.702  66.379  1.00  0.00    -0.193 NA 
BRANCH  14  16
HETATM   16  N   UNL     1     -10.815  11.725  68.017  1.00  0.00    -0.203 NA 
HETATM   17  C   UNL     1     -10.412  13.984  68.743  1.00  0.00    -0.238 C  
HETATM   18  C   UNL     1     -11.379  14.481  67.662  1.00  0.00    -0.354 C  
HETATM   19  C   UNL     1      -9.748  12.672  68.324  1.00  0.00    -0.216 C  
HETATM   20  C   UNL     1     -11.653  12.090  66.876  1.00  0.00    -0.318 C  
HETATM   21  C   UNL     1     -12.370  13.394  67.234  1.00  0.00    -0.157 C  
ENDBRANCH  14  16
BRANCH  12  22
HETATM   22  N   UNL     1      -8.663   9.031  64.373  1.00  0.00    -0.162 NA 
BRANCH  22  23
HETATM   23  C   UNL     1      -8.644  10.449  63.999  1.00  0.00    -0.175 C  
BRANCH  23  24
HETATM   24  C   UNL     1      -9.255  10.724  62.613  1.00  0.00    -0.324 C  
HETATM   25  O   UNL     1     -10.448  11.501  62.709  1.00  0.00    -0.631 OA 
HETATM   26  H   UNL     1     -10.825  11.670  61.853  1.00  0.00     0.000 HD 
ENDBRANCH  23  24
ENDBRANCH  22  23
BRANCH  22  27
HETATM   27  C   UNL     1      -7.824   8.083  63.636  1.00  0.00    -0.142 C  
BRANCH  27  28
HETATM   28  C   UNL     1      -6.339   8.491  63.670  1.00  0.00    -0.077 C  
HETATM   29  O   UNL     1      -5.889   8.931  62.388  1.00  0.00    -0.090 OA 
HETATM   30  H   UNL     1      -4.973   9.182  62.409  1.00  0.00     0.000 HD 
ENDBRANCH  27  28
ENDBRANCH  22  27
ENDBRANCH  12  22
BRANCH   7  31
HETATM   31  N   UNL     1      -9.230   5.872  67.733  1.00  0.00    -0.109 NA 
HETATM   32  C   UNL     1      -9.065   5.449  69.119  1.00  0.00    -0.107 C  
HETATM   33  C   UNL     1      -8.660   4.971  66.729  1.00  0.00    -0.109 C  
HETATM   34  C   UNL     1      -9.743   4.089  69.296  1.00  0.00    -0.191 C  
HETATM   35  C   UNL     1      -9.326   3.601  66.859  1.00  0.00    -0.217 C  
HETATM   36  C   UNL     1      -9.228   3.065  68.287  1.00  0.00    -0.244 C  
ENDBRANCH   7  31
ENDBRANCH   5   6
BRANCH   5  37
HETATM   37  C   UNL     1     -10.803   8.458  72.478  1.00  0.00    -0.305 C  
BRANCH  37  38
HETATM   38  C   UNL     1     -10.969   7.102  73.193  1.00  0.00    -0.305 C  
HETATM   39  O   UNL     1     -10.140   6.998  74.350  1.00  0.00    -0.458 OA 
HETATM   40  H   UNL     1     -10.242   6.162  74.790  1.00  0.00     0.000 HD 
ENDBRANCH  37  38
ENDBRANCH   5  37
ENDBRANCH   4   5
ENDBRANCH   3   4
TORSDOF 12
ENDMDL
MODEL       82
REMARK 921   NORMALIZED FREE ENERGY PREDICTED BY IDOCK:   -5.36 KCAL/MOL
REMARK 922        TOTAL FREE ENERGY PREDICTED BY IDOCK:  -10.03 KCAL/MOL
REMARK 923 INTER-LIGAND FREE ENERGY PREDICTED BY IDOCK:   -8.61 KCAL/MOL
REMARK 924 INTRA-LIGAND FREE ENERGY PREDICTED BY IDOCK:   -1.43 KCAL/MOL
REMARK 927      BINDING AFFINITY PREDICTED BY RF-SCORE:    0.00 PKD
ROOT
HETATM    1  O   UNL     1      -6.330   7.874  62.963  1.00  0.00    -0.070 OA 
HETATM    2  H   UNL     1      -5.476   7.498  62.785  1.00  0.00     0.000 HD 
HETATM    3  C   UNL     1      -6.965   7.247  64.077  1.00  0.00    -0.057 C  
ENDROOT
BRANCH   3   4
HETATM    4  C   UNL     1      -8.355   7.858  64.367  1.00  0.00     0.016 C  
BRANCH   4   5
HETATM    5  N   UNL     1      -8.348   9.247  64.873  1.00  0.00    -0.148 NA 
BRANCH   5   6
HETATM    6  C   UNL     1      -9.055   9.453  66.044  1.00  0.00    -0.183 A  
HETATM    7  C   UNL     1     -11.097  11.984  67.700  1.00  0.00    -0.264 A  
HETATM    8  N   UNL     1     -11.850  12.112  68.820  1.00  0.00    -0.314 NA 
HETATM    9  N   UNL     1      -9.671  10.616  66.256  1.00  0.00    -0.192 NA 
HETATM   10  C   UNL     1     -10.417  10.793  67.380  1.00  0.00    -0.225 A  
HETATM   11  N   UNL     1      -9.126   8.462  66.924  1.00  0.00    -0.142 NA 
HETATM   12  C   UNL     1     -11.919  11.099  69.674  1.00  0.00    -0.359 A  
HETATM   13  C   UNL     1     -10.545   9.800  68.336  1.00  0.00    -0.226 A  
HETATM   14  C   UNL     1      -9.846   8.619  68.052  1.00  0.00    -0.169 A  
HETATM   15  N   UNL     1     -11.248   9.971  69.483  1.00  0.00    -0.229 NA 
BRANCH  14  16
HETATM   16  N   UNL     1      -9.795   7.555  68.945  1.00  0.00    -0.156 NA 
HETATM   17  C   UNL     1      -8.338   6.270  70.363  1.00  0.00    -0.126 C  
HETATM   18  C   UNL     1      -9.362   5.129  70.347  1.00  0.00    -0.210 C  
HETATM   19  C   UNL     1      -9.022   7.624  70.181  1.00  0.00    -0.146 C  
HETATM   20  C   UNL     1     -10.895   6.591  68.960  1.00  0.00    -0.306 C  
HETATM   21  C   UNL     1     -10.279   5.199  69.122  1.00  0.00    -0.259 C  
ENDBRANCH  14  16
BRANCH  12  22
HETATM   22  N   UNL     1     -12.719  11.190  70.793  1.00  0.00    -0.320 NA 
BRANCH  22  23
HETATM   23  C   UNL     1     -12.428  10.267  71.896  1.00  0.00    -0.243 C  
BRANCH  23  24
HETATM   24  C   UNL     1     -13.112   8.897  71.744  1.00  0.00    -0.374 C  
HETATM   25  O   UNL     1     -14.151   8.933  70.767  1.00  0.00    -0.532 OA 
HETATM   26  H   UNL     1     -14.574   8.088  70.673  1.00  0.00     0.000 HD 
ENDBRANCH  23  24
ENDBRANCH  22  23
BRANCH  22  27
HETATM   27  C   UNL     1     -13.446  12.431  71.069  1.00  0.00     0.683 C  
BRANCH  27  28
HETATM   28  C   UNL     1     -12.783  13.241  72.198  1.00  0.00    -0.062 C  
HETATM   29  O   UNL     1     -13.745  14.001  72.931  1.00  0.00    -0.677 OA 
HETATM   30  H   UNL     1     -13.335  14.501  73.627  1.00  0.00     0.000 HD 
ENDBRANCH  27  28
ENDBRANCH  22  27
ENDBRANCH  12  22
BRANCH   7  31
HETATM   31  N   UNL     1     -11.100  13.115  66.886  1.00  0.00    -0.276 NA 
HETATM   32  C   UNL     1     -10.552  14.400  67.303  1.00  0.00    -0.279 C  
HETATM   33  C   UNL     1     -12.121  13.177  65.837  1.00  0.00    -0.444 C  
HETATM   34  C   UNL     1      -9.911  15.073  66.088  1.00  0.00    -0.313 C  
HETATM   35  C   UNL     1     -11.514  13.827  64.595  1.00  0.00    -0.385 C  
HETATM   36  C   UNL     1     -10.889  15.184  64.921  1.00  0.00    -0.437 C  
ENDBRANCH   7  31
ENDBRANCH   5   6
BRANCH   5  37
HETATM   37  C   UNL     1      -8.357  10.324  63.874  1.00  0.00    -0.165 C  
BRANCH  37  38
HETATM   38  C   UNL     1      -9.182   9.961  62.623  1.00  0.00    -0.273 C  
HETATM   39  O   UNL     1     -10.346  10.777  62.491  1.00  0.00    -0.748 OA 
HETATM   40  H   UNL     1     -10.854  10.554  61.720  1.00  0.00     0.000 HD 
ENDBRANCH  37  38
ENDBRANCH   5  37
ENDBRANCH   4   5
ENDBRANCH   3   4
TORSDOF 12
ENDMDL
MODEL       83
REMARK 921   NORMALIZED FREE ENERGY PREDICTED BY IDOCK:   -5.25 KCAL/MOL
REMARK 922        TOTAL FREE ENERGY PREDICTED BY IDOCK:   -9.85 KCAL/MOL
REMARK 923 INTER-LIGAND FREE ENERGY PREDICTED BY IDOCK:   -8.65 KCAL/MOL
REMARK 924 INTRA-LIGAND FREE ENERGY PREDICTED BY IDOCK:   -1.20 KCAL/MOL
REMARK 927      BINDING AFFINITY PREDICTED BY RF-SCORE:    0.00 PKD
ROOT
HETATM    1  O   UNL     1     -14.408   9.147  73.170  1.00  0.00    -1.102 OA 
HETATM    2  H   UNL     1     -15.159   9.727  73.223  1.00  0.00     0.000 HD 
HETATM    3  C   UNL     1     -14.206   8.661  71.844  1.00  0.00    -0.427 C  
ENDROOT
BRANCH   3   4
HETATM    4  C   UNL     1     -12.985   7.718  71.757  1.00  0.00    -0.323 C  
BRANCH   4   5
HETATM    5  N   UNL     1     -11.668   8.385  71.676  1.00  0.00    -0.281 NA 
BRANCH   5   6
HETATM    6  C   UNL     1     -11.148   8.516  70.400  1.00  0.00    -0.231 A  
HETATM    7  C   UNL     1     -10.447  11.066  67.887  1.00  0.00    -0.192 A  
HETATM    8  N   UNL     1      -9.850  11.164  66.673  1.00  0.00    -0.194 NA 
HETATM    9  N   UNL     1     -11.104   9.714  69.818  1.00  0.00    -0.236 NA 
HETATM   10  C   UNL     1     -10.534   9.849  68.589  1.00  0.00    -0.206 A  
HETATM   11  N   UNL     1     -10.674   7.434  69.796  1.00  0.00    -0.240 NA 
HETATM   12  C   UNL     1      -9.368  10.070  66.099  1.00  0.00    -0.173 A  
HETATM   13  C   UNL     1     -10.009   8.767  67.904  1.00  0.00    -0.187 A  
HETATM   14  C   UNL     1     -10.119   7.541  68.572  1.00  0.00    -0.184 A  
HETATM   15  N   UNL     1      -9.477   8.874  66.661  1.00  0.00    -0.184 NA 
BRANCH  14  16
HETATM   16  N   UNL     1      -9.723   6.342  67.990  1.00  0.00    -0.121 NA 
HETATM   17  C   UNL     1     -10.478   4.465  66.688  1.00  0.00     0.141 C  
HETATM   18  C   UNL     1      -9.282   3.655  67.201  1.00  0.00    -0.212 C  
HETATM   19  C   UNL     1     -10.153   5.958  66.649  1.00  0.00    -0.183 C  
HETATM   20  C   UNL     1      -8.484   5.711  68.443  1.00  0.00    -0.105 C  
HETATM   21  C   UNL     1      -8.742   4.204  68.525  1.00  0.00    -0.124 C  
ENDBRANCH  14  16
BRANCH  12  22
HETATM   22  N   UNL     1      -8.712  10.154  64.889  1.00  0.00    -0.169 NA 
BRANCH  22  23
HETATM   23  C   UNL     1      -7.408   9.489  64.791  1.00  0.00    -0.112 C  
BRANCH  23  24
HETATM   24  C   UNL     1      -6.447  10.171  63.800  1.00  0.00    -0.125 C  
HETATM   25  O   UNL     1      -5.795  11.295  64.389  1.00  0.00    -0.223 OA 
HETATM   26  H   UNL     1      -5.202  11.716  63.777  1.00  0.00     0.000 HD 
ENDBRANCH  23  24
ENDBRANCH  22  23
BRANCH  22  27
HETATM   27  C   UNL     1      -9.472  10.427  63.667  1.00  0.00    -0.306 C  
BRANCH  27  28
HETATM   28  C   UNL     1      -9.605  11.939  63.405  1.00  0.00    -0.170 C  
HETATM   29  O   UNL     1     -10.916  12.277  62.949  1.00  0.00    -0.580 OA 
HETATM   30  H   UNL     1     -10.998  13.209  62.787  1.00  0.00     0.000 HD 
ENDBRANCH  27  28
ENDBRANCH  22  27
ENDBRANCH  12  22
BRANCH   7  31
HETATM   31  N   UNL     1     -10.917  12.281  68.383  1.00  0.00    -0.222 NA 
HETATM   32  C   UNL     1     -12.239  12.443  68.977  1.00  0.00     0.016 C  
HETATM   33  C   UNL     1     -10.322  13.500  67.830  1.00  0.00    -0.249 C  
HETATM   34  C   UNL     1     -12.137  13.454  70.120  1.00  0.00    -0.415 C  
HETATM   35  C   UNL     1     -10.184  14.533  68.947  1.00  0.00    -0.229 C  
HETATM   36  C   UNL     1     -11.517  14.771  69.657  1.00  0.00    -0.327 C  
ENDBRANCH   7  31
ENDBRANCH   5   6
BRANCH   5  37
HETATM   37  C   UNL     1     -10.724   8.139  72.774  1.00  0.00    -0.321 C  
BRANCH  37  38
HETATM   38  C   UNL     1     -10.784   6.687  73.288  1.00  0.00    -0.287 C  
HETATM   39  O   UNL     1      -9.952   5.811  72.527  1.00  0.00    -0.168 OA 
HETATM   40  H   UNL     1      -9.989   4.917  72.845  1.00  0.00     0.000 HD 
ENDBRANCH  37  38
ENDBRANCH   5  37
ENDBRANCH   4   5
ENDBRANCH   3   4
TORSDOF 12
ENDMDL
MODEL       84
REMARK 921   NORMALIZED FREE ENERGY PREDICTED BY IDOCK:   -5.21 KCAL/MOL
REMARK 922        TOTAL FREE ENERGY PREDICTED BY IDOCK:   -9.79 KCAL/MOL
REMARK 923 INTER-LIGAND FREE ENERGY PREDICTED BY IDOCK:   -8.71 KCAL/MOL
REMARK 924 INTRA-LIGAND FREE ENERGY PREDICTED BY IDOCK:   -1.08 KCAL/MOL
REMARK 927      BINDING AFFINITY PREDICTED BY RF-SCORE:    0.00 PKD
ROOT
HETATM    1  O   UNL     1      -8.443  18.230  65.987  1.00  0.00    -0.494 OA 
HETATM    2  H   UNL     1      -7.825  18.950  66.038  1.00  0.00     0.000 HD 
HETATM    3  C   UNL     1      -7.792  16.963  66.073  1.00  0.00    -0.091 C  
ENDROOT
BRANCH   3   4
HETATM    4  C   UNL     1      -8.797  15.792  65.989  1.00  0.00    -0.225 C  
BRANCH   4   5
HETATM    5  N   UNL     1      -9.531  15.491  67.236  1.00  0.00    -0.211 NA 
BRANCH   5   6
HETATM    6  C   UNL     1      -9.520  14.162  67.623  1.00  0.00    -0.213 A  
HETATM    7  C   UNL     1     -11.309  11.841  69.797  1.00  0.00    -0.170 A  
HETATM    8  N   UNL     1     -11.321  10.516  70.082  1.00  0.00    -0.302 NA 
HETATM    9  N   UNL     1     -10.400  13.722  68.523  1.00  0.00    -0.242 NA 
HETATM   10  C   UNL     1     -10.428  12.402  68.853  1.00  0.00    -0.089 A  
HETATM   11  N   UNL     1      -8.642  13.345  67.057  1.00  0.00    -0.192 NA 
HETATM   12  C   UNL     1     -10.444   9.717  69.488  1.00  0.00    -0.232 A  
HETATM   13  C   UNL     1      -9.549  11.490  68.296  1.00  0.00    -0.189 A  
HETATM   14  C   UNL     1      -8.640  12.036  67.380  1.00  0.00    -0.171 A  
HETATM   15  N   UNL     1      -9.532  10.180  68.644  1.00  0.00    -0.157 NA 
BRANCH  14  16
HETATM   16  N   UNL     1      -7.633  11.278  66.794  1.00  0.00    -0.147 NA 
HETATM   17  C   UNL     1      -7.115   9.130  65.841  1.00  0.00    -0.089 C  
HETATM   18  C   UNL     1      -5.627   9.404  66.088  1.00  0.00    -0.048 C  
HETATM   19  C   UNL     1      -7.884  10.434  65.630  1.00  0.00    -0.154 C  
HETATM   20  C   UNL     1      -6.243  11.699  66.960  1.00  0.00    -0.144 C  
HETATM   21  C   UNL     1      -5.409  10.437  67.198  1.00  0.00    -0.041 C  
ENDBRANCH  14  16
BRANCH  12  22
HETATM   22  N   UNL     1     -10.472   8.360  69.725  1.00  0.00    -0.218 NA 
BRANCH  22  23
HETATM   23  C   UNL     1     -11.479   7.870  70.674  1.00  0.00    -0.238 C  
BRANCH  23  24
HETATM   24  C   UNL     1     -10.923   7.640  72.091  1.00  0.00    -0.257 C  
HETATM   25  O   UNL     1     -11.857   8.039  73.094  1.00  0.00    -0.625 OA 
HETATM   26  H   UNL     1     -11.514   7.897  73.968  1.00  0.00     0.000 HD 
ENDBRANCH  23  24
ENDBRANCH  22  23
BRANCH  22  27
HETATM   27  C   UNL     1      -9.910   7.437  68.737  1.00  0.00    -0.164 C  
BRANCH  27  28
HETATM   28  C   UNL     1     -10.865   7.225  67.548  1.00  0.00    -0.214 C  
HETATM   29  O   UNL     1     -10.524   8.069  66.446  1.00  0.00    -0.448 OA 
HETATM   30  H   UNL     1     -11.113   7.938  65.713  1.00  0.00     0.000 HD 
ENDBRANCH  27  28
ENDBRANCH  22  27
ENDBRANCH  12  22
BRANCH   7  31
HETATM   31  N   UNL     1     -12.273  12.575  70.487  1.00  0.00    -0.352 NA 
HETATM   32  C   UNL     1     -13.198  11.977  71.444  1.00  0.00    -0.075 C  
HETATM   33  C   UNL     1     -12.727  13.823  69.870  1.00  0.00     0.061 C  
HETATM   34  C   UNL     1     -13.440  12.978  72.575  1.00  0.00    -0.522 C  
HETATM   35  C   UNL     1     -12.963  14.860  70.968  1.00  0.00    -0.437 C  
HETATM   36  C   UNL     1     -13.912  14.329  72.043  1.00  0.00    -0.595 C  
ENDBRANCH   7  31
ENDBRANCH   5   6
BRANCH   5  37
HETATM   37  C   UNL     1     -10.750  16.266  67.501  1.00  0.00    -0.300 C  
BRANCH  37  38
HETATM   38  C   UNL     1     -10.538  17.347  68.580  1.00  0.00    -0.318 C  
HETATM   39  O   UNL     1     -10.926  16.896  69.878  1.00  0.00    -0.406 OA 
HETATM   40  H   UNL     1     -10.795  17.561  70.542  1.00  0.00     0.000 HD 
ENDBRANCH  37  38
ENDBRANCH   5  37
ENDBRANCH   4   5
ENDBRANCH   3   4
TORSDOF 12
ENDMDL
MODEL       85
REMARK 921   NORMALIZED FREE ENERGY PREDICTED BY IDOCK:   -5.17 KCAL/MOL
REMARK 922        TOTAL FREE ENERGY PREDICTED BY IDOCK:   -9.71 KCAL/MOL
REMARK 923 INTER-LIGAND FREE ENERGY PREDICTED BY IDOCK:   -9.24 KCAL/MOL
REMARK 924 INTRA-LIGAND FREE ENERGY PREDICTED BY IDOCK:   -0.47 KCAL/MOL
REMARK 927      BINDING AFFINITY PREDICTED BY RF-SCORE:    0.00 PKD
ROOT
HETATM    1  O   UNL     1     -10.560  16.993  64.998  1.00  0.00    -0.703 OA 
HETATM    2  H   UNL     1     -10.867  17.821  64.647  1.00  0.00     0.000 HD 
HETATM    3  C   UNL     1     -11.233  15.882  64.407  1.00  0.00    -0.229 C  
ENDROOT
BRANCH   3   4
HETATM    4  C   UNL     1     -10.734  14.536  64.979  1.00  0.00    -0.427 C  
BRANCH   4   5
HETATM    5  N   UNL     1     -11.777  13.659  65.550  1.00  0.00    -0.325 NA 
BRANCH   5   6
HETATM    6  C   UNL     1     -11.325  12.709  66.448  1.00  0.00    -0.331 A  
HETATM    7  C   UNL     1     -11.592  11.805  69.974  1.00  0.00    -0.236 A  
HETATM    8  N   UNL     1     -11.199  10.806  70.802  1.00  0.00    -0.029 NA 
HETATM    9  N   UNL     1     -11.677  12.784  67.732  1.00  0.00    -0.351 NA 
HETATM   10  C   UNL     1     -11.282  11.812  68.600  1.00  0.00    -0.257 A  
HETATM   11  N   UNL     1     -10.568  11.718  65.995  1.00  0.00    -0.251 NA 
HETATM   12  C   UNL     1     -10.459   9.817  70.319  1.00  0.00    -0.288 A  
HETATM   13  C   UNL     1     -10.501  10.744  68.196  1.00  0.00    -0.185 A  
HETATM   14  C   UNL     1     -10.152  10.753  66.839  1.00  0.00    -0.212 A  
HETATM   15  N   UNL     1     -10.062   9.790  69.053  1.00  0.00    -0.178 NA 
BRANCH  14  16
HETATM   16  N   UNL     1      -9.301   9.803  66.286  1.00  0.00    -0.169 NA 
HETATM   17  C   UNL     1      -8.513   7.539  66.490  1.00  0.00    -0.131 C  
HETATM   18  C   UNL     1      -7.274   7.919  65.672  1.00  0.00    -0.070 C  
HETATM   19  C   UNL     1      -9.709   8.413  66.111  1.00  0.00    -0.153 C  
HETATM   20  C   UNL     1      -8.229  10.247  65.396  1.00  0.00    -0.156 C  
HETATM   21  C   UNL     1      -6.984   9.422  65.733  1.00  0.00    -0.090 C  
ENDBRANCH  14  16
BRANCH  12  22
HETATM   22  N   UNL     1     -10.092   8.766  71.131  1.00  0.00    -0.224 NA 
BRANCH  22  23
HETATM   23  C   UNL     1      -8.867   8.042  70.770  1.00  0.00    -0.139 C  
BRANCH  23  24
HETATM   24  C   UNL     1      -7.655   8.964  70.545  1.00  0.00    -0.093 C  
HETATM   25  O   UNL     1      -6.437   8.224  70.477  1.00  0.00    -0.035 OA 
HETATM   26  H   UNL     1      -5.689   8.793  70.338  1.00  0.00     0.000 HD 
ENDBRANCH  23  24
ENDBRANCH  22  23
BRANCH  22  27
HETATM   27  C   UNL     1     -10.580   8.707  72.511  1.00  0.00    -0.142 C  
BRANCH  27  28
HETATM   28  C   UNL     1      -9.866   7.609  73.320  1.00  0.00    -0.301 C  
HETATM   29  O   UNL     1      -9.006   8.168  74.315  1.00  0.00    -0.360 OA 
HETATM   30  H   UNL     1      -8.566   7.491  74.814  1.00  0.00     0.000 HD 
ENDBRANCH  27  28
ENDBRANCH  22  27
ENDBRANCH  12  22
BRANCH   7  31
HETATM   31  N   UNL     1     -12.361  12.786  70.599  1.00  0.00    -0.345 NA 
HETATM   32  C   UNL     1     -13.512  12.481  71.440  1.00  0.00     0.201 C  
HETATM   33  C   UNL     1     -12.360  14.119  69.992  1.00  0.00    -0.344 C  
HETATM   34  C   UNL     1     -13.560  13.498  72.582  1.00  0.00    -0.572 C  
HETATM   35  C   UNL     1     -12.388  15.168  71.103  1.00  0.00    -0.404 C  
HETATM   36  C   UNL     1     -13.555  14.933  72.063  1.00  0.00    -0.508 C  
ENDBRANCH   7  31
ENDBRANCH   5   6
BRANCH   5  37
HETATM   37  C   UNL     1     -12.896  13.288  64.673  1.00  0.00    -0.122 C  
BRANCH  37  38
HETATM   38  C   UNL     1     -12.423  12.830  63.278  1.00  0.00    -0.240 C  
HETATM   39  O   UNL     1     -12.022  11.460  63.269  1.00  0.00    -0.838 OA 
HETATM   40  H   UNL     1     -11.731  11.178  62.409  1.00  0.00     0.000 HD 
ENDBRANCH  37  38
ENDBRANCH   5  37
ENDBRANCH   4   5
ENDBRANCH   3   4
TORSDOF 12
ENDMDL
MODEL       86
REMARK 921   NORMALIZED FREE ENERGY PREDICTED BY IDOCK:   -5.14 KCAL/MOL
REMARK 922        TOTAL FREE ENERGY PREDICTED BY IDOCK:   -9.66 KCAL/MOL
REMARK 923 INTER-LIGAND FREE ENERGY PREDICTED BY IDOCK:   -9.44 KCAL/MOL
REMARK 924 INTRA-LIGAND FREE ENERGY PREDICTED BY IDOCK:   -0.22 KCAL/MOL
REMARK 927      BINDING AFFINITY PREDICTED BY RF-SCORE:    0.00 PKD
ROOT
HETATM    1  O   UNL     1     -10.052   5.295  72.052  1.00  0.00    -0.181 OA 
HETATM    2  H   UNL     1     -10.116   4.406  72.381  1.00  0.00     0.000 HD 
HETATM    3  C   UNL     1     -10.275   6.260  73.079  1.00  0.00    -0.197 C  
ENDROOT
BRANCH   3   4
HETATM    4  C   UNL     1     -10.170   7.705  72.544  1.00  0.00    -0.243 C  
BRANCH   4   5
HETATM    5  N   UNL     1     -11.317   8.172  71.736  1.00  0.00    -0.263 NA 
BRANCH   5   6
HETATM    6  C   UNL     1     -11.037   8.436  70.407  1.00  0.00    -0.231 A  
HETATM    7  C   UNL     1     -11.131  11.168  67.991  1.00  0.00    -0.276 A  
HETATM    8  N   UNL     1     -10.760  11.408  66.709  1.00  0.00    -0.259 NA 
HETATM    9  N   UNL     1     -11.261   9.651  69.906  1.00  0.00    -0.233 NA 
HETATM   10  C   UNL     1     -10.925   9.923  68.616  1.00  0.00    -0.179 A  
HETATM   11  N   UNL     1     -10.516   7.466  69.666  1.00  0.00    -0.227 NA 
HETATM   12  C   UNL     1     -10.225  10.426  65.995  1.00  0.00    -0.228 A  
HETATM   13  C   UNL     1     -10.369   8.965  67.787  1.00  0.00    -0.242 A  
HETATM   14  C   UNL     1     -10.190   7.709  68.381  1.00  0.00    -0.198 A  
HETATM   15  N   UNL     1     -10.067   9.204  66.487  1.00  0.00    -0.289 NA 
BRANCH  14  16
HETATM   16  N   UNL     1      -9.725   6.611  67.666  1.00  0.00    -0.122 NA 
HETATM   17  C   UNL     1     -10.401   4.726  66.332  1.00  0.00    -0.312 C  
HETATM   18  C   UNL     1      -9.054   4.059  66.629  1.00  0.00    -0.149 C  
HETATM   19  C   UNL     1     -10.278   6.249  66.365  1.00  0.00    -0.017 C  
HETATM   20  C   UNL     1      -8.366   6.130  67.912  1.00  0.00    -0.117 C  
HETATM   21  C   UNL     1      -8.416   4.600  67.912  1.00  0.00    -0.103 C  
ENDBRANCH  14  16
BRANCH  12  22
HETATM   22  N   UNL     1      -9.795  10.662  64.707  1.00  0.00    -0.283 NA 
BRANCH  22  23
HETATM   23  C   UNL     1      -9.800  12.055  64.248  1.00  0.00    -0.169 C  
BRANCH  23  24
HETATM   24  C   UNL     1     -11.182  12.539  63.775  1.00  0.00    -0.462 C  
HETATM   25  O   UNL     1     -11.868  11.529  63.035  1.00  0.00    -0.898 OA 
HETATM   26  H   UNL     1     -12.721  11.828  62.743  1.00  0.00     0.000 HD 
ENDBRANCH  23  24
ENDBRANCH  22  23
BRANCH  22  27
HETATM   27  C   UNL     1      -8.924   9.690  64.041  1.00  0.00    -0.223 C  
BRANCH  27  28
HETATM   28  C   UNL     1      -7.541   9.612  64.713  1.00  0.00    -0.122 C  
HETATM   29  O   UNL     1      -6.942  10.904  64.828  1.00  0.00    -0.341 OA 
HETATM   30  H   UNL     1      -6.088  10.856  65.242  1.00  0.00     0.000 HD 
ENDBRANCH  27  28
ENDBRANCH  22  27
ENDBRANCH  12  22
BRANCH   7  31
HETATM   31  N   UNL     1     -11.684  12.275  68.634  1.00  0.00    -0.313 NA 
HETATM   32  C   UNL     1     -12.489  12.174  69.846  1.00  0.00     0.072 C  
HETATM   33  C   UNL     1     -11.921  13.468  67.819  1.00  0.00    -0.334 C  
HETATM   34  C   UNL     1     -12.194  13.389  70.727  1.00  0.00    -0.409 C  
HETATM   35  C   UNL     1     -11.619  14.708  68.658  1.00  0.00    -0.343 C  
HETATM   36  C   UNL     1     -12.402  14.699  69.971  1.00  0.00    -0.365 C  
ENDBRANCH   7  31
ENDBRANCH   5   6
BRANCH   5  37
HETATM   37  C   UNL     1     -12.304   9.029  72.407  1.00  0.00    -0.280 C  
BRANCH  37  38
HETATM   38  C   UNL     1     -13.715   8.887  71.802  1.00  0.00    -0.422 C  
HETATM   39  O   UNL     1     -14.219   7.556  71.917  1.00  0.00    -0.483 OA 
HETATM   40  H   UNL     1     -15.088   7.469  71.545  1.00  0.00     0.000 HD 
ENDBRANCH  37  38
ENDBRANCH   5  37
ENDBRANCH   4   5
ENDBRANCH   3   4
TORSDOF 12
ENDMDL
MODEL       87
REMARK 921   NORMALIZED FREE ENERGY PREDICTED BY IDOCK:   -5.11 KCAL/MOL
REMARK 922        TOTAL FREE ENERGY PREDICTED BY IDOCK:   -9.61 KCAL/MOL
REMARK 923 INTER-LIGAND FREE ENERGY PREDICTED BY IDOCK:   -9.69 KCAL/MOL
REMARK 924 INTRA-LIGAND FREE ENERGY PREDICTED BY IDOCK:    0.08 KCAL/MOL
REMARK 927      BINDING AFFINITY PREDICTED BY RF-SCORE:    0.00 PKD
ROOT
HETATM    1  O   UNL     1     -10.086   5.902  69.006  1.00  0.00    -0.158 OA 
HETATM    2  H   UNL     1      -9.649   5.649  68.201  1.00  0.00     0.000 HD 
HETATM    3  C   UNL     1     -10.811   7.122  68.857  1.00  0.00    -0.129 C  
ENDROOT
BRANCH   3   4
HETATM    4  C   UNL     1     -11.522   7.533  70.166  1.00  0.00    -0.095 C  
BRANCH   4   5
HETATM    5  N   UNL     1     -10.909   8.663  70.897  1.00  0.00    -0.229 NA 
BRANCH   5   6
HETATM    6  C   UNL     1     -10.942   9.880  70.241  1.00  0.00    -0.309 A  
HETATM    7  C   UNL     1      -9.883  11.429  67.112  1.00  0.00    -0.190 A  
HETATM    8  N   UNL     1     -10.014  12.614  66.466  1.00  0.00    -0.245 NA 
HETATM    9  N   UNL     1     -10.370  10.008  69.044  1.00  0.00    -0.194 NA 
HETATM   10  C   UNL     1     -10.459  11.190  68.374  1.00  0.00    -0.188 A  
HETATM   11  N   UNL     1     -11.576  10.893  70.817  1.00  0.00    -0.257 NA 
HETATM   12  C   UNL     1     -10.669  13.604  67.056  1.00  0.00    -0.278 A  
HETATM   13  C   UNL     1     -11.114  12.285  68.908  1.00  0.00    -0.242 A  
HETATM   14  C   UNL     1     -11.664  12.077  70.180  1.00  0.00    -0.233 A  
HETATM   15  N   UNL     1     -11.177  13.483  68.276  1.00  0.00    -0.260 NA 
BRANCH  14  16
HETATM   16  N   UNL     1     -12.279  13.097  70.897  1.00  0.00    -0.320 NA 
HETATM   17  C   UNL     1     -14.247  13.685  72.151  1.00  0.00    -0.481 C  
HETATM   18  C   UNL     1     -13.927  15.166  71.917  1.00  0.00    -0.629 C  
HETATM   19  C   UNL     1     -12.970  12.844  72.156  1.00  0.00    -0.245 C  
HETATM   20  C   UNL     1     -11.808  14.470  70.719  1.00  0.00    -0.304 C  
HETATM   21  C   UNL     1     -13.043  15.375  70.684  1.00  0.00    -0.405 C  
ENDBRANCH  14  16
BRANCH  12  22
HETATM   22  N   UNL     1     -10.858  14.800  66.396  1.00  0.00    -0.316 NA 
BRANCH  22  23
HETATM   23  C   UNL     1      -9.725  15.732  66.371  1.00  0.00    -0.282 C  
BRANCH  23  24
HETATM   24  C   UNL     1      -9.633  16.618  67.626  1.00  0.00    -0.239 C  
HETATM   25  O   UNL     1     -10.906  16.775  68.253  1.00  0.00    -0.353 OA 
HETATM   26  H   UNL     1     -10.849  17.322  69.028  1.00  0.00     0.000 HD 
ENDBRANCH  23  24
ENDBRANCH  22  23
BRANCH  22  27
HETATM   27  C   UNL     1     -11.900  14.910  65.374  1.00  0.00    -0.188 C  
BRANCH  27  28
HETATM   28  C   UNL     1     -11.975  13.646  64.498  1.00  0.00    -0.418 C  
HETATM   29  O   UNL     1     -12.919  12.706  65.017  1.00  0.00    -0.812 OA 
HETATM   30  H   UNL     1     -12.964  11.926  64.477  1.00  0.00     0.000 HD 
ENDBRANCH  27  28
ENDBRANCH  22  27
ENDBRANCH  12  22
BRANCH   7  31
HETATM   31  N   UNL     1      -9.171  10.470  66.392  1.00  0.00    -0.163 NA 
HETATM   32  C   UNL     1      -9.789   9.594  65.403  1.00  0.00    -0.252 C  
HETATM   33  C   UNL     1      -7.936   9.965  66.996  1.00  0.00    -0.109 C  
HETATM   34  C   UNL     1      -8.790   9.364  64.267  1.00  0.00    -0.220 C  
HETATM   35  C   UNL     1      -6.903   9.740  65.894  1.00  0.00    -0.096 C  
HETATM   36  C   UNL     1      -7.453   8.842  64.786  1.00  0.00    -0.100 C  
ENDBRANCH   7  31
ENDBRANCH   5   6
BRANCH   5  37
HETATM   37  C   UNL     1      -9.732   8.366  71.724  1.00  0.00    -0.237 C  
BRANCH  37  38
HETATM   38  C   UNL     1      -8.445   9.007  71.167  1.00  0.00    -0.177 C  
HETATM   39  O   UNL     1      -7.410   9.077  72.148  1.00  0.00    -0.334 OA 
HETATM   40  H   UNL     1      -6.617   9.471  71.804  1.00  0.00     0.000 HD 
ENDBRANCH  37  38
ENDBRANCH   5  37
ENDBRANCH   4   5
ENDBRANCH   3   4
TORSDOF 12
ENDMDL
MODEL       88
REMARK 921   NORMALIZED FREE ENERGY PREDICTED BY IDOCK:   -5.10 KCAL/MOL
REMARK 922        TOTAL FREE ENERGY PREDICTED BY IDOCK:   -9.60 KCAL/MOL
REMARK 923 INTER-LIGAND FREE ENERGY PREDICTED BY IDOCK:   -8.91 KCAL/MOL
REMARK 924 INTRA-LIGAND FREE ENERGY PREDICTED BY IDOCK:   -0.68 KCAL/MOL
REMARK 927      BINDING AFFINITY PREDICTED BY RF-SCORE:    0.00 PKD
ROOT
HETATM    1  O   UNL     1      -9.959   4.003  70.519  1.00  0.00    -0.187 OA 
HETATM    2  H   UNL     1     -10.646   3.423  70.827  1.00  0.00     0.000 HD 
HETATM    3  C   UNL     1     -10.329   5.376  70.634  1.00  0.00    -0.262 C  
ENDROOT
BRANCH   3   4
HETATM    4  C   UNL     1      -9.211   6.318  70.133  1.00  0.00    -0.157 C  
BRANCH   4   5
HETATM    5  N   UNL     1      -9.158   7.646  70.780  1.00  0.00    -0.152 NA 
BRANCH   5   6
HETATM    6  C   UNL     1      -9.454   8.717  69.956  1.00  0.00    -0.169 A  
HETATM    7  C   UNL     1      -8.530  10.130  66.721  1.00  0.00    -0.126 A  
HETATM    8  N   UNL     1      -8.913  11.143  65.905  1.00  0.00    -0.198 NA 
HETATM    9  N   UNL     1      -8.813   8.864  68.796  1.00  0.00    -0.137 NA 
HETATM   10  C   UNL     1      -9.152   9.883  67.960  1.00  0.00    -0.121 A  
HETATM   11  N   UNL     1     -10.402   9.564  70.335  1.00  0.00    -0.256 NA 
HETATM   12  C   UNL     1      -9.876  11.964  66.300  1.00  0.00    -0.225 A  
HETATM   13  C   UNL     1     -10.138  10.798  68.285  1.00  0.00    -0.171 A  
HETATM   14  C   UNL     1     -10.744  10.590  69.531  1.00  0.00    -0.255 A  
HETATM   15  N   UNL     1     -10.460  11.845  67.485  1.00  0.00    -0.205 NA 
BRANCH  14  16
HETATM   16  N   UNL     1     -11.691  11.465  70.049  1.00  0.00    -0.322 NA 
HETATM   17  C   UNL     1     -12.062  13.730  70.772  1.00  0.00    -0.395 C  
HETATM   18  C   UNL     1     -13.271  13.251  71.584  1.00  0.00    -0.446 C  
HETATM   19  C   UNL     1     -11.827  12.833  69.557  1.00  0.00    -0.316 C  
HETATM   20  C   UNL     1     -12.891  10.917  70.680  1.00  0.00    -0.255 C  
HETATM   21  C   UNL     1     -13.179  11.761  71.925  1.00  0.00    -0.468 C  
ENDBRANCH  14  16
BRANCH  12  22
HETATM   22  N   UNL     1     -10.315  12.969  65.465  1.00  0.00    -0.290 NA 
BRANCH  22  23
HETATM   23  C   UNL     1     -10.345  12.675  64.028  1.00  0.00    -0.389 C  
BRANCH  23  24
HETATM   24  C   UNL     1     -11.076  11.364  63.686  1.00  0.00    -0.325 C  
HETATM   25  O   UNL     1     -12.264  11.605  62.933  1.00  0.00    -0.908 OA 
HETATM   26  H   UNL     1     -12.716  10.797  62.723  1.00  0.00     0.000 HD 
ENDBRANCH  23  24
ENDBRANCH  22  23
BRANCH  22  27
HETATM   27  C   UNL     1     -11.164  14.038  65.996  1.00  0.00    -0.310 C  
BRANCH  27  28
HETATM   28  C   UNL     1     -12.346  14.345  65.058  1.00  0.00    -0.396 C  
HETATM   29  O   UNL     1     -13.390  13.379  65.198  1.00  0.00    -0.611 OA 
HETATM   30  H   UNL     1     -14.118  13.569  64.619  1.00  0.00     0.000 HD 
ENDBRANCH  27  28
ENDBRANCH  22  27
ENDBRANCH  12  22
BRANCH   7  31
HETATM   31  N   UNL     1      -7.508   9.340  66.198  1.00  0.00    -0.095 NA 
HETATM   32  C   UNL     1      -7.743   8.052  65.554  1.00  0.00    -0.093 C  
HETATM   33  C   UNL     1      -6.168   9.526  66.761  1.00  0.00    -0.065 C  
HETATM   34  C   UNL     1      -6.744   7.893  64.408  1.00  0.00    -0.056 C  
HETATM   35  C   UNL     1      -5.138   9.393  65.641  1.00  0.00    -0.035 C  
HETATM   36  C   UNL     1      -5.304   8.077  64.881  1.00  0.00    -0.032 C  
ENDBRANCH   7  31
ENDBRANCH   5   6
BRANCH   5  37
HETATM   37  C   UNL     1      -8.137   7.846  71.817  1.00  0.00    -0.109 C  
BRANCH  37  38
HETATM   38  C   UNL     1      -8.750   8.023  73.221  1.00  0.00    -0.245 C  
HETATM   39  O   UNL     1      -8.046   7.277  74.213  1.00  0.00    -0.135 OA 
HETATM   40  H   UNL     1      -8.424   7.387  75.078  1.00  0.00     0.000 HD 
ENDBRANCH  37  38
ENDBRANCH   5  37
ENDBRANCH   4   5
ENDBRANCH   3   4
TORSDOF 12
ENDMDL
MODEL       89
REMARK 921   NORMALIZED FREE ENERGY PREDICTED BY IDOCK:   -5.09 KCAL/MOL
REMARK 922        TOTAL FREE ENERGY PREDICTED BY IDOCK:   -9.57 KCAL/MOL
REMARK 923 INTER-LIGAND FREE ENERGY PREDICTED BY IDOCK:   -7.52 KCAL/MOL
REMARK 924 INTRA-LIGAND FREE ENERGY PREDICTED BY IDOCK:   -2.06 KCAL/MOL
REMARK 927      BINDING AFFINITY PREDICTED BY RF-SCORE:    0.00 PKD
ROOT
HETATM    1  O   UNL     1     -10.541   5.479  73.033  1.00  0.00    -0.206 OA 
HETATM    2  H   UNL     1     -10.883   4.608  73.200  1.00  0.00     0.000 HD 
HETATM    3  C   UNL     1     -11.433   6.256  72.235  1.00  0.00    -0.306 C  
ENDROOT
BRANCH   3   4
HETATM    4  C   UNL     1     -10.877   7.672  71.963  1.00  0.00    -0.238 C  
BRANCH   4   5
HETATM    5  N   UNL     1     -11.663   8.498  71.023  1.00  0.00    -0.283 NA 
BRANCH   5   6
HETATM    6  C   UNL     1     -11.031   8.802  69.831  1.00  0.00    -0.179 A  
HETATM    7  C   UNL     1      -9.165   7.199  67.136  1.00  0.00    -0.134 A  
HETATM    8  N   UNL     1      -8.634   7.523  65.931  1.00  0.00    -0.149 NA 
HETATM    9  N   UNL     1     -10.414   7.844  69.139  1.00  0.00    -0.220 NA 
HETATM   10  C   UNL     1      -9.847   8.135  67.936  1.00  0.00    -0.169 A  
HETATM   11  N   UNL     1     -11.082  10.052  69.388  1.00  0.00    -0.235 NA 
HETATM   12  C   UNL     1      -8.716   8.776  65.503  1.00  0.00    -0.185 A  
HETATM   13  C   UNL     1      -9.871   9.414  67.407  1.00  0.00    -0.172 A  
HETATM   14  C   UNL     1     -10.515  10.367  68.206  1.00  0.00    -0.191 A  
HETATM   15  N   UNL     1      -9.276   9.733  66.231  1.00  0.00    -0.156 NA 
BRANCH  14  16
HETATM   16  N   UNL     1     -10.554  11.714  67.866  1.00  0.00    -0.187 NA 
HETATM   17  C   UNL     1     -11.037  13.262  66.089  1.00  0.00    -0.300 C  
HETATM   18  C   UNL     1     -10.190  14.319  66.807  1.00  0.00    -0.272 C  
HETATM   19  C   UNL     1     -11.650  12.280  67.087  1.00  0.00    -0.353 C  
HETATM   20  C   UNL     1      -9.832  12.675  68.699  1.00  0.00    -0.069 C  
HETATM   21  C   UNL     1      -9.170  13.687  67.759  1.00  0.00    -0.214 C  
ENDBRANCH  14  16
BRANCH  12  22
HETATM   22  N   UNL     1      -8.228   9.116  64.260  1.00  0.00    -0.152 NA 
BRANCH  22  23
HETATM   23  C   UNL     1      -7.029   9.962  64.224  1.00  0.00    -0.128 C  
BRANCH  23  24
HETATM   24  C   UNL     1      -6.072   9.717  65.403  1.00  0.00    -0.069 C  
HETATM   25  O   UNL     1      -5.502   8.409  65.355  1.00  0.00    -0.035 OA 
HETATM   26  H   UNL     1      -4.911   8.257  66.084  1.00  0.00     0.000 HD 
ENDBRANCH  23  24
ENDBRANCH  22  23
BRANCH  22  27
HETATM   27  C   UNL     1      -8.556   8.288  63.097  1.00  0.00     0.138 C  
BRANCH  27  28
HETATM   28  C   UNL     1      -7.321   7.539  62.564  1.00  0.00    -0.093 C  
HETATM   29  O   UNL     1      -6.935   6.477  63.439  1.00  0.00    -0.047 OA 
HETATM   30  H   UNL     1      -6.173   6.016  63.110  1.00  0.00     0.000 HD 
ENDBRANCH  27  28
ENDBRANCH  22  27
ENDBRANCH  12  22
BRANCH   7  31
HETATM   31  N   UNL     1      -9.012   5.856  67.476  1.00  0.00    -0.109 NA 
HETATM   32  C   UNL     1      -8.378   5.413  68.713  1.00  0.00    -0.097 C  
HETATM   33  C   UNL     1      -8.988   4.889  66.376  1.00  0.00    -0.117 C  
HETATM   34  C   UNL     1      -9.095   4.154  69.202  1.00  0.00    -0.191 C  
HETATM   35  C   UNL     1      -9.714   3.619  66.819  1.00  0.00    -0.098 C  
HETATM   36  C   UNL     1      -9.139   3.073  68.125  1.00  0.00    -0.219 C  
ENDBRANCH   7  31
ENDBRANCH   5   6
BRANCH   5  37
HETATM   37  C   UNL     1     -12.548   9.516  71.604  1.00  0.00    -0.388 C  
BRANCH  37  38
HETATM   38  C   UNL     1     -13.917   8.940  72.019  1.00  0.00    -0.437 C  
HETATM   39  O   UNL     1     -14.100   8.954  73.435  1.00  0.00    -1.256 OA 
HETATM   40  H   UNL     1     -14.943   8.599  73.690  1.00  0.00     0.000 HD 
ENDBRANCH  37  38
ENDBRANCH   5  37
ENDBRANCH   4   5
ENDBRANCH   3   4
TORSDOF 12
ENDMDL
MODEL       90
REMARK 921   NORMALIZED FREE ENERGY PREDICTED BY IDOCK:   -5.08 KCAL/MOL
REMARK 922        TOTAL FREE ENERGY PREDICTED BY IDOCK:   -9.55 KCAL/MOL
REMARK 923 INTER-LIGAND FREE ENERGY PREDICTED BY IDOCK:   -7.98 KCAL/MOL
REMARK 924 INTRA-LIGAND FREE ENERGY PREDICTED BY IDOCK:   -1.57 KCAL/MOL
REMARK 927      BINDING AFFINITY PREDICTED BY RF-SCORE:    0.00 PKD
ROOT
HETATM    1  O   UNL     1     -13.474  15.736  70.720  1.00  0.00    -0.756 OA 
HETATM    2  H   UNL     1     -14.083  15.069  71.017  1.00  0.00     0.000 HD 
HETATM    3  C   UNL     1     -12.149  15.224  70.584  1.00  0.00    -0.354 C  
ENDROOT
BRANCH   3   4
HETATM    4  C   UNL     1     -11.160  16.308  70.100  1.00  0.00    -0.341 C  
BRANCH   4   5
HETATM    5  N   UNL     1     -10.955  16.379  68.638  1.00  0.00    -0.331 NA 
BRANCH   5   6
HETATM    6  C   UNL     1     -10.286  15.302  68.082  1.00  0.00    -0.242 A  
HETATM    7  C   UNL     1      -7.142  13.475  68.377  1.00  0.00    -0.107 A  
HETATM    8  N   UNL     1      -6.559  12.361  67.868  1.00  0.00    -0.084 NA 
HETATM    9  N   UNL     1      -9.063  14.985  68.507  1.00  0.00    -0.181 NA 
HETATM   10  C   UNL     1      -8.435  13.888  68.002  1.00  0.00    -0.173 A  
HETATM   11  N   UNL     1     -10.902  14.588  67.149  1.00  0.00    -0.290 NA 
HETATM   12  C   UNL     1      -7.204  11.654  66.950  1.00  0.00    -0.125 A  
HETATM   13  C   UNL     1      -9.020  13.090  67.035  1.00  0.00    -0.225 A  
HETATM   14  C   UNL     1     -10.293  13.507  66.623  1.00  0.00    -0.271 A  
HETATM   15  N   UNL     1      -8.393  12.019  66.489  1.00  0.00    -0.088 NA 
BRANCH  14  16
HETATM   16  N   UNL     1     -10.985  12.871  65.599  1.00  0.00    -0.268 NA 
HETATM   17  C   UNL     1     -10.781  11.285  63.801  1.00  0.00    -0.448 C  
HETATM   18  C   UNL     1     -12.036  11.886  63.157  1.00  0.00    -0.287 C  
HETATM   19  C   UNL     1     -10.813  11.449  65.321  1.00  0.00    -0.233 C  
HETATM   20  C   UNL     1     -12.254  13.438  65.145  1.00  0.00    -0.434 C  
HETATM   21  C   UNL     1     -12.285  13.325  63.618  1.00  0.00    -0.522 C  
ENDBRANCH  14  16
BRANCH  12  22
HETATM   22  N   UNL     1      -6.652  10.492  66.457  1.00  0.00    -0.092 NA 
BRANCH  22  23
HETATM   23  C   UNL     1      -5.907   9.655  67.404  1.00  0.00    -0.044 C  
BRANCH  23  24
HETATM   24  C   UNL     1      -6.811   8.896  68.392  1.00  0.00    -0.065 C  
HETATM   25  O   UNL     1      -7.005   9.633  69.599  1.00  0.00    -0.058 OA 
HETATM   26  H   UNL     1      -7.562   9.165  70.209  1.00  0.00     0.000 HD 
ENDBRANCH  23  24
ENDBRANCH  22  23
BRANCH  22  27
HETATM   27  C   UNL     1      -7.196   9.887  65.239  1.00  0.00    -0.131 C  
BRANCH  27  28
HETATM   28  C   UNL     1      -6.146   9.027  64.512  1.00  0.00    -0.070 C  
HETATM   29  O   UNL     1      -6.008   9.415  63.144  1.00  0.00    -0.088 OA 
HETATM   30  H   UNL     1      -5.360   8.884  62.696  1.00  0.00     0.000 HD 
ENDBRANCH  27  28
ENDBRANCH  22  27
ENDBRANCH  12  22
BRANCH   7  31
HETATM   31  N   UNL     1      -6.365  14.133  69.329  1.00  0.00    -0.105 NA 
HETATM   32  C   UNL     1      -5.653  15.376  69.057  1.00  0.00    -0.098 C  
HETATM   33  C   UNL     1      -5.818  13.321  70.419  1.00  0.00    -0.161 C  
HETATM   34  C   UNL     1      -5.681  16.238  70.320  1.00  0.00    -0.151 C  
HETATM   35  C   UNL     1      -5.846  14.141  71.708  1.00  0.00    -0.106 C  
HETATM   36  C   UNL     1      -5.138  15.484  71.532  1.00  0.00    -0.108 C  
ENDBRANCH   7  31
ENDBRANCH   5   6
BRANCH   5  37
HETATM   37  C   UNL     1     -10.708  17.706  68.059  1.00  0.00    -0.328 C  
BRANCH  37  38
HETATM   38  C   UNL     1      -9.716  18.539  68.896  1.00  0.00    -0.308 C  
HETATM   39  O   UNL     1      -8.359  18.183  68.633  1.00  0.00    -0.308 OA 
HETATM   40  H   UNL     1      -7.748  18.696  69.149  1.00  0.00     0.000 HD 
ENDBRANCH  37  38
ENDBRANCH   5  37
ENDBRANCH   4   5
ENDBRANCH   3   4
TORSDOF 12
ENDMDL
MODEL       91
REMARK 921   NORMALIZED FREE ENERGY PREDICTED BY IDOCK:   -5.06 KCAL/MOL
REMARK 922        TOTAL FREE ENERGY PREDICTED BY IDOCK:   -9.53 KCAL/MOL
REMARK 923 INTER-LIGAND FREE ENERGY PREDICTED BY IDOCK:   -8.73 KCAL/MOL
REMARK 924 INTRA-LIGAND FREE ENERGY PREDICTED BY IDOCK:   -0.80 KCAL/MOL
REMARK 927      BINDING AFFINITY PREDICTED BY RF-SCORE:    0.00 PKD
ROOT
HETATM    1  O   UNL     1     -11.471   4.716  65.366  1.00  0.00    -1.018 OA 
HETATM    2  H   UNL     1     -11.625   4.672  64.430  1.00  0.00     0.000 HD 
HETATM    3  C   UNL     1     -10.101   4.483  65.691  1.00  0.00    -0.244 C  
ENDROOT
BRANCH   3   4
HETATM    4  C   UNL     1      -9.850   4.556  67.214  1.00  0.00    -0.175 C  
BRANCH   4   5
HETATM    5  N   UNL     1      -8.811   5.515  67.645  1.00  0.00    -0.107 NA 
BRANCH   5   6
HETATM    6  C   UNL     1      -9.189   6.846  67.625  1.00  0.00    -0.119 A  
HETATM    7  C   UNL     1      -8.906   9.829  65.544  1.00  0.00    -0.163 A  
HETATM    8  N   UNL     1      -9.371  11.103  65.520  1.00  0.00    -0.219 NA 
HETATM    9  N   UNL     1      -8.821   7.629  66.611  1.00  0.00    -0.135 NA 
HETATM   10  C   UNL     1      -9.248   8.920  66.564  1.00  0.00    -0.183 A  
HETATM   11  N   UNL     1      -9.945   7.304  68.615  1.00  0.00    -0.161 NA 
HETATM   12  C   UNL     1     -10.140  11.530  66.512  1.00  0.00    -0.213 A  
HETATM   13  C   UNL     1     -10.046   9.464  67.555  1.00  0.00    -0.215 A  
HETATM   14  C   UNL     1     -10.367   8.584  68.597  1.00  0.00    -0.198 A  
HETATM   15  N   UNL     1     -10.446  10.759  67.547  1.00  0.00    -0.206 NA 
BRANCH  14  16
HETATM   16  N   UNL     1     -11.086   8.991  69.715  1.00  0.00    -0.164 NA 
HETATM   17  C   UNL     1     -12.868   8.382  71.213  1.00  0.00    -0.189 C  
HETATM   18  C   UNL     1     -13.006   9.856  71.613  1.00  0.00    -0.536 C  
HETATM   19  C   UNL     1     -11.436   8.062  70.785  1.00  0.00    -0.263 C  
HETATM   20  C   UNL     1     -11.041  10.398  70.111  1.00  0.00    -0.314 C  
HETATM   21  C   UNL     1     -12.457  10.797  70.537  1.00  0.00    -0.447 C  
ENDBRANCH  14  16
BRANCH  12  22
HETATM   22  N   UNL     1     -10.665  12.804  66.482  1.00  0.00    -0.256 NA 
BRANCH  22  23
HETATM   23  C   UNL     1     -12.012  12.956  65.919  1.00  0.00    -0.448 C  
BRANCH  23  24
HETATM   24  C   UNL     1     -12.015  13.479  64.471  1.00  0.00    -0.410 C  
HETATM   25  O   UNL     1     -12.898  14.589  64.315  1.00  0.00    -0.590 OA 
HETATM   26  H   UNL     1     -12.900  14.912  63.421  1.00  0.00     0.000 HD 
ENDBRANCH  23  24
ENDBRANCH  22  23
BRANCH  22  27
HETATM   27  C   UNL     1     -10.151  13.825  67.397  1.00  0.00    -0.244 C  
BRANCH  27  28
HETATM   28  C   UNL     1     -10.863  15.176  67.201  1.00  0.00    -0.320 C  
HETATM   29  O   UNL     1     -11.799  15.431  68.251  1.00  0.00    -0.451 OA 
HETATM   30  H   UNL     1     -12.239  16.264  68.129  1.00  0.00     0.000 HD 
ENDBRANCH  27  28
ENDBRANCH  22  27
ENDBRANCH  12  22
BRANCH   7  31
HETATM   31  N   UNL     1      -8.107   9.500  64.450  1.00  0.00    -0.131 NA 
HETATM   32  C   UNL     1      -6.777  10.061  64.236  1.00  0.00    -0.128 C  
HETATM   33  C   UNL     1      -8.790   9.025  63.245  1.00  0.00     0.000 C  
HETATM   34  C   UNL     1      -5.892   8.983  63.609  1.00  0.00    -0.076 C  
HETATM   35  C   UNL     1      -7.945   7.929  62.597  1.00  0.00    -0.147 C  
HETATM   36  C   UNL     1      -6.515   8.404  62.341  1.00  0.00    -0.088 C  
ENDBRANCH   7  31
ENDBRANCH   5   6
BRANCH   5  37
HETATM   37  C   UNL     1      -7.421   5.197  67.296  1.00  0.00    -0.083 C  
BRANCH  37  38
HETATM   38  C   UNL     1      -6.985   3.811  67.813  1.00  0.00    -0.055 C  
HETATM   39  O   UNL     1      -6.733   3.814  69.217  1.00  0.00    -0.039 OA 
HETATM   40  H   UNL     1      -6.465   2.960  69.535  1.00  0.00     0.000 HD 
ENDBRANCH  37  38
ENDBRANCH   5  37
ENDBRANCH   4   5
ENDBRANCH   3   4
TORSDOF 12
ENDMDL
MODEL       92
REMARK 921   NORMALIZED FREE ENERGY PREDICTED BY IDOCK:   -5.05 KCAL/MOL
REMARK 922        TOTAL FREE ENERGY PREDICTED BY IDOCK:   -9.51 KCAL/MOL
REMARK 923 INTER-LIGAND FREE ENERGY PREDICTED BY IDOCK:   -7.49 KCAL/MOL
REMARK 924 INTRA-LIGAND FREE ENERGY PREDICTED BY IDOCK:   -2.02 KCAL/MOL
REMARK 927      BINDING AFFINITY PREDICTED BY RF-SCORE:    0.00 PKD
ROOT
HETATM    1  O   UNL     1      -8.691  14.583  69.541  1.00  0.00    -0.381 OA 
HETATM    2  H   UNL     1      -8.224  14.778  70.345  1.00  0.00     0.000 HD 
HETATM    3  C   UNL     1      -7.848  13.961  68.573  1.00  0.00    -0.139 C  
ENDROOT
BRANCH   3   4
HETATM    4  C   UNL     1      -8.609  13.644  67.266  1.00  0.00    -0.214 C  
BRANCH   4   5
HETATM    5  N   UNL     1      -9.944  13.033  67.436  1.00  0.00    -0.225 NA 
BRANCH   5   6
HETATM    6  C   UNL     1      -9.943  11.710  67.839  1.00  0.00    -0.182 A  
HETATM    7  C   UNL     1      -8.536   8.476  66.900  1.00  0.00    -0.113 A  
HETATM    8  N   UNL     1      -8.489   7.208  67.378  1.00  0.00    -0.122 NA 
HETATM    9  N   UNL     1      -9.265  10.800  67.138  1.00  0.00    -0.147 NA 
HETATM   10  C   UNL     1      -9.214   9.511  67.572  1.00  0.00    -0.126 A  
HETATM   11  N   UNL     1     -10.601  11.383  68.943  1.00  0.00    -0.203 NA 
HETATM   12  C   UNL     1      -9.140   6.913  68.495  1.00  0.00    -0.127 A  
HETATM   13  C   UNL     1      -9.867   9.100  68.721  1.00  0.00    -0.167 A  
HETATM   14  C   UNL     1     -10.577  10.110  69.385  1.00  0.00    -0.237 A  
HETATM   15  N   UNL     1      -9.864   7.813  69.147  1.00  0.00    -0.170 NA 
BRANCH  14  16
HETATM   16  N   UNL     1     -11.359   9.852  70.505  1.00  0.00    -0.302 NA 
HETATM   17  C   UNL     1     -11.892   8.199  72.171  1.00  0.00    -0.417 C  
HETATM   18  C   UNL     1     -13.215   8.926  72.438  1.00  0.00    -0.482 C  
HETATM   19  C   UNL     1     -10.821   9.173  71.679  1.00  0.00    -0.372 C  
HETATM   20  C   UNL     1     -12.526  10.694  70.762  1.00  0.00    -0.385 C  
HETATM   21  C   UNL     1     -13.654   9.777  71.243  1.00  0.00    -0.285 C  
ENDBRANCH  14  16
BRANCH  12  22
HETATM   22  N   UNL     1      -9.064   5.643  69.026  1.00  0.00    -0.111 NA 
BRANCH  22  23
HETATM   23  C   UNL     1     -10.217   5.176  69.805  1.00  0.00    -0.287 C  
BRANCH  23  24
HETATM   24  C   UNL     1      -9.872   4.839  71.266  1.00  0.00    -0.187 C  
HETATM   25  O   UNL     1      -9.539   3.460  71.423  1.00  0.00    -0.146 OA 
HETATM   26  H   UNL     1      -9.327   3.252  72.326  1.00  0.00     0.000 HD 
ENDBRANCH  23  24
ENDBRANCH  22  23
BRANCH  22  27
HETATM   27  C   UNL     1      -8.153   4.660  68.434  1.00  0.00    -0.083 C  
BRANCH  27  28
HETATM   28  C   UNL     1      -6.757   4.715  69.082  1.00  0.00    -0.046 C  
HETATM   29  O   UNL     1      -6.696   3.912  70.262  1.00  0.00    -0.032 OA 
HETATM   30  H   UNL     1      -5.835   3.946  70.661  1.00  0.00     0.000 HD 
ENDBRANCH  27  28
ENDBRANCH  22  27
ENDBRANCH  12  22
BRANCH   7  31
HETATM   31  N   UNL     1      -7.818   8.661  65.720  1.00  0.00    -0.097 NA 
HETATM   32  C   UNL     1      -8.206   8.063  64.448  1.00  0.00    -0.081 C  
HETATM   33  C   UNL     1      -6.398   8.995  65.850  1.00  0.00    -0.056 C  
HETATM   34  C   UNL     1      -7.868   9.046  63.326  1.00  0.00    -0.135 C  
HETATM   35  C   UNL     1      -6.022   9.993  64.757  1.00  0.00    -0.113 C  
HETATM   36  C   UNL     1      -6.403   9.474  63.370  1.00  0.00    -0.101 C  
ENDBRANCH   7  31
ENDBRANCH   5   6
BRANCH   5  37
HETATM   37  C   UNL     1     -11.000  13.462  66.509  1.00  0.00    -0.290 C  
BRANCH  37  38
HETATM   38  C   UNL     1     -11.912  14.547  67.117  1.00  0.00    -0.345 C  
HETATM   39  O   UNL     1     -12.331  14.219  68.441  1.00  0.00    -0.584 OA 
HETATM   40  H   UNL     1     -12.893  14.887  68.815  1.00  0.00     0.000 HD 
ENDBRANCH  37  38
ENDBRANCH   5  37
ENDBRANCH   4   5
ENDBRANCH   3   4
TORSDOF 12
ENDMDL
MODEL       93
REMARK 921   NORMALIZED FREE ENERGY PREDICTED BY IDOCK:   -5.03 KCAL/MOL
REMARK 922        TOTAL FREE ENERGY PREDICTED BY IDOCK:   -9.48 KCAL/MOL
REMARK 923 INTER-LIGAND FREE ENERGY PREDICTED BY IDOCK:   -8.30 KCAL/MOL
REMARK 924 INTRA-LIGAND FREE ENERGY PREDICTED BY IDOCK:   -1.18 KCAL/MOL
REMARK 927      BINDING AFFINITY PREDICTED BY RF-SCORE:    0.00 PKD
ROOT
HETATM    1  O   UNL     1      -9.903   3.896  67.672  1.00  0.00    -0.143 OA 
HETATM    2  H   UNL     1      -9.132   3.341  67.646  1.00  0.00     0.000 HD 
HETATM    3  C   UNL     1      -9.560   5.276  67.790  1.00  0.00    -0.133 C  
ENDROOT
BRANCH   3   4
HETATM    4  C   UNL     1     -10.814   6.178  67.833  1.00  0.00    -0.319 C  
BRANCH   4   5
HETATM    5  N   UNL     1     -10.781   7.271  68.828  1.00  0.00    -0.178 NA 
BRANCH   5   6
HETATM    6  C   UNL     1     -10.381   8.503  68.341  1.00  0.00    -0.202 A  
HETATM    7  C   UNL     1     -10.930  12.068  68.893  1.00  0.00    -0.232 A  
HETATM    8  N   UNL     1     -10.446  13.254  68.448  1.00  0.00    -0.249 NA 
HETATM    9  N   UNL     1     -10.891   9.621  68.858  1.00  0.00    -0.206 NA 
HETATM   10  C   UNL     1     -10.449  10.832  68.420  1.00  0.00    -0.183 A  
HETATM   11  N   UNL     1      -9.467   8.538  67.381  1.00  0.00    -0.146 NA 
HETATM   12  C   UNL     1      -9.518  13.261  67.500  1.00  0.00    -0.220 A  
HETATM   13  C   UNL     1      -9.489  10.945  67.429  1.00  0.00    -0.155 A  
HETATM   14  C   UNL     1      -9.024   9.725  66.921  1.00  0.00    -0.138 A  
HETATM   15  N   UNL     1      -9.067  12.141  66.950  1.00  0.00    -0.198 NA 
BRANCH  14  16
HETATM   16  N   UNL     1      -8.125   9.658  65.863  1.00  0.00    -0.111 NA 
HETATM   17  C   UNL     1      -7.830   8.888  63.603  1.00  0.00    -0.141 C  
HETATM   18  C   UNL     1      -6.312   8.937  63.807  1.00  0.00    -0.087 C  
HETATM   19  C   UNL     1      -8.536   9.916  64.487  1.00  0.00    -0.175 C  
HETATM   20  C   UNL     1      -6.702   9.864  66.130  1.00  0.00    -0.092 C  
HETATM   21  C   UNL     1      -5.928   8.847  65.287  1.00  0.00    -0.052 C  
ENDBRANCH  14  16
BRANCH  12  22
HETATM   22  N   UNL     1      -8.977  14.453  67.070  1.00  0.00    -0.230 NA 
BRANCH  22  23
HETATM   23  C   UNL     1      -7.605  14.754  67.496  1.00  0.00    -0.193 C  
BRANCH  23  24
HETATM   24  C   UNL     1      -7.472  14.982  69.013  1.00  0.00    -0.156 C  
HETATM   25  O   UNL     1      -7.004  13.812  69.682  1.00  0.00    -0.308 OA 
HETATM   26  H   UNL     1      -6.922  13.953  70.618  1.00  0.00     0.000 HD 
ENDBRANCH  23  24
ENDBRANCH  22  23
BRANCH  22  27
HETATM   27  C   UNL     1      -9.517  15.109  65.877  1.00  0.00    -0.299 C  
BRANCH  27  28
HETATM   28  C   UNL     1     -10.875  15.777  66.161  1.00  0.00    -0.240 C  
HETATM   29  O   UNL     1     -10.936  16.292  67.493  1.00  0.00    -0.296 OA 
HETATM   30  H   UNL     1     -11.774  16.704  67.668  1.00  0.00     0.000 HD 
ENDBRANCH  27  28
ENDBRANCH  22  27
ENDBRANCH  12  22
BRANCH   7  31
HETATM   31  N   UNL     1     -11.902  12.192  69.884  1.00  0.00    -0.333 NA 
HETATM   32  C   UNL     1     -12.715  11.074  70.349  1.00  0.00    -0.218 C  
HETATM   33  C   UNL     1     -12.489  13.520  70.078  1.00  0.00    -0.167 C  
HETATM   34  C   UNL     1     -12.962  11.245  71.849  1.00  0.00    -0.471 C  
HETATM   35  C   UNL     1     -12.735  13.739  71.570  1.00  0.00    -0.432 C  
HETATM   36  C   UNL     1     -13.569  12.608  72.171  1.00  0.00    -0.510 C  
ENDBRANCH   7  31
ENDBRANCH   5   6
BRANCH   5  37
HETATM   37  C   UNL     1     -10.383   6.918  70.197  1.00  0.00    -0.199 C  
BRANCH  37  38
HETATM   38  C   UNL     1     -11.594   6.729  71.133  1.00  0.00    -0.329 C  
HETATM   39  O   UNL     1     -12.710   7.526  70.737  1.00  0.00    -0.557 OA 
HETATM   40  H   UNL     1     -13.456   7.408  71.313  1.00  0.00     0.000 HD 
ENDBRANCH  37  38
ENDBRANCH   5  37
ENDBRANCH   4   5
ENDBRANCH   3   4
TORSDOF 12
ENDMDL
MODEL       94
REMARK 921   NORMALIZED FREE ENERGY PREDICTED BY IDOCK:   -5.03 KCAL/MOL
REMARK 922        TOTAL FREE ENERGY PREDICTED BY IDOCK:   -9.47 KCAL/MOL
REMARK 923 INTER-LIGAND FREE ENERGY PREDICTED BY IDOCK:   -7.60 KCAL/MOL
REMARK 924 INTRA-LIGAND FREE ENERGY PREDICTED BY IDOCK:   -1.88 KCAL/MOL
REMARK 927      BINDING AFFINITY PREDICTED BY RF-SCORE:    0.00 PKD
ROOT
HETATM    1  O   UNL     1      -7.760   8.650  73.119  1.00  0.00    -0.373 OA 
HETATM    2  H   UNL     1      -7.220   9.319  73.524  1.00  0.00     0.000 HD 
HETATM    3  C   UNL     1      -7.313   8.333  71.801  1.00  0.00    -0.094 C  
ENDROOT
BRANCH   3   4
HETATM    4  C   UNL     1      -8.191   7.246  71.142  1.00  0.00    -0.107 C  
BRANCH   4   5
HETATM    5  N   UNL     1      -7.932   6.999  69.707  1.00  0.00    -0.121 NA 
BRANCH   5   6
HETATM    6  C   UNL     1      -8.468   7.935  68.840  1.00  0.00    -0.128 A  
HETATM    7  C   UNL     1     -11.184  10.363  68.635  1.00  0.00    -0.248 A  
HETATM    8  N   UNL     1     -11.623  11.331  67.793  1.00  0.00    -0.531 NA 
HETATM    9  N   UNL     1      -9.554   8.625  69.191  1.00  0.00    -0.161 NA 
HETATM   10  C   UNL     1     -10.040   9.589  68.362  1.00  0.00    -0.175 A  
HETATM   11  N   UNL     1      -7.859   8.145  67.680  1.00  0.00    -0.112 NA 
HETATM   12  C   UNL     1     -10.985  11.534  66.649  1.00  0.00    -0.296 A  
HETATM   13  C   UNL     1      -9.450   9.870  67.142  1.00  0.00    -0.158 A  
HETATM   14  C   UNL     1      -8.331   9.084  66.837  1.00  0.00    -0.119 A  
HETATM   15  N   UNL     1      -9.944  10.796  66.284  1.00  0.00    -0.215 NA 
BRANCH  14  16
HETATM   16  N   UNL     1      -7.673   9.175  65.616  1.00  0.00    -0.093 NA 
HETATM   17  C   UNL     1      -6.213  10.550  64.286  1.00  0.00     0.010 C  
HETATM   18  C   UNL     1      -6.698   9.815  63.032  1.00  0.00    -0.113 C  
HETATM   19  C   UNL     1      -6.296   9.647  65.517  1.00  0.00    -0.071 C  
HETATM   20  C   UNL     1      -8.112   8.324  64.511  1.00  0.00    -0.146 C  
HETATM   21  C   UNL     1      -8.073   9.174  63.237  1.00  0.00    -0.165 C  
ENDBRANCH  14  16
BRANCH  12  22
HETATM   22  N   UNL     1     -11.384  12.546  65.802  1.00  0.00    -0.320 NA 
BRANCH  22  23
HETATM   23  C   UNL     1     -12.002  12.147  64.533  1.00  0.00    -0.337 C  
BRANCH  23  24
HETATM   24  C   UNL     1     -11.044  12.237  63.331  1.00  0.00    -0.418 C  
HETATM   25  O   UNL     1      -9.694  12.439  63.748  1.00  0.00    -0.588 OA 
HETATM   26  H   UNL     1      -9.103  12.495  63.007  1.00  0.00     0.000 HD 
ENDBRANCH  23  24
ENDBRANCH  22  23
BRANCH  22  27
HETATM   27  C   UNL     1     -11.647  13.882  66.340  1.00  0.00    -0.367 C  
BRANCH  27  28
HETATM   28  C   UNL     1     -10.805  14.958  65.629  1.00  0.00    -0.341 C  
HETATM   29  O   UNL     1      -9.449  14.539  65.469  1.00  0.00    -0.524 OA 
HETATM   30  H   UNL     1      -8.930  15.203  65.030  1.00  0.00     0.000 HD 
ENDBRANCH  27  28
ENDBRANCH  22  27
ENDBRANCH  12  22
BRANCH   7  31
HETATM   31  N   UNL     1     -11.938  10.245  69.801  1.00  0.00    -0.160 NA 
HETATM   32  C   UNL     1     -12.251   8.963  70.422  1.00  0.00     0.289 C  
HETATM   33  C   UNL     1     -12.868  11.335  70.106  1.00  0.00     0.056 C  
HETATM   34  C   UNL     1     -12.249   9.147  71.941  1.00  0.00    -0.449 C  
HETATM   35  C   UNL     1     -12.882  11.565  71.616  1.00  0.00    -0.475 C  
HETATM   36  C   UNL     1     -13.184  10.273  72.376  1.00  0.00    -0.153 C  
ENDBRANCH   7  31
ENDBRANCH   5   6
BRANCH   5  37
HETATM   37  C   UNL     1      -7.900   5.600  69.263  1.00  0.00    -0.089 C  
BRANCH  37  38
HETATM   38  C   UNL     1      -9.006   4.748  69.919  1.00  0.00    -0.096 C  
HETATM   39  O   UNL     1     -10.280   4.956  69.308  1.00  0.00    -0.207 OA 
HETATM   40  H   UNL     1     -10.961   4.431  69.711  1.00  0.00     0.000 HD 
ENDBRANCH  37  38
ENDBRANCH   5  37
ENDBRANCH   4   5
ENDBRANCH   3   4
TORSDOF 12
ENDMDL
MODEL       95
REMARK 921   NORMALIZED FREE ENERGY PREDICTED BY IDOCK:   -5.02 KCAL/MOL
REMARK 922        TOTAL FREE ENERGY PREDICTED BY IDOCK:   -9.47 KCAL/MOL
REMARK 923 INTER-LIGAND FREE ENERGY PREDICTED BY IDOCK:   -8.20 KCAL/MOL
REMARK 924 INTRA-LIGAND FREE ENERGY PREDICTED BY IDOCK:   -1.27 KCAL/MOL
REMARK 927      BINDING AFFINITY PREDICTED BY RF-SCORE:    0.00 PKD
ROOT
HETATM    1  O   UNL     1      -7.757   4.546  70.380  1.00  0.00    -0.052 OA 
HETATM    2  H   UNL     1      -7.691   3.744  70.887  1.00  0.00     0.000 HD 
HETATM    3  C   UNL     1      -9.082   5.076  70.398  1.00  0.00    -0.129 C  
ENDROOT
BRANCH   3   4
HETATM    4  C   UNL     1      -9.190   6.380  69.574  1.00  0.00    -0.144 C  
BRANCH   4   5
HETATM    5  N   UNL     1      -9.310   7.625  70.362  1.00  0.00    -0.160 NA 
BRANCH   5   6
HETATM    6  C   UNL     1      -9.781   8.723  69.664  1.00  0.00    -0.173 A  
HETATM    7  C   UNL     1      -9.415  10.387  66.438  1.00  0.00    -0.169 A  
HETATM    8  N   UNL     1      -9.967  11.421  65.756  1.00  0.00    -0.220 NA 
HETATM    9  N   UNL     1      -9.324   8.981  68.439  1.00  0.00    -0.139 NA 
HETATM   10  C   UNL     1      -9.836  10.026  67.732  1.00  0.00    -0.157 A  
HETATM   11  N   UNL     1     -10.710   9.482  70.231  1.00  0.00    -0.243 NA 
HETATM   12  C   UNL     1     -10.907  12.152  66.339  1.00  0.00    -0.271 A  
HETATM   13  C   UNL     1     -10.814  10.853  68.255  1.00  0.00    -0.225 A  
HETATM   14  C   UNL     1     -11.221  10.531  69.556  1.00  0.00    -0.271 A  
HETATM   15  N   UNL     1     -11.306  11.923  67.583  1.00  0.00    -0.282 NA 
BRANCH  14  16
HETATM   16  N   UNL     1     -12.130  11.310  70.262  1.00  0.00    -0.349 NA 
HETATM   17  C   UNL     1     -12.500  13.485  71.222  1.00  0.00    -0.388 C  
HETATM   18  C   UNL     1     -13.575  12.877  72.131  1.00  0.00    -0.589 C  
HETATM   19  C   UNL     1     -12.384  12.704  69.913  1.00  0.00    -0.057 C  
HETATM   20  C   UNL     1     -13.216  10.649  70.985  1.00  0.00    -0.180 C  
HETATM   21  C   UNL     1     -13.379  11.371  72.325  1.00  0.00    -0.080 C  
ENDBRANCH  14  16
BRANCH  12  22
HETATM   22  N   UNL     1     -11.517  13.176  65.646  1.00  0.00    -0.314 NA 
BRANCH  22  23
HETATM   23  C   UNL     1     -12.123  14.250  66.441  1.00  0.00    -0.419 C  
BRANCH  23  24
HETATM   24  C   UNL     1     -11.110  15.309  66.911  1.00  0.00    -0.288 C  
HETATM   25  O   UNL     1     -10.301  14.824  67.982  1.00  0.00    -0.233 OA 
HETATM   26  H   UNL     1      -9.675  15.477  68.273  1.00  0.00     0.000 HD 
ENDBRANCH  23  24
ENDBRANCH  22  23
BRANCH  22  27
HETATM   27  C   UNL     1     -11.141  13.438  64.255  1.00  0.00    -0.373 C  
BRANCH  27  28
HETATM   28  C   UNL     1     -12.126  12.786  63.267  1.00  0.00    -0.439 C  
HETATM   29  O   UNL     1     -13.215  12.161  63.949  1.00  0.00    -0.748 OA 
HETATM   30  H   UNL     1     -13.822  11.759  63.339  1.00  0.00     0.000 HD 
ENDBRANCH  27  28
ENDBRANCH  22  27
ENDBRANCH  12  22
BRANCH   7  31
HETATM   31  N   UNL     1      -8.436   9.698  65.722  1.00  0.00    -0.130 NA 
HETATM   32  C   UNL     1      -7.096  10.225  65.493  1.00  0.00    -0.142 C  
HETATM   33  C   UNL     1      -8.898   8.708  64.747  1.00  0.00     0.008 C  
HETATM   34  C   UNL     1      -6.105   9.061  65.526  1.00  0.00    -0.055 C  
HETATM   35  C   UNL     1      -7.943   7.516  64.762  1.00  0.00    -0.132 C  
HETATM   36  C   UNL     1      -6.495   7.957  64.547  1.00  0.00    -0.056 C  
ENDBRANCH   7  31
ENDBRANCH   5   6
BRANCH   5  37
HETATM   37  C   UNL     1      -8.299   7.860  71.400  1.00  0.00    -0.108 C  
BRANCH  37  38
HETATM   38  C   UNL     1      -8.900   7.850  72.821  1.00  0.00    -0.189 C  
HETATM   39  O   UNL     1     -10.316   8.029  72.808  1.00  0.00    -0.298 OA 
HETATM   40  H   UNL     1     -10.686   8.022  73.683  1.00  0.00     0.000 HD 
ENDBRANCH  37  38
ENDBRANCH   5  37
ENDBRANCH   4   5
ENDBRANCH   3   4
TORSDOF 12
ENDMDL
MODEL       96
REMARK 921   NORMALIZED FREE ENERGY PREDICTED BY IDOCK:   -5.02 KCAL/MOL
REMARK 922        TOTAL FREE ENERGY PREDICTED BY IDOCK:   -9.47 KCAL/MOL
REMARK 923 INTER-LIGAND FREE ENERGY PREDICTED BY IDOCK:   -8.69 KCAL/MOL
REMARK 924 INTRA-LIGAND FREE ENERGY PREDICTED BY IDOCK:   -0.77 KCAL/MOL
REMARK 927      BINDING AFFINITY PREDICTED BY RF-SCORE:    0.00 PKD
ROOT
HETATM    1  O   UNL     1     -10.493  20.094  69.632  1.00  0.00    -0.576 OA 
HETATM    2  H   UNL     1     -10.016  20.648  70.238  1.00  0.00     0.000 HD 
HETATM    3  C   UNL     1      -9.625  19.210  68.924  1.00  0.00    -0.390 C  
ENDROOT
BRANCH   3   4
HETATM    4  C   UNL     1     -10.401  18.308  67.938  1.00  0.00    -0.399 C  
BRANCH   4   5
HETATM    5  N   UNL     1      -9.613  17.772  66.807  1.00  0.00    -0.288 NA 
BRANCH   5   6
HETATM    6  C   UNL     1      -9.464  16.397  66.789  1.00  0.00    -0.247 A  
HETATM    7  C   UNL     1      -7.546  13.744  68.401  1.00  0.00    -0.135 A  
HETATM    8  N   UNL     1      -7.494  12.389  68.415  1.00  0.00    -0.117 NA 
HETATM    9  N   UNL     1      -8.566  15.812  67.582  1.00  0.00    -0.161 NA 
HETATM   10  C   UNL     1      -8.467  14.455  67.607  1.00  0.00    -0.185 A  
HETATM   11  N   UNL     1     -10.252  15.685  65.993  1.00  0.00    -0.312 NA 
HETATM   12  C   UNL     1      -8.306  11.701  67.624  1.00  0.00    -0.142 A  
HETATM   13  C   UNL     1      -9.263  13.649  66.813  1.00  0.00    -0.241 A  
HETATM   14  C   UNL     1     -10.161  14.340  65.990  1.00  0.00    -0.315 A  
HETATM   15  N   UNL     1      -9.149  12.298  66.792  1.00  0.00    -0.208 NA 
BRANCH  14  16
HETATM   16  N   UNL     1     -10.972  13.689  65.068  1.00  0.00    -0.328 NA 
HETATM   17  C   UNL     1     -13.159  12.747  64.718  1.00  0.00    -0.022 C  
HETATM   18  C   UNL     1     -12.590  11.910  63.567  1.00  0.00    -0.579 C  
HETATM   19  C   UNL     1     -12.375  14.049  64.887  1.00  0.00    -0.427 C  
HETATM   20  C   UNL     1     -10.351  13.039  63.915  1.00  0.00    -0.127 C  
HETATM   21  C   UNL     1     -11.077  11.709  63.695  1.00  0.00    -0.506 C  
ENDBRANCH  14  16
BRANCH  12  22
HETATM   22  N   UNL     1      -8.304  10.323  67.661  1.00  0.00    -0.114 NA 
BRANCH  22  23
HETATM   23  C   UNL     1      -8.918   9.688  68.832  1.00  0.00    -0.144 C  
BRANCH  23  24
HETATM   24  C   UNL     1     -10.234   8.957  68.513  1.00  0.00    -0.197 C  
HETATM   25  O   UNL     1     -11.319   9.871  68.358  1.00  0.00    -0.508 OA 
HETATM   26  H   UNL     1     -12.132   9.419  68.161  1.00  0.00     0.000 HD 
ENDBRANCH  23  24
ENDBRANCH  22  23
BRANCH  22  27
HETATM   27  C   UNL     1      -8.179   9.562  66.416  1.00  0.00    -0.115 C  
BRANCH  27  28
HETATM   28  C   UNL     1      -6.891   9.925  65.654  1.00  0.00    -0.106 C  
HETATM   29  O   UNL     1      -7.008  11.191  65.002  1.00  0.00    -0.189 OA 
HETATM   30  H   UNL     1      -6.213  11.414  64.532  1.00  0.00     0.000 HD 
ENDBRANCH  27  28
ENDBRANCH  22  27
ENDBRANCH  12  22
BRANCH   7  31
HETATM   31  N   UNL     1      -6.642  14.352  69.271  1.00  0.00    -0.115 NA 
HETATM   32  C   UNL     1      -5.884  15.550  68.926  1.00  0.00    -0.102 C  
HETATM   33  C   UNL     1      -6.046  13.508  70.309  1.00  0.00    -0.110 C  
HETATM   34  C   UNL     1      -5.739  16.411  70.181  1.00  0.00    -0.187 C  
HETATM   35  C   UNL     1      -5.901  14.327  71.590  1.00  0.00    -0.111 C  
HETATM   36  C   UNL     1      -5.131  15.624  71.340  1.00  0.00    -0.118 C  
ENDBRANCH   7  31
ENDBRANCH   5   6
BRANCH   5  37
HETATM   37  C   UNL     1      -8.487  18.585  66.331  1.00  0.00    -0.258 C  
BRANCH  37  38
HETATM   38  C   UNL     1      -7.280  17.726  65.901  1.00  0.00    -0.225 C  
HETATM   39  O   UNL     1      -6.387  18.440  65.048  1.00  0.00    -0.393 OA 
HETATM   40  H   UNL     1      -5.644  17.911  64.784  1.00  0.00     0.000 HD 
ENDBRANCH  37  38
ENDBRANCH   5  37
ENDBRANCH   4   5
ENDBRANCH   3   4
TORSDOF 12
ENDMDL
MODEL       97
REMARK 921   NORMALIZED FREE ENERGY PREDICTED BY IDOCK:   -5.01 KCAL/MOL
REMARK 922        TOTAL FREE ENERGY PREDICTED BY IDOCK:   -9.44 KCAL/MOL
REMARK 923 INTER-LIGAND FREE ENERGY PREDICTED BY IDOCK:   -8.50 KCAL/MOL
REMARK 924 INTRA-LIGAND FREE ENERGY PREDICTED BY IDOCK:   -0.94 KCAL/MOL
REMARK 927      BINDING AFFINITY PREDICTED BY RF-SCORE:    0.00 PKD
ROOT
HETATM    1  O   UNL     1      -7.213   5.714  66.545  1.00  0.00    -0.074 OA 
HETATM    2  H   UNL     1      -6.653   5.283  67.181  1.00  0.00     0.000 HD 
HETATM    3  C   UNL     1      -8.102   6.643  67.163  1.00  0.00    -0.113 C  
ENDROOT
BRANCH   3   4
HETATM    4  C   UNL     1      -9.011   7.345  66.130  1.00  0.00    -0.149 C  
BRANCH   4   5
HETATM    5  N   UNL     1      -8.660   8.746  65.817  1.00  0.00    -0.153 NA 
BRANCH   5   6
HETATM    6  C   UNL     1      -9.406   9.705  66.479  1.00  0.00    -0.165 A  
HETATM    7  C   UNL     1     -11.103  10.259  69.661  1.00  0.00    -0.274 A  
HETATM    8  N   UNL     1     -11.753  11.257  70.309  1.00  0.00    -0.331 NA 
HETATM    9  N   UNL     1      -9.878   9.456  67.701  1.00  0.00    -0.166 NA 
HETATM   10  C   UNL     1     -10.557  10.425  68.374  1.00  0.00    -0.208 A  
HETATM   11  N   UNL     1      -9.607  10.874  65.884  1.00  0.00    -0.206 NA 
HETATM   12  C   UNL     1     -11.924  12.422  69.698  1.00  0.00    -0.274 A  
HETATM   13  C   UNL     1     -10.795  11.671  67.820  1.00  0.00    -0.217 A  
HETATM   14  C   UNL     1     -10.289  11.843  66.525  1.00  0.00    -0.216 A  
HETATM   15  N   UNL     1     -11.506  12.634  68.458  1.00  0.00    -0.286 NA 
BRANCH  14  16
HETATM   16  N   UNL     1     -10.515  13.001  65.790  1.00  0.00    -0.276 NA 
HETATM   17  C   UNL     1     -10.445  15.405  65.870  1.00  0.00    -0.354 C  
HETATM   18  C   UNL     1     -11.411  15.451  64.680  1.00  0.00    -0.361 C  
HETATM   19  C   UNL     1      -9.596  14.134  65.838  1.00  0.00    -0.178 C  
HETATM   20  C   UNL     1     -11.333  12.922  64.580  1.00  0.00    -0.323 C  
HETATM   21  C   UNL     1     -12.230  14.163  64.555  1.00  0.00    -0.468 C  
ENDBRANCH  14  16
BRANCH  12  22
HETATM   22  N   UNL     1     -12.537  13.466  70.358  1.00  0.00    -0.220 NA 
BRANCH  22  23
HETATM   23  C   UNL     1     -13.781  13.162  71.074  1.00  0.00     0.713 C  
BRANCH  23  24
HETATM   24  C   UNL     1     -13.552  12.488  72.439  1.00  0.00    -0.250 C  
HETATM   25  O   UNL     1     -13.806  11.085  72.382  1.00  0.00    -0.361 OA 
HETATM   26  H   UNL     1     -13.665  10.669  73.225  1.00  0.00     0.000 HD 
ENDBRANCH  23  24
ENDBRANCH  22  23
BRANCH  22  27
HETATM   27  C   UNL     1     -11.754  14.641  70.746  1.00  0.00    -0.279 C  
BRANCH  27  28
HETATM   28  C   UNL     1     -12.635  15.721  71.402  1.00  0.00    -0.455 C  
HETATM   29  O   UNL     1     -11.925  16.428  72.420  1.00  0.00    -0.530 OA 
HETATM   30  H   UNL     1     -12.469  17.094  72.824  1.00  0.00     0.000 HD 
ENDBRANCH  27  28
ENDBRANCH  22  27
ENDBRANCH  12  22
BRANCH   7  31
HETATM   31  N   UNL     1     -10.991   9.084  70.404  1.00  0.00    -0.241 NA 
HETATM   32  C   UNL     1     -10.313   9.017  71.693  1.00  0.00    -0.350 C  
HETATM   33  C   UNL     1     -11.067   7.821  69.667  1.00  0.00    -0.042 C  
HETATM   34  C   UNL     1     -11.058   8.020  72.582  1.00  0.00    -0.453 C  
HETATM   35  C   UNL     1     -11.823   6.799  70.514  1.00  0.00    -0.418 C  
HETATM   36  C   UNL     1     -11.205   6.659  71.905  1.00  0.00    -0.302 C  
ENDBRANCH   7  31
ENDBRANCH   5   6
BRANCH   5  37
HETATM   37  C   UNL     1      -8.241   9.040  64.440  1.00  0.00    -0.165 C  
BRANCH  37  38
HETATM   38  C   UNL     1      -7.996   7.762  63.613  1.00  0.00    -0.103 C  
HETATM   39  O   UNL     1      -8.921   7.634  62.533  1.00  0.00    -0.255 OA 
HETATM   40  H   UNL     1      -8.769   6.847  62.024  1.00  0.00     0.000 HD 
ENDBRANCH  37  38
ENDBRANCH   5  37
ENDBRANCH   4   5
ENDBRANCH   3   4
TORSDOF 12
ENDMDL
MODEL       98
REMARK 921   NORMALIZED FREE ENERGY PREDICTED BY IDOCK:   -4.98 KCAL/MOL
REMARK 922        TOTAL FREE ENERGY PREDICTED BY IDOCK:   -9.39 KCAL/MOL
REMARK 923 INTER-LIGAND FREE ENERGY PREDICTED BY IDOCK:   -7.03 KCAL/MOL
REMARK 924 INTRA-LIGAND FREE ENERGY PREDICTED BY IDOCK:   -2.36 KCAL/MOL
REMARK 927      BINDING AFFINITY PREDICTED BY RF-SCORE:    0.00 PKD
ROOT
HETATM    1  O   UNL     1      -9.648   6.049  72.886  1.00  0.00    -0.155 OA 
HETATM    2  H   UNL     1      -9.556   5.322  73.491  1.00  0.00     0.000 HD 
HETATM    3  C   UNL     1      -9.593   7.308  73.555  1.00  0.00    -0.247 C  
ENDROOT
BRANCH   3   4
HETATM    4  C   UNL     1      -9.743   8.490  72.570  1.00  0.00    -0.256 C  
BRANCH   4   5
HETATM    5  N   UNL     1     -10.792   8.335  71.541  1.00  0.00    -0.238 NA 
BRANCH   5   6
HETATM    6  C   UNL     1     -10.332   8.144  70.250  1.00  0.00    -0.209 A  
HETATM    7  C   UNL     1      -9.745   9.994  67.161  1.00  0.00    -0.174 A  
HETATM    8  N   UNL     1      -9.205   9.785  65.935  1.00  0.00    -0.172 NA 
HETATM    9  N   UNL     1     -10.313   9.163  69.391  1.00  0.00    -0.210 NA 
HETATM   10  C   UNL     1      -9.801   8.986  68.142  1.00  0.00    -0.166 A  
HETATM   11  N   UNL     1      -9.888   6.941  69.908  1.00  0.00    -0.165 NA 
HETATM   12  C   UNL     1      -8.751   8.578  65.624  1.00  0.00    -0.181 A  
HETATM   13  C   UNL     1      -9.310   7.763  67.720  1.00  0.00    -0.143 A  
HETATM   14  C   UNL     1      -9.390   6.739  68.672  1.00  0.00    -0.131 A  
HETATM   15  N   UNL     1      -8.836   7.557  66.466  1.00  0.00    -0.141 NA 
BRANCH  14  16
HETATM   16  N   UNL     1      -9.023   5.429  68.383  1.00  0.00    -0.107 NA 
HETATM   17  C   UNL     1      -7.150   3.978  67.964  1.00  0.00    -0.059 C  
HETATM   18  C   UNL     1      -8.099   2.988  67.278  1.00  0.00    -0.078 C  
HETATM   19  C   UNL     1      -7.884   4.789  69.032  1.00  0.00    -0.072 C  
HETATM   20  C   UNL     1     -10.035   4.508  67.868  1.00  0.00    -0.053 C  
HETATM   21  C   UNL     1      -9.373   3.670  66.771  1.00  0.00    -0.210 C  
ENDBRANCH  14  16
BRANCH  12  22
HETATM   22  N   UNL     1      -8.153   8.356  64.403  1.00  0.00    -0.158 NA 
BRANCH  22  23
HETATM   23  C   UNL     1      -7.302   7.166  64.284  1.00  0.00    -0.086 C  
BRANCH  23  24
HETATM   24  C   UNL     1      -7.871   6.100  63.330  1.00  0.00    -0.107 C  
HETATM   25  O   UNL     1      -9.003   5.440  63.895  1.00  0.00    -0.350 OA 
HETATM   26  H   UNL     1      -9.354   4.782  63.307  1.00  0.00     0.000 HD 
ENDBRANCH  23  24
ENDBRANCH  22  23
BRANCH  22  27
HETATM   27  C   UNL     1      -8.724   8.953  63.193  1.00  0.00    -0.045 C  
BRANCH  27  28
HETATM   28  C   UNL     1      -7.867  10.124  62.677  1.00  0.00    -0.139 C  
HETATM   29  O   UNL     1      -7.718  11.140  63.671  1.00  0.00    -0.129 OA 
HETATM   30  H   UNL     1      -7.190  11.862  63.352  1.00  0.00     0.000 HD 
ENDBRANCH  27  28
ENDBRANCH  22  27
ENDBRANCH  12  22
BRANCH   7  31
HETATM   31  N   UNL     1     -10.190  11.299  67.365  1.00  0.00    -0.184 NA 
HETATM   32  C   UNL     1     -11.584  11.635  67.632  1.00  0.00    -0.279 C  
HETATM   33  C   UNL     1      -9.384  12.376  66.785  1.00  0.00    -0.220 C  
HETATM   34  C   UNL     1     -11.622  12.807  68.613  1.00  0.00    -0.352 C  
HETATM   35  C   UNL     1      -9.380  13.563  67.746  1.00  0.00    -0.213 C  
HETATM   36  C   UNL     1     -10.801  13.992  68.111  1.00  0.00    -0.260 C  
ENDBRANCH   7  31
ENDBRANCH   5   6
BRANCH   5  37
HETATM   37  C   UNL     1     -12.023   9.117  71.716  1.00  0.00    -0.379 C  
BRANCH  37  38
HETATM   38  C   UNL     1     -13.259   8.226  71.953  1.00  0.00    -0.344 C  
HETATM   39  O   UNL     1     -14.241   8.383  70.930  1.00  0.00    -0.618 OA 
HETATM   40  H   UNL     1     -15.002   7.834  71.076  1.00  0.00     0.000 HD 
ENDBRANCH  37  38
ENDBRANCH   5  37
ENDBRANCH   4   5
ENDBRANCH   3   4
TORSDOF 12
ENDMDL
MODEL       99
REMARK 921   NORMALIZED FREE ENERGY PREDICTED BY IDOCK:   -4.95 KCAL/MOL
REMARK 922        TOTAL FREE ENERGY PREDICTED BY IDOCK:   -9.34 KCAL/MOL
REMARK 923 INTER-LIGAND FREE ENERGY PREDICTED BY IDOCK:   -7.91 KCAL/MOL
REMARK 924 INTRA-LIGAND FREE ENERGY PREDICTED BY IDOCK:   -1.43 KCAL/MOL
REMARK 927      BINDING AFFINITY PREDICTED BY RF-SCORE:    0.00 PKD
ROOT
HETATM    1  O   UNL     1      -9.695   4.422  70.579  1.00  0.00    -0.185 OA 
HETATM    2  H   UNL     1     -10.053   3.898  71.286  1.00  0.00     0.000 HD 
HETATM    3  C   UNL     1      -8.295   4.649  70.742  1.00  0.00    -0.092 C  
ENDROOT
BRANCH   3   4
HETATM    4  C   UNL     1      -7.713   5.502  69.592  1.00  0.00    -0.078 C  
BRANCH   4   5
HETATM    5  N   UNL     1      -7.523   6.936  69.894  1.00  0.00    -0.092 NA 
BRANCH   5   6
HETATM    6  C   UNL     1      -8.159   7.812  69.033  1.00  0.00    -0.125 A  
HETATM    7  C   UNL     1     -11.028  10.064  68.909  1.00  0.00    -0.207 A  
HETATM    8  N   UNL     1     -11.569  10.979  68.067  1.00  0.00    -0.522 NA 
HETATM    9  N   UNL     1      -9.266   8.445  69.422  1.00  0.00    -0.154 NA 
HETATM   10  C   UNL     1      -9.853   9.353  68.596  1.00  0.00    -0.163 A  
HETATM   11  N   UNL     1      -7.625   8.024  67.837  1.00  0.00    -0.110 NA 
HETATM   12  C   UNL     1     -11.005  11.185  66.885  1.00  0.00    -0.273 A  
HETATM   13  C   UNL     1      -9.346   9.632  67.339  1.00  0.00    -0.134 A  
HETATM   14  C   UNL     1      -8.198   8.907  66.995  1.00  0.00    -0.106 A  
HETATM   15  N   UNL     1      -9.941  10.501  66.484  1.00  0.00    -0.207 NA 
BRANCH  14  16
HETATM   16  N   UNL     1      -7.611   9.002  65.739  1.00  0.00    -0.090 NA 
HETATM   17  C   UNL     1      -6.276  10.406  64.312  1.00  0.00    -0.063 C  
HETATM   18  C   UNL     1      -6.801   9.634  63.096  1.00  0.00    -0.108 C  
HETATM   19  C   UNL     1      -6.259   9.521  65.558  1.00  0.00    -0.066 C  
HETATM   20  C   UNL     1      -8.078   8.118  64.671  1.00  0.00    -0.148 C  
HETATM   21  C   UNL     1      -8.140   8.948  63.386  1.00  0.00    -0.167 C  
ENDBRANCH  14  16
BRANCH  12  22
HETATM   22  N   UNL     1     -11.509  12.146  66.035  1.00  0.00    -0.363 NA 
BRANCH  22  23
HETATM   23  C   UNL     1     -11.272  13.548  66.399  1.00  0.00    -0.307 C  
BRANCH  23  24
HETATM   24  C   UNL     1      -9.850  13.810  66.928  1.00  0.00    -0.264 C  
HETATM   25  O   UNL     1      -9.095  14.619  66.027  1.00  0.00    -0.498 OA 
HETATM   26  H   UNL     1      -8.217  14.780  66.353  1.00  0.00     0.000 HD 
ENDBRANCH  23  24
ENDBRANCH  22  23
BRANCH  22  27
HETATM   27  C   UNL     1     -11.794  11.806  64.639  1.00  0.00    -0.124 C  
BRANCH  27  28
HETATM   28  C   UNL     1     -10.889  12.586  63.667  1.00  0.00    -0.441 C  
HETATM   29  O   UNL     1      -9.559  12.064  63.657  1.00  0.00    -0.549 OA 
HETATM   30  H   UNL     1      -9.002  12.546  63.058  1.00  0.00     0.000 HD 
ENDBRANCH  27  28
ENDBRANCH  22  27
ENDBRANCH  12  22
BRANCH   7  31
HETATM   31  N   UNL     1     -11.712   9.935  70.116  1.00  0.00    -0.213 NA 
HETATM   32  C   UNL     1     -12.045  11.069  70.970  1.00  0.00    -0.301 C  
HETATM   33  C   UNL     1     -11.624   8.640  70.796  1.00  0.00    -0.242 C  
HETATM   34  C   UNL     1     -13.405  10.805  71.619  1.00  0.00    -0.390 C  
HETATM   35  C   UNL     1     -12.972   8.328  71.443  1.00  0.00    -0.248 C  
HETATM   36  C   UNL     1     -13.432   9.467  72.354  1.00  0.00    -0.506 C  
ENDBRANCH   7  31
ENDBRANCH   5   6
BRANCH   5  37
HETATM   37  C   UNL     1      -6.218   7.340  70.434  1.00  0.00    -0.034 C  
BRANCH  37  38
HETATM   38  C   UNL     1      -6.309   7.825  71.895  1.00  0.00    -0.040 C  
HETATM   39  O   UNL     1      -6.820   9.154  71.991  1.00  0.00    -0.301 OA 
HETATM   40  H   UNL     1      -6.876   9.452  72.891  1.00  0.00     0.000 HD 
ENDBRANCH  37  38
ENDBRANCH   5  37
ENDBRANCH   4   5
ENDBRANCH   3   4
TORSDOF 12
ENDMDL
MODEL      100
REMARK 921   NORMALIZED FREE ENERGY PREDICTED BY IDOCK:   -4.95 KCAL/MOL
REMARK 922        TOTAL FREE ENERGY PREDICTED BY IDOCK:   -9.33 KCAL/MOL
REMARK 923 INTER-LIGAND FREE ENERGY PREDICTED BY IDOCK:   -8.64 KCAL/MOL
REMARK 924 INTRA-LIGAND FREE ENERGY PREDICTED BY IDOCK:   -0.69 KCAL/MOL
REMARK 927      BINDING AFFINITY PREDICTED BY RF-SCORE:    0.00 PKD
ROOT
HETATM    1  O   UNL     1      -9.978   6.077  66.916  1.00  0.00    -0.146 OA 
HETATM    2  H   UNL     1     -10.250   6.067  66.005  1.00  0.00     0.000 HD 
HETATM    3  C   UNL     1     -11.048   6.446  67.785  1.00  0.00    -0.276 C  
ENDROOT
BRANCH   3   4
HETATM    4  C   UNL     1     -10.606   6.463  69.266  1.00  0.00    -0.259 C  
BRANCH   4   5
HETATM    5  N   UNL     1      -9.631   7.513  69.630  1.00  0.00    -0.160 NA 
BRANCH   5   6
HETATM    6  C   UNL     1      -9.885   8.766  69.101  1.00  0.00    -0.181 A  
HETATM    7  C   UNL     1      -8.937  10.888  66.288  1.00  0.00    -0.176 A  
HETATM    8  N   UNL     1      -9.280  12.086  65.755  1.00  0.00    -0.127 NA 
HETATM    9  N   UNL     1      -9.254   9.165  67.997  1.00  0.00    -0.134 NA 
HETATM   10  C   UNL     1      -9.553  10.372  67.445  1.00  0.00    -0.154 A  
HETATM   11  N   UNL     1     -10.786   9.534  69.699  1.00  0.00    -0.236 NA 
HETATM   12  C   UNL     1     -10.198  12.827  66.363  1.00  0.00    -0.253 A  
HETATM   13  C   UNL     1     -10.490  11.221  68.007  1.00  0.00    -0.188 A  
HETATM   14  C   UNL     1     -11.088  10.741  69.179  1.00  0.00    -0.249 A  
HETATM   15  N   UNL     1     -10.771  12.446  67.497  1.00  0.00    -0.224 NA 
BRANCH  14  16
HETATM   16  N   UNL     1     -11.985  11.502  69.920  1.00  0.00    -0.336 NA 
HETATM   17  C   UNL     1     -12.346  13.661  70.920  1.00  0.00    -0.450 C  
HETATM   18  C   UNL     1     -13.393  13.032  71.847  1.00  0.00    -0.539 C  
HETATM   19  C   UNL     1     -12.258  12.899  69.597  1.00  0.00    -0.141 C  
HETATM   20  C   UNL     1     -13.047  10.823  70.660  1.00  0.00    -0.128 C  
HETATM   21  C   UNL     1     -13.180  11.525  72.015  1.00  0.00    -0.443 C  
ENDBRANCH  14  16
BRANCH  12  22
HETATM   22  N   UNL     1     -10.598  14.024  65.810  1.00  0.00    -0.290 NA 
BRANCH  22  23
HETATM   23  C   UNL     1     -11.771  13.992  64.930  1.00  0.00    -0.380 C  
BRANCH  23  24
HETATM   24  C   UNL     1     -11.762  12.812  63.941  1.00  0.00    -0.459 C  
HETATM   25  O   UNL     1     -13.065  12.251  63.780  1.00  0.00    -0.780 OA 
HETATM   26  H   UNL     1     -13.059  11.523  63.170  1.00  0.00     0.000 HD 
ENDBRANCH  23  24
ENDBRANCH  22  23
BRANCH  22  27
HETATM   27  C   UNL     1     -10.216  15.285  66.451  1.00  0.00    -0.277 C  
BRANCH  27  28
HETATM   28  C   UNL     1      -9.058  15.974  65.706  1.00  0.00    -0.133 C  
HETATM   29  O   UNL     1      -8.966  17.358  66.049  1.00  0.00    -0.493 OA 
HETATM   30  H   UNL     1      -8.252  17.783  65.589  1.00  0.00     0.000 HD 
ENDBRANCH  27  28
ENDBRANCH  22  27
ENDBRANCH  12  22
BRANCH   7  31
HETATM   31  N   UNL     1      -7.961  10.207  65.563  1.00  0.00    -0.140 NA 
HETATM   32  C   UNL     1      -6.539  10.269  65.883  1.00  0.00    -0.113 C  
HETATM   33  C   UNL     1      -8.278   9.870  64.173  1.00  0.00    -0.159 C  
HETATM   34  C   UNL     1      -5.917   8.902  65.595  1.00  0.00    -0.051 C  
HETATM   35  C   UNL     1      -7.689   8.498  63.849  1.00  0.00    -0.141 C  
HETATM   36  C   UNL     1      -6.194   8.443  64.165  1.00  0.00    -0.067 C  
ENDBRANCH   7  31
ENDBRANCH   5   6
BRANCH   5  37
HETATM   37  C   UNL     1      -8.227   7.104  69.767  1.00  0.00    -0.131 C  
BRANCH  37  38
HETATM   38  C   UNL     1      -8.052   5.906  70.722  1.00  0.00    -0.119 C  
HETATM   39  O   UNL     1      -8.347   6.248  72.076  1.00  0.00    -0.110 OA 
HETATM   40  H   UNL     1      -8.240   5.510  72.663  1.00  0.00     0.000 HD 
ENDBRANCH  37  38
ENDBRANCH   5  37
ENDBRANCH   4   5
ENDBRANCH   3   4
TORSDOF 12
ENDMDL
MODEL      101
REMARK 921   NORMALIZED FREE ENERGY PREDICTED BY IDOCK:   -4.93 KCAL/MOL
REMARK 922        TOTAL FREE ENERGY PREDICTED BY IDOCK:   -9.30 KCAL/MOL
REMARK 923 INTER-LIGAND FREE ENERGY PREDICTED BY IDOCK:   -9.07 KCAL/MOL
REMARK 924 INTRA-LIGAND FREE ENERGY PREDICTED BY IDOCK:   -0.24 KCAL/MOL
REMARK 927      BINDING AFFINITY PREDICTED BY RF-SCORE:    0.00 PKD
ROOT
HETATM    1  O   UNL     1     -12.100  11.705  63.178  1.00  0.00    -0.905 OA 
HETATM    2  H   UNL     1     -12.517  12.513  62.901  1.00  0.00     0.000 HD 
HETATM    3  C   UNL     1     -11.658  11.772  64.533  1.00  0.00    -0.223 C  
ENDROOT
BRANCH   3   4
HETATM    4  C   UNL     1     -10.979  10.458  64.982  1.00  0.00     0.679 C  
BRANCH   4   5
HETATM    5  N   UNL     1      -9.939  10.601  66.023  1.00  0.00    -0.229 NA 
BRANCH   5   6
HETATM    6  C   UNL     1     -10.321  11.307  67.149  1.00  0.00    -0.209 A  
HETATM    7  C   UNL     1     -10.417  14.717  68.445  1.00  0.00    -0.243 A  
HETATM    8  N   UNL     1     -10.885  15.382  69.530  1.00  0.00    -0.248 NA 
HETATM    9  N   UNL     1     -10.137  12.626  67.204  1.00  0.00    -0.221 NA 
HETATM   10  C   UNL     1     -10.572  13.326  68.287  1.00  0.00    -0.251 A  
HETATM   11  N   UNL     1     -10.897  10.647  68.146  1.00  0.00    -0.224 NA 
HETATM   12  C   UNL     1     -11.474  14.700  70.503  1.00  0.00    -0.220 A  
HETATM   13  C   UNL     1     -11.191  12.706  69.358  1.00  0.00    -0.139 A  
HETATM   14  C   UNL     1     -11.323  11.317  69.235  1.00  0.00    -0.287 A  
HETATM   15  N   UNL     1     -11.592  13.379  70.465  1.00  0.00    -0.014 NA 
BRANCH  14  16
HETATM   16  N   UNL     1     -11.841  10.528  70.256  1.00  0.00    -0.303 NA 
HETATM   17  C   UNL     1     -11.563   8.459  71.452  1.00  0.00    -0.332 C  
HETATM   18  C   UNL     1     -13.027   8.544  71.898  1.00  0.00    -0.394 C  
HETATM   19  C   UNL     1     -10.978   9.852  71.220  1.00  0.00    -0.155 C  
HETATM   20  C   UNL     1     -13.204  10.779  70.721  1.00  0.00    -0.027 C  
HETATM   21  C   UNL     1     -13.863   9.417  70.957  1.00  0.00    -0.011 C  
ENDBRANCH  14  16
BRANCH  12  22
HETATM   22  N   UNL     1     -12.003  15.362  71.591  1.00  0.00    -0.346 NA 
BRANCH  22  23
HETATM   23  C   UNL     1     -13.428  15.707  71.531  1.00  0.00    -0.416 C  
BRANCH  23  24
HETATM   24  C   UNL     1     -14.348  14.484  71.366  1.00  0.00    -0.326 C  
HETATM   25  O   UNL     1     -14.373  13.682  72.547  1.00  0.00    -0.707 OA 
HETATM   26  H   UNL     1     -14.941  12.928  72.445  1.00  0.00     0.000 HD 
ENDBRANCH  23  24
ENDBRANCH  22  23
BRANCH  22  27
HETATM   27  C   UNL     1     -11.342  15.263  72.894  1.00  0.00     0.046 C  
BRANCH  27  28
HETATM   28  C   UNL     1     -12.361  15.264  74.049  1.00  0.00    -0.634 C  
HETATM   29  O   UNL     1     -12.841  16.582  74.322  1.00  0.00    -0.800 OA 
HETATM   30  H   UNL     1     -13.469  16.582  75.035  1.00  0.00     0.000 HD 
ENDBRANCH  27  28
ENDBRANCH  22  27
ENDBRANCH  12  22
BRANCH   7  31
HETATM   31  N   UNL     1      -9.816  15.541  67.495  1.00  0.00    -0.220 NA 
HETATM   32  C   UNL     1     -10.489  15.976  66.276  1.00  0.00    -0.320 C  
HETATM   33  C   UNL     1      -8.352  15.534  67.437  1.00  0.00    -0.182 C  
HETATM   34  C   UNL     1     -10.041  17.403  65.958  1.00  0.00    -0.273 C  
HETATM   35  C   UNL     1      -7.862  16.950  67.139  1.00  0.00    -0.207 C  
HETATM   36  C   UNL     1      -8.520  17.517  65.882  1.00  0.00     0.026 C  
ENDBRANCH   7  31
ENDBRANCH   5   6
BRANCH   5  37
HETATM   37  C   UNL     1      -8.550  10.747  65.567  1.00  0.00    -0.176 C  
BRANCH  37  38
HETATM   38  C   UNL     1      -8.340  10.207  64.138  1.00  0.00    -0.168 C  
HETATM   39  O   UNL     1      -8.293  11.253  63.168  1.00  0.00    -0.409 OA 
HETATM   40  H   UNL     1      -8.163  10.920  62.288  1.00  0.00     0.000 HD 
ENDBRANCH  37  38
ENDBRANCH   5  37
ENDBRANCH   4   5
ENDBRANCH   3   4
TORSDOF 12
ENDMDL
MODEL      102
REMARK 921   NORMALIZED FREE ENERGY PREDICTED BY IDOCK:   -4.92 KCAL/MOL
REMARK 922        TOTAL FREE ENERGY PREDICTED BY IDOCK:   -9.30 KCAL/MOL
REMARK 923 INTER-LIGAND FREE ENERGY PREDICTED BY IDOCK:   -7.88 KCAL/MOL
REMARK 924 INTRA-LIGAND FREE ENERGY PREDICTED BY IDOCK:   -1.41 KCAL/MOL
REMARK 927      BINDING AFFINITY PREDICTED BY RF-SCORE:    0.00 PKD
ROOT
HETATM    1  O   UNL     1     -10.369   5.235  73.098  1.00  0.00    -0.175 OA 
HETATM    2  H   UNL     1     -10.568   4.309  73.026  1.00  0.00     0.000 HD 
HETATM    3  C   UNL     1     -11.433   6.048  72.605  1.00  0.00    -0.253 C  
ENDROOT
BRANCH   3   4
HETATM    4  C   UNL     1     -11.109   7.554  72.722  1.00  0.00    -0.366 C  
BRANCH   4   5
HETATM    5  N   UNL     1     -11.864   8.443  71.814  1.00  0.00    -0.295 NA 
BRANCH   5   6
HETATM    6  C   UNL     1     -11.146   8.944  70.743  1.00  0.00    -0.261 A  
HETATM    7  C   UNL     1      -8.381   8.054  68.535  1.00  0.00    -0.127 A  
HETATM    8  N   UNL     1      -7.761   8.541  67.432  1.00  0.00    -0.097 NA 
HETATM    9  N   UNL     1     -10.132   8.244  70.234  1.00  0.00    -0.190 NA 
HETATM   10  C   UNL     1      -9.469   8.712  69.141  1.00  0.00    -0.157 A  
HETATM   11  N   UNL     1     -11.511  10.111  70.227  1.00  0.00    -0.285 NA 
HETATM   12  C   UNL     1      -8.157   9.701  66.924  1.00  0.00    -0.113 A  
HETATM   13  C   UNL     1      -9.801   9.915  68.543  1.00  0.00    -0.156 A  
HETATM   14  C   UNL     1     -10.858  10.601  69.154  1.00  0.00    -0.237 A  
HETATM   15  N   UNL     1      -9.125  10.418  67.481  1.00  0.00    -0.135 NA 
BRANCH  14  16
HETATM   16  N   UNL     1     -11.263  11.863  68.735  1.00  0.00    -0.238 NA 
HETATM   17  C   UNL     1     -11.329  13.365  66.856  1.00  0.00    -0.351 C  
HETATM   18  C   UNL     1     -11.506  14.538  67.827  1.00  0.00    -0.362 C  
HETATM   19  C   UNL     1     -11.906  12.077  67.443  1.00  0.00    -0.198 C  
HETATM   20  C   UNL     1     -11.553  12.883  69.742  1.00  0.00    -0.218 C  
HETATM   21  C   UNL     1     -10.982  14.208  69.228  1.00  0.00    -0.252 C  
ENDBRANCH  14  16
BRANCH  12  22
HETATM   22  N   UNL     1      -7.575  10.189  65.775  1.00  0.00    -0.128 NA 
BRANCH  22  23
HETATM   23  C   UNL     1      -6.182  10.641  65.874  1.00  0.00    -0.134 C  
BRANCH  23  24
HETATM   24  C   UNL     1      -5.966  11.724  66.947  1.00  0.00    -0.140 C  
HETATM   25  O   UNL     1      -7.031  12.674  66.958  1.00  0.00    -0.352 OA 
HETATM   26  H   UNL     1      -6.898  13.342  67.620  1.00  0.00     0.000 HD 
ENDBRANCH  23  24
ENDBRANCH  22  23
BRANCH  22  27
HETATM   27  C   UNL     1      -8.112   9.806  64.467  1.00  0.00    -0.146 C  
BRANCH  27  28
HETATM   28  C   UNL     1      -9.545  10.334  64.265  1.00  0.00    -0.313 C  
HETATM   29  O   UNL     1      -9.878  10.423  62.878  1.00  0.00    -0.480 OA 
HETATM   30  H   UNL     1     -10.762  10.749  62.754  1.00  0.00     0.000 HD 
ENDBRANCH  27  28
ENDBRANCH  22  27
ENDBRANCH  12  22
BRANCH   7  31
HETATM   31  N   UNL     1      -7.872   6.833  68.975  1.00  0.00    -0.109 NA 
HETATM   32  C   UNL     1      -8.511   5.553  68.689  1.00  0.00    -0.104 C  
HETATM   33  C   UNL     1      -7.016   6.858  70.163  1.00  0.00    -0.066 C  
HETATM   34  C   UNL     1      -7.420   4.502  68.482  1.00  0.00    -0.064 C  
HETATM   35  C   UNL     1      -5.898   5.832  69.988  1.00  0.00    -0.024 C  
HETATM   36  C   UNL     1      -6.456   4.446  69.665  1.00  0.00    -0.032 C  
ENDBRANCH   7  31
ENDBRANCH   5   6
BRANCH   5  37
HETATM   37  C   UNL     1     -12.880   9.314  72.421  1.00  0.00    -0.346 C  
BRANCH  37  38
HETATM   38  C   UNL     1     -14.312   8.936  71.992  1.00  0.00    -0.320 C  
HETATM   39  O   UNL     1     -14.323   7.998  70.917  1.00  0.00    -0.657 OA 
HETATM   40  H   UNL     1     -15.206   7.765  70.654  1.00  0.00     0.000 HD 
ENDBRANCH  37  38
ENDBRANCH   5  37
ENDBRANCH   4   5
ENDBRANCH   3   4
TORSDOF 12
ENDMDL
MODEL      103
REMARK 921   NORMALIZED FREE ENERGY PREDICTED BY IDOCK:   -4.92 KCAL/MOL
REMARK 922        TOTAL FREE ENERGY PREDICTED BY IDOCK:   -9.29 KCAL/MOL
REMARK 923 INTER-LIGAND FREE ENERGY PREDICTED BY IDOCK:   -8.08 KCAL/MOL
REMARK 924 INTRA-LIGAND FREE ENERGY PREDICTED BY IDOCK:   -1.20 KCAL/MOL
REMARK 927      BINDING AFFINITY PREDICTED BY RF-SCORE:    0.00 PKD
ROOT
HETATM    1  O   UNL     1      -8.753   8.790  69.266  1.00  0.00    -0.132 OA 
HETATM    2  H   UNL     1      -8.690   8.694  70.210  1.00  0.00     0.000 HD 
HETATM    3  C   UNL     1      -7.467   8.875  68.654  1.00  0.00    -0.088 C  
ENDROOT
BRANCH   3   4
HETATM    4  C   UNL     1      -7.569   9.031  67.120  1.00  0.00    -0.091 C  
BRANCH   4   5
HETATM    5  N   UNL     1      -6.836  10.178  66.544  1.00  0.00    -0.086 NA 
BRANCH   5   6
HETATM    6  C   UNL     1      -7.297  11.426  66.924  1.00  0.00    -0.147 A  
HETATM    7  C   UNL     1     -10.003  13.769  66.217  1.00  0.00    -0.305 A  
HETATM    8  N   UNL     1     -10.472  14.955  66.680  1.00  0.00    -0.286 NA 
HETATM    9  N   UNL     1      -8.384  11.939  66.346  1.00  0.00    -0.065 NA 
HETATM   10  C   UNL     1      -8.871  13.139  66.767  1.00  0.00    -0.132 A  
HETATM   11  N   UNL     1      -6.654  12.073  67.887  1.00  0.00    -0.069 NA 
HETATM   12  C   UNL     1      -9.820  15.571  67.656  1.00  0.00    -0.213 A  
HETATM   13  C   UNL     1      -8.259  13.864  67.774  1.00  0.00    -0.173 A  
HETATM   14  C   UNL     1      -7.109  13.269  68.309  1.00  0.00    -0.109 A  
HETATM   15  N   UNL     1      -8.703  15.080  68.177  1.00  0.00    -0.161 NA 
BRANCH  14  16
HETATM   16  N   UNL     1      -6.324  13.903  69.266  1.00  0.00    -0.106 NA 
HETATM   17  C   UNL     1      -5.870  14.057  71.624  1.00  0.00    -0.140 C  
HETATM   18  C   UNL     1      -5.236  15.433  71.390  1.00  0.00    -0.067 C  
HETATM   19  C   UNL     1      -5.735  13.173  70.384  1.00  0.00    -0.170 C  
HETATM   20  C   UNL     1      -5.633  15.141  68.907  1.00  0.00    -0.098 C  
HETATM   21  C   UNL     1      -5.746  16.089  70.103  1.00  0.00    -0.164 C  
ENDBRANCH  14  16
BRANCH  12  22
HETATM   22  N   UNL     1     -10.307  16.752  68.176  1.00  0.00    -0.301 NA 
BRANCH  22  23
HETATM   23  C   UNL     1     -10.591  16.778  69.615  1.00  0.00    -0.242 C  
BRANCH  23  24
HETATM   24  C   UNL     1     -11.633  15.732  70.053  1.00  0.00    -0.357 C  
HETATM   25  O   UNL     1     -12.647  15.555  69.065  1.00  0.00    -0.553 OA 
HETATM   26  H   UNL     1     -13.290  14.910  69.335  1.00  0.00     0.000 HD 
ENDBRANCH  23  24
ENDBRANCH  22  23
BRANCH  22  27
HETATM   27  C   UNL     1     -10.068  18.012  67.469  1.00  0.00    -0.351 C  
BRANCH  27  28
HETATM   28  C   UNL     1      -8.564  18.276  67.270  1.00  0.00    -0.254 C  
HETATM   29  O   UNL     1      -8.176  18.084  65.908  1.00  0.00    -0.517 OA 
HETATM   30  H   UNL     1      -7.248  18.247  65.786  1.00  0.00     0.000 HD 
ENDBRANCH  27  28
ENDBRANCH  22  27
ENDBRANCH  12  22
BRANCH   7  31
HETATM   31  N   UNL     1     -10.770  13.223  65.189  1.00  0.00    -0.309 NA 
HETATM   32  C   UNL     1     -10.194  12.692  63.959  1.00  0.00    -0.338 C  
HETATM   33  C   UNL     1     -12.164  13.664  65.092  1.00  0.00    -0.433 C  
HETATM   34  C   UNL     1     -11.021  11.483  63.518  1.00  0.00    -0.453 C  
HETATM   35  C   UNL     1     -13.029  12.477  64.671  1.00  0.00    -0.176 C  
HETATM   36  C   UNL     1     -12.503  11.827  63.391  1.00  0.00    -0.490 C  
ENDBRANCH   7  31
ENDBRANCH   5   6
BRANCH   5  37
HETATM   37  C   UNL     1      -6.326  10.028  65.175  1.00  0.00    -0.114 C  
BRANCH  37  38
HETATM   38  C   UNL     1      -7.452   9.778  64.151  1.00  0.00    -0.135 C  
HETATM   39  O   UNL     1      -7.286  10.557  62.967  1.00  0.00    -0.260 OA 
HETATM   40  H   UNL     1      -7.980  10.403  62.336  1.00  0.00     0.000 HD 
ENDBRANCH  37  38
ENDBRANCH   5  37
ENDBRANCH   4   5
ENDBRANCH   3   4
TORSDOF 12
ENDMDL
MODEL      104
REMARK 921   NORMALIZED FREE ENERGY PREDICTED BY IDOCK:   -4.89 KCAL/MOL
REMARK 922        TOTAL FREE ENERGY PREDICTED BY IDOCK:   -9.24 KCAL/MOL
REMARK 923 INTER-LIGAND FREE ENERGY PREDICTED BY IDOCK:   -9.06 KCAL/MOL
REMARK 924 INTRA-LIGAND FREE ENERGY PREDICTED BY IDOCK:   -0.18 KCAL/MOL
REMARK 927      BINDING AFFINITY PREDICTED BY RF-SCORE:    0.00 PKD
ROOT
HETATM    1  O   UNL     1      -5.685   8.156  65.926  1.00  0.00    -0.036 OA 
HETATM    2  H   UNL     1      -5.296   7.328  65.668  1.00  0.00     0.000 HD 
HETATM    3  C   UNL     1      -6.174   8.887  64.803  1.00  0.00    -0.065 C  
ENDROOT
BRANCH   3   4
HETATM    4  C   UNL     1      -6.807  10.233  65.223  1.00  0.00    -0.131 C  
BRANCH   4   5
HETATM    5  N   UNL     1      -8.222  10.421  64.838  1.00  0.00    -0.160 NA 
BRANCH   5   6
HETATM    6  C   UNL     1      -9.053  10.881  65.843  1.00  0.00    -0.193 A  
HETATM    7  C   UNL     1     -10.763   9.713  68.848  1.00  0.00    -0.206 A  
HETATM    8  N   UNL     1     -11.503  10.223  69.863  1.00  0.00    -0.264 NA 
HETATM    9  N   UNL     1      -9.485  10.045  66.787  1.00  0.00    -0.163 NA 
HETATM   10  C   UNL     1     -10.250  10.515  67.810  1.00  0.00    -0.190 A  
HETATM   11  N   UNL     1      -9.378  12.168  65.857  1.00  0.00    -0.182 NA 
HETATM   12  C   UNL     1     -11.797  11.517  69.863  1.00  0.00    -0.355 A  
HETATM   13  C   UNL     1     -10.619  11.846  67.896  1.00  0.00    -0.201 A  
HETATM   14  C   UNL     1     -10.148  12.653  66.852  1.00  0.00    -0.230 A  
HETATM   15  N   UNL     1     -11.416  12.325  68.882  1.00  0.00    -0.280 NA 
BRANCH  14  16
HETATM   16  N   UNL     1     -10.497  13.993  66.736  1.00  0.00    -0.276 NA 
HETATM   17  C   UNL     1      -9.748  16.141  65.952  1.00  0.00    -0.374 C  
HETATM   18  C   UNL     1     -10.765  16.812  66.883  1.00  0.00    -0.139 C  
HETATM   19  C   UNL     1     -10.230  14.756  65.521  1.00  0.00    -0.374 C  
HETATM   20  C   UNL     1     -11.583  14.515  67.564  1.00  0.00    -0.381 C  
HETATM   21  C   UNL     1     -11.159  15.904  68.051  1.00  0.00    -0.334 C  
ENDBRANCH  14  16
BRANCH  12  22
HETATM   22  N   UNL     1     -12.505  12.066  70.910  1.00  0.00    -0.347 NA 
BRANCH  22  23
HETATM   23  C   UNL     1     -13.005  11.140  71.934  1.00  0.00    -0.372 C  
BRANCH  23  24
HETATM   24  C   UNL     1     -13.766   9.936  71.351  1.00  0.00    -0.131 C  
HETATM   25  O   UNL     1     -13.406   8.720  72.004  1.00  0.00    -0.358 OA 
HETATM   26  H   UNL     1     -13.876   7.976  71.644  1.00  0.00     0.000 HD 
ENDBRANCH  23  24
ENDBRANCH  22  23
BRANCH  22  27
HETATM   27  C   UNL     1     -12.326  13.479  71.248  1.00  0.00    -0.235 C  
BRANCH  27  28
HETATM   28  C   UNL     1     -13.676  14.212  71.362  1.00  0.00    -0.274 C  
HETATM   29  O   UNL     1     -13.716  15.368  70.522  1.00  0.00    -0.787 OA 
HETATM   30  H   UNL     1     -14.549  15.819  70.593  1.00  0.00     0.000 HD 
ENDBRANCH  27  28
ENDBRANCH  22  27
ENDBRANCH  12  22
BRANCH   7  31
HETATM   31  N   UNL     1     -10.524   8.344  68.958  1.00  0.00    -0.220 NA 
HETATM   32  C   UNL     1     -10.793   7.398  67.881  1.00  0.00    -0.081 C  
HETATM   33  C   UNL     1     -10.519   7.775  70.308  1.00  0.00    -0.225 C  
HETATM   34  C   UNL     1      -9.717   6.311  67.910  1.00  0.00    -0.123 C  
HETATM   35  C   UNL     1      -9.441   6.695  70.385  1.00  0.00    -0.170 C  
HETATM   36  C   UNL     1      -9.616   5.650  69.283  1.00  0.00    -0.181 C  
ENDBRANCH   7  31
ENDBRANCH   5   6
BRANCH   5  37
HETATM   37  C   UNL     1      -8.786   9.469  63.871  1.00  0.00    -0.216 C  
BRANCH  37  38
HETATM   38  C   UNL     1      -9.102  10.127  62.513  1.00  0.00    -0.287 C  
HETATM   39  O   UNL     1      -8.475  11.401  62.372  1.00  0.00    -0.523 OA 
HETATM   40  H   UNL     1      -8.670  11.806  61.535  1.00  0.00     0.000 HD 
ENDBRANCH  37  38
ENDBRANCH   5  37
ENDBRANCH   4   5
ENDBRANCH   3   4
TORSDOF 12
ENDMDL
MODEL      105
REMARK 921   NORMALIZED FREE ENERGY PREDICTED BY IDOCK:   -4.88 KCAL/MOL
REMARK 922        TOTAL FREE ENERGY PREDICTED BY IDOCK:   -9.21 KCAL/MOL
REMARK 923 INTER-LIGAND FREE ENERGY PREDICTED BY IDOCK:   -8.33 KCAL/MOL
REMARK 924 INTRA-LIGAND FREE ENERGY PREDICTED BY IDOCK:   -0.89 KCAL/MOL
REMARK 927      BINDING AFFINITY PREDICTED BY RF-SCORE:    0.00 PKD
ROOT
HETATM    1  O   UNL     1     -10.258  14.701  69.015  1.00  0.00    -0.229 OA 
HETATM    2  H   UNL     1      -9.771  15.510  68.910  1.00  0.00     0.000 HD 
HETATM    3  C   UNL     1     -11.277  14.561  68.026  1.00  0.00    -0.292 C  
ENDROOT
BRANCH   3   4
HETATM    4  C   UNL     1     -12.069  13.246  68.197  1.00  0.00    -0.211 C  
BRANCH   4   5
HETATM    5  N   UNL     1     -11.482  12.264  69.134  1.00  0.00    -0.277 NA 
BRANCH   5   6
HETATM    6  C   UNL     1     -10.868  11.175  68.541  1.00  0.00    -0.203 A  
HETATM    7  C   UNL     1      -9.622   7.846  69.364  1.00  0.00    -0.160 A  
HETATM    8  N   UNL     1      -9.103   6.766  68.729  1.00  0.00    -0.133 NA 
HETATM    9  N   UNL     1     -10.549  10.109  69.276  1.00  0.00    -0.215 NA 
HETATM   10  C   UNL     1     -10.003   9.014  68.678  1.00  0.00    -0.172 A  
HETATM   11  N   UNL     1     -10.639  11.210  67.235  1.00  0.00    -0.225 NA 
HETATM   12  C   UNL     1      -8.901   6.821  67.419  1.00  0.00    -0.117 A  
HETATM   13  C   UNL     1      -9.746   8.975  67.319  1.00  0.00    -0.179 A  
HETATM   14  C   UNL     1     -10.086  10.144  66.624  1.00  0.00    -0.223 A  
HETATM   15  N   UNL     1      -9.164   7.912  66.712  1.00  0.00    -0.156 NA 
BRANCH  14  16
HETATM   16  N   UNL     1      -9.814  10.306  65.270  1.00  0.00    -0.286 NA 
HETATM   17  C   UNL     1      -8.067  10.272  63.616  1.00  0.00    -0.149 C  
HETATM   18  C   UNL     1      -8.955  11.113  62.692  1.00  0.00    -0.347 C  
HETATM   19  C   UNL     1      -8.913   9.410  64.553  1.00  0.00    -0.181 C  
HETATM   20  C   UNL     1     -10.791  10.998  64.431  1.00  0.00    -0.192 C  
HETATM   21  C   UNL     1     -10.011  11.901  63.472  1.00  0.00    -0.422 C  
ENDBRANCH  14  16
BRANCH  12  22
HETATM   22  N   UNL     1      -8.422   5.717  66.746  1.00  0.00    -0.112 NA 
BRANCH  22  23
HETATM   23  C   UNL     1      -9.123   5.332  65.515  1.00  0.00    -0.139 C  
BRANCH  23  24
HETATM   24  C   UNL     1     -10.307   4.379  65.758  1.00  0.00    -0.217 C  
HETATM   25  O   UNL     1     -11.015   4.101  64.551  1.00  0.00    -0.595 OA 
HETATM   26  H   UNL     1     -11.745   3.513  64.701  1.00  0.00     0.000 HD 
ENDBRANCH  23  24
ENDBRANCH  22  23
BRANCH  22  27
HETATM   27  C   UNL     1      -7.037   5.287  66.947  1.00  0.00    -0.066 C  
BRANCH  27  28
HETATM   28  C   UNL     1      -6.045   6.449  66.747  1.00  0.00    -0.029 C  
HETATM   29  O   UNL     1      -5.788   6.683  65.361  1.00  0.00    -0.028 OA 
HETATM   30  H   UNL     1      -5.176   7.399  65.238  1.00  0.00     0.000 HD 
ENDBRANCH  27  28
ENDBRANCH  22  27
ENDBRANCH  12  22
BRANCH   7  31
HETATM   31  N   UNL     1      -9.782   7.668  70.738  1.00  0.00    -0.174 NA 
HETATM   32  C   UNL     1      -8.681   7.332  71.633  1.00  0.00    -0.117 C  
HETATM   33  C   UNL     1     -11.115   7.283  71.208  1.00  0.00    -0.247 C  
HETATM   34  C   UNL     1      -8.910   8.038  72.970  1.00  0.00    -0.302 C  
HETATM   35  C   UNL     1     -11.392   7.984  72.537  1.00  0.00    -0.469 C  
HETATM   36  C   UNL     1     -10.283   7.714  73.554  1.00  0.00    -0.332 C  
ENDBRANCH   7  31
ENDBRANCH   5   6
BRANCH   5  37
HETATM   37  C   UNL     1     -12.190  12.041  70.401  1.00  0.00    -0.294 C  
BRANCH  37  38
HETATM   38  C   UNL     1     -12.528  13.358  71.127  1.00  0.00    -0.327 C  
HETATM   39  O   UNL     1     -13.370  13.148  72.261  1.00  0.00    -0.507 OA 
HETATM   40  H   UNL     1     -13.577  13.960  72.708  1.00  0.00     0.000 HD 
ENDBRANCH  37  38
ENDBRANCH   5  37
ENDBRANCH   4   5
ENDBRANCH   3   4
TORSDOF 12
ENDMDL
MODEL      106
REMARK 921   NORMALIZED FREE ENERGY PREDICTED BY IDOCK:   -4.87 KCAL/MOL
REMARK 922        TOTAL FREE ENERGY PREDICTED BY IDOCK:   -9.20 KCAL/MOL
REMARK 923 INTER-LIGAND FREE ENERGY PREDICTED BY IDOCK:   -7.92 KCAL/MOL
REMARK 924 INTRA-LIGAND FREE ENERGY PREDICTED BY IDOCK:   -1.28 KCAL/MOL
REMARK 927      BINDING AFFINITY PREDICTED BY RF-SCORE:    0.00 PKD
ROOT
HETATM    1  O   UNL     1      -9.644  14.892  69.539  1.00  0.00    -0.394 OA 
HETATM    2  H   UNL     1      -9.845  15.518  70.225  1.00  0.00     0.000 HD 
HETATM    3  C   UNL     1      -9.062  15.523  68.399  1.00  0.00    -0.190 C  
ENDROOT
BRANCH   3   4
HETATM    4  C   UNL     1      -8.733  14.506  67.283  1.00  0.00    -0.210 C  
BRANCH   4   5
HETATM    5  N   UNL     1      -9.849  13.628  66.870  1.00  0.00    -0.254 NA 
BRANCH   5   6
HETATM    6  C   UNL     1      -9.760  12.317  67.301  1.00  0.00    -0.195 A  
HETATM    7  C   UNL     1      -8.244   9.134  66.360  1.00  0.00    -0.114 A  
HETATM    8  N   UNL     1      -8.109   7.882  66.863  1.00  0.00    -0.114 NA 
HETATM    9  N   UNL     1      -9.075  11.424  66.585  1.00  0.00    -0.176 NA 
HETATM   10  C   UNL     1      -8.938  10.150  67.045  1.00  0.00    -0.135 A  
HETATM   11  N   UNL     1     -10.343  11.986  68.446  1.00  0.00    -0.210 NA 
HETATM   12  C   UNL     1      -8.686   7.582  68.019  1.00  0.00    -0.121 A  
HETATM   13  C   UNL     1      -9.508   9.737  68.236  1.00  0.00    -0.139 A  
HETATM   14  C   UNL     1     -10.233  10.726  68.913  1.00  0.00    -0.203 A  
HETATM   15  N   UNL     1      -9.419   8.462  68.688  1.00  0.00    -0.146 NA 
BRANCH  14  16
HETATM   16  N   UNL     1     -10.942  10.458  70.078  1.00  0.00    -0.295 NA 
HETATM   17  C   UNL     1     -11.550   8.726  71.635  1.00  0.00    -0.390 C  
HETATM   18  C   UNL     1     -12.731   9.587  72.098  1.00  0.00    -0.442 C  
HETATM   19  C   UNL     1     -10.402   9.599  71.127  1.00  0.00    -0.166 C  
HETATM   20  C   UNL     1     -11.955  11.413  70.526  1.00  0.00    -0.356 C  
HETATM   21  C   UNL     1     -13.152  10.605  71.033  1.00  0.00    -0.376 C  
ENDBRANCH  14  16
BRANCH  12  22
HETATM   22  N   UNL     1      -8.519   6.331  68.573  1.00  0.00    -0.115 NA 
BRANCH  22  23
HETATM   23  C   UNL     1      -7.587   6.221  69.701  1.00  0.00    -0.094 C  
BRANCH  23  24
HETATM   24  C   UNL     1      -8.290   6.086  71.064  1.00  0.00    -0.124 C  
HETATM   25  O   UNL     1      -7.396   5.617  72.073  1.00  0.00    -0.089 OA 
HETATM   26  H   UNL     1      -7.830   5.534  72.914  1.00  0.00     0.000 HD 
ENDBRANCH  23  24
ENDBRANCH  22  23
BRANCH  22  27
HETATM   27  C   UNL     1      -9.558   5.314  68.399  1.00  0.00    -0.134 C  
BRANCH  27  28
HETATM   28  C   UNL     1     -10.861   5.920  67.846  1.00  0.00    -0.233 C  
HETATM   29  O   UNL     1     -11.666   6.470  68.890  1.00  0.00    -0.561 OA 
HETATM   30  H   UNL     1     -12.470   6.844  68.549  1.00  0.00     0.000 HD 
ENDBRANCH  27  28
ENDBRANCH  22  27
ENDBRANCH  12  22
BRANCH   7  31
HETATM   31  N   UNL     1      -7.598   9.324  65.140  1.00  0.00    -0.104 NA 
HETATM   32  C   UNL     1      -6.404  10.147  64.989  1.00  0.00    -0.123 C  
HETATM   33  C   UNL     1      -8.402   9.154  63.928  1.00  0.00    -0.181 C  
HETATM   34  C   UNL     1      -5.501   9.504  63.935  1.00  0.00    -0.067 C  
HETATM   35  C   UNL     1      -7.541   8.495  62.852  1.00  0.00    -0.113 C  
HETATM   36  C   UNL     1      -6.243   9.270  62.621  1.00  0.00    -0.093 C  
ENDBRANCH   7  31
ENDBRANCH   5   6
BRANCH   5  37
HETATM   37  C   UNL     1     -10.439  13.872  65.548  1.00  0.00    -0.323 C  
BRANCH  37  38
HETATM   38  C   UNL     1     -11.844  14.503  65.636  1.00  0.00    -0.326 C  
HETATM   39  O   UNL     1     -12.878  13.550  65.392  1.00  0.00    -0.617 OA 
HETATM   40  H   UNL     1     -13.743  13.939  65.448  1.00  0.00     0.000 HD 
ENDBRANCH  37  38
ENDBRANCH   5  37
ENDBRANCH   4   5
ENDBRANCH   3   4
TORSDOF 12
ENDMDL
MODEL      107
REMARK 921   NORMALIZED FREE ENERGY PREDICTED BY IDOCK:   -4.86 KCAL/MOL
REMARK 922        TOTAL FREE ENERGY PREDICTED BY IDOCK:   -9.19 KCAL/MOL
REMARK 923 INTER-LIGAND FREE ENERGY PREDICTED BY IDOCK:   -8.03 KCAL/MOL
REMARK 924 INTRA-LIGAND FREE ENERGY PREDICTED BY IDOCK:   -1.16 KCAL/MOL
REMARK 927      BINDING AFFINITY PREDICTED BY RF-SCORE:    0.00 PKD
ROOT
HETATM    1  O   UNL     1     -13.136  11.160  71.925  1.00  0.00    -0.488 OA 
HETATM    2  H   UNL     1     -13.939  11.183  72.433  1.00  0.00     0.000 HD 
HETATM    3  C   UNL     1     -13.013  12.298  71.073  1.00  0.00    -0.064 C  
ENDROOT
BRANCH   3   4
HETATM    4  C   UNL     1     -11.708  12.260  70.247  1.00  0.00    -0.137 C  
BRANCH   4   5
HETATM    5  N   UNL     1     -11.881  12.155  68.782  1.00  0.00    -0.314 NA 
BRANCH   5   6
HETATM    6  C   UNL     1     -11.238  11.085  68.185  1.00  0.00    -0.302 A  
HETATM    7  C   UNL     1     -10.067   7.714  68.947  1.00  0.00    -0.197 A  
HETATM    8  N   UNL     1      -9.515   6.657  68.301  1.00  0.00    -0.125 NA 
HETATM    9  N   UNL     1     -10.972   9.987  68.893  1.00  0.00    -0.224 NA 
HETATM   10  C   UNL     1     -10.397   8.913  68.286  1.00  0.00    -0.206 A  
HETATM   11  N   UNL     1     -10.926  11.171  66.899  1.00  0.00    -0.285 NA 
HETATM   12  C   UNL     1      -9.231   6.763  67.010  1.00  0.00    -0.137 A  
HETATM   13  C   UNL     1     -10.054   8.928  66.946  1.00  0.00    -0.273 A  
HETATM   14  C   UNL     1     -10.342  10.126  66.280  1.00  0.00    -0.175 A  
HETATM   15  N   UNL     1      -9.441   7.885  66.334  1.00  0.00    -0.205 NA 
BRANCH  14  16
HETATM   16  N   UNL     1      -9.984  10.342  64.954  1.00  0.00    -0.334 NA 
HETATM   17  C   UNL     1      -8.150  10.290  63.398  1.00  0.00    -0.154 C  
HETATM   18  C   UNL     1      -8.935  11.228  62.474  1.00  0.00    -0.287 C  
HETATM   19  C   UNL     1      -9.094   9.432  64.239  1.00  0.00    -0.106 C  
HETATM   20  C   UNL     1     -10.872  11.131  64.101  1.00  0.00    -0.285 C  
HETATM   21  C   UNL     1      -9.990  12.035  63.237  1.00  0.00    -0.339 C  
ENDBRANCH  14  16
BRANCH  12  22
HETATM   22  N   UNL     1      -8.717   5.684  66.323  1.00  0.00    -0.126 NA 
BRANCH  22  23
HETATM   23  C   UNL     1      -9.643   4.587  66.018  1.00  0.00    -0.189 C  
BRANCH  23  24
HETATM   24  C   UNL     1      -9.372   3.313  66.838  1.00  0.00    -0.158 C  
HETATM   25  O   UNL     1      -8.637   2.349  66.085  1.00  0.00    -0.100 OA 
HETATM   26  H   UNL     1      -8.470   1.563  66.591  1.00  0.00     0.000 HD 
ENDBRANCH  23  24
ENDBRANCH  22  23
BRANCH  22  27
HETATM   27  C   UNL     1      -7.505   5.845  65.517  1.00  0.00    -0.082 C  
BRANCH  27  28
HETATM   28  C   UNL     1      -7.695   5.302  64.089  1.00  0.00    -0.083 C  
HETATM   29  O   UNL     1      -7.729   6.359  63.128  1.00  0.00    -0.083 OA 
HETATM   30  H   UNL     1      -7.847   6.023  62.247  1.00  0.00     0.000 HD 
ENDBRANCH  27  28
ENDBRANCH  22  27
ENDBRANCH  12  22
BRANCH   7  31
HETATM   31  N   UNL     1     -10.315   7.482  70.299  1.00  0.00    -0.209 NA 
HETATM   32  C   UNL     1      -9.308   7.665  71.338  1.00  0.00    -0.140 C  
HETATM   33  C   UNL     1     -11.395   6.548  70.627  1.00  0.00    -0.351 C  
HETATM   34  C   UNL     1      -9.999   8.195  72.595  1.00  0.00    -0.371 C  
HETATM   35  C   UNL     1     -12.125   7.053  71.870  1.00  0.00    -0.358 C  
HETATM   36  C   UNL     1     -11.156   7.298  73.027  1.00  0.00    -0.361 C  
ENDBRANCH   7  31
ENDBRANCH   5   6
BRANCH   5  37
HETATM   37  C   UNL     1     -11.960  13.411  68.025  1.00  0.00    -0.322 C  
BRANCH  37  38
HETATM   38  C   UNL     1     -11.110  14.533  68.655  1.00  0.00    -0.257 C  
HETATM   39  O   UNL     1      -9.748  14.479  68.232  1.00  0.00    -0.206 OA 
HETATM   40  H   UNL     1      -9.225  15.170  68.620  1.00  0.00     0.000 HD 
ENDBRANCH  37  38
ENDBRANCH   5  37
ENDBRANCH   4   5
ENDBRANCH   3   4
TORSDOF 12
ENDMDL
MODEL      108
REMARK 921   NORMALIZED FREE ENERGY PREDICTED BY IDOCK:   -4.84 KCAL/MOL
REMARK 922        TOTAL FREE ENERGY PREDICTED BY IDOCK:   -9.15 KCAL/MOL
REMARK 923 INTER-LIGAND FREE ENERGY PREDICTED BY IDOCK:   -7.83 KCAL/MOL
REMARK 924 INTRA-LIGAND FREE ENERGY PREDICTED BY IDOCK:   -1.32 KCAL/MOL
REMARK 927      BINDING AFFINITY PREDICTED BY RF-SCORE:    0.00 PKD
ROOT
HETATM    1  O   UNL     1      -8.203  16.680  65.973  1.00  0.00    -0.386 OA 
HETATM    2  H   UNL     1      -7.403  16.509  65.490  1.00  0.00     0.000 HD 
HETATM    3  C   UNL     1      -9.318  15.983  65.418  1.00  0.00     0.299 C  
ENDROOT
BRANCH   3   4
HETATM    4  C   UNL     1     -10.620  16.262  66.203  1.00  0.00    -0.267 C  
BRANCH   4   5
HETATM    5  N   UNL     1     -10.518  16.142  67.673  1.00  0.00    -0.286 NA 
BRANCH   5   6
HETATM    6  C   UNL     1     -10.678  14.862  68.175  1.00  0.00    -0.251 A  
HETATM    7  C   UNL     1     -12.119  13.113  71.034  1.00  0.00    -0.020 A  
HETATM    8  N   UNL     1     -12.333  11.839  71.447  1.00  0.00    -0.150 NA 
HETATM    9  N   UNL     1     -11.285  14.677  69.347  1.00  0.00    -0.268 NA 
HETATM   10  C   UNL     1     -11.497  13.413  69.807  1.00  0.00    -0.166 A  
HETATM   11  N   UNL     1     -10.244  13.839  67.450  1.00  0.00    -0.250 NA 
HETATM   12  C   UNL     1     -11.906  10.834  70.694  1.00  0.00    -0.360 A  
HETATM   13  C   UNL     1     -11.082  12.299  69.100  1.00  0.00    -0.203 A  
HETATM   14  C   UNL     1     -10.429  12.579  67.893  1.00  0.00    -0.217 A  
HETATM   15  N   UNL     1     -11.245  11.034  69.562  1.00  0.00    -0.258 NA 
BRANCH  14  16
HETATM   16  N   UNL     1      -9.871  11.581  67.103  1.00  0.00    -0.190 NA 
HETATM   17  C   UNL     1     -10.361   9.587  65.848  1.00  0.00    -0.051 C  
HETATM   18  C   UNL     1      -8.883   9.191  65.942  1.00  0.00    -0.209 C  
HETATM   19  C   UNL     1     -10.524  11.107  65.887  1.00  0.00    -0.253 C  
HETATM   20  C   UNL     1      -8.425  11.370  67.147  1.00  0.00    -0.153 C  
HETATM   21  C   UNL     1      -8.184   9.858  67.130  1.00  0.00    -0.121 C  
ENDBRANCH  14  16
BRANCH  12  22
HETATM   22  N   UNL     1     -12.158   9.532  71.070  1.00  0.00    -0.310 NA 
BRANCH  22  23
HETATM   23  C   UNL     1     -13.544   9.195  71.414  1.00  0.00    -0.288 C  
BRANCH  23  24
HETATM   24  C   UNL     1     -13.707   7.769  71.971  1.00  0.00    -0.193 C  
HETATM   25  O   UNL     1     -13.529   6.784  70.955  1.00  0.00    -0.251 OA 
HETATM   26  H   UNL     1     -13.630   5.904  71.299  1.00  0.00     0.000 HD 
ENDBRANCH  23  24
ENDBRANCH  22  23
BRANCH  22  27
HETATM   27  C   UNL     1     -11.241   8.466  70.661  1.00  0.00    -0.255 C  
BRANCH  27  28
HETATM   28  C   UNL     1      -9.911   8.532  71.433  1.00  0.00    -0.228 C  
HETATM   29  O   UNL     1      -8.878   9.127  70.646  1.00  0.00    -0.194 OA 
HETATM   30  H   UNL     1      -8.057   9.168  71.122  1.00  0.00     0.000 HD 
ENDBRANCH  27  28
ENDBRANCH  22  27
ENDBRANCH  12  22
BRANCH   7  31
HETATM   31  N   UNL     1     -12.609  14.079  71.911  1.00  0.00    -0.295 NA 
HETATM   32  C   UNL     1     -11.907  14.489  73.121  1.00  0.00     0.223 C  
HETATM   33  C   UNL     1     -14.058  14.295  71.921  1.00  0.00    -0.499 C  
HETATM   34  C   UNL     1     -12.140  15.985  73.335  1.00  0.00    -0.587 C  
HETATM   35  C   UNL     1     -14.334  15.785  72.113  1.00  0.00    -0.353 C  
HETATM   36  C   UNL     1     -13.627  16.330  73.354  1.00  0.00    -0.119 C  
ENDBRANCH   7  31
ENDBRANCH   5   6
BRANCH   5  37
HETATM   37  C   UNL     1     -11.038  17.257  68.474  1.00  0.00    -0.008 C  
BRANCH  37  38
HETATM   38  C   UNL     1     -10.576  18.630  67.944  1.00  0.00    -0.349 C  
HETATM   39  O   UNL     1      -9.485  19.158  68.696  1.00  0.00    -0.365 OA 
HETATM   40  H   UNL     1      -9.200  20.003  68.369  1.00  0.00     0.000 HD 
ENDBRANCH  37  38
ENDBRANCH   5  37
ENDBRANCH   4   5
ENDBRANCH   3   4
TORSDOF 12
ENDMDL
MODEL      109
REMARK 921   NORMALIZED FREE ENERGY PREDICTED BY IDOCK:   -4.80 KCAL/MOL
REMARK 922        TOTAL FREE ENERGY PREDICTED BY IDOCK:   -9.08 KCAL/MOL
REMARK 923 INTER-LIGAND FREE ENERGY PREDICTED BY IDOCK:   -7.85 KCAL/MOL
REMARK 924 INTRA-LIGAND FREE ENERGY PREDICTED BY IDOCK:   -1.23 KCAL/MOL
REMARK 927      BINDING AFFINITY PREDICTED BY RF-SCORE:    0.00 PKD
ROOT
HETATM    1  O   UNL     1     -12.427  14.854  69.292  1.00  0.00    -0.557 OA 
HETATM    2  H   UNL     1     -12.332  15.276  70.138  1.00  0.00     0.000 HD 
HETATM    3  C   UNL     1     -11.865  13.543  69.285  1.00  0.00    -0.341 C  
ENDROOT
BRANCH   3   4
HETATM    4  C   UNL     1     -12.019  12.857  67.909  1.00  0.00    -0.282 C  
BRANCH   4   5
HETATM    5  N   UNL     1     -10.774  12.706  67.127  1.00  0.00    -0.239 NA 
BRANCH   5   6
HETATM    6  C   UNL     1     -10.265  11.421  67.067  1.00  0.00    -0.213 A  
HETATM    7  C   UNL     1     -10.320   8.275  68.913  1.00  0.00    -0.215 A  
HETATM    8  N   UNL     1      -9.874   7.002  68.771  1.00  0.00    -0.150 NA 
HETATM    9  N   UNL     1     -10.541  10.548  68.036  1.00  0.00    -0.197 NA 
HETATM   10  C   UNL     1     -10.091   9.267  67.941  1.00  0.00    -0.200 A  
HETATM   11  N   UNL     1      -9.531  11.080  66.016  1.00  0.00    -0.199 NA 
HETATM   12  C   UNL     1      -9.158   6.682  67.702  1.00  0.00    -0.112 A  
HETATM   13  C   UNL     1      -9.329   8.837  66.869  1.00  0.00    -0.167 A  
HETATM   14  C   UNL     1      -9.061   9.821  65.908  1.00  0.00    -0.168 A  
HETATM   15  N   UNL     1      -8.836   7.578  66.778  1.00  0.00    -0.134 NA 
BRANCH  14  16
HETATM   16  N   UNL     1      -8.239   9.583  64.813  1.00  0.00    -0.133 NA 
HETATM   17  C   UNL     1      -8.025   8.323  62.774  1.00  0.00    -0.159 C  
HETATM   18  C   UNL     1      -6.510   8.555  62.815  1.00  0.00    -0.091 C  
HETATM   19  C   UNL     1      -8.773   9.466  63.460  1.00  0.00    -0.204 C  
HETATM   20  C   UNL     1      -6.831   9.972  64.887  1.00  0.00    -0.133 C  
HETATM   21  C   UNL     1      -6.013   8.856  64.232  1.00  0.00    -0.070 C  
ENDBRANCH  14  16
BRANCH  12  22
HETATM   22  N   UNL     1      -8.738   5.383  67.512  1.00  0.00    -0.108 NA 
BRANCH  22  23
HETATM   23  C   UNL     1      -9.770   4.391  67.187  1.00  0.00    -0.197 C  
BRANCH  23  24
HETATM   24  C   UNL     1     -10.641   4.787  65.982  1.00  0.00    -0.254 C  
HETATM   25  O   UNL     1     -10.682   3.753  65.000  1.00  0.00    -0.482 OA 
HETATM   26  H   UNL     1     -11.220   3.997  64.256  1.00  0.00     0.000 HD 
ENDBRANCH  23  24
ENDBRANCH  22  23
BRANCH  22  27
HETATM   27  C   UNL     1      -7.345   5.114  67.151  1.00  0.00    -0.082 C  
BRANCH  27  28
HETATM   28  C   UNL     1      -7.239   4.363  65.810  1.00  0.00    -0.072 C  
HETATM   29  O   UNL     1      -6.703   3.051  65.987  1.00  0.00    -0.042 OA 
HETATM   30  H   UNL     1      -6.638   2.588  65.160  1.00  0.00     0.000 HD 
ENDBRANCH  27  28
ENDBRANCH  22  27
ENDBRANCH  12  22
BRANCH   7  31
HETATM   31  N   UNL     1     -11.055   8.488  70.078  1.00  0.00    -0.202 NA 
HETATM   32  C   UNL     1     -10.845   9.632  70.957  1.00  0.00    -0.342 C  
HETATM   33  C   UNL     1     -11.655   7.310  70.711  1.00  0.00    -0.302 C  
HETATM   34  C   UNL     1     -12.199  10.064  71.524  1.00  0.00    -0.496 C  
HETATM   35  C   UNL     1     -13.021   7.695  71.275  1.00  0.00    -0.287 C  
HETATM   36  C   UNL     1     -12.923   8.905  72.205  1.00  0.00    -0.473 C  
ENDBRANCH   7  31
ENDBRANCH   5   6
BRANCH   5  37
HETATM   37  C   UNL     1      -9.814  13.817  67.175  1.00  0.00    -0.242 C  
BRANCH  37  38
HETATM   38  C   UNL     1      -8.523  13.448  67.933  1.00  0.00    -0.173 C  
HETATM   39  O   UNL     1      -7.522  14.459  67.816  1.00  0.00    -0.135 OA 
HETATM   40  H   UNL     1      -6.727  14.231  68.283  1.00  0.00     0.000 HD 
ENDBRANCH  37  38
ENDBRANCH   5  37
ENDBRANCH   4   5
ENDBRANCH   3   4
TORSDOF 12
ENDMDL
MODEL      110
REMARK 921   NORMALIZED FREE ENERGY PREDICTED BY IDOCK:   -4.79 KCAL/MOL
REMARK 922        TOTAL FREE ENERGY PREDICTED BY IDOCK:   -9.07 KCAL/MOL
REMARK 923 INTER-LIGAND FREE ENERGY PREDICTED BY IDOCK:   -7.94 KCAL/MOL
REMARK 924 INTRA-LIGAND FREE ENERGY PREDICTED BY IDOCK:   -1.13 KCAL/MOL
REMARK 927      BINDING AFFINITY PREDICTED BY RF-SCORE:    0.00 PKD
ROOT
HETATM    1  O   UNL     1     -13.553  15.947  70.901  1.00  0.00    -0.646 OA 
HETATM    2  H   UNL     1     -14.147  15.229  71.088  1.00  0.00     0.000 HD 
HETATM    3  C   UNL     1     -12.365  15.499  70.251  1.00  0.00    -0.396 C  
ENDROOT
BRANCH   3   4
HETATM    4  C   UNL     1     -11.400  16.668  69.946  1.00  0.00     0.106 C  
BRANCH   4   5
HETATM    5  N   UNL     1     -10.925  16.756  68.550  1.00  0.00    -0.339 NA 
BRANCH   5   6
HETATM    6  C   UNL     1     -10.344  15.605  68.048  1.00  0.00    -0.246 A  
HETATM    7  C   UNL     1      -7.336  13.572  68.414  1.00  0.00    -0.115 A  
HETATM    8  N   UNL     1      -6.842  12.392  67.962  1.00  0.00    -0.079 NA 
HETATM    9  N   UNL     1      -9.141  15.223  68.478  1.00  0.00    -0.184 NA 
HETATM   10  C   UNL     1      -8.601  14.057  68.030  1.00  0.00    -0.179 A  
HETATM   11  N   UNL     1     -11.023  14.887  67.163  1.00  0.00    -0.315 NA 
HETATM   12  C   UNL     1      -7.550  11.685  67.092  1.00  0.00    -0.152 A  
HETATM   13  C   UNL     1      -9.256  13.252  67.115  1.00  0.00    -0.235 A  
HETATM   14  C   UNL     1     -10.501  13.736  66.693  1.00  0.00    -0.272 A  
HETATM   15  N   UNL     1      -8.716  12.109  66.624  1.00  0.00    -0.183 NA 
BRANCH  14  16
HETATM   16  N   UNL     1     -11.252  13.097  65.713  1.00  0.00    -0.284 NA 
HETATM   17  C   UNL     1     -11.289  11.231  64.194  1.00  0.00    -0.126 C  
HETATM   18  C   UNL     1     -12.343  11.963  63.355  1.00  0.00    -0.577 C  
HETATM   19  C   UNL     1     -11.375  11.644  65.663  1.00  0.00    -0.170 C  
HETATM   20  C   UNL     1     -12.340  13.829  65.066  1.00  0.00    -0.428 C  
HETATM   21  C   UNL     1     -12.303  13.478  63.576  1.00  0.00    -0.343 C  
ENDBRANCH  14  16
BRANCH  12  22
HETATM   22  N   UNL     1      -7.090  10.459  66.659  1.00  0.00    -0.106 NA 
BRANCH  22  23
HETATM   23  C   UNL     1      -6.036  10.467  65.639  1.00  0.00    -0.123 C  
BRANCH  23  24
HETATM   24  C   UNL     1      -6.579  10.451  64.198  1.00  0.00    -0.004 C  
HETATM   25  O   UNL     1      -5.680  11.087  63.290  1.00  0.00    -0.366 OA 
HETATM   26  H   UNL     1      -6.015  11.077  62.401  1.00  0.00     0.000 HD 
ENDBRANCH  23  24
ENDBRANCH  22  23
BRANCH  22  27
HETATM   27  C   UNL     1      -7.259   9.278  67.508  1.00  0.00    -0.080 C  
BRANCH  27  28
HETATM   28  C   UNL     1      -8.401   8.374  67.006  1.00  0.00    -0.114 C  
HETATM   29  O   UNL     1      -7.898   7.162  66.440  1.00  0.00    -0.103 OA 
HETATM   30  H   UNL     1      -8.603   6.606  66.130  1.00  0.00     0.000 HD 
ENDBRANCH  27  28
ENDBRANCH  22  27
ENDBRANCH  12  22
BRANCH   7  31
HETATM   31  N   UNL     1      -6.500  14.223  69.319  1.00  0.00    -0.108 NA 
HETATM   32  C   UNL     1      -5.777  15.449  68.999  1.00  0.00    -0.098 C  
HETATM   33  C   UNL     1      -5.917  13.411  70.390  1.00  0.00    -0.132 C  
HETATM   34  C   UNL     1      -5.726  16.323  70.252  1.00  0.00    -0.151 C  
HETATM   35  C   UNL     1      -5.865  14.245  71.670  1.00  0.00    -0.111 C  
HETATM   36  C   UNL     1      -5.139  15.571  71.444  1.00  0.00    -0.129 C  
ENDBRANCH   7  31
ENDBRANCH   5   6
BRANCH   5  37
HETATM   37  C   UNL     1     -10.373  18.044  68.110  1.00  0.00    -0.388 C  
BRANCH  37  38
HETATM   38  C   UNL     1     -10.294  18.158  66.574  1.00  0.00    -0.386 C  
HETATM   39  O   UNL     1      -9.852  19.448  66.151  1.00  0.00    -0.378 OA 
HETATM   40  H   UNL     1      -9.803  19.517  65.205  1.00  0.00     0.000 HD 
ENDBRANCH  37  38
ENDBRANCH   5  37
ENDBRANCH   4   5
ENDBRANCH   3   4
TORSDOF 12
ENDMDL
MODEL      111
REMARK 921   NORMALIZED FREE ENERGY PREDICTED BY IDOCK:   -4.78 KCAL/MOL
REMARK 922        TOTAL FREE ENERGY PREDICTED BY IDOCK:   -9.05 KCAL/MOL
REMARK 923 INTER-LIGAND FREE ENERGY PREDICTED BY IDOCK:   -8.13 KCAL/MOL
REMARK 924 INTRA-LIGAND FREE ENERGY PREDICTED BY IDOCK:   -0.92 KCAL/MOL
REMARK 927      BINDING AFFINITY PREDICTED BY RF-SCORE:    0.00 PKD
ROOT
HETATM    1  O   UNL     1     -12.536  14.682  63.892  1.00  0.00    -0.979 OA 
HETATM    2  H   UNL     1     -12.706  15.103  63.057  1.00  0.00     0.000 HD 
HETATM    3  C   UNL     1     -12.243  13.294  63.737  1.00  0.00    -0.439 C  
ENDROOT
BRANCH   3   4
HETATM    4  C   UNL     1     -11.966  12.609  65.094  1.00  0.00    -0.428 C  
BRANCH   4   5
HETATM    5  N   UNL     1     -11.385  11.252  65.017  1.00  0.00    -0.026 NA 
BRANCH   5   6
HETATM    6  C   UNL     1     -11.123  10.651  66.236  1.00  0.00     0.154 A  
HETATM    7  C   UNL     1      -9.602   7.640  67.628  1.00  0.00    -0.145 A  
HETATM    8  N   UNL     1      -9.284   7.128  68.842  1.00  0.00    -0.138 NA 
HETATM    9  N   UNL     1     -10.531   9.457  66.276  1.00  0.00    -0.126 NA 
HETATM   10  C   UNL     1     -10.217   8.898  67.477  1.00  0.00    -0.248 A  
HETATM   11  N   UNL     1     -11.444  11.303  67.345  1.00  0.00    -0.513 NA 
HETATM   12  C   UNL     1      -9.600   7.808  69.935  1.00  0.00    -0.164 A  
HETATM   13  C   UNL     1     -10.512   9.525  68.675  1.00  0.00    -0.211 A  
HETATM   14  C   UNL     1     -11.157  10.762  68.546  1.00  0.00    -0.262 A  
HETATM   15  N   UNL     1     -10.247   8.965  69.881  1.00  0.00    -0.194 NA 
BRANCH  14  16
HETATM   16  N   UNL     1     -11.603  11.483  69.648  1.00  0.00    -0.309 NA 
HETATM   17  C   UNL     1     -13.157  11.474  71.485  1.00  0.00    -0.429 C  
HETATM   18  C   UNL     1     -13.015  12.997  71.585  1.00  0.00    -0.417 C  
HETATM   19  C   UNL     1     -11.882  10.840  70.927  1.00  0.00    -0.297 C  
HETATM   20  C   UNL     1     -11.294  12.910  69.731  1.00  0.00    -0.037 C  
HETATM   21  C   UNL     1     -12.541  13.617  70.267  1.00  0.00    -0.253 C  
ENDBRANCH  14  16
BRANCH  12  22
HETATM   22  N   UNL     1      -9.241   7.330  71.177  1.00  0.00    -0.156 NA 
BRANCH  22  23
HETATM   23  C   UNL     1      -8.553   6.034  71.218  1.00  0.00    -0.129 C  
BRANCH  23  24
HETATM   24  C   UNL     1      -9.513   4.831  71.187  1.00  0.00    -0.157 C  
HETATM   25  O   UNL     1      -9.402   4.100  69.966  1.00  0.00    -0.130 OA 
HETATM   26  H   UNL     1      -9.994   3.358  69.947  1.00  0.00     0.000 HD 
ENDBRANCH  23  24
ENDBRANCH  22  23
BRANCH  22  27
HETATM   27  C   UNL     1      -9.086   8.259  72.298  1.00  0.00    -0.221 C  
BRANCH  27  28
HETATM   28  C   UNL     1      -9.708   7.700  73.591  1.00  0.00    -0.255 C  
HETATM   29  O   UNL     1     -11.115   7.492  73.447  1.00  0.00    -0.536 OA 
HETATM   30  H   UNL     1     -11.498   7.147  74.245  1.00  0.00     0.000 HD 
ENDBRANCH  27  28
ENDBRANCH  22  27
ENDBRANCH  12  22
BRANCH   7  31
HETATM   31  N   UNL     1      -9.223   6.831  66.558  1.00  0.00    -0.159 NA 
HETATM   32  C   UNL     1      -8.304   7.268  65.513  1.00  0.00    -0.133 C  
HETATM   33  C   UNL     1     -10.143   5.757  66.177  1.00  0.00    -0.006 C  
HETATM   34  C   UNL     1      -7.451   6.073  65.085  1.00  0.00    -0.084 C  
HETATM   35  C   UNL     1      -9.329   4.533  65.760  1.00  0.00    -0.162 C  
HETATM   36  C   UNL     1      -8.313   4.882  64.672  1.00  0.00    -0.134 C  
ENDBRANCH   7  31
ENDBRANCH   5   6
BRANCH   5  37
HETATM   37  C   UNL     1     -10.458  10.982  63.911  1.00  0.00    -0.354 C  
BRANCH  37  38
HETATM   38  C   UNL     1      -9.083  11.649  64.118  1.00  0.00     0.288 C  
HETATM   39  O   UNL     1      -8.013  10.707  64.061  1.00  0.00    -0.337 OA 
HETATM   40  H   UNL     1      -7.166  11.118  64.188  1.00  0.00     0.000 HD 
ENDBRANCH  37  38
ENDBRANCH   5  37
ENDBRANCH   4   5
ENDBRANCH   3   4
TORSDOF 12
ENDMDL
MODEL      112
REMARK 921   NORMALIZED FREE ENERGY PREDICTED BY IDOCK:   -4.77 KCAL/MOL
REMARK 922        TOTAL FREE ENERGY PREDICTED BY IDOCK:   -9.04 KCAL/MOL
REMARK 923 INTER-LIGAND FREE ENERGY PREDICTED BY IDOCK:   -7.28 KCAL/MOL
REMARK 924 INTRA-LIGAND FREE ENERGY PREDICTED BY IDOCK:   -1.76 KCAL/MOL
REMARK 927      BINDING AFFINITY PREDICTED BY RF-SCORE:    0.00 PKD
ROOT
HETATM    1  O   UNL     1      -9.688   6.141  72.780  1.00  0.00    -0.159 OA 
HETATM    2  H   UNL     1      -9.688   5.427  73.407  1.00  0.00     0.000 HD 
HETATM    3  C   UNL     1      -9.305   7.377  73.382  1.00  0.00    -0.212 C  
ENDROOT
BRANCH   3   4
HETATM    4  C   UNL     1      -9.303   8.538  72.363  1.00  0.00    -0.278 C  
BRANCH   4   5
HETATM    5  N   UNL     1     -10.401   8.520  71.372  1.00  0.00    -0.220 NA 
BRANCH   5   6
HETATM    6  C   UNL     1     -10.014   8.279  70.066  1.00  0.00    -0.188 A  
HETATM    7  C   UNL     1      -9.704   9.985  66.855  1.00  0.00    -0.189 A  
HETATM    8  N   UNL     1      -9.233   9.733  65.609  1.00  0.00    -0.182 NA 
HETATM    9  N   UNL     1     -10.094   9.251  69.157  1.00  0.00    -0.192 NA 
HETATM   10  C   UNL     1      -9.654   9.029  67.888  1.00  0.00    -0.147 A  
HETATM   11  N   UNL     1      -9.540   7.079  69.757  1.00  0.00    -0.152 NA 
HETATM   12  C   UNL     1      -8.747   8.531  65.331  1.00  0.00    -0.159 A  
HETATM   13  C   UNL     1      -9.137   7.807  67.497  1.00  0.00    -0.129 A  
HETATM   14  C   UNL     1      -9.112   6.832  68.502  1.00  0.00    -0.129 A  
HETATM   15  N   UNL     1      -8.734   7.553  66.228  1.00  0.00    -0.143 NA 
BRANCH  14  16
HETATM   16  N   UNL     1      -8.707   5.525  68.258  1.00  0.00    -0.099 NA 
HETATM   17  C   UNL     1      -9.440   3.234  68.210  1.00  0.00    -0.214 C  
HETATM   18  C   UNL     1      -7.979   2.786  68.337  1.00  0.00    -0.060 C  
HETATM   19  C   UNL     1      -9.539   4.588  67.509  1.00  0.00    -0.172 C  
HETATM   20  C   UNL     1      -7.277   5.217  68.254  1.00  0.00    -0.067 C  
HETATM   21  C   UNL     1      -7.098   3.872  68.963  1.00  0.00    -0.047 C  
ENDBRANCH  14  16
BRANCH  12  22
HETATM   22  N   UNL     1      -8.217   8.269  64.086  1.00  0.00    -0.140 NA 
BRANCH  22  23
HETATM   23  C   UNL     1      -8.256   9.358  63.103  1.00  0.00    -0.165 C  
BRANCH  23  24
HETATM   24  C   UNL     1      -7.011  10.262  63.141  1.00  0.00    -0.112 C  
HETATM   25  O   UNL     1      -6.572  10.496  64.478  1.00  0.00    -0.321 OA 
HETATM   26  H   UNL     1      -5.803  11.054  64.502  1.00  0.00     0.000 HD 
ENDBRANCH  23  24
ENDBRANCH  22  23
BRANCH  22  27
HETATM   27  C   UNL     1      -7.238   7.191  63.923  1.00  0.00    -0.077 C  
BRANCH  27  28
HETATM   28  C   UNL     1      -7.649   6.213  62.807  1.00  0.00    -0.079 C  
HETATM   29  O   UNL     1      -8.919   5.616  63.076  1.00  0.00    -0.341 OA 
HETATM   30  H   UNL     1      -9.171   5.013  62.387  1.00  0.00     0.000 HD 
ENDBRANCH  27  28
ENDBRANCH  22  27
ENDBRANCH  12  22
BRANCH   7  31
HETATM   31  N   UNL     1     -10.192  11.280  67.022  1.00  0.00    -0.209 NA 
HETATM   32  C   UNL     1     -11.583  11.573  67.345  1.00  0.00    -0.228 C  
HETATM   33  C   UNL     1      -9.462  12.358  66.351  1.00  0.00    -0.240 C  
HETATM   34  C   UNL     1     -11.620  12.789  68.272  1.00  0.00    -0.375 C  
HETATM   35  C   UNL     1      -9.458  13.590  67.255  1.00  0.00    -0.230 C  
HETATM   36  C   UNL     1     -10.876  13.980  67.673  1.00  0.00    -0.270 C  
ENDBRANCH   7  31
ENDBRANCH   5   6
BRANCH   5  37
HETATM   37  C   UNL     1     -11.517   9.448  71.592  1.00  0.00    -0.393 C  
BRANCH  37  38
HETATM   38  C   UNL     1     -12.853   8.716  71.831  1.00  0.00    -0.369 C  
HETATM   39  O   UNL     1     -13.852   9.095  70.884  1.00  0.00    -0.590 OA 
HETATM   40  H   UNL     1     -14.675   8.644  71.031  1.00  0.00     0.000 HD 
ENDBRANCH  37  38
ENDBRANCH   5  37
ENDBRANCH   4   5
ENDBRANCH   3   4
TORSDOF 12
ENDMDL
MODEL      113
REMARK 921   NORMALIZED FREE ENERGY PREDICTED BY IDOCK:   -4.76 KCAL/MOL
REMARK 922        TOTAL FREE ENERGY PREDICTED BY IDOCK:   -9.02 KCAL/MOL
REMARK 923 INTER-LIGAND FREE ENERGY PREDICTED BY IDOCK:   -7.52 KCAL/MOL
REMARK 924 INTRA-LIGAND FREE ENERGY PREDICTED BY IDOCK:   -1.50 KCAL/MOL
REMARK 927      BINDING AFFINITY PREDICTED BY RF-SCORE:    0.00 PKD
ROOT
HETATM    1  O   UNL     1     -14.377  12.016  72.872  1.00  0.00     0.135 OA 
HETATM    2  H   UNL     1     -15.247  12.125  73.238  1.00  0.00     0.000 HD 
HETATM    3  C   UNL     1     -13.899  13.219  72.270  1.00  0.00    -0.539 C  
ENDROOT
BRANCH   3   4
HETATM    4  C   UNL     1     -12.484  13.041  71.675  1.00  0.00     0.009 C  
BRANCH   4   5
HETATM    5  N   UNL     1     -12.395  13.127  70.202  1.00  0.00    -0.258 NA 
BRANCH   5   6
HETATM    6  C   UNL     1     -11.805  12.041  69.580  1.00  0.00    -0.333 A  
HETATM    7  C   UNL     1     -10.531  11.002  66.322  1.00  0.00    -0.254 A  
HETATM    8  N   UNL     1      -9.874   9.950  65.773  1.00  0.00    -0.272 NA 
HETATM    9  N   UNL     1     -11.512  12.094  68.281  1.00  0.00    -0.282 NA 
HETATM   10  C   UNL     1     -10.875  11.048  67.687  1.00  0.00    -0.256 A  
HETATM   11  N   UNL     1     -11.516  10.972  70.312  1.00  0.00    -0.298 NA 
HETATM   12  C   UNL     1      -9.580   8.903  66.532  1.00  0.00    -0.232 A  
HETATM   13  C   UNL     1     -10.532   9.906  68.390  1.00  0.00    -0.208 A  
HETATM   14  C   UNL     1     -10.898   9.918  69.743  1.00  0.00    -0.269 A  
HETATM   15  N   UNL     1      -9.936   8.837  67.808  1.00  0.00    -0.182 NA 
BRANCH  14  16
HETATM   16  N   UNL     1     -10.708   8.819  70.572  1.00  0.00    -0.215 NA 
HETATM   17  C   UNL     1     -11.632   7.593  72.425  1.00  0.00    -0.386 C  
HETATM   18  C   UNL     1     -10.249   6.986  72.685  1.00  0.00    -0.218 C  
HETATM   19  C   UNL     1     -11.810   7.938  70.946  1.00  0.00    -0.229 C  
HETATM   20  C   UNL     1      -9.381   8.210  70.646  1.00  0.00    -0.154 C  
HETATM   21  C   UNL     1      -9.124   7.853  72.112  1.00  0.00    -0.205 C  
ENDBRANCH  14  16
BRANCH  12  22
HETATM   22  N   UNL     1      -8.869   7.846  66.006  1.00  0.00    -0.160 NA 
BRANCH  22  23
HETATM   23  C   UNL     1      -9.117   6.522  66.588  1.00  0.00    -0.147 C  
BRANCH  23  24
HETATM   24  C   UNL     1     -10.148   5.692  65.801  1.00  0.00     0.230 C  
HETATM   25  O   UNL     1      -9.590   4.461  65.341  1.00  0.00    -0.162 OA 
HETATM   26  H   UNL     1     -10.226   3.949  64.855  1.00  0.00     0.000 HD 
ENDBRANCH  23  24
ENDBRANCH  22  23
BRANCH  22  27
HETATM   27  C   UNL     1      -8.312   7.943  64.655  1.00  0.00    -0.038 C  
BRANCH  27  28
HETATM   28  C   UNL     1      -6.776   8.053  64.679  1.00  0.00    -0.059 C  
HETATM   29  O   UNL     1      -6.306   8.538  65.938  1.00  0.00    -0.051 OA 
HETATM   30  H   UNL     1      -5.359   8.606  65.952  1.00  0.00     0.000 HD 
ENDBRANCH  27  28
ENDBRANCH  22  27
ENDBRANCH  12  22
BRANCH   7  31
HETATM   31  N   UNL     1     -10.787  12.038  65.425  1.00  0.00    -0.282 NA 
HETATM   32  C   UNL     1     -11.341  11.821  64.094  1.00  0.00    -0.352 C  
HETATM   33  C   UNL     1     -10.011  13.269  65.591  1.00  0.00    -0.230 C  
HETATM   34  C   UNL     1     -12.269  12.990  63.759  1.00  0.00    -0.536 C  
HETATM   35  C   UNL     1     -10.910  14.465  65.284  1.00  0.00    -0.370 C  
HETATM   36  C   UNL     1     -11.563  14.335  63.908  1.00  0.00     0.053 C  
ENDBRANCH   7  31
ENDBRANCH   5   6
BRANCH   5  37
HETATM   37  C   UNL     1     -12.159  14.455  69.620  1.00  0.00    -0.334 C  
BRANCH  37  38
HETATM   38  C   UNL     1     -10.734  14.974  69.897  1.00  0.00    -0.218 C  
HETATM   39  O   UNL     1      -9.871  14.806  68.773  1.00  0.00    -0.217 OA 
HETATM   40  H   UNL     1      -8.993  15.126  68.943  1.00  0.00     0.000 HD 
ENDBRANCH  37  38
ENDBRANCH   5  37
ENDBRANCH   4   5
ENDBRANCH   3   4
TORSDOF 12
ENDMDL
MODEL      114
REMARK 921   NORMALIZED FREE ENERGY PREDICTED BY IDOCK:   -4.75 KCAL/MOL
REMARK 922        TOTAL FREE ENERGY PREDICTED BY IDOCK:   -9.00 KCAL/MOL
REMARK 923 INTER-LIGAND FREE ENERGY PREDICTED BY IDOCK:   -8.91 KCAL/MOL
REMARK 924 INTRA-LIGAND FREE ENERGY PREDICTED BY IDOCK:   -0.09 KCAL/MOL
REMARK 927      BINDING AFFINITY PREDICTED BY RF-SCORE:    0.00 PKD
ROOT
HETATM    1  O   UNL     1     -12.403  15.379  72.681  1.00  0.00    -0.336 OA 
HETATM    2  H   UNL     1     -12.104  16.209  73.036  1.00  0.00     0.000 HD 
HETATM    3  C   UNL     1     -13.428  15.557  71.705  1.00  0.00    -0.494 C  
ENDROOT
BRANCH   3   4
HETATM    4  C   UNL     1     -13.912  14.208  71.127  1.00  0.00    -0.020 C  
BRANCH   4   5
HETATM    5  N   UNL     1     -13.094  13.029  71.483  1.00  0.00    -0.355 NA 
BRANCH   5   6
HETATM    6  C   UNL     1     -12.167  12.642  70.532  1.00  0.00    -0.299 A  
HETATM    7  C   UNL     1     -10.213   9.734  69.515  1.00  0.00    -0.221 A  
HETATM    8  N   UNL     1      -9.375   9.369  68.514  1.00  0.00    -0.137 NA 
HETATM    9  N   UNL     1     -11.667  11.407  70.552  1.00  0.00    -0.284 NA 
HETATM   10  C   UNL     1     -10.803  11.010  69.577  1.00  0.00    -0.216 A  
HETATM   11  N   UNL     1     -11.821  13.514  69.594  1.00  0.00    -0.319 NA 
HETATM   12  C   UNL     1      -9.060  10.254  67.578  1.00  0.00    -0.137 A  
HETATM   13  C   UNL     1     -10.406  11.862  68.562  1.00  0.00    -0.218 A  
HETATM   14  C   UNL     1     -10.956  13.149  68.627  1.00  0.00    -0.265 A  
HETATM   15  N   UNL     1      -9.515  11.500  67.606  1.00  0.00    -0.165 NA 
BRANCH  14  16
HETATM   16  N   UNL     1     -10.596  14.155  67.737  1.00  0.00    -0.241 NA 
HETATM   17  C   UNL     1     -10.952  15.012  65.517  1.00  0.00    -0.364 C  
HETATM   18  C   UNL     1      -9.618  15.761  65.616  1.00  0.00    -0.299 C  
HETATM   19  C   UNL     1     -11.581  14.829  66.898  1.00  0.00    -0.327 C  
HETATM   20  C   UNL     1      -9.377  14.921  67.991  1.00  0.00    -0.193 C  
HETATM   21  C   UNL     1      -8.678  15.127  66.645  1.00  0.00    -0.308 C  
ENDBRANCH  14  16
BRANCH  12  22
HETATM   22  N   UNL     1      -8.251   9.889  66.523  1.00  0.00    -0.120 NA 
BRANCH  22  23
HETATM   23  C   UNL     1      -7.717   8.522  66.536  1.00  0.00    -0.092 C  
BRANCH  23  24
HETATM   24  C   UNL     1      -8.465   7.564  65.591  1.00  0.00    -0.132 C  
HETATM   25  O   UNL     1      -9.789   7.297  66.053  1.00  0.00    -0.424 OA 
HETATM   26  H   UNL     1     -10.250   6.706  65.470  1.00  0.00     0.000 HD 
ENDBRANCH  23  24
ENDBRANCH  22  23
BRANCH  22  27
HETATM   27  C   UNL     1      -8.340  10.612  65.253  1.00  0.00    -0.127 C  
BRANCH  27  28
HETATM   28  C   UNL     1      -9.800  10.770  64.790  1.00  0.00    -0.300 C  
HETATM   29  O   UNL     1     -10.110  12.133  64.495  1.00  0.00    -0.284 OA 
HETATM   30  H   UNL     1     -11.011  12.230  64.209  1.00  0.00     0.000 HD 
ENDBRANCH  27  28
ENDBRANCH  22  27
ENDBRANCH  12  22
BRANCH   7  31
HETATM   31  N   UNL     1     -10.464   8.719  70.438  1.00  0.00    -0.202 NA 
HETATM   32  C   UNL     1     -11.521   7.729  70.268  1.00  0.00    -0.104 C  
HETATM   33  C   UNL     1     -10.042   8.958  71.820  1.00  0.00    -0.337 C  
HETATM   34  C   UNL     1     -11.029   6.393  70.827  1.00  0.00    -0.346 C  
HETATM   35  C   UNL     1      -9.524   7.648  72.412  1.00  0.00    -0.217 C  
HETATM   36  C   UNL     1     -10.552   6.525  72.271  1.00  0.00    -0.238 C  
ENDBRANCH   7  31
ENDBRANCH   5   6
BRANCH   5  37
HETATM   37  C   UNL     1     -13.747  11.973  72.267  1.00  0.00     0.067 C  
BRANCH  37  38
HETATM   38  C   UNL     1     -13.526  10.571  71.664  1.00  0.00    -0.214 C  
HETATM   39  O   UNL     1     -13.421   9.563  72.669  1.00  0.00    -0.642 OA 
HETATM   40  H   UNL     1     -13.286   8.699  72.298  1.00  0.00     0.000 HD 
ENDBRANCH  37  38
ENDBRANCH   5  37
ENDBRANCH   4   5
ENDBRANCH   3   4
TORSDOF 12
ENDMDL
MODEL      115
REMARK 921   NORMALIZED FREE ENERGY PREDICTED BY IDOCK:   -4.68 KCAL/MOL
REMARK 922        TOTAL FREE ENERGY PREDICTED BY IDOCK:   -8.88 KCAL/MOL
REMARK 923 INTER-LIGAND FREE ENERGY PREDICTED BY IDOCK:   -8.44 KCAL/MOL
REMARK 924 INTRA-LIGAND FREE ENERGY PREDICTED BY IDOCK:   -0.44 KCAL/MOL
REMARK 927      BINDING AFFINITY PREDICTED BY RF-SCORE:    0.00 PKD
ROOT
HETATM    1  O   UNL     1     -12.826  11.470  62.823  1.00  0.00    -0.857 OA 
HETATM    2  H   UNL     1     -12.631  11.444  61.894  1.00  0.00     0.000 HD 
HETATM    3  C   UNL     1     -12.328  12.657  63.438  1.00  0.00    -0.456 C  
ENDROOT
BRANCH   3   4
HETATM    4  C   UNL     1     -12.645  12.699  64.950  1.00  0.00    -0.450 C  
BRANCH   4   5
HETATM    5  N   UNL     1     -11.478  12.855  65.844  1.00  0.00    -0.329 NA 
BRANCH   5   6
HETATM    6  C   UNL     1     -10.803  11.686  66.145  1.00  0.00    -0.294 A  
HETATM    7  C   UNL     1     -10.638   9.106  68.720  1.00  0.00    -0.181 A  
HETATM    8  N   UNL     1     -10.019   7.919  68.935  1.00  0.00    -0.185 NA 
HETATM    9  N   UNL     1     -11.062  11.041  67.282  1.00  0.00    -0.301 NA 
HETATM   10  C   UNL     1     -10.442   9.858  67.545  1.00  0.00    -0.255 A  
HETATM   11  N   UNL     1      -9.926  11.217  65.267  1.00  0.00    -0.245 NA 
HETATM   12  C   UNL     1      -9.161   7.463  68.031  1.00  0.00    -0.130 A  
HETATM   13  C   UNL     1      -9.524   9.303  66.671  1.00  0.00    -0.191 A  
HETATM   14  C   UNL     1      -9.289  10.055  65.513  1.00  0.00    -0.216 A  
HETATM   15  N   UNL     1      -8.864   8.148  66.935  1.00  0.00    -0.127 NA 
BRANCH  14  16
HETATM   16  N   UNL     1      -8.334   9.687  64.572  1.00  0.00    -0.156 NA 
HETATM   17  C   UNL     1      -7.851   8.151  62.783  1.00  0.00    -0.140 C  
HETATM   18  C   UNL     1      -6.357   8.438  62.970  1.00  0.00    -0.086 C  
HETATM   19  C   UNL     1      -8.696   9.356  63.197  1.00  0.00    -0.213 C  
HETATM   20  C   UNL     1      -6.953  10.131  64.754  1.00  0.00    -0.126 C  
HETATM   21  C   UNL     1      -6.043   8.960  64.375  1.00  0.00    -0.070 C  
ENDBRANCH  14  16
BRANCH  12  22
HETATM   22  N   UNL     1      -8.559   6.235  68.206  1.00  0.00    -0.117 NA 
BRANCH  22  23
HETATM   23  C   UNL     1      -7.409   5.930  67.347  1.00  0.00    -0.077 C  
BRANCH  23  24
HETATM   24  C   UNL     1      -7.801   5.589  65.898  1.00  0.00    -0.104 C  
HETATM   25  O   UNL     1      -8.996   4.810  65.846  1.00  0.00    -0.122 OA 
HETATM   26  H   UNL     1      -9.238   4.600  64.951  1.00  0.00     0.000 HD 
ENDBRANCH  23  24
ENDBRANCH  22  23
BRANCH  22  27
HETATM   27  C   UNL     1      -8.716   5.522  69.475  1.00  0.00    -0.104 C  
BRANCH  27  28
HETATM   28  C   UNL     1      -9.656   4.310  69.334  1.00  0.00    -0.197 C  
HETATM   29  O   UNL     1     -10.026   3.784  70.610  1.00  0.00    -0.149 OA 
HETATM   30  H   UNL     1     -10.605   3.036  70.522  1.00  0.00     0.000 HD 
ENDBRANCH  27  28
ENDBRANCH  22  27
ENDBRANCH  12  22
BRANCH   7  31
HETATM   31  N   UNL     1     -11.511   9.479  69.741  1.00  0.00    -0.088 NA 
HETATM   32  C   UNL     1     -12.104   8.526  70.671  1.00  0.00     0.035 C  
HETATM   33  C   UNL     1     -12.258  10.725  69.555  1.00  0.00    -0.221 C  
HETATM   34  C   UNL     1     -12.217   9.193  72.043  1.00  0.00    -0.443 C  
HETATM   35  C   UNL     1     -12.377  11.435  70.903  1.00  0.00    -0.483 C  
HETATM   36  C   UNL     1     -12.976  10.516  71.968  1.00  0.00    -0.490 C  
ENDBRANCH   7  31
ENDBRANCH   5   6
BRANCH   5  37
HETATM   37  C   UNL     1     -11.570  13.878  66.894  1.00  0.00    -0.378 C  
BRANCH  37  38
HETATM   38  C   UNL     1     -10.433  14.916  66.806  1.00  0.00    -0.284 C  
HETATM   39  O   UNL     1      -9.668  14.980  68.010  1.00  0.00    -0.210 OA 
HETATM   40  H   UNL     1      -8.968  15.620  67.956  1.00  0.00     0.000 HD 
ENDBRANCH  37  38
ENDBRANCH   5  37
ENDBRANCH   4   5
ENDBRANCH   3   4
TORSDOF 12
ENDMDL
MODEL      116
REMARK 921   NORMALIZED FREE ENERGY PREDICTED BY IDOCK:   -4.65 KCAL/MOL
REMARK 922        TOTAL FREE ENERGY PREDICTED BY IDOCK:   -8.83 KCAL/MOL
REMARK 923 INTER-LIGAND FREE ENERGY PREDICTED BY IDOCK:   -8.00 KCAL/MOL
REMARK 924 INTRA-LIGAND FREE ENERGY PREDICTED BY IDOCK:   -0.84 KCAL/MOL
REMARK 927      BINDING AFFINITY PREDICTED BY RF-SCORE:    0.00 PKD
ROOT
HETATM    1  O   UNL     1      -8.475   6.824  71.100  1.00  0.00    -0.123 OA 
HETATM    2  H   UNL     1      -8.032   6.027  71.370  1.00  0.00     0.000 HD 
HETATM    3  C   UNL     1      -7.582   7.740  70.469  1.00  0.00    -0.079 C  
ENDROOT
BRANCH   3   4
HETATM    4  C   UNL     1      -8.302   9.035  70.029  1.00  0.00    -0.142 C  
BRANCH   4   5
HETATM    5  N   UNL     1      -8.732   9.078  68.615  1.00  0.00    -0.132 NA 
BRANCH   5   6
HETATM    6  C   UNL     1      -8.910  10.345  68.089  1.00  0.00    -0.132 A  
HETATM    7  C   UNL     1      -7.651  13.751  68.445  1.00  0.00    -0.135 A  
HETATM    8  N   UNL     1      -7.791  14.958  67.843  1.00  0.00    -0.126 NA 
HETATM    9  N   UNL     1      -8.207  11.371  68.569  1.00  0.00    -0.149 NA 
HETATM   10  C   UNL     1      -8.339  12.604  68.006  1.00  0.00    -0.175 A  
HETATM   11  N   UNL     1      -9.765  10.500  67.086  1.00  0.00    -0.168 NA 
HETATM   12  C   UNL     1      -8.639  15.081  66.830  1.00  0.00    -0.249 A  
HETATM   13  C   UNL     1      -9.203  12.837  66.951  1.00  0.00    -0.229 A  
HETATM   14  C   UNL     1      -9.923  11.715  66.523  1.00  0.00    -0.203 A  
HETATM   15  N   UNL     1      -9.380  14.066  66.405  1.00  0.00    -0.256 NA 
BRANCH  14  16
HETATM   16  N   UNL     1     -10.897  11.791  65.534  1.00  0.00    -0.291 NA 
HETATM   17  C   UNL     1     -11.256  12.053  63.169  1.00  0.00    -0.261 C  
HETATM   18  C   UNL     1     -12.691  12.506  63.459  1.00  0.00    -0.366 C  
HETATM   19  C   UNL     1     -10.751  11.104  64.255  1.00  0.00    -0.333 C  
HETATM   20  C   UNL     1     -12.276  12.085  65.921  1.00  0.00     0.332 C  
HETATM   21  C   UNL     1     -12.845  13.055  64.881  1.00  0.00    -0.368 C  
ENDBRANCH  14  16
BRANCH  12  22
HETATM   22  N   UNL     1      -8.760  16.286  66.171  1.00  0.00    -0.332 NA 
BRANCH  22  23
HETATM   23  C   UNL     1     -10.120  16.748  65.873  1.00  0.00    -0.304 C  
BRANCH  23  24
HETATM   24  C   UNL     1     -10.821  15.922  64.779  1.00  0.00    -0.324 C  
HETATM   25  O   UNL     1     -11.503  16.758  63.845  1.00  0.00    -1.484 OA 
HETATM   26  H   UNL     1     -11.936  16.249  63.170  1.00  0.00     0.000 HD 
ENDBRANCH  23  24
ENDBRANCH  22  23
BRANCH  22  27
HETATM   27  C   UNL     1      -7.668  17.260  66.230  1.00  0.00    -0.318 C  
BRANCH  27  28
HETATM   28  C   UNL     1      -8.197  18.703  66.330  1.00  0.00    -0.277 C  
HETATM   29  O   UNL     1      -7.510  19.576  65.432  1.00  0.00    -0.416 OA 
HETATM   30  H   UNL     1      -7.837  20.465  65.494  1.00  0.00     0.000 HD 
ENDBRANCH  27  28
ENDBRANCH  22  27
ENDBRANCH  12  22
BRANCH   7  31
HETATM   31  N   UNL     1      -6.736  13.750  69.497  1.00  0.00    -0.083 NA 
HETATM   32  C   UNL     1      -6.323  14.961  70.197  1.00  0.00    -0.162 C  
HETATM   33  C   UNL     1      -5.785  12.637  69.551  1.00  0.00    -0.097 C  
HETATM   34  C   UNL     1      -6.109  14.619  71.673  1.00  0.00     0.271 C  
HETATM   35  C   UNL     1      -5.558  12.251  71.011  1.00  0.00    -0.048 C  
HETATM   36  C   UNL     1      -5.135  13.457  71.850  1.00  0.00    -0.159 C  
ENDBRANCH   7  31
ENDBRANCH   5   6
BRANCH   5  37
HETATM   37  C   UNL     1      -9.640   8.018  68.158  1.00  0.00    -0.153 C  
BRANCH  37  38
HETATM   38  C   UNL     1      -9.046   7.193  66.998  1.00  0.00    -0.134 C  
HETATM   39  O   UNL     1      -9.331   7.771  65.725  1.00  0.00    -0.392 OA 
HETATM   40  H   UNL     1      -8.965   7.263  65.011  1.00  0.00     0.000 HD 
ENDBRANCH  37  38
ENDBRANCH   5  37
ENDBRANCH   4   5
ENDBRANCH   3   4
TORSDOF 12
ENDMDL
MODEL      117
REMARK 921   NORMALIZED FREE ENERGY PREDICTED BY IDOCK:   -4.63 KCAL/MOL
REMARK 922        TOTAL FREE ENERGY PREDICTED BY IDOCK:   -8.80 KCAL/MOL
REMARK 923 INTER-LIGAND FREE ENERGY PREDICTED BY IDOCK:   -7.94 KCAL/MOL
REMARK 924 INTRA-LIGAND FREE ENERGY PREDICTED BY IDOCK:   -0.86 KCAL/MOL
REMARK 927      BINDING AFFINITY PREDICTED BY RF-SCORE:    0.00 PKD
ROOT
HETATM    1  O   UNL     1      -5.356   9.133  64.573  1.00  0.00    -0.052 OA 
HETATM    2  H   UNL     1      -4.675   9.774  64.736  1.00  0.00     0.000 HD 
HETATM    3  C   UNL     1      -6.524   9.729  64.011  1.00  0.00    -0.119 C  
ENDROOT
BRANCH   3   4
HETATM    4  C   UNL     1      -7.632   8.685  63.745  1.00  0.00    -0.127 C  
BRANCH   4   5
HETATM    5  N   UNL     1      -8.316   8.160  64.946  1.00  0.00    -0.151 NA 
BRANCH   5   6
HETATM    6  C   UNL     1      -9.010   9.097  65.690  1.00  0.00    -0.203 A  
HETATM    7  C   UNL     1      -9.996   9.800  69.132  1.00  0.00    -0.189 A  
HETATM    8  N   UNL     1     -10.606  10.785  69.836  1.00  0.00    -0.156 NA 
HETATM    9  N   UNL     1      -9.155   8.930  67.005  1.00  0.00    -0.132 NA 
HETATM   10  C   UNL     1      -9.783   9.886  67.743  1.00  0.00    -0.150 A  
HETATM   11  N   UNL     1      -9.493  10.166  65.070  1.00  0.00    -0.248 NA 
HETATM   12  C   UNL     1     -11.063  11.852  69.194  1.00  0.00    -0.228 A  
HETATM   13  C   UNL     1     -10.303  11.032  67.166  1.00  0.00    -0.220 A  
HETATM   14  C   UNL     1     -10.132  11.118  65.778  1.00  0.00    -0.249 A  
HETATM   15  N   UNL     1     -10.969  11.974  67.877  1.00  0.00    -0.208 NA 
BRANCH  14  16
HETATM   16  N   UNL     1     -10.669  12.159  65.029  1.00  0.00    -0.286 NA 
HETATM   17  C   UNL     1     -11.704  14.327  65.166  1.00  0.00    -0.368 C  
HETATM   18  C   UNL     1     -12.273  14.121  63.758  1.00  0.00    -0.183 C  
HETATM   19  C   UNL     1     -10.396  13.557  65.347  1.00  0.00    -0.319 C  
HETATM   20  C   UNL     1     -11.051  11.907  63.640  1.00  0.00    -0.440 C  
HETATM   21  C   UNL     1     -12.373  12.638  63.390  1.00  0.00    -0.553 C  
ENDBRANCH  14  16
BRANCH  12  22
HETATM   22  N   UNL     1     -11.641  12.888  69.897  1.00  0.00    -0.228 NA 
BRANCH  22  23
HETATM   23  C   UNL     1     -11.633  14.210  69.260  1.00  0.00    -0.304 C  
BRANCH  23  24
HETATM   24  C   UNL     1     -10.310  14.973  69.451  1.00  0.00    -0.235 C  
HETATM   25  O   UNL     1      -9.303  14.514  68.550  1.00  0.00    -0.195 OA 
HETATM   26  H   UNL     1      -8.487  14.985  68.668  1.00  0.00     0.000 HD 
ENDBRANCH  23  24
ENDBRANCH  22  23
BRANCH  22  27
HETATM   27  C   UNL     1     -12.630  12.599  70.937  1.00  0.00    -0.249 C  
BRANCH  27  28
HETATM   28  C   UNL     1     -12.833  13.800  71.879  1.00  0.00    -0.309 C  
HETATM   29  O   UNL     1     -14.179  13.871  72.354  1.00  0.00    -0.620 OA 
HETATM   30  H   UNL     1     -14.304  14.612  72.935  1.00  0.00     0.000 HD 
ENDBRANCH  27  28
ENDBRANCH  22  27
ENDBRANCH  12  22
BRANCH   7  31
HETATM   31  N   UNL     1      -9.564   8.732  69.916  1.00  0.00    -0.173 NA 
HETATM   32  C   UNL     1      -8.382   7.937  69.602  1.00  0.00    -0.131 C  
HETATM   33  C   UNL     1     -10.572   8.060  70.740  1.00  0.00    -0.214 C  
HETATM   34  C   UNL     1      -7.703   7.538  70.912  1.00  0.00    -0.090 C  
HETATM   35  C   UNL     1      -9.938   7.661  72.071  1.00  0.00    -0.220 C  
HETATM   36  C   UNL     1      -8.670   6.832  71.860  1.00  0.00    -0.123 C  
ENDBRANCH   7  31
ENDBRANCH   5   6
BRANCH   5  37
HETATM   37  C   UNL     1      -7.649   7.071  65.673  1.00  0.00    -0.093 C  
BRANCH  37  38
HETATM   38  C   UNL     1      -7.221   5.917  64.744  1.00  0.00    -0.063 C  
HETATM   39  O   UNL     1      -8.165   4.846  64.745  1.00  0.00    -0.113 OA 
HETATM   40  H   UNL     1      -7.901   4.136  64.173  1.00  0.00     0.000 HD 
ENDBRANCH  37  38
ENDBRANCH   5  37
ENDBRANCH   4   5
ENDBRANCH   3   4
TORSDOF 12
ENDMDL
MODEL      118
REMARK 921   NORMALIZED FREE ENERGY PREDICTED BY IDOCK:   -4.63 KCAL/MOL
REMARK 922        TOTAL FREE ENERGY PREDICTED BY IDOCK:   -8.80 KCAL/MOL
REMARK 923 INTER-LIGAND FREE ENERGY PREDICTED BY IDOCK:   -8.17 KCAL/MOL
REMARK 924 INTRA-LIGAND FREE ENERGY PREDICTED BY IDOCK:   -0.63 KCAL/MOL
REMARK 927      BINDING AFFINITY PREDICTED BY RF-SCORE:    0.00 PKD
ROOT
HETATM    1  O   UNL     1      -8.635   8.666  64.977  1.00  0.00    -0.190 OA 
HETATM    2  H   UNL     1      -8.972   7.778  64.945  1.00  0.00     0.000 HD 
HETATM    3  C   UNL     1      -9.635   9.598  65.386  1.00  0.00    -0.291 C  
ENDROOT
BRANCH   3   4
HETATM    4  C   UNL     1      -9.088  11.043  65.439  1.00  0.00    -0.195 C  
BRANCH   4   5
HETATM    5  N   UNL     1      -8.691  11.526  66.779  1.00  0.00    -0.173 NA 
BRANCH   5   6
HETATM    6  C   UNL     1      -8.912  10.639  67.817  1.00  0.00    -0.140 A  
HETATM    7  C   UNL     1     -11.080  10.170  70.714  1.00  0.00    -0.298 A  
HETATM    8  N   UNL     1     -11.323   9.233  71.664  1.00  0.00    -0.381 NA 
HETATM    9  N   UNL     1      -9.857  10.895  68.723  1.00  0.00    -0.191 NA 
HETATM   10  C   UNL     1     -10.114   9.989  69.707  1.00  0.00    -0.248 A  
HETATM   11  N   UNL     1      -8.188   9.528  67.866  1.00  0.00    -0.113 NA 
HETATM   12  C   UNL     1     -10.598   8.123  71.679  1.00  0.00    -0.232 A  
HETATM   13  C   UNL     1      -9.406   8.805  69.814  1.00  0.00    -0.163 A  
HETATM   14  C   UNL     1      -8.415   8.624  68.840  1.00  0.00    -0.129 A  
HETATM   15  N   UNL     1      -9.618   7.911  70.811  1.00  0.00    -0.165 NA 
BRANCH  14  16
HETATM   16  N   UNL     1      -7.554   7.533  68.853  1.00  0.00    -0.103 NA 
HETATM   17  C   UNL     1      -7.403   5.166  68.443  1.00  0.00    -0.071 C  
HETATM   18  C   UNL     1      -6.146   5.117  69.320  1.00  0.00    -0.025 C  
HETATM   19  C   UNL     1      -7.558   6.537  67.786  1.00  0.00    -0.106 C  
HETATM   20  C   UNL     1      -6.301   7.628  69.600  1.00  0.00    -0.031 C  
HETATM   21  C   UNL     1      -6.088   6.287  70.307  1.00  0.00    -0.030 C  
ENDBRANCH  14  16
BRANCH  12  22
HETATM   22  N   UNL     1     -10.862   7.135  72.604  1.00  0.00    -0.258 NA 
BRANCH  22  23
HETATM   23  C   UNL     1     -11.442   5.886  72.097  1.00  0.00    -0.276 C  
BRANCH  23  24
HETATM   24  C   UNL     1     -10.500   4.676  72.229  1.00  0.00    -0.170 C  
HETATM   25  O   UNL     1      -9.516   4.661  71.195  1.00  0.00    -0.138 OA 
HETATM   26  H   UNL     1      -8.935   3.914  71.276  1.00  0.00     0.000 HD 
ENDBRANCH  23  24
ENDBRANCH  22  23
BRANCH  22  27
HETATM   27  C   UNL     1     -10.150   7.128  73.884  1.00  0.00    -0.317 C  
BRANCH  27  28
HETATM   28  C   UNL     1      -8.624   7.179  73.686  1.00  0.00    -0.146 C  
HETATM   29  O   UNL     1      -8.098   8.468  74.009  1.00  0.00    -0.366 OA 
HETATM   30  H   UNL     1      -7.156   8.499  73.887  1.00  0.00     0.000 HD 
ENDBRANCH  27  28
ENDBRANCH  22  27
ENDBRANCH  12  22
BRANCH   7  31
HETATM   31  N   UNL     1     -11.903  11.291  70.806  1.00  0.00    -0.277 NA 
HETATM   32  C   UNL     1     -13.086  11.346  71.657  1.00  0.00    -0.393 C  
HETATM   33  C   UNL     1     -11.907  12.209  69.664  1.00  0.00    -0.322 C  
HETATM   34  C   UNL     1     -13.216  12.763  72.216  1.00  0.00    -0.491 C  
HETATM   35  C   UNL     1     -12.016  13.642  70.182  1.00  0.00    -0.407 C  
HETATM   36  C   UNL     1     -13.222  13.812  71.107  1.00  0.00    -0.277 C  
ENDBRANCH   7  31
ENDBRANCH   5   6
BRANCH   5  37
HETATM   37  C   UNL     1      -8.873  12.957  67.055  1.00  0.00    -0.208 C  
BRANCH  37  38
HETATM   38  C   UNL     1     -10.092  13.550  66.320  1.00  0.00    -0.298 C  
HETATM   39  O   UNL     1      -9.716  14.262  65.141  1.00  0.00    -0.551 OA 
HETATM   40  H   UNL     1     -10.467  14.626  64.688  1.00  0.00     0.000 HD 
ENDBRANCH  37  38
ENDBRANCH   5  37
ENDBRANCH   4   5
ENDBRANCH   3   4
TORSDOF 12
ENDMDL
MODEL      119
REMARK 921   NORMALIZED FREE ENERGY PREDICTED BY IDOCK:   -4.61 KCAL/MOL
REMARK 922        TOTAL FREE ENERGY PREDICTED BY IDOCK:   -8.77 KCAL/MOL
REMARK 923 INTER-LIGAND FREE ENERGY PREDICTED BY IDOCK:   -7.56 KCAL/MOL
REMARK 924 INTRA-LIGAND FREE ENERGY PREDICTED BY IDOCK:   -1.21 KCAL/MOL
REMARK 927      BINDING AFFINITY PREDICTED BY RF-SCORE:    0.00 PKD
ROOT
HETATM    1  O   UNL     1      -6.761  10.775  64.351  1.00  0.00    -0.355 OA 
HETATM    2  H   UNL     1      -6.512  11.688  64.437  1.00  0.00     0.000 HD 
HETATM    3  C   UNL     1      -5.626   9.929  64.173  1.00  0.00    -0.100 C  
ENDROOT
BRANCH   3   4
HETATM    4  C   UNL     1      -6.031   8.444  64.035  1.00  0.00    -0.067 C  
BRANCH   4   5
HETATM    5  N   UNL     1      -7.485   8.178  64.009  1.00  0.00    -0.107 NA 
BRANCH   5   6
HETATM    6  C   UNL     1      -8.093   8.098  65.249  1.00  0.00    -0.136 A  
HETATM    7  C   UNL     1     -10.087  10.111  67.549  1.00  0.00    -0.201 A  
HETATM    8  N   UNL     1     -10.744   9.962  68.726  1.00  0.00    -0.217 NA 
HETATM    9  N   UNL     1      -8.737   9.155  65.745  1.00  0.00    -0.154 NA 
HETATM   10  C   UNL     1      -9.389   9.053  66.936  1.00  0.00    -0.158 A  
HETATM   11  N   UNL     1      -8.045   6.946  65.905  1.00  0.00    -0.112 NA 
HETATM   12  C   UNL     1     -10.695   8.794  69.352  1.00  0.00    -0.169 A  
HETATM   13  C   UNL     1      -9.390   7.880  67.671  1.00  0.00    -0.143 A  
HETATM   14  C   UNL     1      -8.669   6.826  67.094  1.00  0.00    -0.119 A  
HETATM   15  N   UNL     1      -9.996   7.771  68.879  1.00  0.00    -0.177 NA 
BRANCH  14  16
HETATM   16  N   UNL     1      -8.495   5.607  67.739  1.00  0.00    -0.103 NA 
HETATM   17  C   UNL     1      -6.853   4.089  68.626  1.00  0.00    -0.047 C  
HETATM   18  C   UNL     1      -7.885   2.958  68.545  1.00  0.00    -0.057 C  
HETATM   19  C   UNL     1      -7.536   5.442  68.826  1.00  0.00    -0.079 C  
HETATM   20  C   UNL     1      -9.594   4.641  67.735  1.00  0.00    -0.159 C  
HETATM   21  C   UNL     1      -8.981   3.255  67.518  1.00  0.00    -0.178 C  
ENDBRANCH  14  16
BRANCH  12  22
HETATM   22  N   UNL     1     -11.397   8.607  70.524  1.00  0.00    -0.248 NA 
BRANCH  22  23
HETATM   23  C   UNL     1     -11.765   9.810  71.279  1.00  0.00    -0.394 C  
BRANCH  23  24
HETATM   24  C   UNL     1     -13.207   9.777  71.817  1.00  0.00    -0.436 C  
HETATM   25  O   UNL     1     -13.564  11.010  72.439  1.00  0.00    -0.541 OA 
HETATM   26  H   UNL     1     -14.454  10.990  72.771  1.00  0.00     0.000 HD 
ENDBRANCH  23  24
ENDBRANCH  22  23
BRANCH  22  27
HETATM   27  C   UNL     1     -12.157   7.371  70.727  1.00  0.00    -0.200 C  
BRANCH  27  28
HETATM   28  C   UNL     1     -11.434   6.410  71.689  1.00  0.00    -0.303 C  
HETATM   29  O   UNL     1     -12.349   5.797  72.600  1.00  0.00    -0.519 OA 
HETATM   30  H   UNL     1     -11.902   5.205  73.193  1.00  0.00     0.000 HD 
ENDBRANCH  27  28
ENDBRANCH  22  27
ENDBRANCH  12  22
BRANCH   7  31
HETATM   31  N   UNL     1     -10.210  11.382  66.991  1.00  0.00    -0.207 NA 
HETATM   32  C   UNL     1      -9.931  12.608  67.730  1.00  0.00    -0.218 C  
HETATM   33  C   UNL     1     -11.127  11.526  65.858  1.00  0.00    -0.214 C  
HETATM   34  C   UNL     1      -9.306  13.622  66.770  1.00  0.00    -0.269 C  
HETATM   35  C   UNL     1     -10.529  12.519  64.862  1.00  0.00    -0.328 C  
HETATM   36  C   UNL     1     -10.179  13.845  65.537  1.00  0.00    -0.348 C  
ENDBRANCH   7  31
ENDBRANCH   5   6
BRANCH   5  37
HETATM   37  C   UNL     1      -7.986   7.297  62.947  1.00  0.00    -0.106 C  
BRANCH  37  38
HETATM   38  C   UNL     1      -7.717   5.807  63.241  1.00  0.00    -0.089 C  
HETATM   39  O   UNL     1      -8.919   5.087  63.515  1.00  0.00    -0.300 OA 
HETATM   40  H   UNL     1      -8.753   4.169  63.696  1.00  0.00     0.000 HD 
ENDBRANCH  37  38
ENDBRANCH   5  37
ENDBRANCH   4   5
ENDBRANCH   3   4
TORSDOF 12
ENDMDL
MODEL      120
REMARK 921   NORMALIZED FREE ENERGY PREDICTED BY IDOCK:   -4.61 KCAL/MOL
REMARK 922        TOTAL FREE ENERGY PREDICTED BY IDOCK:   -8.76 KCAL/MOL
REMARK 923 INTER-LIGAND FREE ENERGY PREDICTED BY IDOCK:   -9.07 KCAL/MOL
REMARK 924 INTRA-LIGAND FREE ENERGY PREDICTED BY IDOCK:    0.31 KCAL/MOL
REMARK 927      BINDING AFFINITY PREDICTED BY RF-SCORE:    0.00 PKD
ROOT
HETATM    1  O   UNL     1      -6.801   8.463  66.323  1.00  0.00    -0.070 OA 
HETATM    2  H   UNL     1      -6.691   7.587  65.971  1.00  0.00     0.000 HD 
HETATM    3  C   UNL     1      -7.433   9.336  65.388  1.00  0.00    -0.098 C  
ENDROOT
BRANCH   3   4
HETATM    4  C   UNL     1      -7.613  10.760  65.960  1.00  0.00    -0.130 C  
BRANCH   4   5
HETATM    5  N   UNL     1      -8.859  11.453  65.569  1.00  0.00    -0.097 NA 
BRANCH   5   6
HETATM    6  C   UNL     1      -9.462  12.194  66.569  1.00  0.00    -0.231 A  
HETATM    7  C   UNL     1     -11.351  11.755  69.660  1.00  0.00    -0.215 A  
HETATM    8  N   UNL     1     -11.852  12.515  70.665  1.00  0.00    -0.096 NA 
HETATM    9  N   UNL     1     -10.107  11.578  67.560  1.00  0.00    -0.182 NA 
HETATM   10  C   UNL     1     -10.644  12.309  68.575  1.00  0.00    -0.234 A  
HETATM   11  N   UNL     1      -9.355  13.516  66.530  1.00  0.00    -0.245 NA 
HETATM   12  C   UNL     1     -11.715  13.833  70.610  1.00  0.00    -0.081 A  
HETATM   13  C   UNL     1     -10.562  13.690  68.606  1.00  0.00    -0.248 A  
HETATM   14  C   UNL     1      -9.893  14.261  67.516  1.00  0.00    -0.231 A  
HETATM   15  N   UNL     1     -11.128  14.437  69.585  1.00  0.00    -0.234 NA 
BRANCH  14  16
HETATM   16  N   UNL     1      -9.796  15.637  67.345  1.00  0.00    -0.224 NA 
HETATM   17  C   UNL     1      -8.354  17.541  67.640  1.00  0.00    -0.215 C  
HETATM   18  C   UNL     1      -9.584  18.454  67.588  1.00  0.00    -0.290 C  
HETATM   19  C   UNL     1      -8.584  16.265  66.829  1.00  0.00    -0.237 C  
HETATM   20  C   UNL     1     -11.020  16.414  67.154  1.00  0.00    -0.082 C  
HETATM   21  C   UNL     1     -10.869  17.708  67.960  1.00  0.00    -0.240 C  
ENDBRANCH  14  16
BRANCH  12  22
HETATM   22  N   UNL     1     -12.171  14.621  71.645  1.00  0.00    -0.339 NA 
BRANCH  22  23
HETATM   23  C   UNL     1     -12.726  13.928  72.814  1.00  0.00    -0.132 C  
BRANCH  23  24
HETATM   24  C   UNL     1     -14.034  13.173  72.513  1.00  0.00    -0.303 C  
HETATM   25  O   UNL     1     -13.878  11.764  72.680  1.00  0.00    -0.300 OA 
HETATM   26  H   UNL     1     -14.685  11.298  72.495  1.00  0.00     0.000 HD 
ENDBRANCH  23  24
ENDBRANCH  22  23
BRANCH  22  27
HETATM   27  C   UNL     1     -11.672  15.990  71.793  1.00  0.00    -0.509 C  
BRANCH  27  28
HETATM   28  C   UNL     1     -11.919  16.535  73.212  1.00  0.00    -0.355 C  
HETATM   29  O   UNL     1     -13.288  16.396  73.595  1.00  0.00    -0.773 OA 
HETATM   30  H   UNL     1     -13.440  16.733  74.470  1.00  0.00     0.000 HD 
ENDBRANCH  27  28
ENDBRANCH  22  27
ENDBRANCH  12  22
BRANCH   7  31
HETATM   31  N   UNL     1     -11.562  10.387  69.829  1.00  0.00    -0.269 NA 
HETATM   32  C   UNL     1     -10.853   9.370  69.062  1.00  0.00    -0.136 C  
HETATM   33  C   UNL     1     -12.859   9.976  70.372  1.00  0.00    -0.027 C  
HETATM   34  C   UNL     1     -10.601   8.165  69.971  1.00  0.00    -0.239 C  
HETATM   35  C   UNL     1     -12.650   8.783  71.303  1.00  0.00    -0.285 C  
HETATM   36  C   UNL     1     -11.893   7.654  70.603  1.00  0.00    -0.169 C  
ENDBRANCH   7  31
ENDBRANCH   5   6
BRANCH   5  37
HETATM   37  C   UNL     1      -9.733  10.768  64.608  1.00  0.00    -0.289 C  
BRANCH  37  38
HETATM   38  C   UNL     1     -10.373  11.740  63.597  1.00  0.00    -0.434 C  
HETATM   39  O   UNL     1     -11.694  11.345  63.230  1.00  0.00    -0.831 OA 
HETATM   40  H   UNL     1     -12.088  11.944  62.607  1.00  0.00     0.000 HD 
ENDBRANCH  37  38
ENDBRANCH   5  37
ENDBRANCH   4   5
ENDBRANCH   3   4
TORSDOF 12
ENDMDL
MODEL      121
REMARK 921   NORMALIZED FREE ENERGY PREDICTED BY IDOCK:   -4.59 KCAL/MOL
REMARK 922        TOTAL FREE ENERGY PREDICTED BY IDOCK:   -8.72 KCAL/MOL
REMARK 923 INTER-LIGAND FREE ENERGY PREDICTED BY IDOCK:   -7.40 KCAL/MOL
REMARK 924 INTRA-LIGAND FREE ENERGY PREDICTED BY IDOCK:   -1.32 KCAL/MOL
REMARK 927      BINDING AFFINITY PREDICTED BY RF-SCORE:    0.00 PKD
ROOT
HETATM    1  O   UNL     1     -12.703  14.392  66.211  1.00  0.00    -0.469 OA 
HETATM    2  H   UNL     1     -12.999  15.015  65.557  1.00  0.00     0.000 HD 
HETATM    3  C   UNL     1     -12.177  13.207  65.615  1.00  0.00    -0.466 C  
ENDROOT
BRANCH   3   4
HETATM    4  C   UNL     1     -11.695  12.193  66.677  1.00  0.00    -0.313 C  
BRANCH   4   5
HETATM    5  N   UNL     1     -10.624  11.272  66.242  1.00  0.00    -0.258 NA 
BRANCH   5   6
HETATM    6  C   UNL     1     -10.466  10.138  67.019  1.00  0.00    -0.240 A  
HETATM    7  C   UNL     1      -8.958   6.818  66.893  1.00  0.00    -0.128 A  
HETATM    8  N   UNL     1      -8.749   5.762  67.718  1.00  0.00    -0.108 NA 
HETATM    9  N   UNL     1      -9.823   9.078  66.529  1.00  0.00    -0.246 NA 
HETATM   10  C   UNL     1      -9.615   7.989  67.319  1.00  0.00    -0.162 A  
HETATM   11  N   UNL     1     -10.940  10.149  68.259  1.00  0.00    -0.255 NA 
HETATM   12  C   UNL     1      -9.216   5.807  68.958  1.00  0.00    -0.119 A  
HETATM   13  C   UNL     1     -10.071   7.934  68.624  1.00  0.00    -0.197 A  
HETATM   14  C   UNL     1     -10.759   9.076  69.054  1.00  0.00    -0.141 A  
HETATM   15  N   UNL     1      -9.911   6.842  69.412  1.00  0.00    -0.155 NA 
BRANCH  14  16
HETATM   16  N   UNL     1     -11.357   9.153  70.306  1.00  0.00    -0.227 NA 
HETATM   17  C   UNL     1     -11.710   7.974  72.373  1.00  0.00    -0.444 C  
HETATM   18  C   UNL     1     -12.920   8.872  72.654  1.00  0.00    -0.334 C  
HETATM   19  C   UNL     1     -10.676   8.701  71.514  1.00  0.00    -0.282 C  
HETATM   20  C   UNL     1     -12.409  10.146  70.527  1.00  0.00    -0.245 C  
HETATM   21  C   UNL     1     -13.497   9.477  71.371  1.00  0.00    -0.405 C  
ENDBRANCH  14  16
BRANCH  12  22
HETATM   22  N   UNL     1      -8.971   4.766  69.828  1.00  0.00    -0.092 NA 
BRANCH  22  23
HETATM   23  C   UNL     1      -9.730   4.756  71.085  1.00  0.00    -0.181 C  
BRANCH  23  24
HETATM   24  C   UNL     1      -9.154   3.794  72.139  1.00  0.00    -0.115 C  
HETATM   25  O   UNL     1     -10.051   2.719  72.416  1.00  0.00    -0.156 OA 
HETATM   26  H   UNL     1      -9.695   2.125  73.067  1.00  0.00     0.000 HD 
ENDBRANCH  23  24
ENDBRANCH  22  23
BRANCH  22  27
HETATM   27  C   UNL     1      -8.402   3.514  69.324  1.00  0.00    -0.060 C  
BRANCH  27  28
HETATM   28  C   UNL     1      -9.490   2.582  68.760  1.00  0.00    -0.113 C  
HETATM   29  O   UNL     1      -9.659   2.766  67.353  1.00  0.00    -0.385 OA 
HETATM   30  H   UNL     1     -10.330   2.191  67.005  1.00  0.00     0.000 HD 
ENDBRANCH  27  28
ENDBRANCH  22  27
ENDBRANCH  12  22
BRANCH   7  31
HETATM   31  N   UNL     1      -8.424   6.651  65.617  1.00  0.00    -0.150 NA 
HETATM   32  C   UNL     1      -8.455   5.382  64.899  1.00  0.00    -0.148 C  
HETATM   33  C   UNL     1      -7.364   7.576  65.212  1.00  0.00    -0.072 C  
HETATM   34  C   UNL     1      -8.652   5.671  63.410  1.00  0.00     0.097 C  
HETATM   35  C   UNL     1      -7.536   7.907  63.730  1.00  0.00    -0.114 C  
HETATM   36  C   UNL     1      -7.599   6.640  62.878  1.00  0.00    -0.089 C  
ENDBRANCH   7  31
ENDBRANCH   5   6
BRANCH   5  37
HETATM   37  C   UNL     1      -9.416  11.875  65.664  1.00  0.00    -0.166 C  
BRANCH  37  38
HETATM   38  C   UNL     1      -8.378  12.259  66.738  1.00  0.00    -0.087 C  
HETATM   39  O   UNL     1      -7.065  11.812  66.403  1.00  0.00    -0.372 OA 
HETATM   40  H   UNL     1      -6.426  12.049  67.065  1.00  0.00     0.000 HD 
ENDBRANCH  37  38
ENDBRANCH   5  37
ENDBRANCH   4   5
ENDBRANCH   3   4
TORSDOF 12
ENDMDL
MODEL      122
REMARK 921   NORMALIZED FREE ENERGY PREDICTED BY IDOCK:   -4.58 KCAL/MOL
REMARK 922        TOTAL FREE ENERGY PREDICTED BY IDOCK:   -8.72 KCAL/MOL
REMARK 923 INTER-LIGAND FREE ENERGY PREDICTED BY IDOCK:   -7.39 KCAL/MOL
REMARK 924 INTRA-LIGAND FREE ENERGY PREDICTED BY IDOCK:   -1.33 KCAL/MOL
REMARK 927      BINDING AFFINITY PREDICTED BY RF-SCORE:    0.00 PKD
ROOT
HETATM    1  O   UNL     1     -10.697  19.698  68.143  1.00  0.00    -0.391 OA 
HETATM    2  H   UNL     1     -10.194  20.505  68.157  1.00  0.00     0.000 HD 
HETATM    3  C   UNL     1      -9.860  18.552  67.999  1.00  0.00    -0.341 C  
ENDROOT
BRANCH   3   4
HETATM    4  C   UNL     1     -10.678  17.241  67.977  1.00  0.00    -0.367 C  
BRANCH   4   5
HETATM    5  N   UNL     1     -10.169  16.157  68.844  1.00  0.00    -0.231 NA 
BRANCH   5   6
HETATM    6  C   UNL     1      -9.850  14.979  68.192  1.00  0.00    -0.216 A  
HETATM    7  C   UNL     1      -7.523  12.176  68.406  1.00  0.00    -0.114 A  
HETATM    8  N   UNL     1      -7.301  10.988  67.793  1.00  0.00    -0.091 NA 
HETATM    9  N   UNL     1      -8.841  14.226  68.631  1.00  0.00    -0.176 NA 
HETATM   10  C   UNL     1      -8.571  13.037  68.026  1.00  0.00    -0.186 A  
HETATM   11  N   UNL     1     -10.587  14.610  67.152  1.00  0.00    -0.279 NA 
HETATM   12  C   UNL     1      -8.065  10.635  66.768  1.00  0.00    -0.131 A  
HETATM   13  C   UNL     1      -9.304  12.584  66.943  1.00  0.00    -0.219 A  
HETATM   14  C   UNL     1     -10.329  13.444  66.528  1.00  0.00    -0.284 A  
HETATM   15  N   UNL     1      -9.023  11.423  66.301  1.00  0.00    -0.197 NA 
BRANCH  14  16
HETATM   16  N   UNL     1     -11.104  13.184  65.404  1.00  0.00    -0.276 NA 
HETATM   17  C   UNL     1     -13.231  12.344  64.655  1.00  0.00     0.366 C  
HETATM   18  C   UNL     1     -12.619  12.089  63.273  1.00  0.00    -0.512 C  
HETATM   19  C   UNL     1     -12.527  13.504  65.360  1.00  0.00    -0.497 C  
HETATM   20  C   UNL     1     -10.451  13.103  64.098  1.00  0.00    -0.326 C  
HETATM   21  C   UNL     1     -11.096  11.941  63.337  1.00  0.00    -0.463 C  
ENDBRANCH  14  16
BRANCH  12  22
HETATM   22  N   UNL     1      -7.888   9.409  66.163  1.00  0.00    -0.099 NA 
BRANCH  22  23
HETATM   23  C   UNL     1      -6.508   8.993  65.891  1.00  0.00    -0.061 C  
BRANCH  23  24
HETATM   24  C   UNL     1      -6.035   7.826  66.776  1.00  0.00    -0.047 C  
HETATM   25  O   UNL     1      -5.943   8.210  68.148  1.00  0.00    -0.040 OA 
HETATM   26  H   UNL     1      -5.651   7.490  68.694  1.00  0.00     0.000 HD 
ENDBRANCH  23  24
ENDBRANCH  22  23
BRANCH  22  27
HETATM   27  C   UNL     1      -8.938   8.392  66.259  1.00  0.00    -0.174 C  
BRANCH  27  28
HETATM   28  C   UNL     1      -9.447   8.236  67.704  1.00  0.00    -0.149 C  
HETATM   29  O   UNL     1     -10.799   8.681  67.833  1.00  0.00    -0.466 OA 
HETATM   30  H   UNL     1     -11.113   8.585  68.724  1.00  0.00     0.000 HD 
ENDBRANCH  27  28
ENDBRANCH  22  27
ENDBRANCH  12  22
BRANCH   7  31
HETATM   31  N   UNL     1      -6.654  12.436  69.465  1.00  0.00    -0.088 NA 
HETATM   32  C   UNL     1      -6.186  13.774  69.803  1.00  0.00    -0.126 C  
HETATM   33  C   UNL     1      -5.788  11.337  69.899  1.00  0.00    -0.104 C  
HETATM   34  C   UNL     1      -6.057  13.874  71.324  1.00  0.00     0.009 C  
HETATM   35  C   UNL     1      -5.648  11.389  71.420  1.00  0.00     0.208 C  
HETATM   36  C   UNL     1      -5.175  12.764  71.891  1.00  0.00     0.017 C  
ENDBRANCH   7  31
ENDBRANCH   5   6
BRANCH   5  37
HETATM   37  C   UNL     1     -10.739  16.055  70.194  1.00  0.00    -0.312 C  
BRANCH  37  38
HETATM   38  C   UNL     1     -11.962  15.117  70.248  1.00  0.00    -0.319 C  
HETATM   39  O   UNL     1     -13.193  15.839  70.287  1.00  0.00    -0.709 OA 
HETATM   40  H   UNL     1     -13.946  15.261  70.320  1.00  0.00     0.000 HD 
ENDBRANCH  37  38
ENDBRANCH   5  37
ENDBRANCH   4   5
ENDBRANCH   3   4
TORSDOF 12
ENDMDL
MODEL      123
REMARK 921   NORMALIZED FREE ENERGY PREDICTED BY IDOCK:   -4.57 KCAL/MOL
REMARK 922        TOTAL FREE ENERGY PREDICTED BY IDOCK:   -8.69 KCAL/MOL
REMARK 923 INTER-LIGAND FREE ENERGY PREDICTED BY IDOCK:   -6.53 KCAL/MOL
REMARK 924 INTRA-LIGAND FREE ENERGY PREDICTED BY IDOCK:   -2.16 KCAL/MOL
REMARK 927      BINDING AFFINITY PREDICTED BY RF-SCORE:    0.00 PKD
ROOT
HETATM    1  O   UNL     1      -8.852  14.702  69.344  1.00  0.00    -0.394 OA 
HETATM    2  H   UNL     1      -8.065  14.994  69.790  1.00  0.00     0.000 HD 
HETATM    3  C   UNL     1      -8.551  13.897  68.206  1.00  0.00    -0.177 C  
ENDROOT
BRANCH   3   4
HETATM    4  C   UNL     1      -9.831  13.421  67.482  1.00  0.00    -0.227 C  
BRANCH   4   5
HETATM    5  N   UNL     1     -10.511  12.257  68.087  1.00  0.00    -0.210 NA 
BRANCH   5   6
HETATM    6  C   UNL     1     -10.058  11.020  67.664  1.00  0.00    -0.182 A  
HETATM    7  C   UNL     1      -9.905   7.544  68.762  1.00  0.00    -0.166 A  
HETATM    8  N   UNL     1      -9.527   6.337  68.273  1.00  0.00    -0.118 NA 
HETATM    9  N   UNL     1     -10.198   9.953  68.451  1.00  0.00    -0.170 NA 
HETATM   10  C   UNL     1      -9.808   8.727  68.006  1.00  0.00    -0.169 A  
HETATM   11  N   UNL     1      -9.514  10.924  66.458  1.00  0.00    -0.181 NA 
HETATM   12  C   UNL     1      -9.004   6.265  67.056  1.00  0.00    -0.115 A  
HETATM   13  C   UNL     1      -9.244   8.550  66.755  1.00  0.00    -0.172 A  
HETATM   14  C   UNL     1      -9.107   9.723  66.001  1.00  0.00    -0.162 A  
HETATM   15  N   UNL     1      -8.810   7.345  66.310  1.00  0.00    -0.155 NA 
BRANCH  14  16
HETATM   16  N   UNL     1      -8.481   9.737  64.760  1.00  0.00    -0.152 NA 
HETATM   17  C   UNL     1      -8.567   8.854  62.524  1.00  0.00    -0.195 C  
HETATM   18  C   UNL     1      -7.084   9.200  62.352  1.00  0.00    -0.097 C  
HETATM   19  C   UNL     1      -9.240   9.802  63.516  1.00  0.00    -0.184 C  
HETATM   20  C   UNL     1      -7.105  10.225  64.667  1.00  0.00    -0.081 C  
HETATM   21  C   UNL     1      -6.359   9.304  63.698  1.00  0.00    -0.091 C  
ENDBRANCH  14  16
BRANCH  12  22
HETATM   22  N   UNL     1      -8.660   5.043  66.521  1.00  0.00    -0.110 NA 
BRANCH  22  23
HETATM   23  C   UNL     1      -8.050   4.066  67.430  1.00  0.00    -0.091 C  
BRANCH  23  24
HETATM   24  C   UNL     1      -6.662   4.491  67.944  1.00  0.00    -0.051 C  
HETATM   25  O   UNL     1      -6.688   4.795  69.338  1.00  0.00    -0.042 OA 
HETATM   26  H   UNL     1      -5.832   5.058  69.655  1.00  0.00     0.000 HD 
ENDBRANCH  23  24
ENDBRANCH  22  23
BRANCH  22  27
HETATM   27  C   UNL     1      -9.316   4.573  65.299  1.00  0.00    -0.160 C  
BRANCH  27  28
HETATM   28  C   UNL     1      -8.309   3.947  64.317  1.00  0.00    -0.091 C  
HETATM   29  O   UNL     1      -7.558   4.949  63.628  1.00  0.00    -0.061 OA 
HETATM   30  H   UNL     1      -6.937   4.562  63.022  1.00  0.00     0.000 HD 
ENDBRANCH  27  28
ENDBRANCH  22  27
ENDBRANCH  12  22
BRANCH   7  31
HETATM   31  N   UNL     1     -10.435   7.489  70.050  1.00  0.00    -0.222 NA 
HETATM   32  C   UNL     1      -9.615   7.565  71.254  1.00  0.00    -0.156 C  
HETATM   33  C   UNL     1     -11.728   6.820  70.210  1.00  0.00    -0.341 C  
HETATM   34  C   UNL     1     -10.393   8.333  72.323  1.00  0.00    -0.386 C  
HETATM   35  C   UNL     1     -12.546   7.570  71.260  1.00  0.00    -0.345 C  
HETATM   36  C   UNL     1     -11.772   7.724  72.568  1.00  0.00    -0.393 C  
ENDBRANCH   7  31
ENDBRANCH   5   6
BRANCH   5  37
HETATM   37  C   UNL     1     -11.945  12.394  68.375  1.00  0.00    -0.216 C  
BRANCH  37  38
HETATM   38  C   UNL     1     -12.264  12.229  69.875  1.00  0.00    -0.163 C  
HETATM   39  O   UNL     1     -11.952  10.920  70.351  1.00  0.00    -0.300 OA 
HETATM   40  H   UNL     1     -12.148  10.819  71.275  1.00  0.00     0.000 HD 
ENDBRANCH  37  38
ENDBRANCH   5  37
ENDBRANCH   4   5
ENDBRANCH   3   4
TORSDOF 12
ENDMDL
MODEL      124
REMARK 921   NORMALIZED FREE ENERGY PREDICTED BY IDOCK:   -4.55 KCAL/MOL
REMARK 922        TOTAL FREE ENERGY PREDICTED BY IDOCK:   -8.65 KCAL/MOL
REMARK 923 INTER-LIGAND FREE ENERGY PREDICTED BY IDOCK:   -6.40 KCAL/MOL
REMARK 924 INTRA-LIGAND FREE ENERGY PREDICTED BY IDOCK:   -2.25 KCAL/MOL
REMARK 927      BINDING AFFINITY PREDICTED BY RF-SCORE:    0.00 PKD
ROOT
HETATM    1  O   UNL     1      -6.169   8.740  64.701  1.00  0.00    -0.065 OA 
HETATM    2  H   UNL     1      -5.696   9.564  64.687  1.00  0.00     0.000 HD 
HETATM    3  C   UNL     1      -5.303   7.632  64.939  1.00  0.00    -0.029 C  
ENDROOT
BRANCH   3   4
HETATM    4  C   UNL     1      -6.073   6.293  64.963  1.00  0.00    -0.030 C  
BRANCH   4   5
HETATM    5  N   UNL     1      -7.546   6.405  65.020  1.00  0.00    -0.085 NA 
BRANCH   5   6
HETATM    6  C   UNL     1      -8.072   6.669  66.272  1.00  0.00    -0.115 A  
HETATM    7  C   UNL     1      -9.752   9.327  68.124  1.00  0.00    -0.150 A  
HETATM    8  N   UNL     1     -10.334   9.515  69.334  1.00  0.00    -0.204 NA 
HETATM    9  N   UNL     1      -8.602   7.864  66.534  1.00  0.00    -0.135 NA 
HETATM   10  C   UNL     1      -9.175   8.099  67.747  1.00  0.00    -0.134 A  
HETATM   11  N   UNL     1      -8.060   5.703  67.181  1.00  0.00    -0.102 NA 
HETATM   12  C   UNL     1     -10.325   8.526  70.217  1.00  0.00    -0.205 A  
HETATM   13  C   UNL     1      -9.209   7.135  68.739  1.00  0.00    -0.136 A  
HETATM   14  C   UNL     1      -8.607   5.918  68.394  1.00  0.00    -0.113 A  
HETATM   15  N   UNL     1      -9.736   7.364  69.967  1.00  0.00    -0.175 NA 
BRANCH  14  16
HETATM   16  N   UNL     1      -8.476   4.873  69.302  1.00  0.00    -0.087 NA 
HETATM   17  C   UNL     1      -9.657   3.532  70.914  1.00  0.00    -0.242 C  
HETATM   18  C   UNL     1      -8.315   3.162  71.556  1.00  0.00    -0.081 C  
HETATM   19  C   UNL     1      -9.487   3.828  69.423  1.00  0.00    -0.187 C  
HETATM   20  C   UNL     1      -7.138   4.490  69.751  1.00  0.00    -0.050 C  
HETATM   21  C   UNL     1      -7.227   4.196  71.251  1.00  0.00    -0.040 C  
ENDBRANCH  14  16
BRANCH  12  22
HETATM   22  N   UNL     1     -10.955   8.678  71.434  1.00  0.00    -0.251 NA 
BRANCH  22  23
HETATM   23  C   UNL     1     -10.287   8.102  72.606  1.00  0.00    -0.328 C  
BRANCH  23  24
HETATM   24  C   UNL     1     -10.930   6.791  73.095  1.00  0.00    -0.246 C  
HETATM   25  O   UNL     1     -11.843   6.264  72.134  1.00  0.00    -0.322 OA 
HETATM   26  H   UNL     1     -12.240   5.455  72.435  1.00  0.00     0.000 HD 
ENDBRANCH  23  24
ENDBRANCH  22  23
BRANCH  22  27
HETATM   27  C   UNL     1     -11.926   9.759  71.620  1.00  0.00    -0.375 C  
BRANCH  27  28
HETATM   28  C   UNL     1     -13.341   9.212  71.890  1.00  0.00    -0.427 C  
HETATM   29  O   UNL     1     -13.662   8.135  71.008  1.00  0.00    -0.556 OA 
HETATM   30  H   UNL     1     -14.535   7.799  71.175  1.00  0.00     0.000 HD 
ENDBRANCH  27  28
ENDBRANCH  22  27
ENDBRANCH  12  22
BRANCH   7  31
HETATM   31  N   UNL     1      -9.822  10.439  67.286  1.00  0.00    -0.173 NA 
HETATM   32  C   UNL     1     -10.659  10.487  66.092  1.00  0.00    -0.112 C  
HETATM   33  C   UNL     1      -8.672  11.345  67.284  1.00  0.00    -0.148 C  
HETATM   34  C   UNL     1     -11.203  11.908  65.938  1.00  0.00    -0.373 C  
HETATM   35  C   UNL     1      -9.174  12.782  67.151  1.00  0.00    -0.219 C  
HETATM   36  C   UNL     1     -10.082  12.946  65.933  1.00  0.00    -0.295 C  
ENDBRANCH   7  31
ENDBRANCH   5   6
BRANCH   5  37
HETATM   37  C   UNL     1      -8.319   5.531  64.128  1.00  0.00    -0.102 C  
BRANCH  37  38
HETATM   38  C   UNL     1      -7.549   4.251  63.745  1.00  0.00    -0.066 C  
HETATM   39  O   UNL     1      -7.437   4.093  62.331  1.00  0.00    -0.043 OA 
HETATM   40  H   UNL     1      -6.962   3.305  62.095  1.00  0.00     0.000 HD 
ENDBRANCH  37  38
ENDBRANCH   5  37
ENDBRANCH   4   5
ENDBRANCH   3   4
TORSDOF 12
ENDMDL
MODEL      125
REMARK 921   NORMALIZED FREE ENERGY PREDICTED BY IDOCK:   -4.54 KCAL/MOL
REMARK 922        TOTAL FREE ENERGY PREDICTED BY IDOCK:   -8.64 KCAL/MOL
REMARK 923 INTER-LIGAND FREE ENERGY PREDICTED BY IDOCK:   -6.75 KCAL/MOL
REMARK 924 INTRA-LIGAND FREE ENERGY PREDICTED BY IDOCK:   -1.89 KCAL/MOL
REMARK 927      BINDING AFFINITY PREDICTED BY RF-SCORE:    0.00 PKD
ROOT
HETATM    1  O   UNL     1     -11.280   5.190  65.743  1.00  0.00    -0.808 OA 
HETATM    2  H   UNL     1     -11.884   5.389  65.037  1.00  0.00     0.000 HD 
HETATM    3  C   UNL     1     -10.164   4.426  65.289  1.00  0.00    -0.210 C  
ENDROOT
BRANCH   3   4
HETATM    4  C   UNL     1      -9.182   4.103  66.438  1.00  0.00    -0.157 C  
BRANCH   4   5
HETATM    5  N   UNL     1      -8.054   5.045  66.598  1.00  0.00    -0.107 NA 
BRANCH   5   6
HETATM    6  C   UNL     1      -8.402   6.320  67.008  1.00  0.00    -0.109 A  
HETATM    7  C   UNL     1      -8.198   9.792  65.907  1.00  0.00    -0.117 A  
HETATM    8  N   UNL     1      -8.634  11.014  66.303  1.00  0.00    -0.164 NA 
HETATM    9  N   UNL     1      -8.088   7.372  66.253  1.00  0.00    -0.112 NA 
HETATM   10  C   UNL     1      -8.487   8.618  66.629  1.00  0.00    -0.112 A  
HETATM   11  N   UNL     1      -9.073   6.458  68.144  1.00  0.00    -0.115 NA 
HETATM   12  C   UNL     1      -9.319  11.122  67.433  1.00  0.00    -0.164 A  
HETATM   13  C   UNL     1      -9.199   8.837  67.795  1.00  0.00    -0.134 A  
HETATM   14  C   UNL     1      -9.465   7.684  68.545  1.00  0.00    -0.147 A  
HETATM   15  N   UNL     1      -9.567  10.075  68.208  1.00  0.00    -0.139 NA 
BRANCH  14  16
HETATM   16  N   UNL     1     -10.092   7.735  69.784  1.00  0.00    -0.190 NA 
HETATM   17  C   UNL     1     -12.226   7.915  70.882  1.00  0.00    -0.138 C  
HETATM   18  C   UNL     1     -11.509   8.391  72.151  1.00  0.00    -0.442 C  
HETATM   19  C   UNL     1     -11.324   7.000  70.054  1.00  0.00    -0.249 C  
HETATM   20  C   UNL     1      -9.296   8.055  70.968  1.00  0.00    -0.149 C  
HETATM   21  C   UNL     1     -10.134   8.992  71.842  1.00  0.00    -0.323 C  
ENDBRANCH  14  16
BRANCH  12  22
HETATM   22  N   UNL     1      -9.815  12.347  67.828  1.00  0.00    -0.198 NA 
BRANCH  22  23
HETATM   23  C   UNL     1     -11.249  12.418  68.131  1.00  0.00    -0.265 C  
BRANCH  23  24
HETATM   24  C   UNL     1     -12.049  13.248  67.111  1.00  0.00    -0.298 C  
HETATM   25  O   UNL     1     -11.392  13.301  65.845  1.00  0.00    -0.302 OA 
HETATM   26  H   UNL     1     -11.886  13.814  65.216  1.00  0.00     0.000 HD 
ENDBRANCH  23  24
ENDBRANCH  22  23
BRANCH  22  27
HETATM   27  C   UNL     1      -8.911  13.348  68.397  1.00  0.00    -0.133 C  
BRANCH  27  28
HETATM   28  C   UNL     1      -8.384  14.316  67.321  1.00  0.00    -0.204 C  
HETATM   29  O   UNL     1      -6.964  14.225  67.186  1.00  0.00    -0.379 OA 
HETATM   30  H   UNL     1      -6.640  14.822  66.522  1.00  0.00     0.000 HD 
ENDBRANCH  27  28
ENDBRANCH  22  27
ENDBRANCH  12  22
BRANCH   7  31
HETATM   31  N   UNL     1      -7.487   9.809  64.708  1.00  0.00    -0.124 NA 
HETATM   32  C   UNL     1      -8.091   9.497  63.418  1.00  0.00    -0.149 C  
HETATM   33  C   UNL     1      -6.039   9.605  64.790  1.00  0.00    -0.085 C  
HETATM   34  C   UNL     1      -7.448  10.388  62.353  1.00  0.00    -0.164 C  
HETATM   35  C   UNL     1      -5.355  10.495  63.753  1.00  0.00    -0.159 C  
HETATM   36  C   UNL     1      -5.927  10.263  62.354  1.00  0.00    -0.118 C  
ENDBRANCH   7  31
ENDBRANCH   5   6
BRANCH   5  37
HETATM   37  C   UNL     1      -6.934   4.914  65.657  1.00  0.00    -0.063 C  
BRANCH  37  38
HETATM   38  C   UNL     1      -5.566   4.893  66.369  1.00  0.00    -0.017 C  
HETATM   39  O   UNL     1      -5.228   6.164  66.922  1.00  0.00    -0.005 OA 
HETATM   40  H   UNL     1      -4.385   6.151  67.361  1.00  0.00     0.000 HD 
ENDBRANCH  37  38
ENDBRANCH   5  37
ENDBRANCH   4   5
ENDBRANCH   3   4
TORSDOF 12
ENDMDL
MODEL      126
REMARK 921   NORMALIZED FREE ENERGY PREDICTED BY IDOCK:   -4.48 KCAL/MOL
REMARK 922        TOTAL FREE ENERGY PREDICTED BY IDOCK:   -8.54 KCAL/MOL
REMARK 923 INTER-LIGAND FREE ENERGY PREDICTED BY IDOCK:   -7.85 KCAL/MOL
REMARK 924 INTRA-LIGAND FREE ENERGY PREDICTED BY IDOCK:   -0.69 KCAL/MOL
REMARK 927      BINDING AFFINITY PREDICTED BY RF-SCORE:    0.00 PKD
ROOT
HETATM    1  O   UNL     1     -11.492   4.507  64.830  1.00  0.00    -0.974 OA 
HETATM    2  H   UNL     1     -11.549   4.350  63.894  1.00  0.00     0.000 HD 
HETATM    3  C   UNL     1     -10.168   4.856  65.230  1.00  0.00     0.085 C  
ENDROOT
BRANCH   3   4
HETATM    4  C   UNL     1     -10.075   5.111  66.751  1.00  0.00    -0.232 C  
BRANCH   4   5
HETATM    5  N   UNL     1      -8.906   5.899  67.197  1.00  0.00    -0.108 NA 
BRANCH   5   6
HETATM    6  C   UNL     1      -9.018   7.268  67.032  1.00  0.00    -0.130 A  
HETATM    7  C   UNL     1     -10.515  10.190  68.625  1.00  0.00    -0.202 A  
HETATM    8  N   UNL     1     -10.526  11.538  68.476  1.00  0.00    -0.201 NA 
HETATM    9  N   UNL     1      -9.730   7.989  67.899  1.00  0.00    -0.155 NA 
HETATM   10  C   UNL     1      -9.785   9.343  67.769  1.00  0.00    -0.151 A  
HETATM   11  N   UNL     1      -8.380   7.838  66.018  1.00  0.00    -0.126 NA 
HETATM   12  C   UNL     1      -9.864  12.083  67.465  1.00  0.00    -0.186 A  
HETATM   13  C   UNL     1      -9.135  10.006  66.743  1.00  0.00    -0.139 A  
HETATM   14  C   UNL     1      -8.432   9.176  65.861  1.00  0.00    -0.141 A  
HETATM   15  N   UNL     1      -9.214  11.349  66.572  1.00  0.00    -0.184 NA 
BRANCH  14  16
HETATM   16  N   UNL     1      -7.797   9.669  64.727  1.00  0.00    -0.122 NA 
HETATM   17  C   UNL     1      -7.622   9.442  62.338  1.00  0.00    -0.110 C  
HETATM   18  C   UNL     1      -6.256  10.136  62.393  1.00  0.00    -0.120 C  
HETATM   19  C   UNL     1      -8.521   9.909  63.482  1.00  0.00    -0.183 C  
HETATM   20  C   UNL     1      -6.571  10.450  64.886  1.00  0.00    -0.060 C  
HETATM   21  C   UNL     1      -5.608  10.018  63.776  1.00  0.00    -0.116 C  
ENDBRANCH  14  16
BRANCH  12  22
HETATM   22  N   UNL     1      -9.820  13.454  67.325  1.00  0.00    -0.229 NA 
BRANCH  22  23
HETATM   23  C   UNL     1     -10.862  14.072  66.497  1.00  0.00    -0.300 C  
BRANCH  23  24
HETATM   24  C   UNL     1     -10.366  14.489  65.101  1.00  0.00    -0.411 C  
HETATM   25  O   UNL     1     -10.324  15.909  64.960  1.00  0.00    -0.508 OA 
HETATM   26  H   UNL     1     -10.019  16.166  64.098  1.00  0.00     0.000 HD 
ENDBRANCH  23  24
ENDBRANCH  22  23
BRANCH  22  27
HETATM   27  C   UNL     1      -9.123  14.266  68.325  1.00  0.00    -0.188 C  
BRANCH  27  28
HETATM   28  C   UNL     1      -7.606  13.998  68.319  1.00  0.00    -0.135 C  
HETATM   29  O   UNL     1      -7.003  14.437  67.101  1.00  0.00    -0.367 OA 
HETATM   30  H   UNL     1      -6.067  14.271  67.097  1.00  0.00     0.000 HD 
ENDBRANCH  27  28
ENDBRANCH  22  27
ENDBRANCH  12  22
BRANCH   7  31
HETATM   31  N   UNL     1     -11.250   9.738  69.720  1.00  0.00    -0.228 NA 
HETATM   32  C   UNL     1     -11.143   8.382  70.247  1.00  0.00    -0.213 C  
HETATM   33  C   UNL     1     -12.510  10.427  70.006  1.00  0.00    -0.119 C  
HETATM   34  C   UNL     1     -11.291   8.440  71.768  1.00  0.00    -0.366 C  
HETATM   35  C   UNL     1     -12.687  10.523  71.521  1.00  0.00    -0.558 C  
HETATM   36  C   UNL     1     -12.576   9.152  72.186  1.00  0.00    -0.451 C  
ENDBRANCH   7  31
ENDBRANCH   5   6
BRANCH   5  37
HETATM   37  C   UNL     1      -7.580   5.297  67.007  1.00  0.00    -0.092 C  
BRANCH  37  38
HETATM   38  C   UNL     1      -7.640   3.758  66.916  1.00  0.00    -0.080 C  
HETATM   39  O   UNL     1      -7.316   3.132  68.157  1.00  0.00    -0.050 OA 
HETATM   40  H   UNL     1      -7.353   2.185  68.100  1.00  0.00     0.000 HD 
ENDBRANCH  37  38
ENDBRANCH   5  37
ENDBRANCH   4   5
ENDBRANCH   3   4
TORSDOF 12
ENDMDL
MODEL      127
REMARK 921   NORMALIZED FREE ENERGY PREDICTED BY IDOCK:   -4.43 KCAL/MOL
REMARK 922        TOTAL FREE ENERGY PREDICTED BY IDOCK:   -8.46 KCAL/MOL
REMARK 923 INTER-LIGAND FREE ENERGY PREDICTED BY IDOCK:   -7.68 KCAL/MOL
REMARK 924 INTRA-LIGAND FREE ENERGY PREDICTED BY IDOCK:   -0.78 KCAL/MOL
REMARK 927      BINDING AFFINITY PREDICTED BY RF-SCORE:    0.00 PKD
ROOT
HETATM    1  O   UNL     1      -9.299   3.258  70.650  1.00  0.00    -0.131 OA 
HETATM    2  H   UNL     1      -8.844   2.656  71.228  1.00  0.00     0.000 HD 
HETATM    3  C   UNL     1      -8.694   4.550  70.648  1.00  0.00    -0.095 C  
ENDROOT
BRANCH   3   4
HETATM    4  C   UNL     1      -9.433   5.530  69.708  1.00  0.00    -0.149 C  
BRANCH   4   5
HETATM    5  N   UNL     1      -8.571   6.316  68.800  1.00  0.00    -0.122 NA 
BRANCH   5   6
HETATM    6  C   UNL     1      -9.038   7.581  68.489  1.00  0.00    -0.134 A  
HETATM    7  C   UNL     1      -8.554  10.245  66.042  1.00  0.00    -0.145 A  
HETATM    8  N   UNL     1      -9.101  11.443  65.719  1.00  0.00    -0.206 NA 
HETATM    9  N   UNL     1      -8.526   8.245  67.452  1.00  0.00    -0.124 NA 
HETATM   10  C   UNL     1      -9.032   9.462  67.111  1.00  0.00    -0.130 A  
HETATM   11  N   UNL     1     -10.017   8.093  69.223  1.00  0.00    -0.184 NA 
HETATM   12  C   UNL     1     -10.092  11.923  66.458  1.00  0.00    -0.203 A  
HETATM   13  C   UNL     1     -10.060  10.052  67.824  1.00  0.00    -0.183 A  
HETATM   14  C   UNL     1     -10.524   9.303  68.913  1.00  0.00    -0.215 A  
HETATM   15  N   UNL     1     -10.548  11.282  67.526  1.00  0.00    -0.207 NA 
BRANCH  14  16
HETATM   16  N   UNL     1     -11.491   9.786  69.787  1.00  0.00    -0.156 NA 
HETATM   17  C   UNL     1     -12.378  11.779  70.803  1.00  0.00    -0.433 C  
HETATM   18  C   UNL     1     -12.999  10.914  71.906  1.00  0.00    -0.502 C  
HETATM   19  C   UNL     1     -12.255  10.995  69.497  1.00  0.00    -0.282 C  
HETATM   20  C   UNL     1     -12.140   8.855  70.709  1.00  0.00    -0.107 C  
HETATM   21  C   UNL     1     -12.280   9.570  72.056  1.00  0.00    -0.370 C  
ENDBRANCH  14  16
BRANCH  12  22
HETATM   22  N   UNL     1     -10.696  13.115  66.118  1.00  0.00    -0.276 NA 
BRANCH  22  23
HETATM   23  C   UNL     1     -11.910  13.035  65.299  1.00  0.00    -0.376 C  
BRANCH  23  24
HETATM   24  C   UNL     1     -12.139  14.279  64.421  1.00  0.00    -0.468 C  
HETATM   25  O   UNL     1     -12.458  13.922  63.076  1.00  0.00    -1.099 OA 
HETATM   26  H   UNL     1     -12.599  14.690  62.535  1.00  0.00     0.000 HD 
ENDBRANCH  23  24
ENDBRANCH  22  23
BRANCH  22  27
HETATM   27  C   UNL     1     -10.453  14.311  66.927  1.00  0.00    -0.272 C  
BRANCH  27  28
HETATM   28  C   UNL     1      -8.959  14.682  66.961  1.00  0.00    -0.240 C  
HETATM   29  O   UNL     1      -8.541  15.047  68.278  1.00  0.00    -0.147 OA 
HETATM   30  H   UNL     1      -7.620  15.276  68.299  1.00  0.00     0.000 HD 
ENDBRANCH  27  28
ENDBRANCH  22  27
ENDBRANCH  12  22
BRANCH   7  31
HETATM   31  N   UNL     1      -7.520   9.850  65.195  1.00  0.00    -0.127 NA 
HETATM   32  C   UNL     1      -6.188  10.442  65.233  1.00  0.00    -0.122 C  
HETATM   33  C   UNL     1      -7.901   9.240  63.919  1.00  0.00    -0.130 C  
HETATM   34  C   UNL     1      -5.162   9.348  64.932  1.00  0.00    -0.045 C  
HETATM   35  C   UNL     1      -6.910   8.125  63.589  1.00  0.00    -0.076 C  
HETATM   36  C   UNL     1      -5.468   8.632  63.618  1.00  0.00    -0.062 C  
ENDBRANCH   7  31
ENDBRANCH   5   6
BRANCH   5  37
HETATM   37  C   UNL     1      -7.852   5.579  67.753  1.00  0.00    -0.097 C  
BRANCH  37  38
HETATM   38  C   UNL     1      -6.328   5.557  67.988  1.00  0.00    -0.042 C  
HETATM   39  O   UNL     1      -5.793   4.235  67.927  1.00  0.00    -0.021 OA 
HETATM   40  H   UNL     1      -4.855   4.222  68.072  1.00  0.00     0.000 HD 
ENDBRANCH  37  38
ENDBRANCH   5  37
ENDBRANCH   4   5
ENDBRANCH   3   4
TORSDOF 12
ENDMDL
MODEL      128
REMARK 921   NORMALIZED FREE ENERGY PREDICTED BY IDOCK:   -4.43 KCAL/MOL
REMARK 922        TOTAL FREE ENERGY PREDICTED BY IDOCK:   -8.46 KCAL/MOL
REMARK 923 INTER-LIGAND FREE ENERGY PREDICTED BY IDOCK:   -7.19 KCAL/MOL
REMARK 924 INTRA-LIGAND FREE ENERGY PREDICTED BY IDOCK:   -1.27 KCAL/MOL
REMARK 927      BINDING AFFINITY PREDICTED BY RF-SCORE:    0.00 PKD
ROOT
HETATM    1  O   UNL     1      -5.217   5.924  65.524  1.00  0.00    -0.009 OA 
HETATM    2  H   UNL     1      -4.365   6.245  65.251  1.00  0.00     0.000 HD 
HETATM    3  C   UNL     1      -5.276   4.499  65.515  1.00  0.00    -0.009 C  
ENDROOT
BRANCH   3   4
HETATM    4  C   UNL     1      -6.661   3.978  65.960  1.00  0.00    -0.049 C  
BRANCH   4   5
HETATM    5  N   UNL     1      -7.766   4.956  65.884  1.00  0.00    -0.090 NA 
BRANCH   5   6
HETATM    6  C   UNL     1      -8.354   5.281  67.094  1.00  0.00    -0.107 A  
HETATM    7  C   UNL     1     -10.229   7.975  68.688  1.00  0.00    -0.206 A  
HETATM    8  N   UNL     1     -10.868   8.217  69.859  1.00  0.00    -0.241 NA 
HETATM    9  N   UNL     1      -8.949   6.463  67.250  1.00  0.00    -0.107 NA 
HETATM   10  C   UNL     1      -9.581   6.753  68.421  1.00  0.00    -0.125 A  
HETATM   11  N   UNL     1      -8.336   4.381  68.068  1.00  0.00    -0.094 NA 
HETATM   12  C   UNL     1     -10.850   7.293  70.810  1.00  0.00    -0.241 A  
HETATM   13  C   UNL     1      -9.612   5.859  69.476  1.00  0.00    -0.140 A  
HETATM   14  C   UNL     1      -8.942   4.652  69.241  1.00  0.00    -0.097 A  
HETATM   15  N   UNL     1     -10.199   6.146  70.664  1.00  0.00    -0.192 NA 
BRANCH  14  16
HETATM   16  N   UNL     1      -8.801   3.679  70.225  1.00  0.00    -0.080 NA 
HETATM   17  C   UNL     1      -9.962   1.966  71.452  1.00  0.00    -0.131 C  
HETATM   18  C   UNL     1      -8.882   2.042  72.538  1.00  0.00    -0.084 C  
HETATM   19  C   UNL     1      -9.394   2.353  70.087  1.00  0.00    -0.113 C  
HETATM   20  C   UNL     1      -7.653   3.749  71.129  1.00  0.00    -0.044 C  
HETATM   21  C   UNL     1      -8.155   3.390  72.530  1.00  0.00    -0.072 C  
ENDBRANCH  14  16
BRANCH  12  22
HETATM   22  N   UNL     1     -11.536   7.498  71.988  1.00  0.00    -0.276 NA 
BRANCH  22  23
HETATM   23  C   UNL     1     -13.001   7.428  71.926  1.00  0.00    -0.258 C  
BRANCH  23  24
HETATM   24  C   UNL     1     -13.684   8.801  72.056  1.00  0.00    -0.443 C  
HETATM   25  O   UNL     1     -14.135   9.040  73.389  1.00  0.00    -1.231 OA 
HETATM   26  H   UNL     1     -14.557   9.888  73.469  1.00  0.00     0.000 HD 
ENDBRANCH  23  24
ENDBRANCH  22  23
BRANCH  22  27
HETATM   27  C   UNL     1     -10.861   7.283  73.270  1.00  0.00    -0.358 C  
BRANCH  27  28
HETATM   28  C   UNL     1      -9.400   7.766  73.231  1.00  0.00    -0.270 C  
HETATM   29  O   UNL     1      -8.909   8.053  74.543  1.00  0.00    -0.409 OA 
HETATM   30  H   UNL     1      -8.008   8.351  74.518  1.00  0.00     0.000 HD 
ENDBRANCH  27  28
ENDBRANCH  22  27
ENDBRANCH  12  22
BRANCH   7  31
HETATM   31  N   UNL     1     -10.315   9.022  67.772  1.00  0.00    -0.233 NA 
HETATM   32  C   UNL     1     -10.929  10.307  68.084  1.00  0.00    -0.274 C  
HETATM   33  C   UNL     1     -10.287   8.667  66.351  1.00  0.00    -0.057 C  
HETATM   34  C   UNL     1     -10.151  11.406  67.359  1.00  0.00    -0.208 C  
HETATM   35  C   UNL     1      -9.500   9.733  65.590  1.00  0.00    -0.307 C  
HETATM   36  C   UNL     1     -10.050  11.133  65.860  1.00  0.00    -0.296 C  
ENDBRANCH   7  31
ENDBRANCH   5   6
BRANCH   5  37
HETATM   37  C   UNL     1      -8.634   4.897  64.700  1.00  0.00    -0.149 C  
BRANCH  37  38
HETATM   38  C   UNL     1      -8.100   5.755  63.535  1.00  0.00    -0.106 C  
HETATM   39  O   UNL     1      -7.445   6.938  63.993  1.00  0.00    -0.083 OA 
HETATM   40  H   UNL     1      -7.117   7.466  63.276  1.00  0.00     0.000 HD 
ENDBRANCH  37  38
ENDBRANCH   5  37
ENDBRANCH   4   5
ENDBRANCH   3   4
TORSDOF 12
ENDMDL
MODEL      129
REMARK 921   NORMALIZED FREE ENERGY PREDICTED BY IDOCK:   -4.42 KCAL/MOL
REMARK 922        TOTAL FREE ENERGY PREDICTED BY IDOCK:   -8.45 KCAL/MOL
REMARK 923 INTER-LIGAND FREE ENERGY PREDICTED BY IDOCK:   -7.68 KCAL/MOL
REMARK 924 INTRA-LIGAND FREE ENERGY PREDICTED BY IDOCK:   -0.77 KCAL/MOL
REMARK 927      BINDING AFFINITY PREDICTED BY RF-SCORE:    0.00 PKD
ROOT
HETATM    1  O   UNL     1     -10.296  10.136  63.863  1.00  0.00    -0.437 OA 
HETATM    2  H   UNL     1     -10.803   9.333  63.890  1.00  0.00     0.000 HD 
HETATM    3  C   UNL     1     -11.128  11.293  63.940  1.00  0.00    -0.238 C  
ENDROOT
BRANCH   3   4
HETATM    4  C   UNL     1     -10.303  12.599  63.896  1.00  0.00    -0.377 C  
BRANCH   4   5
HETATM    5  N   UNL     1     -10.172  13.315  65.183  1.00  0.00    -0.304 NA 
BRANCH   5   6
HETATM    6  C   UNL     1     -10.192  12.513  66.311  1.00  0.00    -0.248 A  
HETATM    7  C   UNL     1      -8.875   9.340  67.541  1.00  0.00    -0.118 A  
HETATM    8  N   UNL     1      -8.847   8.628  68.695  1.00  0.00    -0.141 NA 
HETATM    9  N   UNL     1      -9.548  11.346  66.310  1.00  0.00    -0.207 NA 
HETATM   10  C   UNL     1      -9.517  10.590  67.442  1.00  0.00    -0.153 A  
HETATM   11  N   UNL     1     -10.835  12.949  67.386  1.00  0.00    -0.247 NA 
HETATM   12  C   UNL     1      -9.481   9.096  69.761  1.00  0.00    -0.182 A  
HETATM   13  C   UNL     1     -10.156  10.986  68.604  1.00  0.00    -0.197 A  
HETATM   14  C   UNL     1     -10.831  12.211  68.514  1.00  0.00    -0.236 A  
HETATM   15  N   UNL     1     -10.172  10.227  69.728  1.00  0.00    -0.238 NA 
BRANCH  14  16
HETATM   16  N   UNL     1     -11.596  12.714  69.560  1.00  0.00    -0.293 NA 
HETATM   17  C   UNL     1     -13.524  12.300  70.938  1.00  0.00     0.806 C  
HETATM   18  C   UNL     1     -13.575  13.794  71.278  1.00  0.00    -0.170 C  
HETATM   19  C   UNL     1     -12.094  11.857  70.631  1.00  0.00    -0.294 C  
HETATM   20  C   UNL     1     -11.470  14.128  69.911  1.00  0.00    -0.226 C  
HETATM   21  C   UNL     1     -12.878  14.649  70.215  1.00  0.00    -0.254 C  
ENDBRANCH  14  16
BRANCH  12  22
HETATM   22  N   UNL     1      -9.423   8.413  70.957  1.00  0.00    -0.160 NA 
BRANCH  22  23
HETATM   23  C   UNL     1      -8.207   7.634  71.220  1.00  0.00    -0.099 C  
BRANCH  23  24
HETATM   24  C   UNL     1      -7.079   8.460  71.864  1.00  0.00    -0.092 C  
HETATM   25  O   UNL     1      -6.948   9.741  71.249  1.00  0.00    -0.330 OA 
HETATM   26  H   UNL     1      -6.251  10.251  71.647  1.00  0.00     0.000 HD 
ENDBRANCH  23  24
ENDBRANCH  22  23
BRANCH  22  27
HETATM   27  C   UNL     1     -10.257   8.841  72.082  1.00  0.00    -0.301 C  
BRANCH  27  28
HETATM   28  C   UNL     1     -10.402   7.731  73.138  1.00  0.00    -0.340 C  
HETATM   29  O   UNL     1     -11.590   6.965  72.932  1.00  0.00    -0.491 OA 
HETATM   30  H   UNL     1     -11.679   6.280  73.584  1.00  0.00     0.000 HD 
ENDBRANCH  27  28
ENDBRANCH  22  27
ENDBRANCH  12  22
BRANCH   7  31
HETATM   31  N   UNL     1      -8.176   8.744  66.493  1.00  0.00    -0.109 NA 
HETATM   32  C   UNL     1      -8.551   7.459  65.913  1.00  0.00    -0.153 C  
HETATM   33  C   UNL     1      -6.771   9.122  66.330  1.00  0.00    -0.071 C  
HETATM   34  C   UNL     1      -8.265   7.503  64.411  1.00  0.00    -0.018 C  
HETATM   35  C   UNL     1      -6.449   9.197  64.838  1.00  0.00    -0.067 C  
HETATM   36  C   UNL     1      -6.820   7.899  64.120  1.00  0.00    -0.061 C  
ENDBRANCH   7  31
ENDBRANCH   5   6
BRANCH   5  37
HETATM   37  C   UNL     1     -10.798  14.640  65.279  1.00  0.00    -0.377 C  
BRANCH  37  38
HETATM   38  C   UNL     1     -12.151  14.708  64.543  1.00  0.00    -0.475 C  
HETATM   39  O   UNL     1     -13.177  13.995  65.233  1.00  0.00    -0.782 OA 
HETATM   40  H   UNL     1     -14.010  14.037  64.780  1.00  0.00     0.000 HD 
ENDBRANCH  37  38
ENDBRANCH   5  37
ENDBRANCH   4   5
ENDBRANCH   3   4
TORSDOF 12
ENDMDL
MODEL      130
REMARK 921   NORMALIZED FREE ENERGY PREDICTED BY IDOCK:   -4.40 KCAL/MOL
REMARK 922        TOTAL FREE ENERGY PREDICTED BY IDOCK:   -8.40 KCAL/MOL
REMARK 923 INTER-LIGAND FREE ENERGY PREDICTED BY IDOCK:   -8.11 KCAL/MOL
REMARK 924 INTRA-LIGAND FREE ENERGY PREDICTED BY IDOCK:   -0.29 KCAL/MOL
REMARK 927      BINDING AFFINITY PREDICTED BY RF-SCORE:    0.00 PKD
ROOT
HETATM    1  O   UNL     1      -9.693   2.126  67.347  1.00  0.00    -0.408 OA 
HETATM    2  H   UNL     1      -9.384   1.235  67.233  1.00  0.00     0.000 HD 
HETATM    3  C   UNL     1      -9.005   3.040  66.494  1.00  0.00    -0.154 C  
ENDROOT
BRANCH   3   4
HETATM    4  C   UNL     1      -9.506   4.490  66.680  1.00  0.00    -0.174 C  
BRANCH   4   5
HETATM    5  N   UNL     1      -8.458   5.500  66.936  1.00  0.00    -0.111 NA 
BRANCH   5   6
HETATM    6  C   UNL     1      -8.909   6.802  67.064  1.00  0.00    -0.115 A  
HETATM    7  C   UNL     1     -10.262   9.086  69.568  1.00  0.00    -0.203 A  
HETATM    8  N   UNL     1     -10.612  10.392  69.672  1.00  0.00    -0.243 NA 
HETATM    9  N   UNL     1      -9.370   7.235  68.238  1.00  0.00    -0.136 NA 
HETATM   10  C   UNL     1      -9.753   8.534  68.376  1.00  0.00    -0.155 A  
HETATM   11  N   UNL     1      -8.841   7.602  66.009  1.00  0.00    -0.166 NA 
HETATM   12  C   UNL     1     -10.516  11.175  68.606  1.00  0.00    -0.197 A  
HETATM   13  C   UNL     1      -9.700   9.429  67.322  1.00  0.00    -0.165 A  
HETATM   14  C   UNL     1      -9.230   8.888  66.118  1.00  0.00    -0.217 A  
HETATM   15  N   UNL     1     -10.118  10.714  67.428  1.00  0.00    -0.187 NA 
BRANCH  14  16
HETATM   16  N   UNL     1      -9.195   9.624  64.939  1.00  0.00    -0.244 NA 
HETATM   17  C   UNL     1     -10.358  11.285  63.643  1.00  0.00    -0.464 C  
HETATM   18  C   UNL     1      -9.604  10.809  62.396  1.00  0.00    -0.172 C  
HETATM   19  C   UNL     1      -9.534  11.043  64.907  1.00  0.00    -0.233 C  
HETATM   20  C   UNL     1      -8.330   9.174  63.849  1.00  0.00    -0.181 C  
HETATM   21  C   UNL     1      -9.103   9.369  62.542  1.00  0.00    -0.176 C  
ENDBRANCH  14  16
BRANCH  12  22
HETATM   22  N   UNL     1     -10.818  12.517  68.703  1.00  0.00    -0.242 NA 
BRANCH  22  23
HETATM   23  C   UNL     1     -11.890  12.892  69.633  1.00  0.00    -0.320 C  
BRANCH  23  24
HETATM   24  C   UNL     1     -11.871  14.382  70.018  1.00  0.00    -0.315 C  
HETATM   25  O   UNL     1     -12.603  15.176  69.085  1.00  0.00    -0.579 OA 
HETATM   26  H   UNL     1     -12.592  16.096  69.323  1.00  0.00     0.000 HD 
ENDBRANCH  23  24
ENDBRANCH  22  23
BRANCH  22  27
HETATM   27  C   UNL     1      -9.821  13.517  68.317  1.00  0.00    -0.233 C  
BRANCH  27  28
HETATM   28  C   UNL     1      -8.402  12.918  68.273  1.00  0.00    -0.157 C  
HETATM   29  O   UNL     1      -7.746  13.221  67.040  1.00  0.00    -0.375 OA 
HETATM   30  H   UNL     1      -6.871  12.852  67.013  1.00  0.00     0.000 HD 
ENDBRANCH  27  28
ENDBRANCH  22  27
ENDBRANCH  12  22
BRANCH   7  31
HETATM   31  N   UNL     1     -10.410   8.366  70.752  1.00  0.00    -0.192 NA 
HETATM   32  C   UNL     1      -9.291   7.756  71.461  1.00  0.00    -0.137 C  
HETATM   33  C   UNL     1     -11.719   7.759  71.003  1.00  0.00    -0.281 C  
HETATM   34  C   UNL     1      -9.555   7.856  72.964  1.00  0.00    -0.341 C  
HETATM   35  C   UNL     1     -12.032   7.856  72.495  1.00  0.00    -0.349 C  
HETATM   36  C   UNL     1     -10.908   7.257  73.342  1.00  0.00    -0.370 C  
ENDBRANCH   7  31
ENDBRANCH   5   6
BRANCH   5  37
HETATM   37  C   UNL     1      -7.155   5.292  66.291  1.00  0.00    -0.072 C  
BRANCH  37  38
HETATM   38  C   UNL     1      -5.990   5.298  67.302  1.00  0.00    -0.026 C  
HETATM   39  O   UNL     1      -5.677   3.987  67.772  1.00  0.00    -0.020 OA 
HETATM   40  H   UNL     1      -4.960   3.991  68.394  1.00  0.00     0.000 HD 
ENDBRANCH  37  38
ENDBRANCH   5  37
ENDBRANCH   4   5
ENDBRANCH   3   4
TORSDOF 12
ENDMDL
MODEL      131
REMARK 921   NORMALIZED FREE ENERGY PREDICTED BY IDOCK:   -4.37 KCAL/MOL
REMARK 922        TOTAL FREE ENERGY PREDICTED BY IDOCK:   -8.36 KCAL/MOL
REMARK 923 INTER-LIGAND FREE ENERGY PREDICTED BY IDOCK:   -7.09 KCAL/MOL
REMARK 924 INTRA-LIGAND FREE ENERGY PREDICTED BY IDOCK:   -1.26 KCAL/MOL
REMARK 927      BINDING AFFINITY PREDICTED BY RF-SCORE:    0.00 PKD
ROOT
HETATM    1  O   UNL     1     -10.608   3.902  65.435  1.00  0.00    -0.465 OA 
HETATM    2  H   UNL     1     -11.154   4.199  64.716  1.00  0.00     0.000 HD 
HETATM    3  C   UNL     1      -9.354   4.582  65.466  1.00  0.00    -0.162 C  
ENDROOT
BRANCH   3   4
HETATM    4  C   UNL     1      -8.466   4.100  66.635  1.00  0.00    -0.104 C  
BRANCH   4   5
HETATM    5  N   UNL     1      -7.663   5.147  67.301  1.00  0.00    -0.092 NA 
BRANCH   5   6
HETATM    6  C   UNL     1      -8.060   6.448  67.048  1.00  0.00    -0.112 A  
HETATM    7  C   UNL     1     -10.133   9.093  68.468  1.00  0.00    -0.191 A  
HETATM    8  N   UNL     1     -10.427  10.396  68.231  1.00  0.00    -0.179 NA 
HETATM    9  N   UNL     1      -8.905   7.061  67.877  1.00  0.00    -0.124 NA 
HETATM   10  C   UNL     1      -9.243   8.362  67.659  1.00  0.00    -0.134 A  
HETATM   11  N   UNL     1      -7.557   7.069  65.988  1.00  0.00    -0.093 NA 
HETATM   12  C   UNL     1      -9.896  10.998  67.175  1.00  0.00    -0.184 A  
HETATM   13  C   UNL     1      -8.750   9.075  66.580  1.00  0.00    -0.128 A  
HETATM   14  C   UNL     1      -7.890   8.352  65.743  1.00  0.00    -0.101 A  
HETATM   15  N   UNL     1      -9.108  10.357  66.322  1.00  0.00    -0.155 NA 
BRANCH  14  16
HETATM   16  N   UNL     1      -7.375   8.888  64.569  1.00  0.00    -0.099 NA 
HETATM   17  C   UNL     1      -5.781  10.455  63.677  1.00  0.00    -0.138 C  
HETATM   18  C   UNL     1      -6.575  10.484  62.366  1.00  0.00    -0.151 C  
HETATM   19  C   UNL     1      -5.944   9.111  64.387  1.00  0.00    -0.070 C  
HETATM   20  C   UNL     1      -8.137   8.740  63.330  1.00  0.00    -0.170 C  
HETATM   21  C   UNL     1      -8.034  10.065  62.569  1.00  0.00    -0.142 C  
ENDBRANCH  14  16
BRANCH  12  22
HETATM   22  N   UNL     1     -10.141  12.335  66.944  1.00  0.00    -0.209 NA 
BRANCH  22  23
HETATM   23  C   UNL     1     -10.487  12.720  65.572  1.00  0.00    -0.287 C  
BRANCH  23  24
HETATM   24  C   UNL     1     -11.965  12.473  65.220  1.00  0.00    -0.438 C  
HETATM   25  O   UNL     1     -12.672  13.697  65.027  1.00  0.00    -0.622 OA 
HETATM   26  H   UNL     1     -13.584  13.544  64.811  1.00  0.00     0.000 HD 
ENDBRANCH  23  24
ENDBRANCH  22  23
BRANCH  22  27
HETATM   27  C   UNL     1     -10.534  13.205  68.055  1.00  0.00    -0.239 C  
BRANCH  27  28
HETATM   28  C   UNL     1     -10.436  14.694  67.673  1.00  0.00    -0.243 C  
HETATM   29  O   UNL     1     -11.730  15.282  67.526  1.00  0.00    -0.291 OA 
HETATM   30  H   UNL     1     -11.669  16.200  67.291  1.00  0.00     0.000 HD 
ENDBRANCH  27  28
ENDBRANCH  22  27
ENDBRANCH  12  22
BRANCH   7  31
HETATM   31  N   UNL     1     -10.754   8.573  69.602  1.00  0.00    -0.223 NA 
HETATM   32  C   UNL     1     -10.979   7.146  69.805  1.00  0.00    -0.231 C  
HETATM   33  C   UNL     1     -11.659   9.463  70.333  1.00  0.00    -0.192 C  
HETATM   34  C   UNL     1     -10.815   6.836  71.294  1.00  0.00    -0.266 C  
HETATM   35  C   UNL     1     -11.511   9.198  71.831  1.00  0.00    -0.423 C  
HETATM   36  C   UNL     1     -11.712   7.718  72.159  1.00  0.00    -0.368 C  
ENDBRANCH   7  31
ENDBRANCH   5   6
BRANCH   5  37
HETATM   37  C   UNL     1      -6.225   4.892  67.455  1.00  0.00    -0.039 C  
BRANCH  37  38
HETATM   38  C   UNL     1      -5.773   4.935  68.928  1.00  0.00    -0.019 C  
HETATM   39  O   UNL     1      -5.344   6.238  69.323  1.00  0.00    -0.011 OA 
HETATM   40  H   UNL     1      -5.066   6.264  70.231  1.00  0.00     0.000 HD 
ENDBRANCH  37  38
ENDBRANCH   5  37
ENDBRANCH   4   5
ENDBRANCH   3   4
TORSDOF 12
ENDMDL
MODEL      132
REMARK 921   NORMALIZED FREE ENERGY PREDICTED BY IDOCK:   -4.33 KCAL/MOL
REMARK 922        TOTAL FREE ENERGY PREDICTED BY IDOCK:   -8.29 KCAL/MOL
REMARK 923 INTER-LIGAND FREE ENERGY PREDICTED BY IDOCK:   -6.46 KCAL/MOL
REMARK 924 INTRA-LIGAND FREE ENERGY PREDICTED BY IDOCK:   -1.83 KCAL/MOL
REMARK 927      BINDING AFFINITY PREDICTED BY RF-SCORE:    0.00 PKD
ROOT
HETATM    1  O   UNL     1     -10.407   4.561  73.643  1.00  0.00    -0.156 OA 
HETATM    2  H   UNL     1     -10.861   3.765  73.895  1.00  0.00     0.000 HD 
HETATM    3  C   UNL     1     -11.287   5.507  73.039  1.00  0.00    -0.266 C  
ENDROOT
BRANCH   3   4
HETATM    4  C   UNL     1     -10.548   6.801  72.629  1.00  0.00    -0.223 C  
BRANCH   4   5
HETATM    5  N   UNL     1     -11.261   7.666  71.665  1.00  0.00    -0.243 NA 
BRANCH   5   6
HETATM    6  C   UNL     1     -10.634   7.832  70.443  1.00  0.00    -0.227 A  
HETATM    7  C   UNL     1      -8.821   5.921  67.918  1.00  0.00    -0.105 A  
HETATM    8  N   UNL     1      -8.295   6.108  66.682  1.00  0.00    -0.110 NA 
HETATM    9  N   UNL     1     -10.040   6.795  69.852  1.00  0.00    -0.178 NA 
HETATM   10  C   UNL     1      -9.479   6.949  68.621  1.00  0.00    -0.134 A  
HETATM   11  N   UNL     1     -10.667   9.029  69.872  1.00  0.00    -0.227 NA 
HETATM   12  C   UNL     1      -8.359   7.310  66.126  1.00  0.00    -0.133 A  
HETATM   13  C   UNL     1      -9.486   8.165  67.961  1.00  0.00    -0.143 A  
HETATM   14  C   UNL     1     -10.105   9.209  68.660  1.00  0.00    -0.194 A  
HETATM   15  N   UNL     1      -8.895   8.348  66.754  1.00  0.00    -0.133 NA 
BRANCH  14  16
HETATM   16  N   UNL     1     -10.123  10.514  68.181  1.00  0.00    -0.154 NA 
HETATM   17  C   UNL     1     -10.781  11.900  66.329  1.00  0.00    -0.309 C  
HETATM   18  C   UNL     1      -9.783  12.965  66.798  1.00  0.00    -0.246 C  
HETATM   19  C   UNL     1     -11.291  11.070  67.506  1.00  0.00    -0.257 C  
HETATM   20  C   UNL     1      -9.236  11.503  68.791  1.00  0.00    -0.067 C  
HETATM   21  C   UNL     1      -8.668  12.366  67.661  1.00  0.00    -0.178 C  
ENDBRANCH  14  16
BRANCH  12  22
HETATM   22  N   UNL     1      -7.876   7.509  64.850  1.00  0.00    -0.122 NA 
BRANCH  22  23
HETATM   23  C   UNL     1      -7.252   6.358  64.188  1.00  0.00    -0.065 C  
BRANCH  23  24
HETATM   24  C   UNL     1      -8.235   5.534  63.337  1.00  0.00    -0.110 C  
HETATM   25  O   UNL     1      -8.798   4.455  64.081  1.00  0.00    -0.136 OA 
HETATM   26  H   UNL     1      -9.405   3.946  63.555  1.00  0.00     0.000 HD 
ENDBRANCH  23  24
ENDBRANCH  22  23
BRANCH  22  27
HETATM   27  C   UNL     1      -8.402   8.607  64.036  1.00  0.00    -0.120 C  
BRANCH  27  28
HETATM   28  C   UNL     1      -7.438   8.981  62.894  1.00  0.00    -0.104 C  
HETATM   29  O   UNL     1      -6.636  10.113  63.237  1.00  0.00    -0.131 OA 
HETATM   30  H   UNL     1      -6.042  10.343  62.532  1.00  0.00     0.000 HD 
ENDBRANCH  27  28
ENDBRANCH  22  27
ENDBRANCH  12  22
BRANCH   7  31
HETATM   31  N   UNL     1      -8.689   4.618  68.396  1.00  0.00    -0.097 NA 
HETATM   32  C   UNL     1      -8.156   4.303  69.717  1.00  0.00    -0.059 C  
HETATM   33  C   UNL     1      -8.571   3.552  67.399  1.00  0.00    -0.102 C  
HETATM   34  C   UNL     1      -8.904   3.086  70.264  1.00  0.00    -0.147 C  
HETATM   35  C   UNL     1      -9.323   2.320  67.900  1.00  0.00    -0.232 C  
HETATM   36  C   UNL     1      -8.854   1.907  69.295  1.00  0.00    -0.132 C  
ENDBRANCH   7  31
ENDBRANCH   5   6
BRANCH   5  37
HETATM   37  C   UNL     1     -12.002   8.810  72.211  1.00  0.00    -0.345 C  
BRANCH  37  38
HETATM   38  C   UNL     1     -13.528   8.593  72.182  1.00  0.00    -0.398 C  
HETATM   39  O   UNL     1     -13.894   7.444  71.418  1.00  0.00    -0.475 OA 
HETATM   40  H   UNL     1     -14.834   7.311  71.400  1.00  0.00     0.000 HD 
ENDBRANCH  37  38
ENDBRANCH   5  37
ENDBRANCH   4   5
ENDBRANCH   3   4
TORSDOF 12
ENDMDL
MODEL      133
REMARK 921   NORMALIZED FREE ENERGY PREDICTED BY IDOCK:   -4.32 KCAL/MOL
REMARK 922        TOTAL FREE ENERGY PREDICTED BY IDOCK:   -8.27 KCAL/MOL
REMARK 923 INTER-LIGAND FREE ENERGY PREDICTED BY IDOCK:   -7.11 KCAL/MOL
REMARK 924 INTRA-LIGAND FREE ENERGY PREDICTED BY IDOCK:   -1.17 KCAL/MOL
REMARK 927      BINDING AFFINITY PREDICTED BY RF-SCORE:    0.00 PKD
ROOT
HETATM    1  O   UNL     1     -12.209  13.972  72.277  1.00  0.00    -0.066 OA 
HETATM    2  H   UNL     1     -12.062  14.746  72.809  1.00  0.00     0.000 HD 
HETATM    3  C   UNL     1     -13.527  13.453  72.448  1.00  0.00    -0.584 C  
ENDROOT
BRANCH   3   4
HETATM    4  C   UNL     1     -13.767  12.195  71.583  1.00  0.00     0.433 C  
BRANCH   4   5
HETATM    5  N   UNL     1     -12.852  11.062  71.836  1.00  0.00    -0.381 NA 
BRANCH   5   6
HETATM    6  C   UNL     1     -11.917  10.825  70.844  1.00  0.00    -0.333 A  
HETATM    7  C   UNL     1      -9.474   8.319  69.811  1.00  0.00    -0.163 A  
HETATM    8  N   UNL     1      -8.632   8.083  68.775  1.00  0.00    -0.127 NA 
HETATM    9  N   UNL     1     -11.178   9.715  70.876  1.00  0.00    -0.322 NA 
HETATM   10  C   UNL     1     -10.304   9.454  69.865  1.00  0.00    -0.227 A  
HETATM   11  N   UNL     1     -11.800  11.706  69.859  1.00  0.00    -0.337 NA 
HETATM   12  C   UNL     1      -8.549   8.971  67.793  1.00  0.00    -0.121 A  
HETATM   13  C   UNL     1     -10.138  10.322  68.801  1.00  0.00    -0.187 A  
HETATM   14  C   UNL     1     -10.930  11.476  68.856  1.00  0.00    -0.229 A  
HETATM   15  N   UNL     1      -9.242  10.102  67.807  1.00  0.00    -0.137 NA 
BRANCH  14  16
HETATM   16  N   UNL     1     -10.824  12.493  67.914  1.00  0.00    -0.215 NA 
HETATM   17  C   UNL     1     -11.804  13.407  65.915  1.00  0.00    -0.414 C  
HETATM   18  C   UNL     1     -10.481  14.124  65.620  1.00  0.00    -0.333 C  
HETATM   19  C   UNL     1     -11.996  13.208  67.418  1.00  0.00    -0.327 C  
HETATM   20  C   UNL     1      -9.564  13.226  67.802  1.00  0.00    -0.214 C  
HETATM   21  C   UNL     1      -9.294  13.446  66.311  1.00  0.00    -0.137 C  
ENDBRANCH  14  16
BRANCH  12  22
HETATM   22  N   UNL     1      -7.738   8.727  66.705  1.00  0.00    -0.093 NA 
BRANCH  22  23
HETATM   23  C   UNL     1      -7.032   9.878  66.130  1.00  0.00    -0.102 C  
BRANCH  23  24
HETATM   24  C   UNL     1      -7.016   9.878  64.590  1.00  0.00    -0.133 C  
HETATM   25  O   UNL     1      -6.388  11.050  64.072  1.00  0.00    -0.220 OA 
HETATM   26  H   UNL     1      -6.378  11.050  63.122  1.00  0.00     0.000 HD 
ENDBRANCH  23  24
ENDBRANCH  22  23
BRANCH  22  27
HETATM   27  C   UNL     1      -7.218   7.378  66.473  1.00  0.00    -0.079 C  
BRANCH  27  28
HETATM   28  C   UNL     1      -7.981   6.661  65.343  1.00  0.00    -0.121 C  
HETATM   29  O   UNL     1      -9.374   6.977  65.371  1.00  0.00    -0.279 OA 
HETATM   30  H   UNL     1      -9.844   6.534  64.674  1.00  0.00     0.000 HD 
ENDBRANCH  27  28
ENDBRANCH  22  27
ENDBRANCH  12  22
BRANCH   7  31
HETATM   31  N   UNL     1      -9.469   7.316  70.780  1.00  0.00    -0.164 NA 
HETATM   32  C   UNL     1      -9.934   5.958  70.525  1.00  0.00    -0.189 C  
HETATM   33  C   UNL     1      -9.514   7.744  72.180  1.00  0.00    -0.164 C  
HETATM   34  C   UNL     1      -9.059   4.988  71.322  1.00  0.00    -0.176 C  
HETATM   35  C   UNL     1      -8.635   6.810  73.011  1.00  0.00    -0.131 C  
HETATM   36  C   UNL     1      -9.025   5.346  72.806  1.00  0.00    -0.121 C  
ENDBRANCH   7  31
ENDBRANCH   5   6
BRANCH   5  37
HETATM   37  C   UNL     1     -13.405   9.899  72.543  1.00  0.00    -0.083 C  
BRANCH  37  38
HETATM   38  C   UNL     1     -14.392   9.095  71.673  1.00  0.00    -0.080 C  
HETATM   39  O   UNL     1     -13.880   7.810  71.324  1.00  0.00    -0.554 OA 
HETATM   40  H   UNL     1     -14.489   7.315  70.789  1.00  0.00     0.000 HD 
ENDBRANCH  37  38
ENDBRANCH   5  37
ENDBRANCH   4   5
ENDBRANCH   3   4
TORSDOF 12
ENDMDL
MODEL      134
REMARK 921   NORMALIZED FREE ENERGY PREDICTED BY IDOCK:   -4.31 KCAL/MOL
REMARK 922        TOTAL FREE ENERGY PREDICTED BY IDOCK:   -8.25 KCAL/MOL
REMARK 923 INTER-LIGAND FREE ENERGY PREDICTED BY IDOCK:   -7.96 KCAL/MOL
REMARK 924 INTRA-LIGAND FREE ENERGY PREDICTED BY IDOCK:   -0.29 KCAL/MOL
REMARK 927      BINDING AFFINITY PREDICTED BY RF-SCORE:    0.00 PKD
ROOT
HETATM    1  O   UNL     1     -13.078  15.394  63.925  1.00  0.00    -0.295 OA 
HETATM    2  H   UNL     1     -12.761  16.178  63.491  1.00  0.00     0.000 HD 
HETATM    3  C   UNL     1     -12.012  14.622  64.475  1.00  0.00    -0.460 C  
ENDROOT
BRANCH   3   4
HETATM    4  C   UNL     1     -12.528  13.348  65.181  1.00  0.00    -0.459 C  
BRANCH   4   5
HETATM    5  N   UNL     1     -11.642  12.168  65.097  1.00  0.00    -0.336 NA 
BRANCH   5   6
HETATM    6  C   UNL     1     -10.675  12.082  66.083  1.00  0.00    -0.275 A  
HETATM    7  C   UNL     1      -9.185   9.661  68.370  1.00  0.00    -0.133 A  
HETATM    8  N   UNL     1      -8.169   9.597  69.266  1.00  0.00    -0.113 NA 
HETATM    9  N   UNL     1     -10.470  10.927  66.716  1.00  0.00    -0.241 NA 
HETATM   10  C   UNL     1      -9.475  10.830  67.640  1.00  0.00    -0.154 A  
HETATM   11  N   UNL     1      -9.949  13.159  66.353  1.00  0.00    -0.276 NA 
HETATM   12  C   UNL     1      -7.446  10.683  69.504  1.00  0.00    -0.130 A  
HETATM   13  C   UNL     1      -8.671  11.908  67.965  1.00  0.00    -0.173 A  
HETATM   14  C   UNL     1      -8.968  13.090  67.275  1.00  0.00    -0.212 A  
HETATM   15  N   UNL     1      -7.704  11.843  68.913  1.00  0.00    -0.069 NA 
BRANCH  14  16
HETATM   16  N   UNL     1      -8.316  14.289  67.543  1.00  0.00    -0.175 NA 
HETATM   17  C   UNL     1      -6.456  15.278  68.704  1.00  0.00    -0.094 C  
HETATM   18  C   UNL     1      -7.167  16.634  68.644  1.00  0.00    -0.192 C  
HETATM   19  C   UNL     1      -6.861  14.394  67.525  1.00  0.00    -0.139 C  
HETATM   20  C   UNL     1      -9.027  15.546  67.315  1.00  0.00    -0.201 C  
HETATM   21  C   UNL     1      -8.682  16.482  68.477  1.00  0.00    -0.228 C  
ENDBRANCH  14  16
BRANCH  12  22
HETATM   22  N   UNL     1      -6.377  10.628  70.373  1.00  0.00    -0.214 NA 
BRANCH  22  23
HETATM   23  C   UNL     1      -6.015   9.306  70.898  1.00  0.00    -0.059 C  
BRANCH  23  24
HETATM   24  C   UNL     1      -6.930   8.831  72.042  1.00  0.00    -0.016 C  
HETATM   25  O   UNL     1      -6.186   8.548  73.227  1.00  0.00    -0.105 OA 
HETATM   26  H   UNL     1      -6.750   8.255  73.933  1.00  0.00     0.000 HD 
ENDBRANCH  23  24
ENDBRANCH  22  23
BRANCH  22  27
HETATM   27  C   UNL     1      -5.375  11.695  70.362  1.00  0.00    -0.121 C  
BRANCH  27  28
HETATM   28  C   UNL     1      -5.360  12.475  71.690  1.00  0.00     0.050 C  
HETATM   29  O   UNL     1      -6.185  13.640  71.621  1.00  0.00    -0.539 OA 
HETATM   30  H   UNL     1      -6.175  14.121  72.440  1.00  0.00     0.000 HD 
ENDBRANCH  27  28
ENDBRANCH  22  27
ENDBRANCH  12  22
BRANCH   7  31
HETATM   31  N   UNL     1      -9.872   8.459  68.211  1.00  0.00    -0.163 NA 
HETATM   32  C   UNL     1     -10.174   7.879  66.907  1.00  0.00    -0.310 C  
HETATM   33  C   UNL     1     -10.759   8.050  69.302  1.00  0.00    -0.129 C  
HETATM   34  C   UNL     1     -10.080   6.356  67.020  1.00  0.00    -0.227 C  
HETATM   35  C   UNL     1     -10.680   6.532  69.462  1.00  0.00    -0.322 C  
HETATM   36  C   UNL     1     -10.964   5.816  68.142  1.00  0.00    -0.150 C  
ENDBRANCH   7  31
ENDBRANCH   5   6
BRANCH   5  37
HETATM   37  C   UNL     1     -11.289  11.690  63.754  1.00  0.00    -0.393 C  
BRANCH  37  38
HETATM   38  C   UNL     1      -9.945  10.934  63.732  1.00  0.00    -0.351 C  
HETATM   39  O   UNL     1      -8.935  11.653  63.025  1.00  0.00    -0.557 OA 
HETATM   40  H   UNL     1      -8.107  11.188  63.012  1.00  0.00     0.000 HD 
ENDBRANCH  37  38
ENDBRANCH   5  37
ENDBRANCH   4   5
ENDBRANCH   3   4
TORSDOF 12
ENDMDL
MODEL      135
REMARK 921   NORMALIZED FREE ENERGY PREDICTED BY IDOCK:   -4.30 KCAL/MOL
REMARK 922        TOTAL FREE ENERGY PREDICTED BY IDOCK:   -8.24 KCAL/MOL
REMARK 923 INTER-LIGAND FREE ENERGY PREDICTED BY IDOCK:   -6.27 KCAL/MOL
REMARK 924 INTRA-LIGAND FREE ENERGY PREDICTED BY IDOCK:   -1.97 KCAL/MOL
REMARK 927      BINDING AFFINITY PREDICTED BY RF-SCORE:    0.00 PKD
ROOT
HETATM    1  O   UNL     1      -5.818  13.015  66.946  1.00  0.00    -0.418 OA 
HETATM    2  H   UNL     1      -5.465  13.345  66.128  1.00  0.00     0.000 HD 
HETATM    3  C   UNL     1      -6.513  14.028  67.672  1.00  0.00    -0.140 C  
ENDROOT
BRANCH   3   4
HETATM    4  C   UNL     1      -7.087  13.491  69.002  1.00  0.00    -0.066 C  
BRANCH   4   5
HETATM    5  N   UNL     1      -6.431  12.280  69.538  1.00  0.00    -0.114 NA 
BRANCH   5   6
HETATM    6  C   UNL     1      -7.147  11.105  69.393  1.00  0.00    -0.110 A  
HETATM    7  C   UNL     1      -9.105   9.282  66.912  1.00  0.00    -0.131 A  
HETATM    8  N   UNL     1      -9.722   8.081  66.783  1.00  0.00    -0.217 NA 
HETATM    9  N   UNL     1      -7.765  10.838  68.242  1.00  0.00    -0.104 NA 
HETATM   10  C   UNL     1      -8.415   9.653  68.082  1.00  0.00    -0.118 A  
HETATM   11  N   UNL     1      -7.174  10.251  70.408  1.00  0.00    -0.281 NA 
HETATM   12  C   UNL     1      -9.718   7.237  67.806  1.00  0.00    -0.140 A  
HETATM   13  C   UNL     1      -8.476   8.710  69.093  1.00  0.00    -0.124 A  
HETATM   14  C   UNL     1      -7.825   9.077  70.278  1.00  0.00    -0.109 A  
HETATM   15  N   UNL     1      -9.155   7.543  68.967  1.00  0.00    -0.141 NA 
BRANCH  14  16
HETATM   16  N   UNL     1      -7.862   8.286  71.420  1.00  0.00    -0.096 NA 
HETATM   17  C   UNL     1      -8.397   8.274  73.766  1.00  0.00    -0.265 C  
HETATM   18  C   UNL     1      -7.511   7.035  73.939  1.00  0.00    -0.100 C  
HETATM   19  C   UNL     1      -8.981   8.336  72.355  1.00  0.00    -0.228 C  
HETATM   20  C   UNL     1      -7.098   7.039  71.442  1.00  0.00    -0.070 C  
HETATM   21  C   UNL     1      -6.462   6.918  72.830  1.00  0.00    -0.058 C  
ENDBRANCH  14  16
BRANCH  12  22
HETATM   22  N   UNL     1     -10.294   5.991  67.679  1.00  0.00    -0.181 NA 
BRANCH  22  23
HETATM   23  C   UNL     1     -10.779   5.353  68.908  1.00  0.00    -0.058 C  
BRANCH  23  24
HETATM   24  C   UNL     1      -9.893   4.187  69.383  1.00  0.00    -0.093 C  
HETATM   25  O   UNL     1      -8.516   4.418  69.085  1.00  0.00    -0.077 OA 
HETATM   26  H   UNL     1      -7.970   3.698  69.378  1.00  0.00     0.000 HD 
ENDBRANCH  23  24
ENDBRANCH  22  23
BRANCH  22  27
HETATM   27  C   UNL     1     -10.846   5.573  66.388  1.00  0.00    -0.122 C  
BRANCH  27  28
HETATM   28  C   UNL     1      -9.885   4.633  65.636  1.00  0.00    -0.204 C  
HETATM   29  O   UNL     1      -8.661   5.292  65.304  1.00  0.00    -0.147 OA 
HETATM   30  H   UNL     1      -8.069   4.712  64.841  1.00  0.00     0.000 HD 
ENDBRANCH  27  28
ENDBRANCH  22  27
ENDBRANCH  12  22
BRANCH   7  31
HETATM   31  N   UNL     1      -9.182  10.080  65.772  1.00  0.00    -0.164 NA 
HETATM   32  C   UNL     1      -8.080  10.234  64.830  1.00  0.00    -0.151 C  
HETATM   33  C   UNL     1     -10.148  11.181  65.794  1.00  0.00    -0.249 C  
HETATM   34  C   UNL     1      -8.660  10.354  63.420  1.00  0.00    -0.189 C  
HETATM   35  C   UNL     1     -10.768  11.323  64.405  1.00  0.00    -0.407 C  
HETATM   36  C   UNL     1      -9.694  11.473  63.327  1.00  0.00    -0.405 C  
ENDBRANCH   7  31
ENDBRANCH   5   6
BRANCH   5  37
HETATM   37  C   UNL     1      -5.623  12.439  70.755  1.00  0.00    -0.150 C  
BRANCH  37  38
HETATM   38  C   UNL     1      -5.670  13.877  71.309  1.00  0.00    -0.224 C  
HETATM   39  O   UNL     1      -5.886  13.903  72.720  1.00  0.00    -0.422 OA 
HETATM   40  H   UNL     1      -5.914  14.789  73.061  1.00  0.00     0.000 HD 
ENDBRANCH  37  38
ENDBRANCH   5  37
ENDBRANCH   4   5
ENDBRANCH   3   4
TORSDOF 12
ENDMDL
MODEL      136
REMARK 921   NORMALIZED FREE ENERGY PREDICTED BY IDOCK:   -4.27 KCAL/MOL
REMARK 922        TOTAL FREE ENERGY PREDICTED BY IDOCK:   -8.18 KCAL/MOL
REMARK 923 INTER-LIGAND FREE ENERGY PREDICTED BY IDOCK:   -7.44 KCAL/MOL
REMARK 924 INTRA-LIGAND FREE ENERGY PREDICTED BY IDOCK:   -0.74 KCAL/MOL
REMARK 927      BINDING AFFINITY PREDICTED BY RF-SCORE:    0.00 PKD
ROOT
HETATM    1  O   UNL     1      -5.552  12.714  72.015  1.00  0.00    -0.353 OA 
HETATM    2  H   UNL     1      -5.293  13.613  71.851  1.00  0.00     0.000 HD 
HETATM    3  C   UNL     1      -5.424  11.903  70.848  1.00  0.00    -0.112 C  
ENDROOT
BRANCH   3   4
HETATM    4  C   UNL     1      -5.847  10.440  71.114  1.00  0.00     0.026 C  
BRANCH   4   5
HETATM    5  N   UNL     1      -5.903   9.565  69.925  1.00  0.00    -0.035 NA 
BRANCH   5   6
HETATM    6  C   UNL     1      -6.912   9.854  69.024  1.00  0.00    -0.059 A  
HETATM    7  C   UNL     1      -8.544  12.705  67.434  1.00  0.00    -0.189 A  
HETATM    8  N   UNL     1      -9.479  12.943  66.482  1.00  0.00    -0.257 NA 
HETATM    9  N   UNL     1      -7.205  11.123  68.735  1.00  0.00    -0.090 NA 
HETATM   10  C   UNL     1      -8.155  11.402  67.802  1.00  0.00    -0.121 A  
HETATM   11  N   UNL     1      -7.549   8.847  68.441  1.00  0.00    -0.090 NA 
HETATM   12  C   UNL     1     -10.087  11.917  65.901  1.00  0.00    -0.234 A  
HETATM   13  C   UNL     1      -8.852  10.403  67.146  1.00  0.00    -0.136 A  
HETATM   14  C   UNL     1      -8.504   9.100  67.524  1.00  0.00    -0.116 A  
HETATM   15  N   UNL     1      -9.832  10.662  66.244  1.00  0.00    -0.206 NA 
BRANCH  14  16
HETATM   16  N   UNL     1      -9.166   7.983  67.029  1.00  0.00    -0.141 NA 
HETATM   17  C   UNL     1     -10.846   6.333  67.526  1.00  0.00    -0.436 C  
HETATM   18  C   UNL     1     -10.236   5.420  66.456  1.00  0.00    -0.287 C  
HETATM   19  C   UNL     1     -10.605   7.805  67.192  1.00  0.00    -0.331 C  
HETATM   20  C   UNL     1      -8.581   7.255  65.904  1.00  0.00    -0.149 C  
HETATM   21  C   UNL     1      -8.768   5.760  66.180  1.00  0.00    -0.139 C  
ENDBRANCH  14  16
BRANCH  12  22
HETATM   22  N   UNL     1     -11.004  12.135  64.895  1.00  0.00    -0.300 NA 
BRANCH  22  23
HETATM   23  C   UNL     1     -12.350  12.556  65.300  1.00  0.00    -0.403 C  
BRANCH  23  24
HETATM   24  C   UNL     1     -12.477  14.075  65.515  1.00  0.00    -0.509 C  
HETATM   25  O   UNL     1     -12.192  14.441  66.865  1.00  0.00    -0.510 OA 
HETATM   26  H   UNL     1     -12.271  15.378  66.998  1.00  0.00     0.000 HD 
ENDBRANCH  23  24
ENDBRANCH  22  23
BRANCH  22  27
HETATM   27  C   UNL     1     -10.538  12.429  63.538  1.00  0.00    -0.413 C  
BRANCH  27  28
HETATM   28  C   UNL     1      -9.881  11.200  62.883  1.00  0.00    -0.289 C  
HETATM   29  O   UNL     1      -8.493  11.425  62.625  1.00  0.00    -0.488 OA 
HETATM   30  H   UNL     1      -8.088  10.667  62.221  1.00  0.00     0.000 HD 
ENDBRANCH  27  28
ENDBRANCH  22  27
ENDBRANCH  12  22
BRANCH   7  31
HETATM   31  N   UNL     1      -7.980  13.861  67.972  1.00  0.00    -0.140 NA 
HETATM   32  C   UNL     1      -6.541  14.075  68.075  1.00  0.00    -0.147 C  
HETATM   33  C   UNL     1      -8.798  14.621  68.920  1.00  0.00    -0.136 C  
HETATM   34  C   UNL     1      -6.252  15.557  67.834  1.00  0.00    -0.167 C  
HETATM   35  C   UNL     1      -8.553  16.113  68.700  1.00  0.00    -0.210 C  
HETATM   36  C   UNL     1      -7.064  16.451  68.769  1.00  0.00    -0.180 C  
ENDBRANCH   7  31
ENDBRANCH   5   6
BRANCH   5  37
HETATM   37  C   UNL     1      -5.543   8.153  70.114  1.00  0.00    -0.022 C  
BRANCH  37  38
HETATM   38  C   UNL     1      -5.614   7.720  71.592  1.00  0.00    -0.035 C  
HETATM   39  O   UNL     1      -6.050   6.369  71.738  1.00  0.00    -0.039 OA 
HETATM   40  H   UNL     1      -6.093   6.103  72.648  1.00  0.00     0.000 HD 
ENDBRANCH  37  38
ENDBRANCH   5  37
ENDBRANCH   4   5
ENDBRANCH   3   4
TORSDOF 12
ENDMDL
MODEL      137
REMARK 921   NORMALIZED FREE ENERGY PREDICTED BY IDOCK:   -4.26 KCAL/MOL
REMARK 922        TOTAL FREE ENERGY PREDICTED BY IDOCK:   -8.17 KCAL/MOL
REMARK 923 INTER-LIGAND FREE ENERGY PREDICTED BY IDOCK:   -7.38 KCAL/MOL
REMARK 924 INTRA-LIGAND FREE ENERGY PREDICTED BY IDOCK:   -0.79 KCAL/MOL
REMARK 927      BINDING AFFINITY PREDICTED BY RF-SCORE:    0.00 PKD
ROOT
HETATM    1  O   UNL     1     -14.142   8.903  72.964  1.00  0.00    -1.075 OA 
HETATM    2  H   UNL     1     -14.884   9.489  73.059  1.00  0.00     0.000 HD 
HETATM    3  C   UNL     1     -14.046   8.374  71.642  1.00  0.00    -0.419 C  
ENDROOT
BRANCH   3   4
HETATM    4  C   UNL     1     -12.839   7.422  71.489  1.00  0.00    -0.375 C  
BRANCH   4   5
HETATM    5  N   UNL     1     -11.508   8.055  71.605  1.00  0.00    -0.257 NA 
BRANCH   5   6
HETATM    6  C   UNL     1     -10.730   8.010  70.462  1.00  0.00    -0.229 A  
HETATM    7  C   UNL     1      -9.334  10.213  67.910  1.00  0.00    -0.141 A  
HETATM    8  N   UNL     1      -8.496  10.138  66.846  1.00  0.00    -0.125 NA 
HETATM    9  N   UNL     1     -10.475   9.130  69.784  1.00  0.00    -0.215 NA 
HETATM   10  C   UNL     1      -9.657   9.091  68.697  1.00  0.00    -0.153 A  
HETATM   11  N   UNL     1     -10.227   6.842  70.083  1.00  0.00    -0.192 NA 
HETATM   12  C   UNL     1      -7.993   8.961  66.500  1.00  0.00    -0.103 A  
HETATM   13  C   UNL     1      -9.089   7.911  68.250  1.00  0.00    -0.134 A  
HETATM   14  C   UNL     1      -9.427   6.777  69.000  1.00  0.00    -0.133 A  
HETATM   15  N   UNL     1      -8.307   7.845  67.145  1.00  0.00    -0.116 NA 
BRANCH  14  16
HETATM   16  N   UNL     1      -9.015   5.499  68.639  1.00  0.00    -0.114 NA 
HETATM   17  C   UNL     1      -9.688   3.477  67.522  1.00  0.00    -0.067 C  
HETATM   18  C   UNL     1      -8.593   2.719  68.282  1.00  0.00    -0.115 C  
HETATM   19  C   UNL     1      -9.300   4.942  67.321  1.00  0.00    -0.131 C  
HETATM   20  C   UNL     1      -7.863   4.909  69.320  1.00  0.00    -0.075 C  
HETATM   21  C   UNL     1      -8.189   3.435  69.574  1.00  0.00    -0.071 C  
ENDBRANCH  14  16
BRANCH  12  22
HETATM   22  N   UNL     1      -7.099   8.870  65.455  1.00  0.00    -0.080 NA 
BRANCH  22  23
HETATM   23  C   UNL     1      -6.390  10.098  65.077  1.00  0.00    -0.123 C  
BRANCH  23  24
HETATM   24  C   UNL     1      -6.073  10.184  63.573  1.00  0.00    -0.141 C  
HETATM   25  O   UNL     1      -5.143  11.229  63.291  1.00  0.00    -0.427 OA 
HETATM   26  H   UNL     1      -4.947  11.282  62.362  1.00  0.00     0.000 HD 
ENDBRANCH  23  24
ENDBRANCH  22  23
BRANCH  22  27
HETATM   27  C   UNL     1      -6.524   7.571  65.100  1.00  0.00    -0.041 C  
BRANCH  27  28
HETATM   28  C   UNL     1      -7.358   6.855  64.021  1.00  0.00    -0.087 C  
HETATM   29  O   UNL     1      -7.441   5.451  64.271  1.00  0.00    -0.058 OA 
HETATM   30  H   UNL     1      -7.955   5.009  63.606  1.00  0.00     0.000 HD 
ENDBRANCH  27  28
ENDBRANCH  22  27
ENDBRANCH  12  22
BRANCH   7  31
HETATM   31  N   UNL     1      -9.800  11.501  68.170  1.00  0.00    -0.188 NA 
HETATM   32  C   UNL     1      -8.926  12.666  68.247  1.00  0.00    -0.176 C  
HETATM   33  C   UNL     1     -11.067  11.616  68.897  1.00  0.00    -0.232 C  
HETATM   34  C   UNL     1      -9.671  13.870  67.669  1.00  0.00    -0.226 C  
HETATM   35  C   UNL     1     -11.853  12.800  68.336  1.00  0.00    -0.353 C  
HETATM   36  C   UNL     1     -11.020  14.082  68.352  1.00  0.00    -0.269 C  
ENDBRANCH   7  31
ENDBRANCH   5   6
BRANCH   5  37
HETATM   37  C   UNL     1     -10.823   7.942  72.899  1.00  0.00    -0.386 C  
BRANCH  37  38
HETATM   38  C   UNL     1     -10.883   6.513  73.476  1.00  0.00    -0.186 C  
HETATM   39  O   UNL     1      -9.886   5.662  72.911  1.00  0.00    -0.164 OA 
HETATM   40  H   UNL     1      -9.924   4.782  73.266  1.00  0.00     0.000 HD 
ENDBRANCH  37  38
ENDBRANCH   5  37
ENDBRANCH   4   5
ENDBRANCH   3   4
TORSDOF 12
ENDMDL
MODEL      138
REMARK 921   NORMALIZED FREE ENERGY PREDICTED BY IDOCK:   -4.24 KCAL/MOL
REMARK 922        TOTAL FREE ENERGY PREDICTED BY IDOCK:   -8.14 KCAL/MOL
REMARK 923 INTER-LIGAND FREE ENERGY PREDICTED BY IDOCK:   -6.31 KCAL/MOL
REMARK 924 INTRA-LIGAND FREE ENERGY PREDICTED BY IDOCK:   -1.83 KCAL/MOL
REMARK 927      BINDING AFFINITY PREDICTED BY RF-SCORE:    0.00 PKD
ROOT
HETATM    1  O   UNL     1      -5.237   4.197  64.131  1.00  0.00    -0.008 OA 
HETATM    2  H   UNL     1      -4.708   4.074  63.351  1.00  0.00     0.000 HD 
HETATM    3  C   UNL     1      -6.082   3.075  64.383  1.00  0.00    -0.022 C  
ENDROOT
BRANCH   3   4
HETATM    4  C   UNL     1      -6.942   3.275  65.651  1.00  0.00    -0.057 C  
BRANCH   4   5
HETATM    5  N   UNL     1      -7.763   4.504  65.679  1.00  0.00    -0.092 NA 
BRANCH   5   6
HETATM    6  C   UNL     1      -8.153   4.927  66.937  1.00  0.00    -0.107 A  
HETATM    7  C   UNL     1      -9.325   7.915  68.672  1.00  0.00    -0.145 A  
HETATM    8  N   UNL     1      -9.784   8.266  69.899  1.00  0.00    -0.178 NA 
HETATM    9  N   UNL     1      -8.500   6.198  67.135  1.00  0.00    -0.105 NA 
HETATM   10  C   UNL     1      -8.944   6.596  68.359  1.00  0.00    -0.123 A  
HETATM   11  N   UNL     1      -8.200   4.035  67.918  1.00  0.00    -0.092 NA 
HETATM   12  C   UNL     1      -9.839   7.351  70.857  1.00  0.00    -0.177 A  
HETATM   13  C   UNL     1      -9.030   5.719  69.426  1.00  0.00    -0.116 A  
HETATM   14  C   UNL     1      -8.621   4.409  69.143  1.00  0.00    -0.082 A  
HETATM   15  N   UNL     1      -9.428   6.105  70.663  1.00  0.00    -0.167 NA 
BRANCH  14  16
HETATM   16  N   UNL     1      -8.561   3.423  70.121  1.00  0.00    -0.059 NA 
HETATM   17  C   UNL     1      -9.880   2.093  71.631  1.00  0.00    -0.217 C  
HETATM   18  C   UNL     1      -8.625   1.846  72.476  1.00  0.00    -0.064 C  
HETATM   19  C   UNL     1      -9.517   2.322  70.164  1.00  0.00    -0.071 C  
HETATM   20  C   UNL     1      -7.281   3.153  70.775  1.00  0.00    -0.033 C  
HETATM   21  C   UNL     1      -7.566   2.932  72.263  1.00  0.00    -0.053 C  
ENDBRANCH  14  16
BRANCH  12  22
HETATM   22  N   UNL     1     -10.350   7.675  72.095  1.00  0.00    -0.211 NA 
BRANCH  22  23
HETATM   23  C   UNL     1      -9.383   7.953  73.163  1.00  0.00    -0.272 C  
BRANCH  23  24
HETATM   24  C   UNL     1      -9.408   6.913  74.298  1.00  0.00    -0.236 C  
HETATM   25  O   UNL     1      -8.110   6.374  74.547  1.00  0.00    -0.114 OA 
HETATM   26  H   UNL     1      -8.126   5.732  75.247  1.00  0.00     0.000 HD 
ENDBRANCH  23  24
ENDBRANCH  22  23
BRANCH  22  27
HETATM   27  C   UNL     1     -11.711   8.204  72.205  1.00  0.00    -0.379 C  
BRANCH  27  28
HETATM   28  C   UNL     1     -12.753   7.214  71.653  1.00  0.00    -0.379 C  
HETATM   29  O   UNL     1     -12.651   7.085  70.233  1.00  0.00    -0.603 OA 
HETATM   30  H   UNL     1     -13.294   6.474  69.893  1.00  0.00     0.000 HD 
ENDBRANCH  27  28
ENDBRANCH  22  27
ENDBRANCH  12  22
BRANCH   7  31
HETATM   31  N   UNL     1      -9.311   8.963  67.754  1.00  0.00    -0.140 NA 
HETATM   32  C   UNL     1     -10.365   9.175  66.769  1.00  0.00    -0.238 C  
HETATM   33  C   UNL     1      -8.004   9.528  67.408  1.00  0.00    -0.106 C  
HETATM   34  C   UNL     1     -10.559  10.681  66.582  1.00  0.00    -0.276 C  
HETATM   35  C   UNL     1      -8.150  11.038  67.230  1.00  0.00    -0.126 C  
HETATM   36  C   UNL     1      -9.249  11.380  66.224  1.00  0.00    -0.220 C  
ENDBRANCH   7  31
ENDBRANCH   5   6
BRANCH   5  37
HETATM   37  C   UNL     1      -8.705   4.705  64.570  1.00  0.00    -0.151 C  
BRANCH  37  38
HETATM   38  C   UNL     1      -9.783   3.604  64.506  1.00  0.00    -0.178 C  
HETATM   39  O   UNL     1     -11.102   4.134  64.637  1.00  0.00    -0.713 OA 
HETATM   40  H   UNL     1     -11.766   3.455  64.597  1.00  0.00     0.000 HD 
ENDBRANCH  37  38
ENDBRANCH   5  37
ENDBRANCH   4   5
ENDBRANCH   3   4
TORSDOF 12
ENDMDL
MODEL      139
REMARK 921   NORMALIZED FREE ENERGY PREDICTED BY IDOCK:   -4.24 KCAL/MOL
REMARK 922        TOTAL FREE ENERGY PREDICTED BY IDOCK:   -8.13 KCAL/MOL
REMARK 923 INTER-LIGAND FREE ENERGY PREDICTED BY IDOCK:   -8.46 KCAL/MOL
REMARK 924 INTRA-LIGAND FREE ENERGY PREDICTED BY IDOCK:    0.33 KCAL/MOL
REMARK 927      BINDING AFFINITY PREDICTED BY RF-SCORE:    0.00 PKD
ROOT
HETATM    1  O   UNL     1      -8.107  10.994  63.534  1.00  0.00    -0.361 OA 
HETATM    2  H   UNL     1      -7.333  10.865  62.998  1.00  0.00     0.000 HD 
HETATM    3  C   UNL     1      -9.288  11.116  62.743  1.00  0.00    -0.351 C  
ENDROOT
BRANCH   3   4
HETATM    4  C   UNL     1     -10.546  11.325  63.615  1.00  0.00    -0.388 C  
BRANCH   4   5
HETATM    5  N   UNL     1     -10.298  11.801  64.991  1.00  0.00    -0.268 NA 
BRANCH   5   6
HETATM    6  C   UNL     1     -10.231  10.813  65.957  1.00  0.00    -0.251 A  
HETATM    7  C   UNL     1     -11.236  10.162  69.404  1.00  0.00    -0.215 A  
HETATM    8  N   UNL     1     -11.228   9.137  70.291  1.00  0.00    -0.240 NA 
HETATM    9  N   UNL     1     -10.742  11.029  67.169  1.00  0.00    -0.250 NA 
HETATM   10  C   UNL     1     -10.731  10.031  68.096  1.00  0.00    -0.239 A  
HETATM   11  N   UNL     1      -9.678   9.650  65.636  1.00  0.00    -0.279 NA 
HETATM   12  C   UNL     1     -10.686   7.979  69.938  1.00  0.00    -0.242 A  
HETATM   13  C   UNL     1     -10.182   8.790  67.828  1.00  0.00    -0.228 A  
HETATM   14  C   UNL     1      -9.642   8.653  66.542  1.00  0.00    -0.237 A  
HETATM   15  N   UNL     1     -10.123   7.799  68.751  1.00  0.00    -0.191 NA 
BRANCH  14  16
HETATM   16  N   UNL     1      -8.975   7.503  66.137  1.00  0.00    -0.166 NA 
HETATM   17  C   UNL     1      -7.606   6.553  64.402  1.00  0.00    -0.099 C  
HETATM   18  C   UNL     1      -8.014   5.153  64.875  1.00  0.00    -0.102 C  
HETATM   19  C   UNL     1      -7.637   7.553  65.558  1.00  0.00    -0.093 C  
HETATM   20  C   UNL     1      -9.332   6.225  66.753  1.00  0.00    -0.142 C  
HETATM   21  C   UNL     1      -9.340   5.170  65.642  1.00  0.00    -0.149 C  
ENDBRANCH  14  16
BRANCH  12  22
HETATM   22  N   UNL     1     -10.713   6.908  70.806  1.00  0.00    -0.227 NA 
BRANCH  22  23
HETATM   23  C   UNL     1     -11.105   5.609  70.249  1.00  0.00    -0.134 C  
BRANCH  23  24
HETATM   24  C   UNL     1      -9.981   4.558  70.297  1.00  0.00    -0.218 C  
HETATM   25  O   UNL     1     -10.087   3.727  71.453  1.00  0.00    -0.145 OA 
HETATM   26  H   UNL     1      -9.393   3.079  71.483  1.00  0.00     0.000 HD 
ENDBRANCH  23  24
ENDBRANCH  22  23
BRANCH  22  27
HETATM   27  C   UNL     1      -9.924   6.951  72.039  1.00  0.00    -0.166 C  
BRANCH  27  28
HETATM   28  C   UNL     1      -8.412   6.904  71.749  1.00  0.00    -0.115 C  
HETATM   29  O   UNL     1      -7.702   7.883  72.511  1.00  0.00    -0.095 OA 
HETATM   30  H   UNL     1      -6.770   7.853  72.331  1.00  0.00     0.000 HD 
ENDBRANCH  27  28
ENDBRANCH  22  27
ENDBRANCH  12  22
BRANCH   7  31
HETATM   31  N   UNL     1     -11.827  11.326  69.893  1.00  0.00    -0.328 NA 
HETATM   32  C   UNL     1     -12.965  11.320  70.806  1.00  0.00    -0.085 C  
HETATM   33  C   UNL     1     -11.673  12.540  69.088  1.00  0.00    -0.321 C  
HETATM   34  C   UNL     1     -12.812  12.491  71.778  1.00  0.00    -0.347 C  
HETATM   35  C   UNL     1     -11.497  13.735  70.024  1.00  0.00    -0.188 C  
HETATM   36  C   UNL     1     -12.634  13.818  71.043  1.00  0.00    -0.446 C  
ENDBRANCH   7  31
ENDBRANCH   5   6
BRANCH   5  37
HETATM   37  C   UNL     1     -10.896  13.087  65.374  1.00  0.00    -0.284 C  
BRANCH  37  38
HETATM   38  C   UNL     1     -12.218  13.366  64.630  1.00  0.00    -0.407 C  
HETATM   39  O   UNL     1     -12.803  14.608  65.019  1.00  0.00    -0.466 OA 
HETATM   40  H   UNL     1     -13.617  14.780  64.561  1.00  0.00     0.000 HD 
ENDBRANCH  37  38
ENDBRANCH   5  37
ENDBRANCH   4   5
ENDBRANCH   3   4
TORSDOF 12
ENDMDL
MODEL      140
REMARK 921   NORMALIZED FREE ENERGY PREDICTED BY IDOCK:   -4.23 KCAL/MOL
REMARK 922        TOTAL FREE ENERGY PREDICTED BY IDOCK:   -8.11 KCAL/MOL
REMARK 923 INTER-LIGAND FREE ENERGY PREDICTED BY IDOCK:   -7.48 KCAL/MOL
REMARK 924 INTRA-LIGAND FREE ENERGY PREDICTED BY IDOCK:   -0.63 KCAL/MOL
REMARK 927      BINDING AFFINITY PREDICTED BY RF-SCORE:    0.00 PKD
ROOT
HETATM    1  O   UNL     1      -8.868   4.642  73.412  1.00  0.00    -0.103 OA 
HETATM    2  H   UNL     1      -8.445   4.245  74.165  1.00  0.00     0.000 HD 
HETATM    3  C   UNL     1      -8.581   6.037  73.315  1.00  0.00    -0.117 C  
ENDROOT
BRANCH   3   4
HETATM    4  C   UNL     1      -9.270   6.682  72.092  1.00  0.00    -0.138 C  
BRANCH   4   5
HETATM    5  N   UNL     1      -9.117   8.148  71.973  1.00  0.00    -0.160 NA 
BRANCH   5   6
HETATM    6  C   UNL     1      -9.470   8.682  70.746  1.00  0.00    -0.190 A  
HETATM    7  C   UNL     1     -11.413  11.419  69.314  1.00  0.00    -0.303 A  
HETATM    8  N   UNL     1     -11.663  11.963  68.098  1.00  0.00    -0.425 NA 
HETATM    9  N   UNL     1     -10.274   9.744  70.688  1.00  0.00    -0.268 NA 
HETATM   10  C   UNL     1     -10.568  10.305  69.483  1.00  0.00    -0.245 A  
HETATM   11  N   UNL     1      -8.968   8.133  69.648  1.00  0.00    -0.153 NA 
HETATM   12  C   UNL     1     -11.132  11.406  67.017  1.00  0.00    -0.303 A  
HETATM   13  C   UNL     1     -10.071   9.793  68.297  1.00  0.00    -0.163 A  
HETATM   14  C   UNL     1      -9.257   8.662  68.442  1.00  0.00    -0.138 A  
HETATM   15  N   UNL     1     -10.387  10.311  67.085  1.00  0.00    -0.225 NA 
BRANCH  14  16
HETATM   16  N   UNL     1      -8.747   7.971  67.349  1.00  0.00    -0.124 NA 
HETATM   17  C   UNL     1      -8.285   8.119  64.993  1.00  0.00    -0.157 C  
HETATM   18  C   UNL     1      -8.265   6.588  64.922  1.00  0.00    -0.097 C  
HETATM   19  C   UNL     1      -7.864   8.609  66.379  1.00  0.00    -0.099 C  
HETATM   20  C   UNL     1      -8.627   6.515  67.426  1.00  0.00    -0.118 C  
HETATM   21  C   UNL     1      -9.054   5.950  66.069  1.00  0.00    -0.154 C  
ENDBRANCH  14  16
BRANCH  12  22
HETATM   22  N   UNL     1     -11.332  11.973  65.777  1.00  0.00    -0.339 NA 
BRANCH  22  23
HETATM   23  C   UNL     1     -11.391  13.438  65.716  1.00  0.00    -0.305 C  
BRANCH  23  24
HETATM   24  C   UNL     1     -10.014  14.112  65.851  1.00  0.00    -0.311 C  
HETATM   25  O   UNL     1      -9.056  13.237  66.446  1.00  0.00    -0.423 OA 
HETATM   26  H   UNL     1      -8.206  13.654  66.529  1.00  0.00     0.000 HD 
ENDBRANCH  23  24
ENDBRANCH  22  23
BRANCH  22  27
HETATM   27  C   UNL     1     -10.992  11.219  64.569  1.00  0.00    -0.231 C  
BRANCH  27  28
HETATM   28  C   UNL     1     -11.659  11.819  63.317  1.00  0.00    -0.228 C  
HETATM   29  O   UNL     1     -13.021  11.403  63.200  1.00  0.00    -0.672 OA 
HETATM   30  H   UNL     1     -13.431  11.774  62.427  1.00  0.00     0.000 HD 
ENDBRANCH  27  28
ENDBRANCH  22  27
ENDBRANCH  12  22
BRANCH   7  31
HETATM   31  N   UNL     1     -12.029  12.090  70.369  1.00  0.00    -0.337 NA 
HETATM   32  C   UNL     1     -11.733  13.476  70.715  1.00  0.00     0.138 C  
HETATM   33  C   UNL     1     -12.560  11.270  71.460  1.00  0.00    -0.312 C  
HETATM   34  C   UNL     1     -13.023  14.142  71.194  1.00  0.00    -0.419 C  
HETATM   35  C   UNL     1     -13.864  11.892  71.956  1.00  0.00     0.214 C  
HETATM   36  C   UNL     1     -13.675  13.362  72.333  1.00  0.00    -0.698 C  
ENDBRANCH   7  31
ENDBRANCH   5   6
BRANCH   5  37
HETATM   37  C   UNL     1      -7.990   8.764  72.684  1.00  0.00     0.197 C  
BRANCH  37  38
HETATM   38  C   UNL     1      -6.731   8.883  71.802  1.00  0.00    -0.041 C  
HETATM   39  O   UNL     1      -6.361   7.634  71.219  1.00  0.00    -0.035 OA 
HETATM   40  H   UNL     1      -5.585   7.708  70.675  1.00  0.00     0.000 HD 
ENDBRANCH  37  38
ENDBRANCH   5  37
ENDBRANCH   4   5
ENDBRANCH   3   4
TORSDOF 12
ENDMDL
MODEL      141
REMARK 921   NORMALIZED FREE ENERGY PREDICTED BY IDOCK:   -4.22 KCAL/MOL
REMARK 922        TOTAL FREE ENERGY PREDICTED BY IDOCK:   -8.09 KCAL/MOL
REMARK 923 INTER-LIGAND FREE ENERGY PREDICTED BY IDOCK:   -7.23 KCAL/MOL
REMARK 924 INTRA-LIGAND FREE ENERGY PREDICTED BY IDOCK:   -0.87 KCAL/MOL
REMARK 927      BINDING AFFINITY PREDICTED BY RF-SCORE:    0.00 PKD
ROOT
HETATM    1  O   UNL     1     -11.876   7.687  73.193  1.00  0.00    -0.607 OA 
HETATM    2  H   UNL     1     -12.225   6.901  73.599  1.00  0.00     0.000 HD 
HETATM    3  C   UNL     1     -11.490   7.459  71.838  1.00  0.00    -0.266 C  
ENDROOT
BRANCH   3   4
HETATM    4  C   UNL     1     -10.923   8.736  71.178  1.00  0.00    -0.268 C  
BRANCH   4   5
HETATM    5  N   UNL     1     -11.687   9.250  70.021  1.00  0.00     0.012 NA 
BRANCH   5   6
HETATM    6  C   UNL     1     -10.978   9.335  68.836  1.00  0.00    -0.017 A  
HETATM    7  C   UNL     1      -8.443   7.533  66.929  1.00  0.00    -0.122 A  
HETATM    8  N   UNL     1      -7.835   7.605  65.719  1.00  0.00    -0.099 NA 
HETATM    9  N   UNL     1     -10.071   8.406  68.533  1.00  0.00    -0.192 NA 
HETATM   10  C   UNL     1      -9.422   8.458  67.337  1.00  0.00    -0.147 A  
HETATM   11  N   UNL     1     -11.247  10.336  68.008  1.00  0.00    -0.278 NA 
HETATM   12  C   UNL     1      -8.136   8.606  64.902  1.00  0.00    -0.146 A  
HETATM   13  C   UNL     1      -9.660   9.466  66.420  1.00  0.00    -0.224 A  
HETATM   14  C   UNL     1     -10.606  10.416  66.825  1.00  0.00    -0.205 A  
HETATM   15  N   UNL     1      -8.993   9.559  65.243  1.00  0.00    -0.186 NA 
BRANCH  14  16
HETATM   16  N   UNL     1     -10.899  11.541  66.062  1.00  0.00    -0.286 NA 
HETATM   17  C   UNL     1     -12.653  13.059  65.423  1.00  0.00    -0.481 C  
HETATM   18  C   UNL     1     -11.829  13.460  64.194  1.00  0.00    -0.492 C  
HETATM   19  C   UNL     1     -11.746  12.616  66.570  1.00  0.00    -0.400 C  
HETATM   20  C   UNL     1      -9.975  11.936  65.000  1.00  0.00    -0.248 C  
HETATM   21  C   UNL     1     -10.820  12.377  63.801  1.00  0.00    -0.500 C  
ENDBRANCH  14  16
BRANCH  12  22
HETATM   22  N   UNL     1      -7.568   8.670  63.647  1.00  0.00    -0.120 NA 
BRANCH  22  23
HETATM   23  C   UNL     1      -6.343   9.466  63.511  1.00  0.00    -0.094 C  
BRANCH  23  24
HETATM   24  C   UNL     1      -6.488  10.650  62.538  1.00  0.00    -0.102 C  
HETATM   25  O   UNL     1      -7.845  11.080  62.431  1.00  0.00    -0.354 OA 
HETATM   26  H   UNL     1      -7.934  11.811  61.831  1.00  0.00     0.000 HD 
ENDBRANCH  23  24
ENDBRANCH  22  23
BRANCH  22  27
HETATM   27  C   UNL     1      -7.857   7.625  62.663  1.00  0.00    -0.131 C  
BRANCH  27  28
HETATM   28  C   UNL     1      -6.846   6.466  62.750  1.00  0.00    -0.038 C  
HETATM   29  O   UNL     1      -7.327   5.414  63.589  1.00  0.00    -0.048 OA 
HETATM   30  H   UNL     1      -6.703   4.700  63.643  1.00  0.00     0.000 HD 
ENDBRANCH  27  28
ENDBRANCH  22  27
ENDBRANCH  12  22
BRANCH   7  31
HETATM   31  N   UNL     1      -8.040   6.441  67.697  1.00  0.00    -0.113 NA 
HETATM   32  C   UNL     1      -6.676   5.927  67.700  1.00  0.00    -0.058 C  
HETATM   33  C   UNL     1      -9.076   5.478  68.079  1.00  0.00    -0.108 C  
HETATM   34  C   UNL     1      -6.344   5.442  69.112  1.00  0.00    -0.034 C  
HETATM   35  C   UNL     1      -8.791   4.981  69.495  1.00  0.00    -0.120 C  
HETATM   36  C   UNL     1      -7.370   4.432  69.620  1.00  0.00    -0.051 C  
ENDBRANCH   7  31
ENDBRANCH   5   6
BRANCH   5  37
HETATM   37  C   UNL     1     -12.692  10.286  70.289  1.00  0.00    -0.102 C  
BRANCH  37  38
HETATM   38  C   UNL     1     -12.286  11.216  71.451  1.00  0.00    -0.233 C  
HETATM   39  O   UNL     1     -12.901  12.500  71.353  1.00  0.00    -0.366 OA 
HETATM   40  H   UNL     1     -12.651  13.072  72.069  1.00  0.00     0.000 HD 
ENDBRANCH  37  38
ENDBRANCH   5  37
ENDBRANCH   4   5
ENDBRANCH   3   4
TORSDOF 12
ENDMDL
MODEL      142
REMARK 921   NORMALIZED FREE ENERGY PREDICTED BY IDOCK:   -4.15 KCAL/MOL
REMARK 922        TOTAL FREE ENERGY PREDICTED BY IDOCK:   -7.97 KCAL/MOL
REMARK 923 INTER-LIGAND FREE ENERGY PREDICTED BY IDOCK:   -7.00 KCAL/MOL
REMARK 924 INTRA-LIGAND FREE ENERGY PREDICTED BY IDOCK:   -0.97 KCAL/MOL
REMARK 927      BINDING AFFINITY PREDICTED BY RF-SCORE:    0.00 PKD
ROOT
HETATM    1  O   UNL     1     -13.049  15.496  71.218  1.00  0.00    -0.464 OA 
HETATM    2  H   UNL     1     -13.928  15.148  71.119  1.00  0.00     0.000 HD 
HETATM    3  C   UNL     1     -12.347  15.530  69.977  1.00  0.00    -0.317 C  
ENDROOT
BRANCH   3   4
HETATM    4  C   UNL     1     -10.918  16.095  70.139  1.00  0.00    -0.358 C  
BRANCH   4   5
HETATM    5  N   UNL     1     -10.149  16.257  68.887  1.00  0.00    -0.238 NA 
BRANCH   5   6
HETATM    6  C   UNL     1      -9.826  15.081  68.234  1.00  0.00    -0.219 A  
HETATM    7  C   UNL     1      -7.486  12.289  68.441  1.00  0.00    -0.122 A  
HETATM    8  N   UNL     1      -7.260  11.102  67.827  1.00  0.00    -0.089 NA 
HETATM    9  N   UNL     1      -8.812  14.333  68.670  1.00  0.00    -0.176 NA 
HETATM   10  C   UNL     1      -8.538  13.145  68.064  1.00  0.00    -0.182 A  
HETATM   11  N   UNL     1     -10.564  14.710  67.196  1.00  0.00    -0.279 NA 
HETATM   12  C   UNL     1      -8.025  10.746  66.804  1.00  0.00    -0.138 A  
HETATM   13  C   UNL     1      -9.273  12.689  66.983  1.00  0.00    -0.212 A  
HETATM   14  C   UNL     1     -10.302  13.545  66.571  1.00  0.00    -0.282 A  
HETATM   15  N   UNL     1      -8.988  11.530  66.340  1.00  0.00    -0.195 NA 
BRANCH  14  16
HETATM   16  N   UNL     1     -11.079  13.282  65.449  1.00  0.00    -0.281 NA 
HETATM   17  C   UNL     1     -13.153  12.321  64.696  1.00  0.00     0.221 C  
HETATM   18  C   UNL     1     -12.553  12.180  63.292  1.00  0.00    -0.492 C  
HETATM   19  C   UNL     1     -12.523  13.496  65.445  1.00  0.00    -0.497 C  
HETATM   20  C   UNL     1     -10.449  13.313  64.129  1.00  0.00    -0.260 C  
HETATM   21  C   UNL     1     -11.022  12.144  63.323  1.00  0.00    -0.398 C  
ENDBRANCH  14  16
BRANCH  12  22
HETATM   22  N   UNL     1      -7.845   9.521  66.198  1.00  0.00    -0.100 NA 
BRANCH  22  23
HETATM   23  C   UNL     1      -8.541   8.375  66.793  1.00  0.00    -0.118 C  
BRANCH  23  24
HETATM   24  C   UNL     1      -9.911   8.090  66.151  1.00  0.00     0.013 C  
HETATM   25  O   UNL     1     -10.407   6.804  66.520  1.00  0.00    -0.427 OA 
HETATM   26  H   UNL     1     -11.252   6.628  66.124  1.00  0.00     0.000 HD 
ENDBRANCH  23  24
ENDBRANCH  22  23
BRANCH  22  27
HETATM   27  C   UNL     1      -7.428   9.457  64.795  1.00  0.00    -0.107 C  
BRANCH  27  28
HETATM   28  C   UNL     1      -6.063  10.136  64.576  1.00  0.00    -0.133 C  
HETATM   29  O   UNL     1      -5.990  10.760  63.293  1.00  0.00    -0.341 OA 
HETATM   30  H   UNL     1      -5.148  11.179  63.158  1.00  0.00     0.000 HD 
ENDBRANCH  27  28
ENDBRANCH  22  27
ENDBRANCH  12  22
BRANCH   7  31
HETATM   31  N   UNL     1      -6.615  12.552  69.498  1.00  0.00    -0.081 NA 
HETATM   32  C   UNL     1      -6.171  13.895  69.851  1.00  0.00    -0.136 C  
HETATM   33  C   UNL     1      -5.724  11.466  69.912  1.00  0.00    -0.100 C  
HETATM   34  C   UNL     1      -6.034  13.977  71.372  1.00  0.00    -0.114 C  
HETATM   35  C   UNL     1      -5.575  11.500  71.432  1.00  0.00     0.220 C  
HETATM   36  C   UNL     1      -5.127  12.878  71.919  1.00  0.00    -0.075 C  
ENDBRANCH   7  31
ENDBRANCH   5   6
BRANCH   5  37
HETATM   37  C   UNL     1      -9.172  17.353  68.838  1.00  0.00    -0.168 C  
BRANCH  37  38
HETATM   38  C   UNL     1      -8.359  17.359  67.527  1.00  0.00    -0.206 C  
HETATM   39  O   UNL     1      -6.952  17.333  67.766  1.00  0.00    -0.156 OA 
HETATM   40  H   UNL     1      -6.452  17.337  66.958  1.00  0.00     0.000 HD 
ENDBRANCH  37  38
ENDBRANCH   5  37
ENDBRANCH   4   5
ENDBRANCH   3   4
TORSDOF 12
ENDMDL
MODEL      143
REMARK 921   NORMALIZED FREE ENERGY PREDICTED BY IDOCK:   -4.13 KCAL/MOL
REMARK 922        TOTAL FREE ENERGY PREDICTED BY IDOCK:   -7.95 KCAL/MOL
REMARK 923 INTER-LIGAND FREE ENERGY PREDICTED BY IDOCK:   -6.25 KCAL/MOL
REMARK 924 INTRA-LIGAND FREE ENERGY PREDICTED BY IDOCK:   -1.70 KCAL/MOL
REMARK 927      BINDING AFFINITY PREDICTED BY RF-SCORE:    0.00 PKD
ROOT
HETATM    1  O   UNL     1      -6.752  13.754  68.956  1.00  0.00    -0.102 OA 
HETATM    2  H   UNL     1      -6.028  14.060  69.489  1.00  0.00     0.000 HD 
HETATM    3  C   UNL     1      -6.746  12.334  68.815  1.00  0.00    -0.089 C  
ENDROOT
BRANCH   3   4
HETATM    4  C   UNL     1      -7.925  11.836  67.949  1.00  0.00    -0.141 C  
BRANCH   4   5
HETATM    5  N   UNL     1      -8.744  10.759  68.543  1.00  0.00    -0.142 NA 
BRANCH   5   6
HETATM    6  C   UNL     1      -8.732   9.558  67.855  1.00  0.00    -0.119 A  
HETATM    7  C   UNL     1      -9.874   6.108  68.180  1.00  0.00    -0.131 A  
HETATM    8  N   UNL     1      -9.918   4.975  67.436  1.00  0.00    -0.176 NA 
HETATM    9  N   UNL     1      -9.283   8.473  68.398  1.00  0.00    -0.135 NA 
HETATM   10  C   UNL     1      -9.325   7.309  67.693  1.00  0.00    -0.128 A  
HETATM   11  N   UNL     1      -8.190   9.528  66.644  1.00  0.00    -0.115 NA 
HETATM   12  C   UNL     1      -9.386   4.977  66.221  1.00  0.00    -0.149 A  
HETATM   13  C   UNL     1      -8.790   7.206  66.421  1.00  0.00    -0.145 A  
HETATM   14  C   UNL     1      -8.206   8.383  65.933  1.00  0.00    -0.123 A  
HETATM   15  N   UNL     1      -8.783   6.046  65.719  1.00  0.00    -0.154 NA 
BRANCH  14  16
HETATM   16  N   UNL     1      -7.547   8.431  64.710  1.00  0.00    -0.096 NA 
HETATM   17  C   UNL     1      -5.422   8.839  63.657  1.00  0.00    -0.063 C  
HETATM   18  C   UNL     1      -6.152   9.107  62.336  1.00  0.00    -0.094 C  
HETATM   19  C   UNL     1      -6.213   7.867  64.532  1.00  0.00    -0.052 C  
HETATM   20  C   UNL     1      -8.336   8.541  63.484  1.00  0.00    -0.082 C  
HETATM   21  C   UNL     1      -7.610   9.522  62.560  1.00  0.00    -0.112 C  
ENDBRANCH  14  16
BRANCH  12  22
HETATM   22  N   UNL     1      -9.465   3.851  65.429  1.00  0.00    -0.161 NA 
BRANCH  22  23
HETATM   23  C   UNL     1      -9.011   2.588  66.022  1.00  0.00    -0.121 C  
BRANCH  23  24
HETATM   24  C   UNL     1      -7.498   2.348  65.867  1.00  0.00    -0.067 C  
HETATM   25  O   UNL     1      -6.828   3.510  65.382  1.00  0.00    -0.050 OA 
HETATM   26  H   UNL     1      -5.895   3.362  65.287  1.00  0.00     0.000 HD 
ENDBRANCH  23  24
ENDBRANCH  22  23
BRANCH  22  27
HETATM   27  C   UNL     1     -10.395   3.820  64.299  1.00  0.00    -0.245 C  
BRANCH  27  28
HETATM   28  C   UNL     1      -9.654   3.860  62.950  1.00  0.00    -0.132 C  
HETATM   29  O   UNL     1      -9.444   5.203  62.508  1.00  0.00    -0.355 OA 
HETATM   30  H   UNL     1      -8.987   5.227  61.676  1.00  0.00     0.000 HD 
ENDBRANCH  27  28
ENDBRANCH  22  27
ENDBRANCH  12  22
BRANCH   7  31
HETATM   31  N   UNL     1     -10.461   5.980  69.438  1.00  0.00    -0.236 NA 
HETATM   32  C   UNL     1     -10.181   4.868  70.339  1.00  0.00    -0.222 C  
HETATM   33  C   UNL     1     -11.748   6.647  69.643  1.00  0.00    -0.153 C  
HETATM   34  C   UNL     1     -10.194   5.392  71.776  1.00  0.00    -0.263 C  
HETATM   35  C   UNL     1     -11.795   7.204  71.065  1.00  0.00    -0.373 C  
HETATM   36  C   UNL     1     -11.496   6.120  72.101  1.00  0.00    -0.361 C  
ENDBRANCH   7  31
ENDBRANCH   5   6
BRANCH   5  37
HETATM   37  C   UNL     1      -9.997  11.154  69.199  1.00  0.00    -0.082 C  
BRANCH  37  38
HETATM   38  C   UNL     1     -11.175  11.253  68.209  1.00  0.00    -0.267 C  
HETATM   39  O   UNL     1     -12.374  10.688  68.739  1.00  0.00    -0.814 OA 
HETATM   40  H   UNL     1     -13.099  10.749  68.129  1.00  0.00     0.000 HD 
ENDBRANCH  37  38
ENDBRANCH   5  37
ENDBRANCH   4   5
ENDBRANCH   3   4
TORSDOF 12
ENDMDL
MODEL      144
REMARK 921   NORMALIZED FREE ENERGY PREDICTED BY IDOCK:   -4.11 KCAL/MOL
REMARK 922        TOTAL FREE ENERGY PREDICTED BY IDOCK:   -7.92 KCAL/MOL
REMARK 923 INTER-LIGAND FREE ENERGY PREDICTED BY IDOCK:   -6.42 KCAL/MOL
REMARK 924 INTRA-LIGAND FREE ENERGY PREDICTED BY IDOCK:   -1.49 KCAL/MOL
REMARK 927      BINDING AFFINITY PREDICTED BY RF-SCORE:    0.00 PKD
ROOT
HETATM    1  O   UNL     1     -11.983  12.436  66.498  1.00  0.00    -0.564 OA 
HETATM    2  H   UNL     1     -12.763  11.902  66.404  1.00  0.00     0.000 HD 
HETATM    3  C   UNL     1     -11.764  12.825  67.853  1.00  0.00    -0.357 C  
ENDROOT
BRANCH   3   4
HETATM    4  C   UNL     1     -10.495  13.693  68.006  1.00  0.00    -0.248 C  
BRANCH   4   5
HETATM    5  N   UNL     1      -9.219  13.020  67.685  1.00  0.00    -0.191 NA 
BRANCH   5   6
HETATM    6  C   UNL     1      -9.221  11.644  67.832  1.00  0.00    -0.171 A  
HETATM    7  C   UNL     1      -8.299   8.612  66.024  1.00  0.00    -0.131 A  
HETATM    8  N   UNL     1      -8.237   7.275  66.242  1.00  0.00    -0.117 NA 
HETATM    9  N   UNL     1      -8.787  10.867  66.839  1.00  0.00    -0.140 NA 
HETATM   10  C   UNL     1      -8.732   9.518  67.011  1.00  0.00    -0.128 A  
HETATM   11  N   UNL     1      -9.634  11.131  68.983  1.00  0.00    -0.138 NA 
HETATM   12  C   UNL     1      -8.638   6.789  67.410  1.00  0.00    -0.120 A  
HETATM   13  C   UNL     1      -9.135   8.913  68.189  1.00  0.00    -0.140 A  
HETATM   14  C   UNL     1      -9.603   9.797  69.171  1.00  0.00    -0.188 A  
HETATM   15  N   UNL     1      -9.129   7.569  68.364  1.00  0.00    -0.134 NA 
BRANCH  14  16
HETATM   16  N   UNL     1     -10.128   9.352  70.379  1.00  0.00    -0.236 NA 
HETATM   17  C   UNL     1      -9.860   7.738  72.143  1.00  0.00    -0.242 C  
HETATM   18  C   UNL     1     -11.326   7.954  72.535  1.00  0.00    -0.449 C  
HETATM   19  C   UNL     1      -9.272   8.996  71.506  1.00  0.00    -0.190 C  
HETATM   20  C   UNL     1     -11.493   9.731  70.739  1.00  0.00    -0.342 C  
HETATM   21  C   UNL     1     -12.156   8.504  71.371  1.00  0.00    -0.345 C  
ENDBRANCH  14  16
BRANCH  12  22
HETATM   22  N   UNL     1      -8.535   5.440  67.671  1.00  0.00    -0.106 NA 
BRANCH  22  23
HETATM   23  C   UNL     1      -7.549   5.030  68.677  1.00  0.00    -0.078 C  
BRANCH  23  24
HETATM   24  C   UNL     1      -6.305   4.351  68.075  1.00  0.00    -0.037 C  
HETATM   25  O   UNL     1      -6.522   2.958  67.854  1.00  0.00    -0.035 OA 
HETATM   26  H   UNL     1      -5.754   2.540  67.482  1.00  0.00     0.000 HD 
ENDBRANCH  23  24
ENDBRANCH  22  23
BRANCH  22  27
HETATM   27  C   UNL     1      -9.658   4.552  67.363  1.00  0.00    -0.176 C  
BRANCH  27  28
HETATM   28  C   UNL     1      -9.552   3.973  65.940  1.00  0.00    -0.193 C  
HETATM   29  O   UNL     1     -10.285   4.761  65.000  1.00  0.00    -0.396 OA 
HETATM   30  H   UNL     1     -10.220   4.403  64.122  1.00  0.00     0.000 HD 
ENDBRANCH  27  28
ENDBRANCH  22  27
ENDBRANCH  12  22
BRANCH   7  31
HETATM   31  N   UNL     1      -7.855   8.998  64.761  1.00  0.00    -0.116 NA 
HETATM   32  C   UNL     1      -8.704   8.975  63.575  1.00  0.00    -0.076 C  
HETATM   33  C   UNL     1      -6.415   8.909  64.505  1.00  0.00    -0.071 C  
HETATM   34  C   UNL     1      -8.328  10.162  62.687  1.00  0.00    -0.167 C  
HETATM   35  C   UNL     1      -5.994  10.091  63.634  1.00  0.00    -0.130 C  
HETATM   36  C   UNL     1      -6.836  10.177  62.361  1.00  0.00    -0.131 C  
ENDBRANCH   7  31
ENDBRANCH   5   6
BRANCH   5  37
HETATM   37  C   UNL     1      -7.981  13.737  68.017  1.00  0.00    -0.156 C  
BRANCH  37  38
HETATM   38  C   UNL     1      -8.206  14.846  69.065  1.00  0.00    -0.168 C  
HETATM   39  O   UNL     1      -7.838  14.428  70.379  1.00  0.00     0.181 OA 
HETATM   40  H   UNL     1      -7.976  15.111  71.024  1.00  0.00     0.000 HD 
ENDBRANCH  37  38
ENDBRANCH   5  37
ENDBRANCH   4   5
ENDBRANCH   3   4
TORSDOF 12
ENDMDL
MODEL      145
REMARK 921   NORMALIZED FREE ENERGY PREDICTED BY IDOCK:   -4.09 KCAL/MOL
REMARK 922        TOTAL FREE ENERGY PREDICTED BY IDOCK:   -7.87 KCAL/MOL
REMARK 923 INTER-LIGAND FREE ENERGY PREDICTED BY IDOCK:   -6.34 KCAL/MOL
REMARK 924 INTRA-LIGAND FREE ENERGY PREDICTED BY IDOCK:   -1.54 KCAL/MOL
REMARK 927      BINDING AFFINITY PREDICTED BY RF-SCORE:    0.00 PKD
ROOT
HETATM    1  O   UNL     1      -8.629   8.396  74.420  1.00  0.00    -0.333 OA 
HETATM    2  H   UNL     1      -8.471   9.229  74.848  1.00  0.00     0.000 HD 
HETATM    3  C   UNL     1      -7.633   8.103  73.441  1.00  0.00    -0.150 C  
ENDROOT
BRANCH   3   4
HETATM    4  C   UNL     1      -7.890   6.747  72.745  1.00  0.00    -0.099 C  
BRANCH   4   5
HETATM    5  N   UNL     1      -7.715   6.740  71.277  1.00  0.00    -0.092 NA 
BRANCH   5   6
HETATM    6  C   UNL     1      -8.166   7.872  70.622  1.00  0.00    -0.114 A  
HETATM    7  C   UNL     1     -11.224   9.787  70.075  1.00  0.00    -0.251 A  
HETATM    8  N   UNL     1     -11.607  10.950  69.492  1.00  0.00    -0.284 NA 
HETATM    9  N   UNL     1      -9.456   8.205  70.676  1.00  0.00    -0.161 NA 
HETATM   10  C   UNL     1      -9.884   9.353  70.083  1.00  0.00    -0.232 A  
HETATM   11  N   UNL     1      -7.284   8.621  69.973  1.00  0.00    -0.050 NA 
HETATM   12  C   UNL     1     -10.702  11.690  68.867  1.00  0.00    -0.207 A  
HETATM   13  C   UNL     1      -9.019  10.189  69.398  1.00  0.00    -0.191 A  
HETATM   14  C   UNL     1      -7.688   9.755  69.365  1.00  0.00    -0.109 A  
HETATM   15  N   UNL     1      -9.434  11.313  68.765  1.00  0.00    -0.172 NA 
BRANCH  14  16
HETATM   16  N   UNL     1      -6.706  10.429  68.647  1.00  0.00    -0.052 NA 
HETATM   17  C   UNL     1      -5.781  12.599  68.177  1.00  0.00    -0.075 C  
HETATM   18  C   UNL     1      -5.165  12.035  66.892  1.00  0.00    -0.037 C  
HETATM   19  C   UNL     1      -5.926  11.510  69.240  1.00  0.00    -0.065 C  
HETATM   20  C   UNL     1      -6.066   9.754  67.519  1.00  0.00    -0.058 C  
HETATM   21  C   UNL     1      -5.905  10.787  66.401  1.00  0.00    -0.109 C  
ENDBRANCH  14  16
BRANCH  12  22
HETATM   22  N   UNL     1     -11.060  12.900  68.312  1.00  0.00    -0.249 NA 
BRANCH  22  23
HETATM   23  C   UNL     1     -10.794  14.102  69.110  1.00  0.00    -0.229 C  
BRANCH  23  24
HETATM   24  C   UNL     1     -11.718  14.241  70.333  1.00  0.00    -0.262 C  
HETATM   25  O   UNL     1     -11.217  15.200  71.264  1.00  0.00    -0.450 OA 
HETATM   26  H   UNL     1     -11.787  15.286  72.019  1.00  0.00     0.000 HD 
ENDBRANCH  23  24
ENDBRANCH  22  23
BRANCH  22  27
HETATM   27  C   UNL     1     -11.205  13.020  66.860  1.00  0.00    -0.295 C  
BRANCH  27  28
HETATM   28  C   UNL     1     -12.630  13.449  66.464  1.00  0.00    -0.040 C  
HETATM   29  O   UNL     1     -12.759  13.591  65.048  1.00  0.00    -0.621 OA 
HETATM   30  H   UNL     1     -13.638  13.855  64.804  1.00  0.00     0.000 HD 
ENDBRANCH  27  28
ENDBRANCH  22  27
ENDBRANCH  12  22
BRANCH   7  31
HETATM   31  N   UNL     1     -12.264   9.098  70.696  1.00  0.00    -0.098 NA 
HETATM   32  C   UNL     1     -12.602   7.713  70.386  1.00  0.00     0.485 C  
HETATM   33  C   UNL     1     -13.354   9.901  71.255  1.00  0.00    -0.342 C  
HETATM   34  C   UNL     1     -13.057   7.025  71.673  1.00  0.00    -0.384 C  
HETATM   35  C   UNL     1     -13.826   9.256  72.557  1.00  0.00    -0.453 C  
HETATM   36  C   UNL     1     -14.193   7.786  72.352  1.00  0.00    -0.096 C  
ENDBRANCH   7  31
ENDBRANCH   5   6
BRANCH   5  37
HETATM   37  C   UNL     1      -7.867   5.450  70.591  1.00  0.00    -0.090 C  
BRANCH  37  38
HETATM   38  C   UNL     1      -9.126   4.685  71.047  1.00  0.00    -0.132 C  
HETATM   39  O   UNL     1     -10.127   4.641  70.030  1.00  0.00    -0.238 OA 
HETATM   40  H   UNL     1     -10.902   4.170  70.311  1.00  0.00     0.000 HD 
ENDBRANCH  37  38
ENDBRANCH   5  37
ENDBRANCH   4   5
ENDBRANCH   3   4
TORSDOF 12
ENDMDL
MODEL      146
REMARK 921   NORMALIZED FREE ENERGY PREDICTED BY IDOCK:   -4.05 KCAL/MOL
REMARK 922        TOTAL FREE ENERGY PREDICTED BY IDOCK:   -7.81 KCAL/MOL
REMARK 923 INTER-LIGAND FREE ENERGY PREDICTED BY IDOCK:   -7.81 KCAL/MOL
REMARK 924 INTRA-LIGAND FREE ENERGY PREDICTED BY IDOCK:   -0.00 KCAL/MOL
REMARK 927      BINDING AFFINITY PREDICTED BY RF-SCORE:    0.00 PKD
ROOT
HETATM    1  O   UNL     1     -11.855   8.625  72.591  1.00  0.00    -0.334 OA 
HETATM    2  H   UNL     1     -12.432   9.374  72.692  1.00  0.00     0.000 HD 
HETATM    3  C   UNL     1     -12.092   7.934  71.365  1.00  0.00    -0.307 C  
ENDROOT
BRANCH   3   4
HETATM    4  C   UNL     1     -11.153   6.717  71.200  1.00  0.00    -0.270 C  
BRANCH   4   5
HETATM    5  N   UNL     1      -9.874   6.986  70.511  1.00  0.00    -0.179 NA 
BRANCH   5   6
HETATM    6  C   UNL     1      -9.946   7.877  69.455  1.00  0.00    -0.189 A  
HETATM    7  C   UNL     1      -9.099   8.132  65.915  1.00  0.00    -0.130 A  
HETATM    8  N   UNL     1      -9.269   9.000  64.886  1.00  0.00    -0.086 NA 
HETATM    9  N   UNL     1      -9.458   7.538  68.261  1.00  0.00    -0.144 NA 
HETATM   10  C   UNL     1      -9.588   8.392  67.209  1.00  0.00    -0.165 A  
HETATM   11  N   UNL     1     -10.536   9.049  69.654  1.00  0.00    -0.218 NA 
HETATM   12  C   UNL     1      -9.878  10.156  65.109  1.00  0.00    -0.325 A  
HETATM   13  C   UNL     1     -10.200   9.626  67.341  1.00  0.00    -0.227 A  
HETATM   14  C   UNL     1     -10.662   9.917  68.631  1.00  0.00    -0.226 A  
HETATM   15  N   UNL     1     -10.301  10.508  66.316  1.00  0.00    -0.230 NA 
BRANCH  14  16
HETATM   16  N   UNL     1     -11.223  11.146  68.957  1.00  0.00    -0.231 NA 
HETATM   17  C   UNL     1     -10.856  13.524  68.927  1.00  0.00    -0.255 C  
HETATM   18  C   UNL     1     -11.923  13.681  70.017  1.00  0.00    -0.413 C  
HETATM   19  C   UNL     1     -11.134  12.295  68.062  1.00  0.00    -0.239 C  
HETATM   20  C   UNL     1     -12.340  11.187  69.900  1.00  0.00    -0.261 C  
HETATM   21  C   UNL     1     -12.118  12.391  70.819  1.00  0.00    -0.245 C  
ENDBRANCH  14  16
BRANCH  12  22
HETATM   22  N   UNL     1     -10.107  11.030  64.067  1.00  0.00    -0.320 NA 
BRANCH  22  23
HETATM   23  C   UNL     1     -10.286  12.445  64.413  1.00  0.00    -0.315 C  
BRANCH  23  24
HETATM   24  C   UNL     1     -11.692  12.981  64.086  1.00  0.00    -0.412 C  
HETATM   25  O   UNL     1     -12.394  12.111  63.200  1.00  0.00    -0.732 OA 
HETATM   26  H   UNL     1     -13.261  12.442  62.999  1.00  0.00     0.000 HD 
ENDBRANCH  23  24
ENDBRANCH  22  23
BRANCH  22  27
HETATM   27  C   UNL     1      -9.690  10.670  62.711  1.00  0.00    -0.242 C  
BRANCH  27  28
HETATM   28  C   UNL     1      -8.281  11.202  62.389  1.00  0.00    -0.137 C  
HETATM   29  O   UNL     1      -7.329  10.792  63.373  1.00  0.00    -0.353 OA 
HETATM   30  H   UNL     1      -6.461  11.121  63.174  1.00  0.00     0.000 HD 
ENDBRANCH  27  28
ENDBRANCH  22  27
ENDBRANCH  12  22
BRANCH   7  31
HETATM   31  N   UNL     1      -8.442   6.956  65.557  1.00  0.00    -0.139 NA 
HETATM   32  C   UNL     1      -7.060   6.923  65.094  1.00  0.00    -0.067 C  
HETATM   33  C   UNL     1      -9.277   5.832  65.127  1.00  0.00     0.237 C  
HETATM   34  C   UNL     1      -6.403   5.644  65.617  1.00  0.00    -0.038 C  
HETATM   35  C   UNL     1      -8.664   4.533  65.647  1.00  0.00    -0.124 C  
HETATM   36  C   UNL     1      -7.199   4.400  65.232  1.00  0.00    -0.068 C  
ENDBRANCH   7  31
ENDBRANCH   5   6
BRANCH   5  37
HETATM   37  C   UNL     1      -8.928   5.869  70.395  1.00  0.00    -0.147 C  
BRANCH  37  38
HETATM   38  C   UNL     1      -9.635   4.519  70.158  1.00  0.00    -0.194 C  
HETATM   39  O   UNL     1      -8.895   3.668  69.284  1.00  0.00    -0.083 OA 
HETATM   40  H   UNL     1      -9.331   2.837  69.139  1.00  0.00     0.000 HD 
ENDBRANCH  37  38
ENDBRANCH   5  37
ENDBRANCH   4   5
ENDBRANCH   3   4
TORSDOF 12
ENDMDL
MODEL      147
REMARK 921   NORMALIZED FREE ENERGY PREDICTED BY IDOCK:   -4.05 KCAL/MOL
REMARK 922        TOTAL FREE ENERGY PREDICTED BY IDOCK:   -7.80 KCAL/MOL
REMARK 923 INTER-LIGAND FREE ENERGY PREDICTED BY IDOCK:   -7.69 KCAL/MOL
REMARK 924 INTRA-LIGAND FREE ENERGY PREDICTED BY IDOCK:   -0.12 KCAL/MOL
REMARK 927      BINDING AFFINITY PREDICTED BY RF-SCORE:    0.00 PKD
ROOT
HETATM    1  O   UNL     1     -11.094   5.871  69.212  1.00  0.00    -0.360 OA 
HETATM    2  H   UNL     1     -11.835   5.524  68.729  1.00  0.00     0.000 HD 
HETATM    3  C   UNL     1      -9.851   5.464  68.642  1.00  0.00    -0.148 C  
ENDROOT
BRANCH   3   4
HETATM    4  C   UNL     1      -8.645   6.028  69.427  1.00  0.00    -0.122 C  
BRANCH   4   5
HETATM    5  N   UNL     1      -7.735   6.903  68.657  1.00  0.00    -0.111 NA 
BRANCH   5   6
HETATM    6  C   UNL     1      -8.347   7.946  67.984  1.00  0.00    -0.123 A  
HETATM    7  C   UNL     1     -11.012  10.402  68.409  1.00  0.00    -0.264 A  
HETATM    8  N   UNL     1     -11.524  11.473  67.753  1.00  0.00    -0.406 NA 
HETATM    9  N   UNL     1      -9.368   8.594  68.545  1.00  0.00    -0.138 NA 
HETATM   10  C   UNL     1      -9.926   9.660  67.907  1.00  0.00    -0.166 A  
HETATM   11  N   UNL     1      -7.872   8.297  66.796  1.00  0.00    -0.094 NA 
HETATM   12  C   UNL     1     -11.019  11.814  66.575  1.00  0.00    -0.295 A  
HETATM   13  C   UNL     1      -9.476  10.089  66.671  1.00  0.00    -0.171 A  
HETATM   14  C   UNL     1      -8.418   9.340  66.139  1.00  0.00    -0.128 A  
HETATM   15  N   UNL     1     -10.045  11.121  66.000  1.00  0.00    -0.236 NA 
BRANCH  14  16
HETATM   16  N   UNL     1      -7.905   9.580  64.870  1.00  0.00    -0.114 NA 
HETATM   17  C   UNL     1      -6.231  10.799  63.643  1.00  0.00     0.204 C  
HETATM   18  C   UNL     1      -7.064  10.618  62.369  1.00  0.00    -0.136 C  
HETATM   19  C   UNL     1      -6.468   9.647  64.620  1.00  0.00    -0.099 C  
HETATM   20  C   UNL     1      -8.716   9.239  63.702  1.00  0.00    -0.167 C  
HETATM   21  C   UNL     1      -8.543  10.366  62.680  1.00  0.00    -0.219 C  
ENDBRANCH  14  16
BRANCH  12  22
HETATM   22  N   UNL     1     -11.491  12.929  65.917  1.00  0.00    -0.329 NA 
BRANCH  22  23
HETATM   23  C   UNL     1     -11.354  14.217  66.606  1.00  0.00    -0.349 C  
BRANCH  23  24
HETATM   24  C   UNL     1     -12.138  14.289  67.929  1.00  0.00    -0.261 C  
HETATM   25  O   UNL     1     -11.735  15.407  68.719  1.00  0.00    -0.341 OA 
HETATM   26  H   UNL     1     -12.218  15.452  69.536  1.00  0.00     0.000 HD 
ENDBRANCH  23  24
ENDBRANCH  22  23
BRANCH  22  27
HETATM   27  C   UNL     1     -11.633  12.908  64.459  1.00  0.00    -0.350 C  
BRANCH  27  28
HETATM   28  C   UNL     1     -12.876  12.111  64.021  1.00  0.00    -0.272 C  
HETATM   29  O   UNL     1     -12.693  11.526  62.730  1.00  0.00    -0.907 OA 
HETATM   30  H   UNL     1     -13.460  11.035  62.460  1.00  0.00     0.000 HD 
ENDBRANCH  27  28
ENDBRANCH  22  27
ENDBRANCH  12  22
BRANCH   7  31
HETATM   31  N   UNL     1     -11.628  10.142  69.632  1.00  0.00    -0.195 NA 
HETATM   32  C   UNL     1     -11.410   8.915  70.390  1.00  0.00    -0.202 C  
HETATM   33  C   UNL     1     -12.892  10.832  69.900  1.00  0.00     0.080 C  
HETATM   34  C   UNL     1     -11.432   9.256  71.881  1.00  0.00    -0.382 C  
HETATM   35  C   UNL     1     -12.945  11.208  71.380  1.00  0.00    -0.506 C  
HETATM   36  C   UNL     1     -12.710   9.992  72.275  1.00  0.00    -0.231 C  
ENDBRANCH   7  31
ENDBRANCH   5   6
BRANCH   5  37
HETATM   37  C   UNL     1      -6.575   6.268  68.019  1.00  0.00    -0.062 C  
BRANCH  37  38
HETATM   38  C   UNL     1      -6.873   4.828  67.555  1.00  0.00    -0.060 C  
HETATM   39  O   UNL     1      -6.019   3.872  68.182  1.00  0.00    -0.025 OA 
HETATM   40  H   UNL     1      -6.203   2.985  67.897  1.00  0.00     0.000 HD 
ENDBRANCH  37  38
ENDBRANCH   5  37
ENDBRANCH   4   5
ENDBRANCH   3   4
TORSDOF 12
ENDMDL
MODEL      148
REMARK 921   NORMALIZED FREE ENERGY PREDICTED BY IDOCK:   -4.04 KCAL/MOL
REMARK 922        TOTAL FREE ENERGY PREDICTED BY IDOCK:   -7.80 KCAL/MOL
REMARK 923 INTER-LIGAND FREE ENERGY PREDICTED BY IDOCK:   -7.17 KCAL/MOL
REMARK 924 INTRA-LIGAND FREE ENERGY PREDICTED BY IDOCK:   -0.63 KCAL/MOL
REMARK 927      BINDING AFFINITY PREDICTED BY RF-SCORE:    0.00 PKD
ROOT
HETATM    1  O   UNL     1      -5.326  16.046  70.799  1.00  0.00    -0.168 OA 
HETATM    2  H   UNL     1      -5.648  16.922  70.620  1.00  0.00     0.000 HD 
HETATM    3  C   UNL     1      -6.339  15.059  70.615  1.00  0.00     0.061 C  
ENDROOT
BRANCH   3   4
HETATM    4  C   UNL     1      -5.815  13.635  70.906  1.00  0.00    -0.168 C  
BRANCH   4   5
HETATM    5  N   UNL     1      -5.862  12.692  69.769  1.00  0.00    -0.110 NA 
BRANCH   5   6
HETATM    6  C   UNL     1      -7.057  12.665  69.071  1.00  0.00    -0.028 A  
HETATM    7  C   UNL     1      -9.114  14.770  66.914  1.00  0.00    -0.248 A  
HETATM    8  N   UNL     1     -10.245  14.672  66.174  1.00  0.00    -0.287 NA 
HETATM    9  N   UNL     1      -7.457  13.740  68.392  1.00  0.00    -0.110 NA 
HETATM   10  C   UNL     1      -8.601  13.689  67.656  1.00  0.00    -0.185 A  
HETATM   11  N   UNL     1      -7.766  11.544  69.073  1.00  0.00    -0.082 NA 
HETATM   12  C   UNL     1     -10.926  13.533  66.178  1.00  0.00    -0.284 A  
HETATM   13  C   UNL     1      -9.386  12.550  67.603  1.00  0.00    -0.189 A  
HETATM   14  C   UNL     1      -8.910  11.474  68.364  1.00  0.00    -0.163 A  
HETATM   15  N   UNL     1     -10.550  12.493  66.910  1.00  0.00    -0.234 NA 
BRANCH  14  16
HETATM   16  N   UNL     1      -9.620  10.286  68.492  1.00  0.00    -0.156 NA 
HETATM   17  C   UNL     1     -11.153   9.073  69.895  1.00  0.00    -0.155 C  
HETATM   18  C   UNL     1     -10.712   7.772  69.217  1.00  0.00    -0.156 C  
HETATM   19  C   UNL     1     -11.007  10.263  68.946  1.00  0.00    -0.238 C  
HETATM   20  C   UNL     1      -9.216   9.131  67.692  1.00  0.00    -0.128 C  
HETATM   21  C   UNL     1      -9.320   7.895  68.590  1.00  0.00    -0.145 C  
ENDBRANCH  14  16
BRANCH  12  22
HETATM   22  N   UNL     1     -12.050  13.395  65.394  1.00  0.00    -0.394 NA 
BRANCH  22  23
HETATM   23  C   UNL     1     -12.882  14.590  65.206  1.00  0.00    -0.091 C  
BRANCH  23  24
HETATM   24  C   UNL     1     -12.647  15.293  63.857  1.00  0.00     0.528 C  
HETATM   25  O   UNL     1     -11.473  16.103  63.883  1.00  0.00    -1.351 OA 
HETATM   26  H   UNL     1     -11.329  16.537  63.050  1.00  0.00     0.000 HD 
ENDBRANCH  23  24
ENDBRANCH  22  23
BRANCH  22  27
HETATM   27  C   UNL     1     -12.127  12.308  64.416  1.00  0.00    -0.399 C  
BRANCH  27  28
HETATM   28  C   UNL     1     -10.810  12.154  63.632  1.00  0.00    -0.464 C  
HETATM   29  O   UNL     1      -9.977  11.143  64.202  1.00  0.00    -0.261 OA 
HETATM   30  H   UNL     1      -9.165  11.049  63.718  1.00  0.00     0.000 HD 
ENDBRANCH  27  28
ENDBRANCH  22  27
ENDBRANCH  12  22
BRANCH   7  31
HETATM   31  N   UNL     1      -8.492  16.015  66.831  1.00  0.00    -0.216 NA 
HETATM   32  C   UNL     1      -7.079  16.223  67.127  1.00  0.00    -0.209 C  
HETATM   33  C   UNL     1      -9.346  17.196  66.976  1.00  0.00    -0.243 C  
HETATM   34  C   UNL     1      -6.537  17.293  66.178  1.00  0.00    -0.186 C  
HETATM   35  C   UNL     1      -8.848  18.286  66.028  1.00  0.00     0.013 C  
HETATM   36  C   UNL     1      -7.362  18.576  66.240  1.00  0.00    -0.290 C  
ENDBRANCH   7  31
ENDBRANCH   5   6
BRANCH   5  37
HETATM   37  C   UNL     1      -5.132  11.426  69.917  1.00  0.00    -0.056 C  
BRANCH  37  38
HETATM   38  C   UNL     1      -5.410  10.741  71.270  1.00  0.00    -0.050 C  
HETATM   39  O   UNL     1      -6.648  10.031  71.270  1.00  0.00    -0.327 OA 
HETATM   40  H   UNL     1      -6.818   9.608  72.104  1.00  0.00     0.000 HD 
ENDBRANCH  37  38
ENDBRANCH   5  37
ENDBRANCH   4   5
ENDBRANCH   3   4
TORSDOF 12
ENDMDL
MODEL      149
REMARK 921   NORMALIZED FREE ENERGY PREDICTED BY IDOCK:   -3.98 KCAL/MOL
REMARK 922        TOTAL FREE ENERGY PREDICTED BY IDOCK:   -7.70 KCAL/MOL
REMARK 923 INTER-LIGAND FREE ENERGY PREDICTED BY IDOCK:   -6.00 KCAL/MOL
REMARK 924 INTRA-LIGAND FREE ENERGY PREDICTED BY IDOCK:   -1.70 KCAL/MOL
REMARK 927      BINDING AFFINITY PREDICTED BY RF-SCORE:    0.00 PKD
ROOT
HETATM    1  O   UNL     1      -7.804  12.034  66.227  1.00  0.00    -0.371 OA 
HETATM    2  H   UNL     1      -7.713  12.601  65.470  1.00  0.00     0.000 HD 
HETATM    3  C   UNL     1      -8.748  12.547  67.165  1.00  0.00    -0.200 C  
ENDROOT
BRANCH   3   4
HETATM    4  C   UNL     1      -8.896  11.625  68.396  1.00  0.00    -0.161 C  
BRANCH   4   5
HETATM    5  N   UNL     1      -7.851  10.591  68.549  1.00  0.00    -0.105 NA 
BRANCH   5   6
HETATM    6  C   UNL     1      -8.223   9.313  68.169  1.00  0.00    -0.119 A  
HETATM    7  C   UNL     1      -8.031   7.050  65.313  1.00  0.00    -0.127 A  
HETATM    8  N   UNL     1      -8.334   5.763  65.011  1.00  0.00    -0.141 NA 
HETATM    9  N   UNL     1      -7.954   8.878  66.938  1.00  0.00    -0.101 NA 
HETATM   10  C   UNL     1      -8.265   7.600  66.588  1.00  0.00    -0.124 A  
HETATM   11  N   UNL     1      -8.819   8.535  69.063  1.00  0.00    -0.144 NA 
HETATM   12  C   UNL     1      -8.912   5.001  65.929  1.00  0.00    -0.141 A  
HETATM   13  C   UNL     1      -8.877   6.729  67.472  1.00  0.00    -0.117 A  
HETATM   14  C   UNL     1      -9.150   7.270  68.735  1.00  0.00    -0.127 A  
HETATM   15  N   UNL     1      -9.233   5.466  67.129  1.00  0.00    -0.111 NA 
BRANCH  14  16
HETATM   16  N   UNL     1      -9.839   6.561  69.712  1.00  0.00    -0.164 NA 
HETATM   17  C   UNL     1     -11.875   6.483  70.991  1.00  0.00    -0.390 C  
HETATM   18  C   UNL     1     -11.165   5.604  72.028  1.00  0.00    -0.271 C  
HETATM   19  C   UNL     1     -11.269   6.290  69.602  1.00  0.00    -0.437 C  
HETATM   20  C   UNL     1      -9.100   5.630  70.563  1.00  0.00    -0.145 C  
HETATM   21  C   UNL     1      -9.645   5.783  71.986  1.00  0.00    -0.170 C  
ENDBRANCH  14  16
BRANCH  12  22
HETATM   22  N   UNL     1      -9.182   3.676  65.660  1.00  0.00    -0.150 NA 
BRANCH  22  23
HETATM   23  C   UNL     1     -10.133   3.397  64.577  1.00  0.00    -0.121 C  
BRANCH  23  24
HETATM   24  C   UNL     1      -9.540   2.532  63.450  1.00  0.00    -0.102 C  
HETATM   25  O   UNL     1     -10.538   1.721  62.831  1.00  0.00    -0.112 OA 
HETATM   26  H   UNL     1     -10.172   1.187  62.136  1.00  0.00     0.000 HD 
ENDBRANCH  23  24
ENDBRANCH  22  23
BRANCH  22  27
HETATM   27  C   UNL     1      -8.222   2.643  66.056  1.00  0.00    -0.087 C  
BRANCH  27  28
HETATM   28  C   UNL     1      -8.370   2.269  67.542  1.00  0.00    -0.074 C  
HETATM   29  O   UNL     1      -9.742   2.239  67.940  1.00  0.00    -0.365 OA 
HETATM   30  H   UNL     1      -9.833   2.008  68.857  1.00  0.00     0.000 HD 
ENDBRANCH  27  28
ENDBRANCH  22  27
ENDBRANCH  12  22
BRANCH   7  31
HETATM   31  N   UNL     1      -7.432   7.749  64.267  1.00  0.00    -0.093 NA 
HETATM   32  C   UNL     1      -8.005   7.827  62.928  1.00  0.00    -0.130 C  
HETATM   33  C   UNL     1      -5.983   7.948  64.343  1.00  0.00    -0.052 C  
HETATM   34  C   UNL     1      -7.709   9.213  62.353  1.00  0.00    -0.116 C  
HETATM   35  C   UNL     1      -5.645   9.334  63.795  1.00  0.00    -0.070 C  
HETATM   36  C   UNL     1      -6.217   9.535  62.391  1.00  0.00    -0.096 C  
ENDBRANCH   7  31
ENDBRANCH   5   6
BRANCH   5  37
HETATM   37  C   UNL     1      -6.940  10.722  69.693  1.00  0.00    -0.134 C  
BRANCH  37  38
HETATM   38  C   UNL     1      -6.340  12.138  69.808  1.00  0.00    -0.102 C  
HETATM   39  O   UNL     1      -5.916  12.437  71.138  1.00  0.00    -0.532 OA 
HETATM   40  H   UNL     1      -5.546  13.309  71.209  1.00  0.00     0.000 HD 
ENDBRANCH  37  38
ENDBRANCH   5  37
ENDBRANCH   4   5
ENDBRANCH   3   4
TORSDOF 12
ENDMDL
MODEL      150
REMARK 921   NORMALIZED FREE ENERGY PREDICTED BY IDOCK:   -3.97 KCAL/MOL
REMARK 922        TOTAL FREE ENERGY PREDICTED BY IDOCK:   -7.67 KCAL/MOL
REMARK 923 INTER-LIGAND FREE ENERGY PREDICTED BY IDOCK:   -6.74 KCAL/MOL
REMARK 924 INTRA-LIGAND FREE ENERGY PREDICTED BY IDOCK:   -0.93 KCAL/MOL
REMARK 927      BINDING AFFINITY PREDICTED BY RF-SCORE:    0.00 PKD
ROOT
HETATM    1  O   UNL     1     -13.193  14.169  65.663  1.00  0.00    -0.651 OA 
HETATM    2  H   UNL     1     -13.603  14.623  64.935  1.00  0.00     0.000 HD 
HETATM    3  C   UNL     1     -12.659  12.906  65.269  1.00  0.00    -0.439 C  
ENDROOT
BRANCH   3   4
HETATM    4  C   UNL     1     -11.992  12.169  66.452  1.00  0.00    -0.121 C  
BRANCH   4   5
HETATM    5  N   UNL     1     -10.829  11.324  66.106  1.00  0.00    -0.253 NA 
BRANCH   5   6
HETATM    6  C   UNL     1     -10.523  10.334  67.022  1.00  0.00    -0.244 A  
HETATM    7  C   UNL     1      -8.441   7.358  67.369  1.00  0.00    -0.119 A  
HETATM    8  N   UNL     1      -8.101   6.458  68.325  1.00  0.00    -0.112 NA 
HETATM    9  N   UNL     1      -9.670   9.363  66.694  1.00  0.00    -0.201 NA 
HETATM   10  C   UNL     1      -9.322   8.427  67.619  1.00  0.00    -0.137 A  
HETATM   11  N   UNL     1     -11.070  10.397  68.229  1.00  0.00    -0.280 NA 
HETATM   12  C   UNL     1      -8.648   6.554  69.529  1.00  0.00    -0.134 A  
HETATM   13  C   UNL     1      -9.845   8.436  68.900  1.00  0.00    -0.180 A  
HETATM   14  C   UNL     1     -10.752   9.472  69.156  1.00  0.00    -0.210 A  
HETATM   15  N   UNL     1      -9.544   7.488  69.822  1.00  0.00    -0.163 NA 
BRANCH  14  16
HETATM   16  N   UNL     1     -11.435   9.577  70.362  1.00  0.00    -0.255 NA 
HETATM   17  C   UNL     1     -11.832   8.501  72.478  1.00  0.00    -0.398 C  
HETATM   18  C   UNL     1     -13.122   9.316  72.626  1.00  0.00    -0.305 C  
HETATM   19  C   UNL     1     -10.802   9.254  71.637  1.00  0.00    -0.348 C  
HETATM   20  C   UNL     1     -12.570  10.494  70.454  1.00  0.00    -0.286 C  
HETATM   21  C   UNL     1     -13.658   9.794  71.273  1.00  0.00    -0.285 C  
ENDBRANCH  14  16
BRANCH  12  22
HETATM   22  N   UNL     1      -8.278   5.682  70.530  1.00  0.00    -0.114 NA 
BRANCH  22  23
HETATM   23  C   UNL     1      -9.017   5.767  71.794  1.00  0.00    -0.139 C  
BRANCH  23  24
HETATM   24  C   UNL     1      -8.253   6.518  72.900  1.00  0.00    -0.108 C  
HETATM   25  O   UNL     1      -9.112   6.874  73.983  1.00  0.00    -0.165 OA 
HETATM   26  H   UNL     1      -8.641   7.338  74.665  1.00  0.00     0.000 HD 
ENDBRANCH  23  24
ENDBRANCH  22  23
BRANCH  22  27
HETATM   27  C   UNL     1      -7.577   4.441  70.191  1.00  0.00    -0.049 C  
BRANCH  27  28
HETATM   28  C   UNL     1      -6.336   4.228  71.077  1.00  0.00    -0.022 C  
HETATM   29  O   UNL     1      -6.555   3.201  72.046  1.00  0.00    -0.014 OA 
HETATM   30  H   UNL     1      -5.789   3.070  72.593  1.00  0.00     0.000 HD 
ENDBRANCH  27  28
ENDBRANCH  22  27
ENDBRANCH  12  22
BRANCH   7  31
HETATM   31  N   UNL     1      -7.804   7.149  66.147  1.00  0.00    -0.101 NA 
HETATM   32  C   UNL     1      -6.827   8.077  65.587  1.00  0.00    -0.056 C  
HETATM   33  C   UNL     1      -8.493   6.299  65.174  1.00  0.00    -0.084 C  
HETATM   34  C   UNL     1      -5.756   7.270  64.853  1.00  0.00    -0.037 C  
HETATM   35  C   UNL     1      -7.456   5.458  64.430  1.00  0.00    -0.067 C  
HETATM   36  C   UNL     1      -6.365   6.334  63.812  1.00  0.00    -0.029 C  
ENDBRANCH   7  31
ENDBRANCH   5   6
BRANCH   5  37
HETATM   37  C   UNL     1      -9.713  11.976  65.408  1.00  0.00    -0.184 C  
BRANCH  37  38
HETATM   38  C   UNL     1      -9.405  13.379  65.969  1.00  0.00     0.012 C  
HETATM   39  O   UNL     1      -9.651  14.408  65.011  1.00  0.00    -0.462 OA 
HETATM   40  H   UNL     1      -9.462  15.272  65.357  1.00  0.00     0.000 HD 
ENDBRANCH  37  38
ENDBRANCH   5  37
ENDBRANCH   4   5
ENDBRANCH   3   4
TORSDOF 12
ENDMDL
MODEL      151
REMARK 921   NORMALIZED FREE ENERGY PREDICTED BY IDOCK:   -3.97 KCAL/MOL
REMARK 922        TOTAL FREE ENERGY PREDICTED BY IDOCK:   -7.67 KCAL/MOL
REMARK 923 INTER-LIGAND FREE ENERGY PREDICTED BY IDOCK:   -5.65 KCAL/MOL
REMARK 924 INTRA-LIGAND FREE ENERGY PREDICTED BY IDOCK:   -2.02 KCAL/MOL
REMARK 927      BINDING AFFINITY PREDICTED BY RF-SCORE:    0.00 PKD
ROOT
HETATM    1  O   UNL     1      -7.153  14.561  70.765  1.00  0.00    -0.200 OA 
HETATM    2  H   UNL     1      -7.199  15.415  71.178  1.00  0.00     0.000 HD 
HETATM    3  C   UNL     1      -5.910  13.911  71.026  1.00  0.00    -0.198 C  
ENDROOT
BRANCH   3   4
HETATM    4  C   UNL     1      -5.835  12.521  70.355  1.00  0.00    -0.150 C  
BRANCH   4   5
HETATM    5  N   UNL     1      -6.616  12.369  69.110  1.00  0.00    -0.098 NA 
BRANCH   5   6
HETATM    6  C   UNL     1      -7.175  11.119  68.909  1.00  0.00    -0.106 A  
HETATM    7  C   UNL     1      -8.703   9.100  66.283  1.00  0.00    -0.140 A  
HETATM    8  N   UNL     1      -9.160   7.836  66.105  1.00  0.00    -0.172 NA 
HETATM    9  N   UNL     1      -7.665  10.792  67.713  1.00  0.00    -0.102 NA 
HETATM   10  C   UNL     1      -8.155   9.540  67.503  1.00  0.00    -0.110 A  
HETATM   11  N   UNL     1      -7.179  10.259  69.919  1.00  0.00    -0.149 NA 
HETATM   12  C   UNL     1      -9.136   6.989  67.126  1.00  0.00    -0.128 A  
HETATM   13  C   UNL     1      -8.182   8.587  68.506  1.00  0.00    -0.123 A  
HETATM   14  C   UNL     1      -7.673   9.018  69.738  1.00  0.00    -0.077 A  
HETATM   15  N   UNL     1      -8.705   7.349  68.328  1.00  0.00    -0.123 NA 
BRANCH  14  16
HETATM   16  N   UNL     1      -7.705   8.217  70.874  1.00  0.00    -0.081 NA 
HETATM   17  C   UNL     1      -7.202   6.024  71.727  1.00  0.00    -0.088 C  
HETATM   18  C   UNL     1      -8.174   6.275  72.885  1.00  0.00    -0.115 C  
HETATM   19  C   UNL     1      -6.597   7.336  71.226  1.00  0.00    -0.043 C  
HETATM   20  C   UNL     1      -8.556   8.614  71.995  1.00  0.00    -0.146 C  
HETATM   21  C   UNL     1      -9.215   7.344  72.540  1.00  0.00    -0.179 C  
ENDBRANCH  14  16
BRANCH  12  22
HETATM   22  N   UNL     1      -9.549   5.685  66.954  1.00  0.00    -0.133 NA 
BRANCH  22  23
HETATM   23  C   UNL     1      -9.050   4.980  65.768  1.00  0.00    -0.154 C  
BRANCH  23  24
HETATM   24  C   UNL     1     -10.149   4.228  64.995  1.00  0.00    -0.192 C  
HETATM   25  O   UNL     1     -10.144   2.834  65.299  1.00  0.00    -0.323 OA 
HETATM   26  H   UNL     1     -10.823   2.370  64.822  1.00  0.00     0.000 HD 
ENDBRANCH  23  24
ENDBRANCH  22  23
BRANCH  22  27
HETATM   27  C   UNL     1     -10.011   4.910  68.107  1.00  0.00    -0.108 C  
BRANCH  27  28
HETATM   28  C   UNL     1      -9.022   3.788  68.473  1.00  0.00    -0.124 C  
HETATM   29  O   UNL     1      -9.601   2.497  68.281  1.00  0.00    -0.201 OA 
HETATM   30  H   UNL     1      -8.991   1.805  68.508  1.00  0.00     0.000 HD 
ENDBRANCH  27  28
ENDBRANCH  22  27
ENDBRANCH  12  22
BRANCH   7  31
HETATM   31  N   UNL     1      -8.785   9.894  65.140  1.00  0.00    -0.154 NA 
HETATM   32  C   UNL     1      -7.673  10.078  64.215  1.00  0.00    -0.141 C  
HETATM   33  C   UNL     1      -9.783  10.966  65.144  1.00  0.00    -0.262 C  
HETATM   34  C   UNL     1      -8.234  10.179  62.795  1.00  0.00    -0.159 C  
HETATM   35  C   UNL     1     -10.384  11.087  63.745  1.00  0.00    -0.427 C  
HETATM   36  C   UNL     1      -9.299  11.268  62.684  1.00  0.00    -0.313 C  
ENDBRANCH   7  31
ENDBRANCH   5   6
BRANCH   5  37
HETATM   37  C   UNL     1      -6.141  13.100  67.928  1.00  0.00    -0.139 C  
BRANCH  37  38
HETATM   38  C   UNL     1      -7.094  14.241  67.518  1.00  0.00    -0.167 C  
HETATM   39  O   UNL     1      -6.581  15.525  67.871  1.00  0.00    -0.130 OA 
HETATM   40  H   UNL     1      -7.168  16.228  67.618  1.00  0.00     0.000 HD 
ENDBRANCH  37  38
ENDBRANCH   5  37
ENDBRANCH   4   5
ENDBRANCH   3   4
TORSDOF 12
ENDMDL
MODEL      152
REMARK 921   NORMALIZED FREE ENERGY PREDICTED BY IDOCK:   -3.93 KCAL/MOL
REMARK 922        TOTAL FREE ENERGY PREDICTED BY IDOCK:   -7.60 KCAL/MOL
REMARK 923 INTER-LIGAND FREE ENERGY PREDICTED BY IDOCK:   -6.37 KCAL/MOL
REMARK 924 INTRA-LIGAND FREE ENERGY PREDICTED BY IDOCK:   -1.24 KCAL/MOL
REMARK 927      BINDING AFFINITY PREDICTED BY RF-SCORE:    0.00 PKD
ROOT
HETATM    1  O   UNL     1     -11.609   6.376  68.306  1.00  0.00    -0.524 OA 
HETATM    2  H   UNL     1     -11.759   5.513  68.675  1.00  0.00     0.000 HD 
HETATM    3  C   UNL     1     -10.229   6.601  68.023  1.00  0.00    -0.167 C  
ENDROOT
BRANCH   3   4
HETATM    4  C   UNL     1      -9.985   8.004  67.423  1.00  0.00    -0.207 C  
BRANCH   4   5
HETATM    5  N   UNL     1      -9.133   8.904  68.229  1.00  0.00    -0.140 NA 
BRANCH   5   6
HETATM    6  C   UNL     1      -9.164  10.236  67.859  1.00  0.00    -0.138 A  
HETATM    7  C   UNL     1      -7.536  13.413  68.616  1.00  0.00    -0.101 A  
HETATM    8  N   UNL     1      -7.536  14.691  68.162  1.00  0.00    -0.113 NA 
HETATM    9  N   UNL     1      -8.356  11.113  68.455  1.00  0.00    -0.148 NA 
HETATM   10  C   UNL     1      -8.344  12.411  68.045  1.00  0.00    -0.170 A  
HETATM   11  N   UNL     1      -9.987  10.604  66.885  1.00  0.00    -0.195 NA 
HETATM   12  C   UNL     1      -8.355  15.029  67.175  1.00  0.00    -0.217 A  
HETATM   13  C   UNL     1      -9.166  12.864  67.029  1.00  0.00    -0.226 A  
HETATM   14  C   UNL     1     -10.003  11.887  66.472  1.00  0.00    -0.202 A  
HETATM   15  N   UNL     1      -9.200  14.161  66.635  1.00  0.00    -0.268 NA 
BRANCH  14  16
HETATM   16  N   UNL     1     -10.952  12.190  65.503  1.00  0.00    -0.291 NA 
HETATM   17  C   UNL     1     -11.405  12.154  63.140  1.00  0.00    -0.263 C  
HETATM   18  C   UNL     1     -12.493  13.213  63.354  1.00  0.00    -0.328 C  
HETATM   19  C   UNL     1     -11.229  11.290  64.388  1.00  0.00    -0.126 C  
HETATM   20  C   UNL     1     -12.044  13.101  65.843  1.00  0.00    -0.444 C  
HETATM   21  C   UNL     1     -12.266  14.018  64.637  1.00  0.00    -0.460 C  
ENDBRANCH  14  16
BRANCH  12  22
HETATM   22  N   UNL     1      -8.334  16.309  66.665  1.00  0.00    -0.249 NA 
BRANCH  22  23
HETATM   23  C   UNL     1      -7.017  16.902  66.407  1.00  0.00    -0.184 C  
BRANCH  23  24
HETATM   24  C   UNL     1      -6.720  18.137  67.277  1.00  0.00    -0.190 C  
HETATM   25  O   UNL     1      -6.468  17.775  68.634  1.00  0.00    -0.193 OA 
HETATM   26  H   UNL     1      -6.285  18.538  69.171  1.00  0.00     0.000 HD 
ENDBRANCH  23  24
ENDBRANCH  22  23
BRANCH  22  27
HETATM   27  C   UNL     1      -9.506  16.830  65.957  1.00  0.00    -0.223 C  
BRANCH  27  28
HETATM   28  C   UNL     1     -10.606  17.283  66.935  1.00  0.00    -0.213 C  
HETATM   29  O   UNL     1     -10.054  17.960  68.066  1.00  0.00    -0.320 OA 
HETATM   30  H   UNL     1     -10.733  18.239  68.668  1.00  0.00     0.000 HD 
ENDBRANCH  27  28
ENDBRANCH  22  27
ENDBRANCH  12  22
BRANCH   7  31
HETATM   31  N   UNL     1      -6.638  13.184  69.656  1.00  0.00    -0.046 NA 
HETATM   32  C   UNL     1      -5.832  14.238  70.262  1.00  0.00    -0.146 C  
HETATM   33  C   UNL     1      -6.097  11.829  69.782  1.00  0.00    -0.136 C  
HETATM   34  C   UNL     1      -5.693  13.944  71.757  1.00  0.00    -0.169 C  
HETATM   35  C   UNL     1      -5.959  11.487  71.265  1.00  0.00     0.616 C  
HETATM   36  C   UNL     1      -5.142  12.543  72.009  1.00  0.00     0.044 C  
ENDBRANCH   7  31
ENDBRANCH   5   6
BRANCH   5  37
HETATM   37  C   UNL     1      -7.858   8.361  68.715  1.00  0.00    -0.115 C  
BRANCH  37  38
HETATM   38  C   UNL     1      -6.818   8.200  67.587  1.00  0.00    -0.070 C  
HETATM   39  O   UNL     1      -5.862   9.260  67.581  1.00  0.00    -0.045 OA 
HETATM   40  H   UNL     1      -5.222   9.160  66.886  1.00  0.00     0.000 HD 
ENDBRANCH  37  38
ENDBRANCH   5  37
ENDBRANCH   4   5
ENDBRANCH   3   4
TORSDOF 12
ENDMDL
MODEL      153
REMARK 921   NORMALIZED FREE ENERGY PREDICTED BY IDOCK:   -3.92 KCAL/MOL
REMARK 922        TOTAL FREE ENERGY PREDICTED BY IDOCK:   -7.59 KCAL/MOL
REMARK 923 INTER-LIGAND FREE ENERGY PREDICTED BY IDOCK:   -5.81 KCAL/MOL
REMARK 924 INTRA-LIGAND FREE ENERGY PREDICTED BY IDOCK:   -1.77 KCAL/MOL
REMARK 927      BINDING AFFINITY PREDICTED BY RF-SCORE:    0.00 PKD
ROOT
HETATM    1  O   UNL     1      -5.836  12.955  66.849  1.00  0.00    -0.450 OA 
HETATM    2  H   UNL     1      -5.527  13.306  66.022  1.00  0.00     0.000 HD 
HETATM    3  C   UNL     1      -6.634  13.899  67.563  1.00  0.00    -0.086 C  
ENDROOT
BRANCH   3   4
HETATM    4  C   UNL     1      -7.136  13.327  68.908  1.00  0.00    -0.079 C  
BRANCH   4   5
HETATM    5  N   UNL     1      -6.283  12.286  69.518  1.00  0.00    -0.118 NA 
BRANCH   5   6
HETATM    6  C   UNL     1      -6.767  10.993  69.420  1.00  0.00    -0.112 A  
HETATM    7  C   UNL     1      -7.749   8.530  66.913  1.00  0.00    -0.091 A  
HETATM    8  N   UNL     1      -8.137   7.232  66.858  1.00  0.00    -0.118 NA 
HETATM    9  N   UNL     1      -7.026  10.467  68.223  1.00  0.00    -0.069 NA 
HETATM   10  C   UNL     1      -7.440   9.173  68.127  1.00  0.00    -0.083 A  
HETATM   11  N   UNL     1      -6.933  10.293  70.535  1.00  0.00    -0.320 NA 
HETATM   12  C   UNL     1      -8.277   6.549  67.986  1.00  0.00    -0.116 A  
HETATM   13  C   UNL     1      -7.625   8.380  69.246  1.00  0.00    -0.089 A  
HETATM   14  C   UNL     1      -7.357   9.015  70.466  1.00  0.00    -0.086 A  
HETATM   15  N   UNL     1      -8.079   7.105  69.174  1.00  0.00    -0.119 NA 
BRANCH  14  16
HETATM   16  N   UNL     1      -7.575   8.392  71.689  1.00  0.00    -0.096 NA 
HETATM   17  C   UNL     1      -9.217   7.970  73.396  1.00  0.00    -0.332 C  
HETATM   18  C   UNL     1      -8.082   7.674  74.384  1.00  0.00    -0.256 C  
HETATM   19  C   UNL     1      -8.795   7.641  71.964  1.00  0.00    -0.117 C  
HETATM   20  C   UNL     1      -6.421   8.011  72.504  1.00  0.00    -0.074 C  
HETATM   21  C   UNL     1      -6.766   8.333  73.960  1.00  0.00    -0.159 C  
ENDBRANCH  14  16
BRANCH  12  22
HETATM   22  N   UNL     1      -8.621   5.214  67.950  1.00  0.00    -0.104 NA 
BRANCH  22  23
HETATM   23  C   UNL     1      -8.523   4.537  66.652  1.00  0.00    -0.105 C  
BRANCH  23  24
HETATM   24  C   UNL     1      -9.890   4.260  66.001  1.00  0.00    -0.222 C  
HETATM   25  O   UNL     1     -10.718   5.423  66.003  1.00  0.00    -0.526 OA 
HETATM   26  H   UNL     1     -11.562   5.252  65.602  1.00  0.00     0.000 HD 
ENDBRANCH  23  24
ENDBRANCH  22  23
BRANCH  22  27
HETATM   27  C   UNL     1      -8.582   4.419  69.179  1.00  0.00    -0.082 C  
BRANCH  27  28
HETATM   28  C   UNL     1      -9.994   4.171  69.742  1.00  0.00    -0.030 C  
HETATM   29  O   UNL     1     -10.686   5.399  69.976  1.00  0.00    -0.308 OA 
HETATM   30  H   UNL     1     -11.557   5.246  70.323  1.00  0.00     0.000 HD 
ENDBRANCH  27  28
ENDBRANCH  22  27
ENDBRANCH  12  22
BRANCH   7  31
HETATM   31  N   UNL     1      -7.642   9.140  65.665  1.00  0.00    -0.093 NA 
HETATM   32  C   UNL     1      -6.364   9.415  65.018  1.00  0.00    -0.075 C  
HETATM   33  C   UNL     1      -8.758   9.989  65.241  1.00  0.00    -0.163 C  
HETATM   34  C   UNL     1      -6.532   9.223  63.510  1.00  0.00    -0.091 C  
HETATM   35  C   UNL     1      -8.972   9.811  63.739  1.00  0.00    -0.272 C  
HETATM   36  C   UNL     1      -7.683  10.061  62.957  1.00  0.00    -0.143 C  
ENDBRANCH   7  31
ENDBRANCH   5   6
BRANCH   5  37
HETATM   37  C   UNL     1      -5.553  12.648  70.739  1.00  0.00    -0.163 C  
BRANCH  37  38
HETATM   38  C   UNL     1      -5.865  14.084  71.208  1.00  0.00    -0.208 C  
HETATM   39  O   UNL     1      -6.069  14.157  72.619  1.00  0.00    -0.257 OA 
HETATM   40  H   UNL     1      -6.261  15.042  72.907  1.00  0.00     0.000 HD 
ENDBRANCH  37  38
ENDBRANCH   5  37
ENDBRANCH   4   5
ENDBRANCH   3   4
TORSDOF 12
ENDMDL
MODEL      154
REMARK 921   NORMALIZED FREE ENERGY PREDICTED BY IDOCK:   -3.91 KCAL/MOL
REMARK 922        TOTAL FREE ENERGY PREDICTED BY IDOCK:   -7.56 KCAL/MOL
REMARK 923 INTER-LIGAND FREE ENERGY PREDICTED BY IDOCK:   -6.05 KCAL/MOL
REMARK 924 INTRA-LIGAND FREE ENERGY PREDICTED BY IDOCK:   -1.52 KCAL/MOL
REMARK 927      BINDING AFFINITY PREDICTED BY RF-SCORE:    0.00 PKD
ROOT
HETATM    1  O   UNL     1      -6.954  14.328  70.672  1.00  0.00    -0.359 OA 
HETATM    2  H   UNL     1      -6.799  15.069  71.247  1.00  0.00     0.000 HD 
HETATM    3  C   UNL     1      -5.738  13.797  70.148  1.00  0.00    -0.133 C  
ENDROOT
BRANCH   3   4
HETATM    4  C   UNL     1      -5.991  12.593  69.214  1.00  0.00    -0.093 C  
BRANCH   4   5
HETATM    5  N   UNL     1      -7.370  12.464  68.698  1.00  0.00    -0.108 NA 
BRANCH   5   6
HETATM    6  C   UNL     1      -7.879  11.177  68.683  1.00  0.00    -0.138 A  
HETATM    7  C   UNL     1      -8.461   8.399  66.389  1.00  0.00    -0.123 A  
HETATM    8  N   UNL     1      -8.884   7.112  66.435  1.00  0.00    -0.141 NA 
HETATM    9  N   UNL     1      -7.924  10.491  67.540  1.00  0.00    -0.106 NA 
HETATM   10  C   UNL     1      -8.365   9.203  67.541  1.00  0.00    -0.116 A  
HETATM   11  N   UNL     1      -8.285  10.643  69.827  1.00  0.00     0.056 NA 
HETATM   12  C   UNL     1      -9.267   6.596  67.596  1.00  0.00    -0.110 A  
HETATM   13  C   UNL     1      -8.794   8.578  68.699  1.00  0.00    -0.136 A  
HETATM   14  C   UNL     1      -8.740   9.375  69.850  1.00  0.00    -0.197 A  
HETATM   15  N   UNL     1      -9.278   7.311  68.713  1.00  0.00    -0.138 NA 
BRANCH  14  16
HETATM   16  N   UNL     1      -9.215   8.933  71.080  1.00  0.00    -0.223 NA 
HETATM   17  C   UNL     1      -8.963   7.241  72.772  1.00  0.00    -0.166 C  
HETATM   18  C   UNL     1     -10.373   7.566  73.277  1.00  0.00    -0.412 C  
HETATM   19  C   UNL     1      -8.315   8.468  72.130  1.00  0.00    -0.132 C  
HETATM   20  C   UNL     1     -10.514   9.413  71.551  1.00  0.00    -0.229 C  
HETATM   21  C   UNL     1     -11.233   8.224  72.193  1.00  0.00    -0.413 C  
ENDBRANCH  14  16
BRANCH  12  22
HETATM   22  N   UNL     1      -9.652   5.275  67.674  1.00  0.00    -0.126 NA 
BRANCH  22  23
HETATM   23  C   UNL     1     -10.129   4.797  68.976  1.00  0.00    -0.101 C  
BRANCH  23  24
HETATM   24  C   UNL     1      -9.124   3.880  69.697  1.00  0.00    -0.122 C  
HETATM   25  O   UNL     1      -9.785   2.867  70.454  1.00  0.00    -0.130 OA 
HETATM   26  H   UNL     1      -9.165   2.302  70.899  1.00  0.00     0.000 HD 
ENDBRANCH  23  24
ENDBRANCH  22  23
BRANCH  22  27
HETATM   27  C   UNL     1     -10.046   4.559  66.459  1.00  0.00    -0.228 C  
BRANCH  27  28
HETATM   28  C   UNL     1      -9.170   3.315  66.222  1.00  0.00    -0.145 C  
HETATM   29  O   UNL     1      -9.888   2.295  65.524  1.00  0.00    -0.317 OA 
HETATM   30  H   UNL     1      -9.347   1.528  65.378  1.00  0.00     0.000 HD 
ENDBRANCH  27  28
ENDBRANCH  22  27
ENDBRANCH  12  22
BRANCH   7  31
HETATM   31  N   UNL     1      -8.090   8.825  65.115  1.00  0.00    -0.125 NA 
HETATM   32  C   UNL     1      -6.747   8.653  64.575  1.00  0.00    -0.066 C  
HETATM   33  C   UNL     1      -8.871   9.916  64.525  1.00  0.00    -0.209 C  
HETATM   34  C   UNL     1      -6.859   8.370  63.076  1.00  0.00    -0.090 C  
HETATM   35  C   UNL     1      -9.023   9.661  63.027  1.00  0.00    -0.257 C  
HETATM   36  C   UNL     1      -7.666   9.447  62.355  1.00  0.00    -0.119 C  
ENDBRANCH   7  31
ENDBRANCH   5   6
BRANCH   5  37
HETATM   37  C   UNL     1      -7.764  13.364  67.606  1.00  0.00    -0.177 C  
BRANCH  37  38
HETATM   38  C   UNL     1      -9.073  14.120  67.909  1.00  0.00    -0.189 C  
HETATM   39  O   UNL     1      -9.631  14.721  66.741  1.00  0.00    -0.233 OA 
HETATM   40  H   UNL     1     -10.438  15.187  66.928  1.00  0.00     0.000 HD 
ENDBRANCH  37  38
ENDBRANCH   5  37
ENDBRANCH   4   5
ENDBRANCH   3   4
TORSDOF 12
ENDMDL
MODEL      155
REMARK 921   NORMALIZED FREE ENERGY PREDICTED BY IDOCK:   -3.89 KCAL/MOL
REMARK 922        TOTAL FREE ENERGY PREDICTED BY IDOCK:   -7.53 KCAL/MOL
REMARK 923 INTER-LIGAND FREE ENERGY PREDICTED BY IDOCK:   -6.37 KCAL/MOL
REMARK 924 INTRA-LIGAND FREE ENERGY PREDICTED BY IDOCK:   -1.16 KCAL/MOL
REMARK 927      BINDING AFFINITY PREDICTED BY RF-SCORE:    0.00 PKD
ROOT
HETATM    1  O   UNL     1     -11.673   4.669  64.877  1.00  0.00    -0.984 OA 
HETATM    2  H   UNL     1     -12.209   5.159  64.265  1.00  0.00     0.000 HD 
HETATM    3  C   UNL     1     -10.761   3.799  64.207  1.00  0.00    -0.201 C  
ENDROOT
BRANCH   3   4
HETATM    4  C   UNL     1      -9.889   3.002  65.203  1.00  0.00     0.104 C  
BRANCH   4   5
HETATM    5  N   UNL     1      -8.669   3.689  65.676  1.00  0.00    -0.113 NA 
BRANCH   5   6
HETATM    6  C   UNL     1      -8.881   4.898  66.314  1.00  0.00    -0.116 A  
HETATM    7  C   UNL     1      -8.397   8.479  65.808  1.00  0.00    -0.140 A  
HETATM    8  N   UNL     1      -8.702   9.646  66.427  1.00  0.00    -0.133 NA 
HETATM    9  N   UNL     1      -8.499   6.036  65.732  1.00  0.00    -0.141 NA 
HETATM   10  C   UNL     1      -8.767   7.227  66.334  1.00  0.00    -0.142 A  
HETATM   11  N   UNL     1      -9.495   4.894  67.490  1.00  0.00    -0.133 NA 
HETATM   12  C   UNL     1      -9.333   9.615  67.594  1.00  0.00    -0.126 A  
HETATM   13  C   UNL     1      -9.412   7.300  67.556  1.00  0.00    -0.129 A  
HETATM   14  C   UNL     1      -9.756   6.061  68.113  1.00  0.00    -0.127 A  
HETATM   15  N   UNL     1      -9.649   8.474  68.192  1.00  0.00    -0.141 NA 
BRANCH  14  16
HETATM   16  N   UNL     1     -10.331   5.949  69.373  1.00  0.00    -0.221 NA 
HETATM   17  C   UNL     1     -11.523   7.149  71.085  1.00  0.00    -0.322 C  
HETATM   18  C   UNL     1     -11.074   6.096  72.105  1.00  0.00    -0.321 C  
HETATM   19  C   UNL     1     -11.626   6.545  69.685  1.00  0.00    -0.283 C  
HETATM   20  C   UNL     1      -9.950   4.825  70.227  1.00  0.00    -0.250 C  
HETATM   21  C   UNL     1      -9.808   5.362  71.654  1.00  0.00    -0.223 C  
ENDBRANCH  14  16
BRANCH  12  22
HETATM   22  N   UNL     1      -9.698  10.790  68.215  1.00  0.00    -0.159 NA 
BRANCH  22  23
HETATM   23  C   UNL     1     -10.944  10.773  68.991  1.00  0.00    -0.240 C  
BRANCH  23  24
HETATM   24  C   UNL     1     -12.032  11.702  68.422  1.00  0.00    -0.196 C  
HETATM   25  O   UNL     1     -12.391  12.723  69.353  1.00  0.00    -0.128 OA 
HETATM   26  H   UNL     1     -13.062  13.296  69.002  1.00  0.00     0.000 HD 
ENDBRANCH  23  24
ENDBRANCH  22  23
BRANCH  22  27
HETATM   27  C   UNL     1      -8.683  11.803  68.510  1.00  0.00    -0.118 C  
BRANCH  27  28
HETATM   28  C   UNL     1      -9.091  13.189  67.977  1.00  0.00    -0.207 C  
HETATM   29  O   UNL     1      -9.435  14.078  69.041  1.00  0.00    -0.396 OA 
HETATM   30  H   UNL     1      -9.686  14.933  68.712  1.00  0.00     0.000 HD 
ENDBRANCH  27  28
ENDBRANCH  22  27
ENDBRANCH  12  22
BRANCH   7  31
HETATM   31  N   UNL     1      -7.732   8.643  64.594  1.00  0.00    -0.114 NA 
HETATM   32  C   UNL     1      -8.360   9.221  63.412  1.00  0.00    -0.193 C  
HETATM   33  C   UNL     1      -6.595   7.757  64.333  1.00  0.00    -0.056 C  
HETATM   34  C   UNL     1      -7.312  10.040  62.657  1.00  0.00    -0.133 C  
HETATM   35  C   UNL     1      -5.514   8.544  63.595  1.00  0.00    -0.062 C  
HETATM   36  C   UNL     1      -6.069   9.212  62.337  1.00  0.00    -0.094 C  
ENDBRANCH   7  31
ENDBRANCH   5   6
BRANCH   5  37
HETATM   37  C   UNL     1      -7.463   3.559  64.848  1.00  0.00    -0.073 C  
BRANCH  37  38
HETATM   38  C   UNL     1      -6.336   2.790  65.567  1.00  0.00    -0.024 C  
HETATM   39  O   UNL     1      -6.842   1.761  66.417  1.00  0.00    -0.040 OA 
HETATM   40  H   UNL     1      -6.147   1.288  66.860  1.00  0.00     0.000 HD 
ENDBRANCH  37  38
ENDBRANCH   5  37
ENDBRANCH   4   5
ENDBRANCH   3   4
TORSDOF 12
ENDMDL
MODEL      156
REMARK 921   NORMALIZED FREE ENERGY PREDICTED BY IDOCK:   -3.87 KCAL/MOL
REMARK 922        TOTAL FREE ENERGY PREDICTED BY IDOCK:   -7.50 KCAL/MOL
REMARK 923 INTER-LIGAND FREE ENERGY PREDICTED BY IDOCK:   -6.38 KCAL/MOL
REMARK 924 INTRA-LIGAND FREE ENERGY PREDICTED BY IDOCK:   -1.12 KCAL/MOL
REMARK 927      BINDING AFFINITY PREDICTED BY RF-SCORE:    0.00 PKD
ROOT
HETATM    1  O   UNL     1     -11.423   8.120  72.078  1.00  0.00    -0.278 OA 
HETATM    2  H   UNL     1     -12.021   8.579  72.657  1.00  0.00     0.000 HD 
HETATM    3  C   UNL     1     -10.076   8.189  72.543  1.00  0.00    -0.300 C  
ENDROOT
BRANCH   3   4
HETATM    4  C   UNL     1      -9.103   7.442  71.602  1.00  0.00    -0.130 C  
BRANCH   4   5
HETATM    5  N   UNL     1      -7.941   8.225  71.132  1.00  0.00    -0.093 NA 
BRANCH   5   6
HETATM    6  C   UNL     1      -8.087   8.810  69.887  1.00  0.00    -0.109 A  
HETATM    7  C   UNL     1      -9.057   7.973  66.471  1.00  0.00    -0.173 A  
HETATM    8  N   UNL     1      -9.273   8.603  65.289  1.00  0.00    -0.054 NA 
HETATM    9  N   UNL     1      -8.465   8.072  68.843  1.00  0.00    -0.130 NA 
HETATM   10  C   UNL     1      -8.669   8.664  67.634  1.00  0.00    -0.136 A  
HETATM   11  N   UNL     1      -7.873  10.115  69.772  1.00  0.00    -0.168 NA 
HETATM   12  C   UNL     1      -9.070   9.911  65.206  1.00  0.00    -0.211 A  
HETATM   13  C   UNL     1      -8.475  10.021  67.442  1.00  0.00    -0.121 A  
HETATM   14  C   UNL     1      -8.053  10.720  68.581  1.00  0.00    -0.136 A  
HETATM   15  N   UNL     1      -8.631  10.621  66.237  1.00  0.00    -0.147 NA 
BRANCH  14  16
HETATM   16  N   UNL     1      -7.729  12.071  68.543  1.00  0.00    -0.130 NA 
HETATM   17  C   UNL     1      -6.319  13.764  69.509  1.00  0.00    -0.118 C  
HETATM   18  C   UNL     1      -7.298  14.834  69.012  1.00  0.00    -0.139 C  
HETATM   19  C   UNL     1      -6.346  12.533  68.604  1.00  0.00    -0.073 C  
HETATM   20  C   UNL     1      -8.663  13.005  67.915  1.00  0.00    -0.189 C  
HETATM   21  C   UNL     1      -8.702  14.265  68.784  1.00  0.00    -0.096 C  
ENDBRANCH  14  16
BRANCH  12  22
HETATM   22  N   UNL     1      -9.332  10.579  64.029  1.00  0.00    -0.243 NA 
BRANCH  22  23
HETATM   23  C   UNL     1      -8.483  10.255  62.877  1.00  0.00    -0.180 C  
BRANCH  23  24
HETATM   24  C   UNL     1      -6.982  10.467  63.144  1.00  0.00    -0.064 C  
HETATM   25  O   UNL     1      -6.279   9.227  63.211  1.00  0.00    -0.089 OA 
HETATM   26  H   UNL     1      -5.353   9.357  63.376  1.00  0.00     0.000 HD 
ENDBRANCH  23  24
ENDBRANCH  22  23
BRANCH  22  27
HETATM   27  C   UNL     1     -10.655  11.163  63.803  1.00  0.00    -0.356 C  
BRANCH  27  28
HETATM   28  C   UNL     1     -10.608  12.702  63.820  1.00  0.00    -0.397 C  
HETATM   29  O   UNL     1     -11.868  13.268  63.452  1.00  0.00    -0.712 OA 
HETATM   30  H   UNL     1     -11.838  14.217  63.463  1.00  0.00     0.000 HD 
ENDBRANCH  27  28
ENDBRANCH  22  27
ENDBRANCH  12  22
BRANCH   7  31
HETATM   31  N   UNL     1      -9.301   6.601  66.430  1.00  0.00    -0.159 NA 
HETATM   32  C   UNL     1      -8.903   5.752  65.313  1.00  0.00    -0.049 C  
HETATM   33  C   UNL     1     -10.417   6.099  67.235  1.00  0.00    -0.255 C  
HETATM   34  C   UNL     1      -8.485   4.388  65.865  1.00  0.00    -0.114 C  
HETATM   35  C   UNL     1     -10.032   4.742  67.822  1.00  0.00    -0.169 C  
HETATM   36  C   UNL     1      -9.578   3.770  66.734  1.00  0.00    -0.205 C  
ENDBRANCH   7  31
ENDBRANCH   5   6
BRANCH   5  37
HETATM   37  C   UNL     1      -6.608   7.732  71.500  1.00  0.00    -0.045 C  
BRANCH  37  38
HETATM   38  C   UNL     1      -5.994   8.516  72.678  1.00  0.00    -0.074 C  
HETATM   39  O   UNL     1      -6.954   8.798  73.695  1.00  0.00    -0.339 OA 
HETATM   40  H   UNL     1      -6.576   9.281  74.421  1.00  0.00     0.000 HD 
ENDBRANCH  37  38
ENDBRANCH   5  37
ENDBRANCH   4   5
ENDBRANCH   3   4
TORSDOF 12
ENDMDL
MODEL      157
REMARK 921   NORMALIZED FREE ENERGY PREDICTED BY IDOCK:   -3.84 KCAL/MOL
REMARK 922        TOTAL FREE ENERGY PREDICTED BY IDOCK:   -7.46 KCAL/MOL
REMARK 923 INTER-LIGAND FREE ENERGY PREDICTED BY IDOCK:   -6.26 KCAL/MOL
REMARK 924 INTRA-LIGAND FREE ENERGY PREDICTED BY IDOCK:   -1.20 KCAL/MOL
REMARK 927      BINDING AFFINITY PREDICTED BY RF-SCORE:    0.00 PKD
ROOT
HETATM    1  O   UNL     1      -9.456   3.835  71.350  1.00  0.00    -0.131 OA 
HETATM    2  H   UNL     1      -9.682   3.225  72.043  1.00  0.00     0.000 HD 
HETATM    3  C   UNL     1     -10.089   5.101  71.528  1.00  0.00    -0.193 C  
ENDROOT
BRANCH   3   4
HETATM    4  C   UNL     1      -9.720   6.093  70.402  1.00  0.00    -0.169 C  
BRANCH   4   5
HETATM    5  N   UNL     1     -10.038   7.511  70.670  1.00  0.00    -0.187 NA 
BRANCH   5   6
HETATM    6  C   UNL     1      -9.955   8.354  69.576  1.00  0.00    -0.190 A  
HETATM    7  C   UNL     1      -9.027   8.313  66.047  1.00  0.00    -0.181 A  
HETATM    8  N   UNL     1      -9.045   9.149  64.980  1.00  0.00    -0.194 NA 
HETATM    9  N   UNL     1      -9.508   7.889  68.409  1.00  0.00    -0.147 NA 
HETATM   10  C   UNL     1      -9.488   8.704  67.319  1.00  0.00    -0.156 A  
HETATM   11  N   UNL     1     -10.357   9.611  69.713  1.00  0.00    -0.223 NA 
HETATM   12  C   UNL     1      -9.469  10.395  65.139  1.00  0.00    -0.249 A  
HETATM   13  C   UNL     1      -9.902  10.023  67.384  1.00  0.00    -0.185 A  
HETATM   14  C   UNL     1     -10.332  10.441  68.651  1.00  0.00    -0.184 A  
HETATM   15  N   UNL     1      -9.849  10.863  66.321  1.00  0.00    -0.209 NA 
BRANCH  14  16
HETATM   16  N   UNL     1     -10.698  11.756  68.913  1.00  0.00    -0.218 NA 
HETATM   17  C   UNL     1     -12.530  13.178  69.554  1.00  0.00     0.069 C  
HETATM   18  C   UNL     1     -11.779  14.376  68.962  1.00  0.00    -0.345 C  
HETATM   19  C   UNL     1     -11.554  12.107  70.041  1.00  0.00    -0.171 C  
HETATM   20  C   UNL     1      -9.839  12.838  68.433  1.00  0.00    -0.196 C  
HETATM   21  C   UNL     1     -10.754  13.948  67.908  1.00  0.00    -0.248 C  
ENDBRANCH  14  16
BRANCH  12  22
HETATM   22  N   UNL     1      -9.543  11.245  64.057  1.00  0.00    -0.239 NA 
BRANCH  22  23
HETATM   23  C   UNL     1      -9.118  10.709  62.759  1.00  0.00    -0.294 C  
BRANCH  23  24
HETATM   24  C   UNL     1      -7.696  11.138  62.355  1.00  0.00     0.033 C  
HETATM   25  O   UNL     1      -6.714  10.604  63.243  1.00  0.00    -0.336 OA 
HETATM   26  H   UNL     1      -5.837  10.869  62.994  1.00  0.00     0.000 HD 
ENDBRANCH  23  24
ENDBRANCH  22  23
BRANCH  22  27
HETATM   27  C   UNL     1     -10.449  12.396  64.096  1.00  0.00    -0.389 C  
BRANCH  27  28
HETATM   28  C   UNL     1     -11.921  11.966  63.964  1.00  0.00    -0.356 C  
HETATM   29  O   UNL     1     -12.615  12.087  65.208  1.00  0.00    -0.371 OA 
HETATM   30  H   UNL     1     -13.523  11.821  65.126  1.00  0.00     0.000 HD 
ENDBRANCH  27  28
ENDBRANCH  22  27
ENDBRANCH  12  22
BRANCH   7  31
HETATM   31  N   UNL     1      -8.557   7.034  65.754  1.00  0.00    -0.146 NA 
HETATM   32  C   UNL     1      -9.437   5.895  65.521  1.00  0.00     0.232 C  
HETATM   33  C   UNL     1      -7.204   6.702  66.208  1.00  0.00    -0.072 C  
HETATM   34  C   UNL     1      -8.806   5.006  64.448  1.00  0.00    -0.084 C  
HETATM   35  C   UNL     1      -6.530   5.828  65.152  1.00  0.00    -0.042 C  
HETATM   36  C   UNL     1      -7.379   4.603  64.814  1.00  0.00    -0.071 C  
ENDBRANCH   7  31
ENDBRANCH   5   6
BRANCH   5  37
HETATM   37  C   UNL     1      -9.640   8.051  71.977  1.00  0.00    -0.201 C  
BRANCH  37  38
HETATM   38  C   UNL     1      -8.142   8.414  72.033  1.00  0.00    -0.141 C  
HETATM   39  O   UNL     1      -7.306   7.302  71.711  1.00  0.00    -0.078 OA 
HETATM   40  H   UNL     1      -6.384   7.526  71.746  1.00  0.00     0.000 HD 
ENDBRANCH  37  38
ENDBRANCH   5  37
ENDBRANCH   4   5
ENDBRANCH   3   4
TORSDOF 12
ENDMDL
MODEL      158
REMARK 921   NORMALIZED FREE ENERGY PREDICTED BY IDOCK:   -3.74 KCAL/MOL
REMARK 922        TOTAL FREE ENERGY PREDICTED BY IDOCK:   -7.28 KCAL/MOL
REMARK 923 INTER-LIGAND FREE ENERGY PREDICTED BY IDOCK:   -5.99 KCAL/MOL
REMARK 924 INTRA-LIGAND FREE ENERGY PREDICTED BY IDOCK:   -1.29 KCAL/MOL
REMARK 927      BINDING AFFINITY PREDICTED BY RF-SCORE:    0.00 PKD
ROOT
HETATM    1  O   UNL     1      -9.810   8.246  72.715  1.00  0.00    -0.274 OA 
HETATM    2  H   UNL     1     -10.443   8.696  73.262  1.00  0.00     0.000 HD 
HETATM    3  C   UNL     1      -8.476   8.427  73.188  1.00  0.00    -0.131 C  
ENDROOT
BRANCH   3   4
HETATM    4  C   UNL     1      -7.445   7.695  72.299  1.00  0.00    -0.078 C  
BRANCH   4   5
HETATM    5  N   UNL     1      -6.489   8.564  71.582  1.00  0.00    -0.061 NA 
BRANCH   5   6
HETATM    6  C   UNL     1      -7.040   9.362  70.595  1.00  0.00    -0.124 A  
HETATM    7  C   UNL     1      -9.625   9.288  68.022  1.00  0.00    -0.142 A  
HETATM    8  N   UNL     1     -10.196  10.132  67.127  1.00  0.00    -0.212 NA 
HETATM    9  N   UNL     1      -8.015   8.887  69.820  1.00  0.00    -0.095 NA 
HETATM   10  C   UNL     1      -8.597   9.696  68.893  1.00  0.00    -0.127 A  
HETATM   11  N   UNL     1      -6.596  10.606  70.465  1.00  0.00    -0.328 NA 
HETATM   12  C   UNL     1      -9.747  11.376  67.031  1.00  0.00    -0.190 A  
HETATM   13  C   UNL     1      -8.194  11.007  68.710  1.00  0.00    -0.146 A  
HETATM   14  C   UNL     1      -7.147  11.421  69.544  1.00  0.00    -0.019 A  
HETATM   15  N   UNL     1      -8.732  11.815  67.763  1.00  0.00    -0.149 NA 
BRANCH  14  16
HETATM   16  N   UNL     1      -6.562  12.677  69.432  1.00  0.00    -0.098 NA 
HETATM   17  C   UNL     1      -6.180  14.757  70.579  1.00  0.00    -0.123 C  
HETATM   18  C   UNL     1      -5.929  15.432  69.226  1.00  0.00    -0.110 C  
HETATM   19  C   UNL     1      -5.809  13.275  70.529  1.00  0.00    -0.154 C  
HETATM   20  C   UNL     1      -6.221  13.182  68.103  1.00  0.00    -0.106 C  
HETATM   21  C   UNL     1      -6.587  14.669  68.072  1.00  0.00    -0.155 C  
ENDBRANCH  14  16
BRANCH  12  22
HETATM   22  N   UNL     1     -10.346  12.264  66.164  1.00  0.00    -0.237 NA 
BRANCH  22  23
HETATM   23  C   UNL     1      -9.608  12.603  64.942  1.00  0.00     0.183 C  
BRANCH  23  24
HETATM   24  C   UNL     1      -9.595  11.471  63.900  1.00  0.00    -0.193 C  
HETATM   25  O   UNL     1     -10.442  11.767  62.791  1.00  0.00    -0.614 OA 
HETATM   26  H   UNL     1     -10.434  11.068  62.147  1.00  0.00     0.000 HD 
ENDBRANCH  23  24
ENDBRANCH  22  23
BRANCH  22  27
HETATM   27  C   UNL     1     -11.799  12.445  66.197  1.00  0.00    -0.376 C  
BRANCH  27  28
HETATM   28  C   UNL     1     -12.195  13.917  65.978  1.00  0.00    -0.462 C  
HETATM   29  O   UNL     1     -13.074  14.061  64.861  1.00  0.00    -0.693 OA 
HETATM   30  H   UNL     1     -13.318  14.970  64.726  1.00  0.00     0.000 HD 
ENDBRANCH  27  28
ENDBRANCH  22  27
ENDBRANCH  12  22
BRANCH   7  31
HETATM   31  N   UNL     1     -10.181   8.010  68.025  1.00  0.00    -0.202 NA 
HETATM   32  C   UNL     1     -10.548   7.295  66.808  1.00  0.00    -0.217 C  
HETATM   33  C   UNL     1     -10.896   7.598  69.235  1.00  0.00    -0.099 C  
HETATM   34  C   UNL     1     -10.266   5.807  67.015  1.00  0.00    -0.258 C  
HETATM   35  C   UNL     1     -10.625   6.116  69.490  1.00  0.00    -0.350 C  
HETATM   36  C   UNL     1     -10.960   5.268  68.264  1.00  0.00     0.417 C  
ENDBRANCH   7  31
ENDBRANCH   5   6
BRANCH   5  37
HETATM   37  C   UNL     1      -5.141   8.029  71.351  1.00  0.00    -0.030 C  
BRANCH  37  38
HETATM   38  C   UNL     1      -5.165   6.610  70.749  1.00  0.00    -0.019 C  
HETATM   39  O   UNL     1      -5.840   6.569  69.492  1.00  0.00    -0.014 OA 
HETATM   40  H   UNL     1      -5.855   5.695  69.122  1.00  0.00     0.000 HD 
ENDBRANCH  37  38
ENDBRANCH   5  37
ENDBRANCH   4   5
ENDBRANCH   3   4
TORSDOF 12
ENDMDL
MODEL      159
REMARK 921   NORMALIZED FREE ENERGY PREDICTED BY IDOCK:   -3.72 KCAL/MOL
REMARK 922        TOTAL FREE ENERGY PREDICTED BY IDOCK:   -7.25 KCAL/MOL
REMARK 923 INTER-LIGAND FREE ENERGY PREDICTED BY IDOCK:   -6.39 KCAL/MOL
REMARK 924 INTRA-LIGAND FREE ENERGY PREDICTED BY IDOCK:   -0.86 KCAL/MOL
REMARK 927      BINDING AFFINITY PREDICTED BY RF-SCORE:    0.00 PKD
ROOT
HETATM    1  O   UNL     1      -6.732   3.077  70.526  1.00  0.00    -0.032 OA 
HETATM    2  H   UNL     1      -6.557   2.340  71.100  1.00  0.00     0.000 HD 
HETATM    3  C   UNL     1      -8.026   3.632  70.754  1.00  0.00    -0.054 C  
ENDROOT
BRANCH   3   4
HETATM    4  C   UNL     1      -8.310   4.831  69.821  1.00  0.00    -0.075 C  
BRANCH   4   5
HETATM    5  N   UNL     1      -8.183   6.167  70.442  1.00  0.00    -0.115 NA 
BRANCH   5   6
HETATM    6  C   UNL     1      -8.796   7.200  69.755  1.00  0.00    -0.142 A  
HETATM    7  C   UNL     1      -8.596   8.985  66.578  1.00  0.00    -0.120 A  
HETATM    8  N   UNL     1      -9.279   9.942  65.903  1.00  0.00    -0.164 NA 
HETATM    9  N   UNL     1      -8.349   7.556  68.550  1.00  0.00    -0.125 NA 
HETATM   10  C   UNL     1      -8.994   8.530  67.850  1.00  0.00    -0.137 A  
HETATM   11  N   UNL     1      -9.845   7.794  70.308  1.00  0.00    -0.184 NA 
HETATM   12  C   UNL     1     -10.336  10.507  66.471  1.00  0.00    -0.233 A  
HETATM   13  C   UNL     1     -10.100   9.186  68.360  1.00  0.00    -0.196 A  
HETATM   14  C   UNL     1     -10.490   8.772  69.640  1.00  0.00    -0.220 A  
HETATM   15  N   UNL     1     -10.730  10.187  67.697  1.00  0.00    -0.267 NA 
BRANCH  14  16
HETATM   16  N   UNL     1     -11.526   9.385  70.335  1.00  0.00    -0.248 NA 
HETATM   17  C   UNL     1     -12.373  11.503  71.099  1.00  0.00    -0.382 C  
HETATM   18  C   UNL     1     -13.216  10.765  72.145  1.00  0.00    -0.360 C  
HETATM   19  C   UNL     1     -12.135  10.627  69.870  1.00  0.00    -0.299 C  
HETATM   20  C   UNL     1     -12.375   8.571  71.203  1.00  0.00    -0.206 C  
HETATM   21  C   UNL     1     -12.642   9.383  72.473  1.00  0.00    -0.210 C  
ENDBRANCH  14  16
BRANCH  12  22
HETATM   22  N   UNL     1     -11.074  11.445  65.782  1.00  0.00    -0.210 NA 
BRANCH  22  23
HETATM   23  C   UNL     1     -11.119  12.800  66.343  1.00  0.00    -0.285 C  
BRANCH  23  24
HETATM   24  C   UNL     1     -12.525  13.227  66.801  1.00  0.00    -0.024 C  
HETATM   25  O   UNL     1     -12.560  14.604  67.175  1.00  0.00    -0.445 OA 
HETATM   26  H   UNL     1     -13.428  14.867  67.459  1.00  0.00     0.000 HD 
ENDBRANCH  23  24
ENDBRANCH  22  23
BRANCH  22  27
HETATM   27  C   UNL     1     -11.353  11.248  64.358  1.00  0.00    -0.037 C  
BRANCH  27  28
HETATM   28  C   UNL     1     -10.676  12.326  63.491  1.00  0.00    -0.451 C  
HETATM   29  O   UNL     1      -9.260  12.143  63.442  1.00  0.00    -0.630 OA 
HETATM   30  H   UNL     1      -8.843  12.809  62.907  1.00  0.00     0.000 HD 
ENDBRANCH  27  28
ENDBRANCH  22  27
ENDBRANCH  12  22
BRANCH   7  31
HETATM   31  N   UNL     1      -7.505   8.471  65.879  1.00  0.00    -0.076 NA 
HETATM   32  C   UNL     1      -6.131   8.572  66.358  1.00  0.00    -0.056 C  
HETATM   33  C   UNL     1      -7.657   8.315  64.431  1.00  0.00    -0.113 C  
HETATM   34  C   UNL     1      -5.384   7.299  65.960  1.00  0.00    -0.024 C  
HETATM   35  C   UNL     1      -6.938   7.039  63.993  1.00  0.00    -0.056 C  
HETATM   36  C   UNL     1      -5.483   7.029  64.460  1.00  0.00    -0.032 C  
ENDBRANCH   7  31
ENDBRANCH   5   6
BRANCH   5  37
HETATM   37  C   UNL     1      -6.925   6.465  71.138  1.00  0.00    -0.068 C  
BRANCH  37  38
HETATM   38  C   UNL     1      -7.015   7.744  71.995  1.00  0.00    -0.067 C  
HETATM   39  O   UNL     1      -6.079   8.738  71.579  1.00  0.00    -0.048 OA 
HETATM   40  H   UNL     1      -6.134   9.526  72.107  1.00  0.00     0.000 HD 
ENDBRANCH  37  38
ENDBRANCH   5  37
ENDBRANCH   4   5
ENDBRANCH   3   4
TORSDOF 12
ENDMDL
MODEL      160
REMARK 921   NORMALIZED FREE ENERGY PREDICTED BY IDOCK:   -3.72 KCAL/MOL
REMARK 922        TOTAL FREE ENERGY PREDICTED BY IDOCK:   -7.25 KCAL/MOL
REMARK 923 INTER-LIGAND FREE ENERGY PREDICTED BY IDOCK:   -5.94 KCAL/MOL
REMARK 924 INTRA-LIGAND FREE ENERGY PREDICTED BY IDOCK:   -1.32 KCAL/MOL
REMARK 927      BINDING AFFINITY PREDICTED BY RF-SCORE:    0.00 PKD
ROOT
HETATM    1  O   UNL     1      -5.611  13.007  67.019  1.00  0.00    -0.386 OA 
HETATM    2  H   UNL     1      -5.255  13.250  66.172  1.00  0.00     0.000 HD 
HETATM    3  C   UNL     1      -6.075  14.144  67.746  1.00  0.00    -0.122 C  
ENDROOT
BRANCH   3   4
HETATM    4  C   UNL     1      -6.654  13.750  69.123  1.00  0.00    -0.112 C  
BRANCH   4   5
HETATM    5  N   UNL     1      -6.155  12.477  69.685  1.00  0.00    -0.124 NA 
BRANCH   5   6
HETATM    6  C   UNL     1      -6.957  11.373  69.453  1.00  0.00    -0.092 A  
HETATM    7  C   UNL     1      -7.796   8.137  70.916  1.00  0.00    -0.091 A  
HETATM    8  N   UNL     1      -8.660   7.115  70.701  1.00  0.00    -0.142 NA 
HETATM    9  N   UNL     1      -6.924  10.337  70.292  1.00  0.00    -0.211 NA 
HETATM   10  C   UNL     1      -7.760   9.281  70.095  1.00  0.00    -0.120 A  
HETATM   11  N   UNL     1      -7.768  11.389  68.404  1.00  0.00    -0.120 NA 
HETATM   12  C   UNL     1      -9.474   7.165  69.655  1.00  0.00    -0.152 A  
HETATM   13  C   UNL     1      -8.641   9.234  69.029  1.00  0.00    -0.134 A  
HETATM   14  C   UNL     1      -8.594  10.347  68.181  1.00  0.00    -0.125 A  
HETATM   15  N   UNL     1      -9.450   8.172  68.792  1.00  0.00    -0.147 NA 
BRANCH  14  16
HETATM   16  N   UNL     1      -9.348  10.423  67.015  1.00  0.00    -0.153 NA 
HETATM   17  C   UNL     1      -9.221  10.506  64.614  1.00  0.00    -0.274 C  
HETATM   18  C   UNL     1     -10.631  11.108  64.582  1.00  0.00    -0.386 C  
HETATM   19  C   UNL     1      -9.035   9.614  65.842  1.00  0.00    -0.167 C  
HETATM   20  C   UNL     1     -10.737  10.872  67.100  1.00  0.00    -0.270 C  
HETATM   21  C   UNL     1     -10.993  11.792  65.903  1.00  0.00    -0.354 C  
ENDBRANCH  14  16
BRANCH  12  22
HETATM   22  N   UNL     1     -10.395   6.161  69.446  1.00  0.00    -0.205 NA 
BRANCH  22  23
HETATM   23  C   UNL     1     -10.729   5.842  68.053  1.00  0.00    -0.252 C  
BRANCH  23  24
HETATM   24  C   UNL     1      -9.585   5.144  67.295  1.00  0.00    -0.142 C  
HETATM   25  O   UNL     1      -9.989   3.872  66.790  1.00  0.00    -0.349 OA 
HETATM   26  H   UNL     1      -9.284   3.441  66.322  1.00  0.00     0.000 HD 
ENDBRANCH  23  24
ENDBRANCH  22  23
BRANCH  22  27
HETATM   27  C   UNL     1     -10.625   5.155  70.486  1.00  0.00    -0.151 C  
BRANCH  27  28
HETATM   28  C   UNL     1      -9.681   3.948  70.328  1.00  0.00    -0.175 C  
HETATM   29  O   UNL     1      -8.576   4.027  71.230  1.00  0.00    -0.085 OA 
HETATM   30  H   UNL     1      -7.995   3.282  71.133  1.00  0.00     0.000 HD 
ENDBRANCH  27  28
ENDBRANCH  22  27
ENDBRANCH  12  22
BRANCH   7  31
HETATM   31  N   UNL     1      -6.991   7.967  72.042  1.00  0.00    -0.068 NA 
HETATM   32  C   UNL     1      -7.102   8.798  73.236  1.00  0.00     0.186 C  
HETATM   33  C   UNL     1      -5.688   7.330  71.838  1.00  0.00    -0.037 C  
HETATM   34  C   UNL     1      -6.829   7.924  74.461  1.00  0.00    -0.146 C  
HETATM   35  C   UNL     1      -5.385   6.431  73.036  1.00  0.00    -0.037 C  
HETATM   36  C   UNL     1      -5.490   7.199  74.353  1.00  0.00    -0.058 C  
ENDBRANCH   7  31
ENDBRANCH   5   6
BRANCH   5  37
HETATM   37  C   UNL     1      -5.444  12.544  70.969  1.00  0.00    -0.132 C  
BRANCH  37  38
HETATM   38  C   UNL     1      -5.507  13.948  71.604  1.00  0.00    -0.229 C  
HETATM   39  O   UNL     1      -5.927  13.903  72.968  1.00  0.00    -0.376 OA 
HETATM   40  H   UNL     1      -5.966  14.768  73.359  1.00  0.00     0.000 HD 
ENDBRANCH  37  38
ENDBRANCH   5  37
ENDBRANCH   4   5
ENDBRANCH   3   4
TORSDOF 12
ENDMDL
MODEL      161
REMARK 921   NORMALIZED FREE ENERGY PREDICTED BY IDOCK:   -3.71 KCAL/MOL
REMARK 922        TOTAL FREE ENERGY PREDICTED BY IDOCK:   -7.24 KCAL/MOL
REMARK 923 INTER-LIGAND FREE ENERGY PREDICTED BY IDOCK:   -6.97 KCAL/MOL
REMARK 924 INTRA-LIGAND FREE ENERGY PREDICTED BY IDOCK:   -0.27 KCAL/MOL
REMARK 927      BINDING AFFINITY PREDICTED BY RF-SCORE:    0.00 PKD
ROOT
HETATM    1  O   UNL     1     -13.356  10.021  72.431  1.00  0.00    -0.589 OA 
HETATM    2  H   UNL     1     -14.279   9.885  72.609  1.00  0.00     0.000 HD 
HETATM    3  C   UNL     1     -13.130  10.435  71.084  1.00  0.00    -0.383 C  
ENDROOT
BRANCH   3   4
HETATM    4  C   UNL     1     -11.628  10.656  70.794  1.00  0.00    -0.292 C  
BRANCH   4   5
HETATM    5  N   UNL     1     -11.259  10.741  69.365  1.00  0.00    -0.253 NA 
BRANCH   5   6
HETATM    6  C   UNL     1     -10.524   9.675  68.879  1.00  0.00    -0.215 A  
HETATM    7  C   UNL     1      -9.174   6.457  69.947  1.00  0.00    -0.152 A  
HETATM    8  N   UNL     1      -8.528   5.394  69.408  1.00  0.00    -0.099 NA 
HETATM    9  N   UNL     1     -10.219   8.654  69.681  1.00  0.00    -0.203 NA 
HETATM   10  C   UNL     1      -9.550   7.578  69.182  1.00  0.00    -0.157 A  
HETATM   11  N   UNL     1     -10.162   9.684  67.603  1.00  0.00    -0.201 NA 
HETATM   12  C   UNL     1      -8.195   5.421  68.124  1.00  0.00    -0.099 A  
HETATM   13  C   UNL     1      -9.151   7.514  67.859  1.00  0.00    -0.130 A  
HETATM   14  C   UNL     1      -9.486   8.637  67.090  1.00  0.00    -0.160 A  
HETATM   15  N   UNL     1      -8.447   6.471  67.354  1.00  0.00    -0.119 NA 
BRANCH  14  16
HETATM   16  N   UNL     1      -9.085   8.775  65.767  1.00  0.00    -0.212 NA 
HETATM   17  C   UNL     1      -7.413   8.134  64.160  1.00  0.00    -0.106 C  
HETATM   18  C   UNL     1      -7.805   9.342  63.301  1.00  0.00    -0.133 C  
HETATM   19  C   UNL     1      -8.600   7.641  64.987  1.00  0.00     0.068 C  
HETATM   20  C   UNL     1      -9.627   9.879  64.975  1.00  0.00    -0.297 C  
HETATM   21  C   UNL     1      -8.481  10.439  64.129  1.00  0.00    -0.163 C  
ENDBRANCH  14  16
BRANCH  12  22
HETATM   22  N   UNL     1      -7.584   4.330  67.544  1.00  0.00    -0.073 NA 
BRANCH  22  23
HETATM   23  C   UNL     1      -6.217   4.023  67.981  1.00  0.00    -0.036 C  
BRANCH  23  24
HETATM   24  C   UNL     1      -6.149   2.904  69.036  1.00  0.00    -0.025 C  
HETATM   25  O   UNL     1      -7.390   2.753  69.723  1.00  0.00    -0.043 OA 
HETATM   26  H   UNL     1      -7.348   2.062  70.375  1.00  0.00     0.000 HD 
ENDBRANCH  23  24
ENDBRANCH  22  23
BRANCH  22  27
HETATM   27  C   UNL     1      -8.400   3.272  66.944  1.00  0.00    -0.097 C  
BRANCH  27  28
HETATM   28  C   UNL     1      -8.740   3.582  65.474  1.00  0.00    -0.122 C  
HETATM   29  O   UNL     1      -9.985   2.994  65.090  1.00  0.00    -0.375 OA 
HETATM   30  H   UNL     1     -10.194   3.184  64.184  1.00  0.00     0.000 HD 
ENDBRANCH  27  28
ENDBRANCH  22  27
ENDBRANCH  12  22
BRANCH   7  31
HETATM   31  N   UNL     1      -9.465   6.312  71.302  1.00  0.00    -0.160 NA 
HETATM   32  C   UNL     1      -8.970   7.224  72.327  1.00  0.00    -0.131 C  
HETATM   33  C   UNL     1      -9.805   4.966  71.769  1.00  0.00    -0.180 C  
HETATM   34  C   UNL     1     -10.048   7.377  73.401  1.00  0.00    -0.389 C  
HETATM   35  C   UNL     1     -10.895   5.073  72.834  1.00  0.00    -0.322 C  
HETATM   36  C   UNL     1     -10.489   6.025  73.958  1.00  0.00    -0.272 C  
ENDBRANCH   7  31
ENDBRANCH   5   6
BRANCH   5  37
HETATM   37  C   UNL     1     -10.960  12.075  68.829  1.00  0.00    -0.239 C  
BRANCH  37  38
HETATM   38  C   UNL     1     -11.850  12.439  67.624  1.00  0.00    -0.295 C  
HETATM   39  O   UNL     1     -11.462  13.673  67.020  1.00  0.00    -0.314 OA 
HETATM   40  H   UNL     1     -12.010  13.896  66.277  1.00  0.00     0.000 HD 
ENDBRANCH  37  38
ENDBRANCH   5  37
ENDBRANCH   4   5
ENDBRANCH   3   4
TORSDOF 12
ENDMDL
MODEL      162
REMARK 921   NORMALIZED FREE ENERGY PREDICTED BY IDOCK:   -3.70 KCAL/MOL
REMARK 922        TOTAL FREE ENERGY PREDICTED BY IDOCK:   -7.22 KCAL/MOL
REMARK 923 INTER-LIGAND FREE ENERGY PREDICTED BY IDOCK:   -5.36 KCAL/MOL
REMARK 924 INTRA-LIGAND FREE ENERGY PREDICTED BY IDOCK:   -1.86 KCAL/MOL
REMARK 927      BINDING AFFINITY PREDICTED BY RF-SCORE:    0.00 PKD
ROOT
HETATM    1  O   UNL     1      -7.085  14.323  70.627  1.00  0.00    -0.250 OA 
HETATM    2  H   UNL     1      -7.123  15.216  70.948  1.00  0.00     0.000 HD 
HETATM    3  C   UNL     1      -5.810  13.726  70.864  1.00  0.00    -0.187 C  
ENDROOT
BRANCH   3   4
HETATM    4  C   UNL     1      -5.748  12.273  70.341  1.00  0.00    -0.169 C  
BRANCH   4   5
HETATM    5  N   UNL     1      -6.658  11.959  69.219  1.00  0.00    -0.104 NA 
BRANCH   5   6
HETATM    6  C   UNL     1      -7.192  10.683  69.230  1.00  0.00    -0.113 A  
HETATM    7  C   UNL     1      -7.652   7.798  67.043  1.00  0.00    -0.100 A  
HETATM    8  N   UNL     1      -8.106   6.523  67.121  1.00  0.00    -0.112 NA 
HETATM    9  N   UNL     1      -7.162   9.938  68.124  1.00  0.00    -0.078 NA 
HETATM   10  C   UNL     1      -7.630   8.660  68.156  1.00  0.00    -0.097 A  
HETATM   11  N   UNL     1      -7.699  10.218  70.364  1.00  0.00    -0.124 NA 
HETATM   12  C   UNL     1      -8.591   6.077  68.272  1.00  0.00    -0.115 A  
HETATM   13  C   UNL     1      -8.163   8.105  69.306  1.00  0.00    -0.119 A  
HETATM   14  C   UNL     1      -8.182   8.961  70.415  1.00  0.00    -0.138 A  
HETATM   15  N   UNL     1      -8.674   6.850  69.346  1.00  0.00    -0.133 NA 
BRANCH  14  16
HETATM   16  N   UNL     1      -8.762   8.593  71.624  1.00  0.00    -0.194 NA 
HETATM   17  C   UNL     1      -8.563   7.112  73.510  1.00  0.00    -0.168 C  
HETATM   18  C   UNL     1     -10.049   7.331  73.812  1.00  0.00    -0.375 C  
HETATM   19  C   UNL     1      -7.959   8.332  72.815  1.00  0.00    -0.137 C  
HETATM   20  C   UNL     1     -10.148   8.975  71.889  1.00  0.00    -0.253 C  
HETATM   21  C   UNL     1     -10.827   7.784  72.573  1.00  0.00    -0.386 C  
ENDBRANCH  14  16
BRANCH  12  22
HETATM   22  N   UNL     1      -9.010   4.769  68.386  1.00  0.00    -0.107 NA 
BRANCH  22  23
HETATM   23  C   UNL     1      -8.163   3.742  67.769  1.00  0.00    -0.089 C  
BRANCH  23  24
HETATM   24  C   UNL     1      -8.799   3.090  66.527  1.00  0.00    -0.146 C  
HETATM   25  O   UNL     1      -9.498   1.892  66.863  1.00  0.00    -0.366 OA 
HETATM   26  H   UNL     1      -9.890   1.489  66.097  1.00  0.00     0.000 HD 
ENDBRANCH  23  24
ENDBRANCH  22  23
BRANCH  22  27
HETATM   27  C   UNL     1      -9.926   4.390  69.464  1.00  0.00    -0.117 C  
BRANCH  27  28
HETATM   28  C   UNL     1      -9.216   3.559  70.549  1.00  0.00    -0.143 C  
HETATM   29  O   UNL     1      -9.888   3.656  71.806  1.00  0.00    -0.161 OA 
HETATM   30  H   UNL     1      -9.450   3.143  72.475  1.00  0.00     0.000 HD 
ENDBRANCH  27  28
ENDBRANCH  22  27
ENDBRANCH  12  22
BRANCH   7  31
HETATM   31  N   UNL     1      -7.174   8.150  65.782  1.00  0.00    -0.067 NA 
HETATM   32  C   UNL     1      -5.757   8.341  65.491  1.00  0.00    -0.044 C  
HETATM   33  C   UNL     1      -8.099   8.853  64.891  1.00  0.00    -0.144 C  
HETATM   34  C   UNL     1      -5.483   7.845  64.070  1.00  0.00    -0.045 C  
HETATM   35  C   UNL     1      -7.870   8.370  63.459  1.00  0.00    -0.152 C  
HETATM   36  C   UNL     1      -6.404   8.509  63.050  1.00  0.00    -0.087 C  
ENDBRANCH   7  31
ENDBRANCH   5   6
BRANCH   5  37
HETATM   37  C   UNL     1      -6.342  12.554  67.914  1.00  0.00    -0.103 C  
BRANCH  37  38
HETATM   38  C   UNL     1      -7.520  13.365  67.336  1.00  0.00    -0.123 C  
HETATM   39  O   UNL     1      -7.728  14.589  68.039  1.00  0.00    -0.113 OA 
HETATM   40  H   UNL     1      -8.453  15.089  67.683  1.00  0.00     0.000 HD 
ENDBRANCH  37  38
ENDBRANCH   5  37
ENDBRANCH   4   5
ENDBRANCH   3   4
TORSDOF 12
ENDMDL
MODEL      163
REMARK 921   NORMALIZED FREE ENERGY PREDICTED BY IDOCK:   -3.70 KCAL/MOL
REMARK 922        TOTAL FREE ENERGY PREDICTED BY IDOCK:   -7.21 KCAL/MOL
REMARK 923 INTER-LIGAND FREE ENERGY PREDICTED BY IDOCK:   -7.15 KCAL/MOL
REMARK 924 INTRA-LIGAND FREE ENERGY PREDICTED BY IDOCK:   -0.06 KCAL/MOL
REMARK 927      BINDING AFFINITY PREDICTED BY RF-SCORE:    0.00 PKD
ROOT
HETATM    1  O   UNL     1     -11.125  19.821  66.874  1.00  0.00    -0.365 OA 
HETATM    2  H   UNL     1     -11.248  20.760  66.940  1.00  0.00     0.000 HD 
HETATM    3  C   UNL     1     -10.689  19.431  65.572  1.00  0.00    -0.157 C  
ENDROOT
BRANCH   3   4
HETATM    4  C   UNL     1     -10.488  17.903  65.466  1.00  0.00     0.004 C  
BRANCH   4   5
HETATM    5  N   UNL     1      -9.312  17.362  66.180  1.00  0.00    -0.464 NA 
BRANCH   5   6
HETATM    6  C   UNL     1      -9.247  15.982  66.252  1.00  0.00    -0.333 A  
HETATM    7  C   UNL     1      -7.552  13.329  68.098  1.00  0.00    -0.141 A  
HETATM    8  N   UNL     1      -7.584  11.978  68.199  1.00  0.00    -0.111 NA 
HETATM    9  N   UNL     1      -8.415  15.397  67.114  1.00  0.00    -0.197 NA 
HETATM   10  C   UNL     1      -8.400  14.041  67.227  1.00  0.00    -0.194 A  
HETATM   11  N   UNL     1     -10.049  15.268  65.472  1.00  0.00    -0.364 NA 
HETATM   12  C   UNL     1      -8.408  11.289  67.420  1.00  0.00    -0.137 A  
HETATM   13  C   UNL     1      -9.215  13.234  66.454  1.00  0.00    -0.119 A  
HETATM   14  C   UNL     1     -10.040  13.923  65.555  1.00  0.00    -0.298 A  
HETATM   15  N   UNL     1      -9.184  11.880  66.521  1.00  0.00    -0.211 NA 
BRANCH  14  16
HETATM   16  N   UNL     1     -10.857  13.263  64.644  1.00  0.00    -0.359 NA 
HETATM   17  C   UNL     1     -13.077  12.412  64.277  1.00  0.00    -0.102 C  
HETATM   18  C   UNL     1     -12.519  11.486  63.190  1.00  0.00     0.046 C  
HETATM   19  C   UNL     1     -12.234  13.681  64.401  1.00  0.00    -0.390 C  
HETATM   20  C   UNL     1     -10.237  12.520  63.547  1.00  0.00    -0.193 C  
HETATM   21  C   UNL     1     -11.023  11.218  63.377  1.00  0.00    -0.257 C  
ENDBRANCH  14  16
BRANCH  12  22
HETATM   22  N   UNL     1      -8.492   9.919  67.542  1.00  0.00    -0.115 NA 
BRANCH  22  23
HETATM   23  C   UNL     1      -7.681   9.117  66.618  1.00  0.00    -0.097 C  
BRANCH  23  24
HETATM   24  C   UNL     1      -8.483   8.553  65.431  1.00  0.00    -0.173 C  
HETATM   25  O   UNL     1      -8.795   9.568  64.478  1.00  0.00    -0.196 OA 
HETATM   26  H   UNL     1      -9.290   9.220  63.746  1.00  0.00     0.000 HD 
ENDBRANCH  23  24
ENDBRANCH  22  23
BRANCH  22  27
HETATM   27  C   UNL     1      -8.937   9.326  68.805  1.00  0.00    -0.132 C  
BRANCH  27  28
HETATM   28  C   UNL     1     -10.121  10.102  69.412  1.00  0.00    -0.231 C  
HETATM   29  O   UNL     1     -11.268  10.054  68.562  1.00  0.00    -0.426 OA 
HETATM   30  H   UNL     1     -11.998  10.533  68.937  1.00  0.00     0.000 HD 
ENDBRANCH  27  28
ENDBRANCH  22  27
ENDBRANCH  12  22
BRANCH   7  31
HETATM   31  N   UNL     1      -6.645  13.938  68.964  1.00  0.00    -0.102 NA 
HETATM   32  C   UNL     1      -5.838  15.094  68.590  1.00  0.00    -0.089 C  
HETATM   33  C   UNL     1      -6.099  13.113  70.043  1.00  0.00    -0.113 C  
HETATM   34  C   UNL     1      -5.686  15.996  69.816  1.00  0.00    -0.148 C  
HETATM   35  C   UNL     1      -5.949  13.974  71.297  1.00  0.00    -0.146 C  
HETATM   36  C   UNL     1      -5.129  15.233  71.015  1.00  0.00    -0.147 C  
ENDBRANCH   7  31
ENDBRANCH   5   6
BRANCH   5  37
HETATM   37  C   UNL     1      -8.817  18.128  67.331  1.00  0.00    -0.256 C  
BRANCH  37  38
HETATM   38  C   UNL     1      -7.281  18.071  67.459  1.00  0.00    -0.194 C  
HETATM   39  O   UNL     1      -6.774  19.096  68.313  1.00  0.00    -0.238 OA 
HETATM   40  H   UNL     1      -5.828  19.061  68.391  1.00  0.00     0.000 HD 
ENDBRANCH  37  38
ENDBRANCH   5  37
ENDBRANCH   4   5
ENDBRANCH   3   4
TORSDOF 12
ENDMDL
MODEL      164
REMARK 921   NORMALIZED FREE ENERGY PREDICTED BY IDOCK:   -3.69 KCAL/MOL
REMARK 922        TOTAL FREE ENERGY PREDICTED BY IDOCK:   -7.20 KCAL/MOL
REMARK 923 INTER-LIGAND FREE ENERGY PREDICTED BY IDOCK:   -5.97 KCAL/MOL
REMARK 924 INTRA-LIGAND FREE ENERGY PREDICTED BY IDOCK:   -1.23 KCAL/MOL
REMARK 927      BINDING AFFINITY PREDICTED BY RF-SCORE:    0.00 PKD
ROOT
HETATM    1  O   UNL     1     -12.381  14.800  70.912  1.00  0.00    -0.277 OA 
HETATM    2  H   UNL     1     -13.259  14.448  70.818  1.00  0.00     0.000 HD 
HETATM    3  C   UNL     1     -11.738  14.971  69.650  1.00  0.00    -0.321 C  
ENDROOT
BRANCH   3   4
HETATM    4  C   UNL     1     -10.311  15.544  69.803  1.00  0.00    -0.309 C  
BRANCH   4   5
HETATM    5  N   UNL     1      -9.507  15.595  68.564  1.00  0.00    -0.195 NA 
BRANCH   5   6
HETATM    6  C   UNL     1      -9.340  14.383  67.917  1.00  0.00    -0.203 A  
HETATM    7  C   UNL     1      -7.429  11.286  68.175  1.00  0.00    -0.091 A  
HETATM    8  N   UNL     1      -7.359  10.077  67.563  1.00  0.00    -0.089 NA 
HETATM    9  N   UNL     1      -8.455  13.498  68.376  1.00  0.00    -0.163 NA 
HETATM   10  C   UNL     1      -8.338  12.283  67.774  1.00  0.00    -0.162 A  
HETATM   11  N   UNL     1     -10.098  14.120  66.860  1.00  0.00    -0.254 NA 
HETATM   12  C   UNL     1      -8.142   9.833  66.521  1.00  0.00    -0.116 A  
HETATM   13  C   UNL     1      -9.103  11.935  66.674  1.00  0.00    -0.203 A  
HETATM   14  C   UNL     1      -9.989  12.929  66.238  1.00  0.00    -0.270 A  
HETATM   15  N   UNL     1      -8.971  10.747  66.035  1.00  0.00    -0.174 NA 
BRANCH  14  16
HETATM   16  N   UNL     1     -10.768  12.779  65.096  1.00  0.00    -0.287 NA 
HETATM   17  C   UNL     1     -13.011  12.426  64.300  1.00  0.00    -0.257 C  
HETATM   18  C   UNL     1     -12.437  11.922  62.971  1.00  0.00    -0.142 C  
HETATM   19  C   UNL     1     -12.066  13.431  64.959  1.00  0.00    -0.401 C  
HETATM   20  C   UNL     1     -10.113  12.438  63.834  1.00  0.00    -0.322 C  
HETATM   21  C   UNL     1     -11.000  11.412  63.123  1.00  0.00    -0.129 C  
ENDBRANCH  14  16
BRANCH  12  22
HETATM   22  N   UNL     1      -8.124   8.594  65.916  1.00  0.00    -0.107 NA 
BRANCH  22  23
HETATM   23  C   UNL     1      -7.631   8.535  64.536  1.00  0.00    -0.115 C  
BRANCH  23  24
HETATM   24  C   UNL     1      -6.232   7.904  64.412  1.00  0.00    -0.053 C  
HETATM   25  O   UNL     1      -5.217   8.773  64.914  1.00  0.00    -0.038 OA 
HETATM   26  H   UNL     1      -4.354   8.384  64.837  1.00  0.00     0.000 HD 
ENDBRANCH  23  24
ENDBRANCH  22  23
BRANCH  22  27
HETATM   27  C   UNL     1      -8.100   7.384  66.740  1.00  0.00    -0.123 C  
BRANCH  27  28
HETATM   28  C   UNL     1      -9.280   6.449  66.412  1.00  0.00    -0.155 C  
HETATM   29  O   UNL     1     -10.488   7.185  66.209  1.00  0.00    -0.442 OA 
HETATM   30  H   UNL     1     -11.215   6.608  66.007  1.00  0.00     0.000 HD 
ENDBRANCH  27  28
ENDBRANCH  22  27
ENDBRANCH  12  22
BRANCH   7  31
HETATM   31  N   UNL     1      -6.556  11.423  69.253  1.00  0.00    -0.095 NA 
HETATM   32  C   UNL     1      -5.586  12.506  69.362  1.00  0.00    -0.080 C  
HETATM   33  C   UNL     1      -6.229  10.208  70.003  1.00  0.00    -0.076 C  
HETATM   34  C   UNL     1      -5.465  12.903  70.835  1.00  0.00    -0.185 C  
HETATM   35  C   UNL     1      -6.117  10.557  71.486  1.00  0.00     0.518 C  
HETATM   36  C   UNL     1      -5.132  11.703  71.718  1.00  0.00     0.064 C  
ENDBRANCH   7  31
ENDBRANCH   5   6
BRANCH   5  37
HETATM   37  C   UNL     1      -8.387  16.545  68.531  1.00  0.00    -0.210 C  
BRANCH  37  38
HETATM   38  C   UNL     1      -8.858  18.012  68.584  1.00  0.00    -0.262 C  
HETATM   39  O   UNL     1      -7.846  18.885  69.085  1.00  0.00    -0.243 OA 
HETATM   40  H   UNL     1      -8.136  19.789  69.117  1.00  0.00     0.000 HD 
ENDBRANCH  37  38
ENDBRANCH   5  37
ENDBRANCH   4   5
ENDBRANCH   3   4
TORSDOF 12
ENDMDL
MODEL      165
REMARK 921   NORMALIZED FREE ENERGY PREDICTED BY IDOCK:   -3.67 KCAL/MOL
REMARK 922        TOTAL FREE ENERGY PREDICTED BY IDOCK:   -7.16 KCAL/MOL
REMARK 923 INTER-LIGAND FREE ENERGY PREDICTED BY IDOCK:   -6.72 KCAL/MOL
REMARK 924 INTRA-LIGAND FREE ENERGY PREDICTED BY IDOCK:   -0.44 KCAL/MOL
REMARK 927      BINDING AFFINITY PREDICTED BY RF-SCORE:    0.00 PKD
ROOT
HETATM    1  O   UNL     1     -14.142   8.903  72.964  1.00  0.00    -1.075 OA 
HETATM    2  H   UNL     1     -14.884   9.489  73.059  1.00  0.00     0.000 HD 
HETATM    3  C   UNL     1     -14.046   8.374  71.642  1.00  0.00    -0.419 C  
ENDROOT
BRANCH   3   4
HETATM    4  C   UNL     1     -12.839   7.422  71.489  1.00  0.00    -0.375 C  
BRANCH   4   5
HETATM    5  N   UNL     1     -11.508   8.055  71.605  1.00  0.00    -0.257 NA 
BRANCH   5   6
HETATM    6  C   UNL     1     -10.730   8.010  70.462  1.00  0.00    -0.229 A  
HETATM    7  C   UNL     1      -8.966   5.622  68.341  1.00  0.00    -0.114 A  
HETATM    8  N   UNL     1      -8.283   5.610  67.169  1.00  0.00    -0.102 NA 
HETATM    9  N   UNL     1     -10.242   6.846  70.032  1.00  0.00    -0.193 NA 
HETATM   10  C   UNL     1      -9.530   6.797  68.873  1.00  0.00    -0.128 A  
HETATM   11  N   UNL     1     -10.513   9.138  69.799  1.00  0.00    -0.215 NA 
HETATM   12  C   UNL     1      -8.096   6.749  66.517  1.00  0.00    -0.108 A  
HETATM   13  C   UNL     1      -9.274   7.932  68.123  1.00  0.00    -0.136 A  
HETATM   14  C   UNL     1      -9.798   9.117  68.656  1.00  0.00    -0.164 A  
HETATM   15  N   UNL     1      -8.531   7.910  66.989  1.00  0.00    -0.122 NA 
BRANCH  14  16
HETATM   16  N   UNL     1      -9.560  10.358  68.078  1.00  0.00    -0.142 NA 
HETATM   17  C   UNL     1      -8.188  12.332  68.195  1.00  0.00    -0.168 C  
HETATM   18  C   UNL     1      -9.264  13.099  67.418  1.00  0.00    -0.213 C  
HETATM   19  C   UNL     1      -8.206  10.847  67.834  1.00  0.00    -0.114 C  
HETATM   20  C   UNL     1     -10.590  10.952  67.227  1.00  0.00    -0.251 C  
HETATM   21  C   UNL     1     -10.643  12.447  67.550  1.00  0.00    -0.240 C  
ENDBRANCH  14  16
BRANCH  12  22
HETATM   22  N   UNL     1      -7.449   6.752  65.300  1.00  0.00    -0.081 NA 
BRANCH  22  23
HETATM   23  C   UNL     1      -7.411   5.484  64.563  1.00  0.00    -0.068 C  
BRANCH  23  24
HETATM   24  C   UNL     1      -6.134   5.302  63.722  1.00  0.00    -0.022 C  
HETATM   25  O   UNL     1      -6.258   4.215  62.807  1.00  0.00    -0.017 OA 
HETATM   26  H   UNL     1      -5.470   4.102  62.288  1.00  0.00     0.000 HD 
ENDBRANCH  23  24
ENDBRANCH  22  23
BRANCH  22  27
HETATM   27  C   UNL     1      -7.275   8.011  64.571  1.00  0.00    -0.084 C  
BRANCH  27  28
HETATM   28  C   UNL     1      -5.936   8.688  64.917  1.00  0.00    -0.059 C  
HETATM   29  O   UNL     1      -6.078  10.107  65.016  1.00  0.00    -0.104 OA 
HETATM   30  H   UNL     1      -5.252  10.524  65.229  1.00  0.00     0.000 HD 
ENDBRANCH  27  28
ENDBRANCH  22  27
ENDBRANCH  12  22
BRANCH   7  31
HETATM   31  N   UNL     1      -9.092   4.366  68.932  1.00  0.00    -0.114 NA 
HETATM   32  C   UNL     1      -9.534   3.182  68.205  1.00  0.00    -0.157 C  
HETATM   33  C   UNL     1      -9.307   4.331  70.381  1.00  0.00    -0.148 C  
HETATM   34  C   UNL     1      -8.775   1.969  68.746  1.00  0.00    -0.120 C  
HETATM   35  C   UNL     1      -8.547   3.141  70.965  1.00  0.00    -0.109 C  
HETATM   36  C   UNL     1      -8.922   1.838  70.260  1.00  0.00    -0.137 C  
ENDBRANCH   7  31
ENDBRANCH   5   6
BRANCH   5  37
HETATM   37  C   UNL     1     -10.823   7.942  72.899  1.00  0.00    -0.386 C  
BRANCH  37  38
HETATM   38  C   UNL     1     -10.883   6.513  73.476  1.00  0.00    -0.186 C  
HETATM   39  O   UNL     1      -9.886   5.662  72.911  1.00  0.00    -0.164 OA 
HETATM   40  H   UNL     1      -9.924   4.782  73.266  1.00  0.00     0.000 HD 
ENDBRANCH  37  38
ENDBRANCH   5  37
ENDBRANCH   4   5
ENDBRANCH   3   4
TORSDOF 12
ENDMDL
MODEL      166
REMARK 921   NORMALIZED FREE ENERGY PREDICTED BY IDOCK:   -3.64 KCAL/MOL
REMARK 922        TOTAL FREE ENERGY PREDICTED BY IDOCK:   -7.12 KCAL/MOL
REMARK 923 INTER-LIGAND FREE ENERGY PREDICTED BY IDOCK:   -6.13 KCAL/MOL
REMARK 924 INTRA-LIGAND FREE ENERGY PREDICTED BY IDOCK:   -0.99 KCAL/MOL
REMARK 927      BINDING AFFINITY PREDICTED BY RF-SCORE:    0.00 PKD
ROOT
HETATM    1  O   UNL     1      -7.428   9.400  71.178  1.00  0.00    -0.294 OA 
HETATM    2  H   UNL     1      -6.903   9.438  71.969  1.00  0.00     0.000 HD 
HETATM    3  C   UNL     1      -6.739   8.747  70.113  1.00  0.00    -0.040 C  
ENDROOT
BRANCH   3   4
HETATM    4  C   UNL     1      -7.593   8.685  68.827  1.00  0.00    -0.096 C  
BRANCH   4   5
HETATM    5  N   UNL     1      -7.143   9.553  67.719  1.00  0.00    -0.081 NA 
BRANCH   5   6
HETATM    6  C   UNL     1      -7.478  10.890  67.841  1.00  0.00    -0.090 A  
HETATM    7  C   UNL     1      -9.888  13.323  66.583  1.00  0.00    -0.276 A  
HETATM    8  N   UNL     1     -10.239  14.615  66.798  1.00  0.00    -0.264 NA 
HETATM    9  N   UNL     1      -8.483  11.394  67.126  1.00  0.00    -0.147 NA 
HETATM   10  C   UNL     1      -8.849  12.694  67.296  1.00  0.00    -0.196 A  
HETATM   11  N   UNL     1      -6.798  11.636  68.702  1.00  0.00    -0.073 NA 
HETATM   12  C   UNL     1      -9.555  15.334  67.678  1.00  0.00    -0.206 A  
HETATM   13  C   UNL     1      -8.193  13.529  68.183  1.00  0.00    -0.162 A  
HETATM   14  C   UNL     1      -7.133  12.930  68.876  1.00  0.00    -0.063 A  
HETATM   15  N   UNL     1      -8.515  14.837  68.336  1.00  0.00    -0.150 NA 
BRANCH  14  16
HETATM   16  N   UNL     1      -6.314  13.648  69.741  1.00  0.00    -0.117 NA 
HETATM   17  C   UNL     1      -5.925  14.197  72.051  1.00  0.00     0.141 C  
HETATM   18  C   UNL     1      -5.132  15.430  71.602  1.00  0.00    -0.100 C  
HETATM   19  C   UNL     1      -5.848  13.085  71.004  1.00  0.00     0.035 C  
HETATM   20  C   UNL     1      -5.477  14.717  69.197  1.00  0.00    -0.092 C  
HETATM   21  C   UNL     1      -5.522  15.881  70.191  1.00  0.00    -0.154 C  
ENDBRANCH  14  16
BRANCH  12  22
HETATM   22  N   UNL     1      -9.926  16.633  67.949  1.00  0.00    -0.248 NA 
BRANCH  22  23
HETATM   23  C   UNL     1      -9.056  17.696  67.432  1.00  0.00    -0.239 C  
BRANCH  23  24
HETATM   24  C   UNL     1      -9.821  18.966  67.019  1.00  0.00    -0.324 C  
HETATM   25  O   UNL     1     -10.647  18.735  65.879  1.00  0.00    -0.475 OA 
HETATM   26  H   UNL     1     -11.119  19.520  65.624  1.00  0.00     0.000 HD 
ENDBRANCH  23  24
ENDBRANCH  22  23
BRANCH  22  27
HETATM   27  C   UNL     1     -11.323  16.940  68.266  1.00  0.00     0.034 C  
BRANCH  27  28
HETATM   28  C   UNL     1     -11.772  16.263  69.574  1.00  0.00    -0.093 C  
HETATM   29  O   UNL     1     -11.034  16.752  70.696  1.00  0.00    -0.287 OA 
HETATM   30  H   UNL     1     -11.311  16.334  71.502  1.00  0.00     0.000 HD 
ENDBRANCH  27  28
ENDBRANCH  22  27
ENDBRANCH  12  22
BRANCH   7  31
HETATM   31  N   UNL     1     -10.677  12.675  65.633  1.00  0.00    -0.264 NA 
HETATM   32  C   UNL     1     -12.040  12.229  65.899  1.00  0.00    -0.186 C  
HETATM   33  C   UNL     1      -9.979  11.961  64.562  1.00  0.00    -0.228 C  
HETATM   34  C   UNL     1     -12.866  12.406  64.624  1.00  0.00    -0.252 C  
HETATM   35  C   UNL     1     -10.763  12.129  63.262  1.00  0.00    -0.373 C  
HETATM   36  C   UNL     1     -12.222  11.704  63.430  1.00  0.00    -0.319 C  
ENDBRANCH   7  31
ENDBRANCH   5   6
BRANCH   5  37
HETATM   37  C   UNL     1      -7.144   8.972  66.370  1.00  0.00    -0.080 C  
BRANCH  37  38
HETATM   38  C   UNL     1      -7.811   7.582  66.327  1.00  0.00    -0.102 C  
HETATM   39  O   UNL     1      -8.513   7.359  65.105  1.00  0.00    -0.268 OA 
HETATM   40  H   UNL     1      -8.924   6.503  65.079  1.00  0.00     0.000 HD 
ENDBRANCH  37  38
ENDBRANCH   5  37
ENDBRANCH   4   5
ENDBRANCH   3   4
TORSDOF 12
ENDMDL
MODEL      167
REMARK 921   NORMALIZED FREE ENERGY PREDICTED BY IDOCK:   -3.61 KCAL/MOL
REMARK 922        TOTAL FREE ENERGY PREDICTED BY IDOCK:   -7.06 KCAL/MOL
REMARK 923 INTER-LIGAND FREE ENERGY PREDICTED BY IDOCK:   -7.22 KCAL/MOL
REMARK 924 INTRA-LIGAND FREE ENERGY PREDICTED BY IDOCK:    0.16 KCAL/MOL
REMARK 927      BINDING AFFINITY PREDICTED BY RF-SCORE:    0.00 PKD
ROOT
HETATM    1  O   UNL     1     -12.296  11.487  63.492  1.00  0.00    -0.585 OA 
HETATM    2  H   UNL     1     -11.950  11.522  62.607  1.00  0.00     0.000 HD 
HETATM    3  C   UNL     1     -11.679  12.453  64.342  1.00  0.00    -0.366 C  
ENDROOT
BRANCH   3   4
HETATM    4  C   UNL     1     -12.242  12.396  65.780  1.00  0.00    -0.203 C  
BRANCH   4   5
HETATM    5  N   UNL     1     -11.244  12.176  66.848  1.00  0.00    -0.300 NA 
BRANCH   5   6
HETATM    6  C   UNL     1     -10.600  10.952  66.814  1.00  0.00    -0.259 A  
HETATM    7  C   UNL     1     -10.369   7.831  68.690  1.00  0.00    -0.199 A  
HETATM    8  N   UNL     1      -9.787   6.612  68.572  1.00  0.00    -0.137 NA 
HETATM    9  N   UNL     1     -10.808  10.062  67.784  1.00  0.00    -0.282 NA 
HETATM   10  C   UNL     1     -10.222   8.835  67.714  1.00  0.00    -0.228 A  
HETATM   11  N   UNL     1      -9.807  10.683  65.785  1.00  0.00    -0.227 NA 
HETATM   12  C   UNL     1      -9.013   6.363  67.524  1.00  0.00    -0.116 A  
HETATM   13  C   UNL     1      -9.391   8.481  66.665  1.00  0.00    -0.189 A  
HETATM   14  C   UNL     1      -9.204   9.481  65.702  1.00  0.00    -0.223 A  
HETATM   15  N   UNL     1      -8.764   7.281  66.599  1.00  0.00    -0.126 NA 
BRANCH  14  16
HETATM   16  N   UNL     1      -8.332   9.323  64.630  1.00  0.00    -0.151 NA 
HETATM   17  C   UNL     1      -6.309   8.240  63.907  1.00  0.00    -0.071 C  
HETATM   18  C   UNL     1      -6.172   9.287  62.795  1.00  0.00    -0.094 C  
HETATM   19  C   UNL     1      -7.777   8.021  64.275  1.00  0.00    -0.128 C  
HETATM   20  C   UNL     1      -8.373  10.294  63.537  1.00  0.00    -0.169 C  
HETATM   21  C   UNL     1      -6.925  10.578  63.126  1.00  0.00     0.002 C  
ENDBRANCH  14  16
BRANCH  12  22
HETATM   22  N   UNL     1      -8.453   5.114  67.358  1.00  0.00    -0.106 NA 
BRANCH  22  23
HETATM   23  C   UNL     1      -9.233   3.966  67.837  1.00  0.00    -0.165 C  
BRANCH  23  24
HETATM   24  C   UNL     1      -8.584   3.242  69.031  1.00  0.00    -0.076 C  
HETATM   25  O   UNL     1      -8.634   4.034  70.216  1.00  0.00    -0.067 OA 
HETATM   26  H   UNL     1      -8.234   3.587  70.953  1.00  0.00     0.000 HD 
ENDBRANCH  23  24
ENDBRANCH  22  23
BRANCH  22  27
HETATM   27  C   UNL     1      -7.426   4.907  66.335  1.00  0.00    -0.087 C  
BRANCH  27  28
HETATM   28  C   UNL     1      -6.042   5.380  66.815  1.00  0.00    -0.030 C  
HETATM   29  O   UNL     1      -6.003   6.799  66.982  1.00  0.00    -0.020 OA 
HETATM   30  H   UNL     1      -5.149   7.090  67.278  1.00  0.00     0.000 HD 
ENDBRANCH  27  28
ENDBRANCH  22  27
ENDBRANCH  12  22
BRANCH   7  31
HETATM   31  N   UNL     1     -11.153   7.973  69.834  1.00  0.00    -0.170 NA 
HETATM   32  C   UNL     1     -12.034   6.923  70.332  1.00  0.00    -0.258 C  
HETATM   33  C   UNL     1     -11.512   9.337  70.230  1.00  0.00    -0.162 C  
HETATM   34  C   UNL     1     -12.025   6.968  71.861  1.00  0.00    -0.355 C  
HETATM   35  C   UNL     1     -11.496   9.429  71.755  1.00  0.00    -0.413 C  
HETATM   36  C   UNL     1     -12.380   8.356  72.389  1.00  0.00    -0.412 C  
ENDBRANCH   7  31
ENDBRANCH   5   6
BRANCH   5  37
HETATM   37  C   UNL     1     -11.535  12.755  68.166  1.00  0.00    -0.314 C  
BRANCH  37  38
HETATM   38  C   UNL     1     -10.306  13.446  68.791  1.00  0.00    -0.152 C  
HETATM   39  O   UNL     1     -10.674  14.480  69.703  1.00  0.00    -0.381 OA 
HETATM   40  H   UNL     1      -9.917  14.905  70.087  1.00  0.00     0.000 HD 
ENDBRANCH  37  38
ENDBRANCH   5  37
ENDBRANCH   4   5
ENDBRANCH   3   4
TORSDOF 12
ENDMDL
MODEL      168
REMARK 921   NORMALIZED FREE ENERGY PREDICTED BY IDOCK:   -3.52 KCAL/MOL
REMARK 922        TOTAL FREE ENERGY PREDICTED BY IDOCK:   -6.90 KCAL/MOL
REMARK 923 INTER-LIGAND FREE ENERGY PREDICTED BY IDOCK:   -4.80 KCAL/MOL
REMARK 924 INTRA-LIGAND FREE ENERGY PREDICTED BY IDOCK:   -2.10 KCAL/MOL
REMARK 927      BINDING AFFINITY PREDICTED BY RF-SCORE:    0.00 PKD
ROOT
HETATM    1  O   UNL     1      -9.078   9.237  71.640  1.00  0.00    -0.315 OA 
HETATM    2  H   UNL     1      -9.526   8.877  72.398  1.00  0.00     0.000 HD 
HETATM    3  C   UNL     1      -7.671   9.010  71.697  1.00  0.00     0.076 C  
ENDROOT
BRANCH   3   4
HETATM    4  C   UNL     1      -6.943   9.594  70.465  1.00  0.00    -0.130 C  
BRANCH   4   5
HETATM    5  N   UNL     1      -7.778   9.778  69.259  1.00  0.00    -0.092 NA 
BRANCH   5   6
HETATM    6  C   UNL     1      -7.926   8.655  68.464  1.00  0.00    -0.116 A  
HETATM    7  C   UNL     1      -8.143   7.691  64.952  1.00  0.00    -0.128 A  
HETATM    8  N   UNL     1      -8.201   6.559  64.208  1.00  0.00    -0.047 NA 
HETATM    9  N   UNL     1      -7.984   8.779  67.138  1.00  0.00    -0.096 NA 
HETATM   10  C   UNL     1      -8.067   7.667  66.357  1.00  0.00    -0.113 A  
HETATM   11  N   UNL     1      -7.977   7.466  69.052  1.00  0.00    -0.120 NA 
HETATM   12  C   UNL     1      -8.231   5.383  64.819  1.00  0.00    -0.132 A  
HETATM   13  C   UNL     1      -8.113   6.394  66.900  1.00  0.00    -0.109 A  
HETATM   14  C   UNL     1      -8.074   6.352  68.300  1.00  0.00    -0.113 A  
HETATM   15  N   UNL     1      -8.238   5.278  66.141  1.00  0.00    -0.109 NA 
BRANCH  14  16
HETATM   16  N   UNL     1      -8.199   5.163  69.009  1.00  0.00    -0.087 NA 
HETATM   17  C   UNL     1      -7.182   3.021  69.416  1.00  0.00    -0.045 C  
HETATM   18  C   UNL     1      -8.533   2.498  69.918  1.00  0.00    -0.088 C  
HETATM   19  C   UNL     1      -7.055   4.526  69.652  1.00  0.00    -0.050 C  
HETATM   20  C   UNL     1      -9.499   4.814  69.581  1.00  0.00    -0.153 C  
HETATM   21  C   UNL     1      -9.706   3.312  69.363  1.00  0.00     0.018 C  
ENDBRANCH  14  16
BRANCH  12  22
HETATM   22  N   UNL     1      -8.238   4.219  64.081  1.00  0.00    -0.095 NA 
BRANCH  22  23
HETATM   23  C   UNL     1      -9.099   4.188  62.894  1.00  0.00    -0.120 C  
BRANCH  23  24
HETATM   24  C   UNL     1     -10.271   3.197  63.012  1.00  0.00    -0.148 C  
HETATM   25  O   UNL     1     -10.971   3.355  64.246  1.00  0.00    -0.541 OA 
HETATM   26  H   UNL     1     -11.694   2.743  64.319  1.00  0.00     0.000 HD 
ENDBRANCH  23  24
ENDBRANCH  22  23
BRANCH  22  27
HETATM   27  C   UNL     1      -7.106   3.294  64.170  1.00  0.00    -0.053 C  
BRANCH  27  28
HETATM   28  C   UNL     1      -7.433   2.077  65.055  1.00  0.00    -0.063 C  
HETATM   29  O   UNL     1      -8.599   2.306  65.848  1.00  0.00    -0.100 OA 
HETATM   30  H   UNL     1      -8.800   1.555  66.394  1.00  0.00     0.000 HD 
ENDBRANCH  27  28
ENDBRANCH  22  27
ENDBRANCH  12  22
BRANCH   7  31
HETATM   31  N   UNL     1      -8.120   8.862  64.196  1.00  0.00    -0.152 NA 
HETATM   32  C   UNL     1      -6.887   9.495  63.741  1.00  0.00    -0.105 C  
HETATM   33  C   UNL     1      -9.278   9.752  64.311  1.00  0.00    -0.232 C  
HETATM   34  C   UNL     1      -7.134  10.099  62.358  1.00  0.00    -0.142 C  
HETATM   35  C   UNL     1      -9.571  10.363  62.942  1.00  0.00    -0.331 C  
HETATM   36  C   UNL     1      -8.333  11.044  62.358  1.00  0.00    -0.286 C  
ENDBRANCH   7  31
ENDBRANCH   5   6
BRANCH   5  37
HETATM   37  C   UNL     1      -7.705  11.082  68.587  1.00  0.00    -0.132 C  
BRANCH  37  38
HETATM   38  C   UNL     1      -9.089  11.746  68.439  1.00  0.00    -0.176 C  
HETATM   39  O   UNL     1      -9.621  11.596  67.123  1.00  0.00    -0.174 OA 
HETATM   40  H   UNL     1     -10.473  12.005  67.032  1.00  0.00     0.000 HD 
ENDBRANCH  37  38
ENDBRANCH   5  37
ENDBRANCH   4   5
ENDBRANCH   3   4
TORSDOF 12
ENDMDL
MODEL      169
REMARK 921   NORMALIZED FREE ENERGY PREDICTED BY IDOCK:   -3.46 KCAL/MOL
REMARK 922        TOTAL FREE ENERGY PREDICTED BY IDOCK:   -6.80 KCAL/MOL
REMARK 923 INTER-LIGAND FREE ENERGY PREDICTED BY IDOCK:   -6.28 KCAL/MOL
REMARK 924 INTRA-LIGAND FREE ENERGY PREDICTED BY IDOCK:   -0.51 KCAL/MOL
REMARK 927      BINDING AFFINITY PREDICTED BY RF-SCORE:    0.00 PKD
ROOT
HETATM    1  O   UNL     1      -5.299   9.643  64.780  1.00  0.00    -0.051 OA 
HETATM    2  H   UNL     1      -4.808  10.446  64.651  1.00  0.00     0.000 HD 
HETATM    3  C   UNL     1      -6.386   9.531  63.863  1.00  0.00    -0.099 C  
ENDROOT
BRANCH   3   4
HETATM    4  C   UNL     1      -7.185   8.226  64.073  1.00  0.00    -0.090 C  
BRANCH   4   5
HETATM    5  N   UNL     1      -8.138   8.235  65.204  1.00  0.00    -0.134 NA 
BRANCH   5   6
HETATM    6  C   UNL     1      -8.452   9.486  65.703  1.00  0.00    -0.133 A  
HETATM    7  C   UNL     1      -7.710  11.663  68.536  1.00  0.00    -0.134 A  
HETATM    8  N   UNL     1      -7.974  12.929  68.945  1.00  0.00     0.091 NA 
HETATM    9  N   UNL     1      -7.936   9.890  66.864  1.00  0.00    -0.109 NA 
HETATM   10  C   UNL     1      -8.198  11.146  67.320  1.00  0.00    -0.136 A  
HETATM   11  N   UNL     1      -9.245  10.273  64.986  1.00  0.00    -0.193 NA 
HETATM   12  C   UNL     1      -8.755  13.700  68.200  1.00  0.00    -0.177 A  
HETATM   13  C   UNL     1      -9.007  12.024  66.621  1.00  0.00    -0.204 A  
HETATM   14  C   UNL     1      -9.530  11.515  65.426  1.00  0.00    -0.198 A  
HETATM   15  N   UNL     1      -9.313  13.263  67.080  1.00  0.00    -0.235 NA 
BRANCH  14  16
HETATM   16  N   UNL     1     -10.430  12.232  64.646  1.00  0.00    -0.290 NA 
HETATM   17  C   UNL     1     -11.832  14.186  64.587  1.00  0.00    -0.443 C  
HETATM   18  C   UNL     1     -12.657  13.535  63.471  1.00  0.00    -0.063 C  
HETATM   19  C   UNL     1     -10.388  13.688  64.563  1.00  0.00    -0.330 C  
HETATM   20  C   UNL     1     -11.063  11.569  63.506  1.00  0.00    -0.348 C  
HETATM   21  C   UNL     1     -12.529  12.009  63.478  1.00  0.00    -0.654 C  
ENDBRANCH  14  16
BRANCH  12  22
HETATM   22  N   UNL     1      -8.994  15.006  68.571  1.00  0.00    -0.179 NA 
BRANCH  22  23
HETATM   23  C   UNL     1      -7.958  15.992  68.243  1.00  0.00    -0.145 C  
BRANCH  23  24
HETATM   24  C   UNL     1      -7.385  15.828  66.824  1.00  0.00    -0.041 C  
HETATM   25  O   UNL     1      -8.052  16.671  65.886  1.00  0.00    -0.359 OA 
HETATM   26  H   UNL     1      -7.698  16.569  65.010  1.00  0.00     0.000 HD 
ENDBRANCH  23  24
ENDBRANCH  22  23
BRANCH  22  27
HETATM   27  C   UNL     1     -10.369  15.458  68.797  1.00  0.00    -0.229 C  
BRANCH  27  28
HETATM   28  C   UNL     1     -10.550  16.940  68.418  1.00  0.00    -0.365 C  
HETATM   29  O   UNL     1     -10.824  17.093  67.024  1.00  0.00    -0.200 OA 
HETATM   30  H   UNL     1     -10.936  18.007  66.790  1.00  0.00     0.000 HD 
ENDBRANCH  27  28
ENDBRANCH  22  27
ENDBRANCH  12  22
BRANCH   7  31
HETATM   31  N   UNL     1      -6.883  10.951  69.403  1.00  0.00    -0.101 NA 
HETATM   32  C   UNL     1      -5.522  11.363  69.726  1.00  0.00    -0.067 C  
HETATM   33  C   UNL     1      -7.164   9.523  69.569  1.00  0.00    -0.074 C  
HETATM   34  C   UNL     1      -5.243  11.015  71.189  1.00  0.00    -0.094 C  
HETATM   35  C   UNL     1      -6.916   9.137  71.026  1.00  0.00    -0.102 C  
HETATM   36  C   UNL     1      -5.514   9.540  71.481  1.00  0.00    -0.072 C  
ENDBRANCH   7  31
ENDBRANCH   5   6
BRANCH   5  37
HETATM   37  C   UNL     1      -8.054   7.123  66.159  1.00  0.00    -0.121 C  
BRANCH  37  38
HETATM   38  C   UNL     1      -9.270   6.178  66.072  1.00  0.00    -0.095 C  
HETATM   39  O   UNL     1      -8.987   4.885  66.607  1.00  0.00    -0.111 OA 
HETATM   40  H   UNL     1      -9.736   4.304  66.553  1.00  0.00     0.000 HD 
ENDBRANCH  37  38
ENDBRANCH   5  37
ENDBRANCH   4   5
ENDBRANCH   3   4
TORSDOF 12
ENDMDL
MODEL      170
REMARK 921   NORMALIZED FREE ENERGY PREDICTED BY IDOCK:   -3.45 KCAL/MOL
REMARK 922        TOTAL FREE ENERGY PREDICTED BY IDOCK:   -6.79 KCAL/MOL
REMARK 923 INTER-LIGAND FREE ENERGY PREDICTED BY IDOCK:   -5.03 KCAL/MOL
REMARK 924 INTRA-LIGAND FREE ENERGY PREDICTED BY IDOCK:   -1.77 KCAL/MOL
REMARK 927      BINDING AFFINITY PREDICTED BY RF-SCORE:    0.00 PKD
ROOT
HETATM    1  O   UNL     1      -8.691   8.522  73.008  1.00  0.00    -0.343 OA 
HETATM    2  H   UNL     1      -8.925   8.956  73.821  1.00  0.00     0.000 HD 
HETATM    3  C   UNL     1      -9.582   8.866  71.947  1.00  0.00    -0.256 C  
ENDROOT
BRANCH   3   4
HETATM    4  C   UNL     1      -9.202   8.160  70.626  1.00  0.00    -0.154 C  
BRANCH   4   5
HETATM    5  N   UNL     1      -8.632   9.031  69.577  1.00  0.00    -0.133 NA 
BRANCH   5   6
HETATM    6  C   UNL     1      -8.525   8.457  68.324  1.00  0.00    -0.135 A  
HETATM    7  C   UNL     1      -8.142   5.192  66.739  1.00  0.00    -0.108 A  
HETATM    8  N   UNL     1      -8.130   4.660  65.492  1.00  0.00    -0.105 NA 
HETATM    9  N   UNL     1      -8.362   7.139  68.206  1.00  0.00    -0.124 NA 
HETATM   10  C   UNL     1      -8.321   6.569  66.970  1.00  0.00    -0.113 A  
HETATM   11  N   UNL     1      -8.619   9.240  67.257  1.00  0.00    -0.124 NA 
HETATM   12  C   UNL     1      -8.245   5.464  64.444  1.00  0.00    -0.133 A  
HETATM   13  C   UNL     1      -8.424   7.323  65.814  1.00  0.00    -0.143 A  
HETATM   14  C   UNL     1      -8.566   8.701  66.023  1.00  0.00    -0.155 A  
HETATM   15  N   UNL     1      -8.342   6.780  64.574  1.00  0.00     0.005 NA 
BRANCH  14  16
HETATM   16  N   UNL     1      -8.595   9.611  64.973  1.00  0.00    -0.151 NA 
HETATM   17  C   UNL     1     -10.005  10.608  63.297  1.00  0.00    -0.314 C  
HETATM   18  C   UNL     1      -8.753  10.985  62.498  1.00  0.00    -0.332 C  
HETATM   19  C   UNL     1      -9.702  10.545  64.794  1.00  0.00    -0.305 C  
HETATM   20  C   UNL     1      -7.333  10.028  64.363  1.00  0.00    -0.138 C  
HETATM   21  C   UNL     1      -7.557  10.095  62.850  1.00  0.00    -0.142 C  
ENDBRANCH  14  16
BRANCH  12  22
HETATM   22  N   UNL     1      -8.287   4.939  63.170  1.00  0.00    -0.108 NA 
BRANCH  22  23
HETATM   23  C   UNL     1      -7.000   4.672  62.518  1.00  0.00    -0.031 C  
BRANCH  23  24
HETATM   24  C   UNL     1      -6.169   3.586  63.225  1.00  0.00    -0.014 C  
HETATM   25  O   UNL     1      -5.152   4.156  64.049  1.00  0.00    -0.008 OA 
HETATM   26  H   UNL     1      -4.639   3.486  64.485  1.00  0.00     0.000 HD 
ENDBRANCH  23  24
ENDBRANCH  22  23
BRANCH  22  27
HETATM   27  C   UNL     1      -9.483   4.226  62.715  1.00  0.00    -0.131 C  
BRANCH  27  28
HETATM   28  C   UNL     1      -9.436   2.735  63.097  1.00  0.00    -0.094 C  
HETATM   29  O   UNL     1     -10.063   2.499  64.359  1.00  0.00    -0.331 OA 
HETATM   30  H   UNL     1     -10.034   1.579  64.594  1.00  0.00     0.000 HD 
ENDBRANCH  27  28
ENDBRANCH  22  27
ENDBRANCH  12  22
BRANCH   7  31
HETATM   31  N   UNL     1      -8.009   4.248  67.756  1.00  0.00    -0.087 NA 
HETATM   32  C   UNL     1      -6.758   3.557  68.045  1.00  0.00    -0.046 C  
HETATM   33  C   UNL     1      -9.225   3.550  68.180  1.00  0.00    -0.176 C  
HETATM   34  C   UNL     1      -6.656   3.348  69.557  1.00  0.00    -0.034 C  
HETATM   35  C   UNL     1      -9.173   3.338  69.692  1.00  0.00    -0.221 C  
HETATM   36  C   UNL     1      -7.884   2.632  70.113  1.00  0.00    -0.048 C  
ENDBRANCH   7  31
ENDBRANCH   5   6
BRANCH   5  37
HETATM   37  C   UNL     1      -7.580   9.972  69.987  1.00  0.00    -0.172 C  
BRANCH  37  38
HETATM   38  C   UNL     1      -6.270   9.258  70.375  1.00  0.00    -0.052 C  
HETATM   39  O   UNL     1      -5.449  10.062  71.223  1.00  0.00    -0.073 OA 
HETATM   40  H   UNL     1      -4.642   9.622  71.462  1.00  0.00     0.000 HD 
ENDBRANCH  37  38
ENDBRANCH   5  37
ENDBRANCH   4   5
ENDBRANCH   3   4
TORSDOF 12
ENDMDL
MODEL      171
REMARK 921   NORMALIZED FREE ENERGY PREDICTED BY IDOCK:   -3.43 KCAL/MOL
REMARK 922        TOTAL FREE ENERGY PREDICTED BY IDOCK:   -6.76 KCAL/MOL
REMARK 923 INTER-LIGAND FREE ENERGY PREDICTED BY IDOCK:   -6.00 KCAL/MOL
REMARK 924 INTRA-LIGAND FREE ENERGY PREDICTED BY IDOCK:   -0.75 KCAL/MOL
REMARK 927      BINDING AFFINITY PREDICTED BY RF-SCORE:    0.00 PKD
ROOT
HETATM    1  O   UNL     1      -8.615   8.387  74.441  1.00  0.00    -0.333 OA 
HETATM    2  H   UNL     1      -8.448   9.258  74.782  1.00  0.00     0.000 HD 
HETATM    3  C   UNL     1      -7.615   7.982  73.507  1.00  0.00    -0.154 C  
ENDROOT
BRANCH   3   4
HETATM    4  C   UNL     1      -7.886   6.565  72.952  1.00  0.00    -0.101 C  
BRANCH   4   5
HETATM    5  N   UNL     1      -7.729   6.411  71.491  1.00  0.00    -0.098 NA 
BRANCH   5   6
HETATM    6  C   UNL     1      -8.135   7.496  70.734  1.00  0.00    -0.108 A  
HETATM    7  C   UNL     1     -11.042   9.638  70.206  1.00  0.00    -0.276 A  
HETATM    8  N   UNL     1     -11.372  10.755  69.512  1.00  0.00    -0.264 NA 
HETATM    9  N   UNL     1      -9.377   7.965  70.855  1.00  0.00    -0.152 NA 
HETATM   10  C   UNL     1      -9.754   9.071  70.156  1.00  0.00    -0.188 A  
HETATM   11  N   UNL     1      -7.256   8.066  69.920  1.00  0.00    -0.060 NA 
HETATM   12  C   UNL     1     -10.468  11.316  68.720  1.00  0.00    -0.208 A  
HETATM   13  C   UNL     1      -8.887   9.724  69.297  1.00  0.00    -0.169 A  
HETATM   14  C   UNL     1      -7.611   9.153  69.207  1.00  0.00    -0.079 A  
HETATM   15  N   UNL     1      -9.256  10.800  68.560  1.00  0.00    -0.167 NA 
BRANCH  14  16
HETATM   16  N   UNL     1      -6.647   9.629  68.326  1.00  0.00    -0.057 NA 
HETATM   17  C   UNL     1      -5.585  11.620  67.490  1.00  0.00    -0.070 C  
HETATM   18  C   UNL     1      -5.144  10.838  66.248  1.00  0.00    -0.085 C  
HETATM   19  C   UNL     1      -5.723  10.696  68.699  1.00  0.00    -0.040 C  
HETATM   20  C   UNL     1      -6.176   8.755  67.252  1.00  0.00    -0.056 C  
HETATM   21  C   UNL     1      -6.032   9.616  65.994  1.00  0.00    -0.063 C  
ENDBRANCH  14  16
BRANCH  12  22
HETATM   22  N   UNL     1     -10.765  12.480  68.045  1.00  0.00    -0.214 NA 
BRANCH  22  23
HETATM   23  C   UNL     1     -12.003  12.495  67.257  1.00  0.00    -0.216 C  
BRANCH  23  24
HETATM   24  C   UNL     1     -11.911  11.674  65.958  1.00  0.00     0.286 C  
HETATM   25  O   UNL     1     -12.284  12.448  64.819  1.00  0.00    -0.429 OA 
HETATM   26  H   UNL     1     -12.228  11.942  64.017  1.00  0.00     0.000 HD 
ENDBRANCH  23  24
ENDBRANCH  22  23
BRANCH  22  27
HETATM   27  C   UNL     1     -10.184  13.748  68.490  1.00  0.00    -0.235 C  
BRANCH  27  28
HETATM   28  C   UNL     1     -10.823  14.951  67.771  1.00  0.00    -0.286 C  
HETATM   29  O   UNL     1     -10.120  15.275  66.570  1.00  0.00    -0.253 OA 
HETATM   30  H   UNL     1     -10.515  16.017  66.127  1.00  0.00     0.000 HD 
ENDBRANCH  27  28
ENDBRANCH  22  27
ENDBRANCH  12  22
BRANCH   7  31
HETATM   31  N   UNL     1     -12.076   9.141  70.998  1.00  0.00    -0.285 NA 
HETATM   32  C   UNL     1     -12.963   9.994  71.779  1.00  0.00    -0.458 C  
HETATM   33  C   UNL     1     -11.942   7.764  71.480  1.00  0.00    -0.300 C  
HETATM   34  C   UNL     1     -14.362   9.375  71.772  1.00  0.00     0.001 C  
HETATM   35  C   UNL     1     -13.319   7.101  71.470  1.00  0.00    -0.413 C  
HETATM   36  C   UNL     1     -14.342   7.925  72.251  1.00  0.00    -0.320 C  
ENDBRANCH   7  31
ENDBRANCH   5   6
BRANCH   5  37
HETATM   37  C   UNL     1      -7.946   5.071  70.931  1.00  0.00    -0.092 C  
BRANCH  37  38
HETATM   38  C   UNL     1      -6.866   4.064  71.374  1.00  0.00    -0.031 C  
HETATM   39  O   UNL     1      -6.733   2.978  70.459  1.00  0.00    -0.032 OA 
HETATM   40  H   UNL     1      -6.067   2.358  70.732  1.00  0.00     0.000 HD 
ENDBRANCH  37  38
ENDBRANCH   5  37
ENDBRANCH   4   5
ENDBRANCH   3   4
TORSDOF 12
ENDMDL
MODEL      172
REMARK 921   NORMALIZED FREE ENERGY PREDICTED BY IDOCK:   -3.32 KCAL/MOL
REMARK 922        TOTAL FREE ENERGY PREDICTED BY IDOCK:   -6.57 KCAL/MOL
REMARK 923 INTER-LIGAND FREE ENERGY PREDICTED BY IDOCK:   -6.22 KCAL/MOL
REMARK 924 INTRA-LIGAND FREE ENERGY PREDICTED BY IDOCK:   -0.34 KCAL/MOL
REMARK 927      BINDING AFFINITY PREDICTED BY RF-SCORE:    0.00 PKD
ROOT
HETATM    1  O   UNL     1     -10.449  16.139  70.221  1.00  0.00    -0.218 OA 
HETATM    2  H   UNL     1      -9.769  16.682  69.838  1.00  0.00     0.000 HD 
HETATM    3  C   UNL     1     -11.506  15.881  69.298  1.00  0.00    -0.374 C  
ENDROOT
BRANCH   3   4
HETATM    4  C   UNL     1     -12.611  14.998  69.921  1.00  0.00    -0.164 C  
BRANCH   4   5
HETATM    5  N   UNL     1     -12.146  13.743  70.550  1.00  0.00    -0.347 NA 
BRANCH   5   6
HETATM    6  C   UNL     1     -11.318  12.959  69.767  1.00  0.00    -0.037 A  
HETATM    7  C   UNL     1      -8.617  13.265  67.333  1.00  0.00    -0.204 A  
HETATM    8  N   UNL     1      -7.766  12.460  66.649  1.00  0.00     0.138 NA 
HETATM    9  N   UNL     1     -10.434  13.532  68.950  1.00  0.00    -0.178 NA 
HETATM   10  C   UNL     1      -9.578  12.758  68.228  1.00  0.00    -0.211 A  
HETATM   11  N   UNL     1     -11.408  11.640  69.873  1.00  0.00    -0.204 NA 
HETATM   12  C   UNL     1      -7.865  11.145  66.788  1.00  0.00    -0.153 A  
HETATM   13  C   UNL     1      -9.607  11.376  68.297  1.00  0.00    -0.192 A  
HETATM   14  C   UNL     1     -10.582  10.852  69.157  1.00  0.00    -0.220 A  
HETATM   15  N   UNL     1      -8.793  10.587  67.554  1.00  0.00    -0.131 NA 
BRANCH  14  16
HETATM   16  N   UNL     1     -10.806   9.486  69.278  1.00  0.00    -0.218 NA 
HETATM   17  C   UNL     1     -10.452   7.571  70.692  1.00  0.00    -0.221 C  
HETATM   18  C   UNL     1     -10.673   6.661  69.478  1.00  0.00    -0.305 C  
HETATM   19  C   UNL     1     -11.222   8.883  70.540  1.00  0.00    -0.252 C  
HETATM   20  C   UNL     1     -11.157   8.718  68.084  1.00  0.00     0.310 C  
HETATM   21  C   UNL     1     -10.401   7.388  68.158  1.00  0.00    -0.235 C  
ENDBRANCH  14  16
BRANCH  12  22
HETATM   22  N   UNL     1      -6.977  10.312  66.142  1.00  0.00    -0.109 NA 
BRANCH  22  23
HETATM   23  C   UNL     1      -6.339   9.265  66.948  1.00  0.00    -0.066 C  
BRANCH  23  24
HETATM   24  C   UNL     1      -6.319   7.889  66.260  1.00  0.00    -0.046 C  
HETATM   25  O   UNL     1      -7.490   7.132  66.563  1.00  0.00    -0.084 OA 
HETATM   26  H   UNL     1      -7.477   6.282  66.138  1.00  0.00     0.000 HD 
ENDBRANCH  23  24
ENDBRANCH  22  23
BRANCH  22  27
HETATM   27  C   UNL     1      -7.059  10.147  64.689  1.00  0.00    -0.124 C  
BRANCH  27  28
HETATM   28  C   UNL     1      -8.517   9.997  64.214  1.00  0.00    -0.175 C  
HETATM   29  O   UNL     1      -8.598   9.233  63.010  1.00  0.00    -0.203 OA 
HETATM   30  H   UNL     1      -9.497   9.140  62.718  1.00  0.00     0.000 HD 
ENDBRANCH  27  28
ENDBRANCH  22  27
ENDBRANCH  12  22
BRANCH   7  31
HETATM   31  N   UNL     1      -8.417  14.624  67.100  1.00  0.00    -0.213 NA 
HETATM   32  C   UNL     1      -7.451  15.427  67.841  1.00  0.00    -0.140 C  
HETATM   33  C   UNL     1      -9.530  15.369  66.506  1.00  0.00    -0.273 C  
HETATM   34  C   UNL     1      -6.847  16.461  66.889  1.00  0.00    -0.231 C  
HETATM   35  C   UNL     1      -8.969  16.402  65.531  1.00  0.00     0.500 C  
HETATM   36  C   UNL     1      -7.925  17.295  66.201  1.00  0.00    -0.292 C  
ENDBRANCH   7  31
ENDBRANCH   5   6
BRANCH   5  37
HETATM   37  C   UNL     1     -13.084  13.056  71.448  1.00  0.00    -0.248 C  
BRANCH  37  38
HETATM   38  C   UNL     1     -14.036  14.035  72.166  1.00  0.00    -0.538 C  
HETATM   39  O   UNL     1     -13.392  14.723  73.238  1.00  0.00    -0.564 OA 
HETATM   40  H   UNL     1     -13.978  15.326  73.680  1.00  0.00     0.000 HD 
ENDBRANCH  37  38
ENDBRANCH   5  37
ENDBRANCH   4   5
ENDBRANCH   3   4
TORSDOF 12
ENDMDL
MODEL      173
REMARK 921   NORMALIZED FREE ENERGY PREDICTED BY IDOCK:   -3.32 KCAL/MOL
REMARK 922        TOTAL FREE ENERGY PREDICTED BY IDOCK:   -6.56 KCAL/MOL
REMARK 923 INTER-LIGAND FREE ENERGY PREDICTED BY IDOCK:   -4.90 KCAL/MOL
REMARK 924 INTRA-LIGAND FREE ENERGY PREDICTED BY IDOCK:   -1.66 KCAL/MOL
REMARK 927      BINDING AFFINITY PREDICTED BY RF-SCORE:    0.00 PKD
ROOT
HETATM    1  O   UNL     1     -11.840   4.661  65.031  1.00  0.00    -0.911 OA 
HETATM    2  H   UNL     1     -12.719   4.779  64.690  1.00  0.00     0.000 HD 
HETATM    3  C   UNL     1     -11.202   3.514  64.472  1.00  0.00     0.735 C  
ENDROOT
BRANCH   3   4
HETATM    4  C   UNL     1      -9.772   3.323  65.027  1.00  0.00    -0.084 C  
BRANCH   4   5
HETATM    5  N   UNL     1      -8.714   4.097  64.344  1.00  0.00    -0.124 NA 
BRANCH   5   6
HETATM    6  C   UNL     1      -8.418   5.324  64.911  1.00  0.00    -0.150 A  
HETATM    7  C   UNL     1      -8.499   7.037  68.132  1.00  0.00    -0.129 A  
HETATM    8  N   UNL     1      -8.114   8.222  68.666  1.00  0.00    -0.118 NA 
HETATM    9  N   UNL     1      -8.644   5.530  66.209  1.00  0.00    -0.121 NA 
HETATM   10  C   UNL     1      -8.294   6.717  66.776  1.00  0.00    -0.115 A  
HETATM   11  N   UNL     1      -7.883   6.264  64.144  1.00  0.00    -0.114 NA 
HETATM   12  C   UNL     1      -7.564   9.138  67.880  1.00  0.00    -0.085 A  
HETATM   13  C   UNL     1      -7.721   7.739  66.040  1.00  0.00    -0.093 A  
HETATM   14  C   UNL     1      -7.542   7.452  64.680  1.00  0.00    -0.105 A  
HETATM   15  N   UNL     1      -7.405   8.943  66.577  1.00  0.00    -0.084 NA 
BRANCH  14  16
HETATM   16  N   UNL     1      -7.061   8.397  63.781  1.00  0.00    -0.087 NA 
HETATM   17  C   UNL     1      -5.272   9.949  63.355  1.00  0.00    -0.087 C  
HETATM   18  C   UNL     1      -6.188  10.706  62.387  1.00  0.00    -0.150 C  
HETATM   19  C   UNL     1      -5.649   8.469  63.422  1.00  0.00    -0.068 C  
HETATM   20  C   UNL     1      -7.977   8.962  62.791  1.00  0.00    -0.147 C  
HETATM   21  C   UNL     1      -7.670  10.458  62.685  1.00  0.00    -0.157 C  
ENDBRANCH  14  16
BRANCH  12  22
HETATM   22  N   UNL     1      -7.119  10.330  68.411  1.00  0.00    -0.077 NA 
BRANCH  22  23
HETATM   23  C   UNL     1      -5.765  10.342  68.977  1.00  0.00    -0.037 C  
BRANCH  23  24
HETATM   24  C   UNL     1      -5.745  10.323  70.516  1.00  0.00    -0.085 C  
HETATM   25  O   UNL     1      -6.277  11.529  71.064  1.00  0.00    -0.472 OA 
HETATM   26  H   UNL     1      -6.264  11.517  72.014  1.00  0.00     0.000 HD 
ENDBRANCH  23  24
ENDBRANCH  22  23
BRANCH  22  27
HETATM   27  C   UNL     1      -7.728  11.590  67.982  1.00  0.00    -0.119 C  
BRANCH  27  28
HETATM   28  C   UNL     1      -9.265  11.494  67.941  1.00  0.00    -0.168 C  
HETATM   29  O   UNL     1      -9.868  12.363  68.902  1.00  0.00    -0.419 OA 
HETATM   30  H   UNL     1     -10.816  12.303  68.877  1.00  0.00     0.000 HD 
ENDBRANCH  27  28
ENDBRANCH  22  27
ENDBRANCH  12  22
BRANCH   7  31
HETATM   31  N   UNL     1      -9.067   6.161  69.056  1.00  0.00    -0.124 NA 
HETATM   32  C   UNL     1      -8.515   4.844  69.351  1.00  0.00    -0.087 C  
HETATM   33  C   UNL     1     -10.497   6.320  69.332  1.00  0.00    -0.243 C  
HETATM   34  C   UNL     1      -8.724   4.552  70.838  1.00  0.00    -0.131 C  
HETATM   35  C   UNL     1     -10.747   6.055  70.816  1.00  0.00    -0.340 C  
HETATM   36  C   UNL     1     -10.189   4.698  71.244  1.00  0.00    -0.205 C  
ENDBRANCH   7  31
ENDBRANCH   5   6
BRANCH   5  37
HETATM   37  C   UNL     1      -8.643   3.989  62.881  1.00  0.00    -0.093 C  
BRANCH  37  38
HETATM   38  C   UNL     1      -7.587   2.964  62.417  1.00  0.00    -0.053 C  
HETATM   39  O   UNL     1      -8.000   1.619  62.658  1.00  0.00    -0.053 OA 
HETATM   40  H   UNL     1      -7.350   0.989  62.372  1.00  0.00     0.000 HD 
ENDBRANCH  37  38
ENDBRANCH   5  37
ENDBRANCH   4   5
ENDBRANCH   3   4
TORSDOF 12
ENDMDL
MODEL      174
REMARK 921   NORMALIZED FREE ENERGY PREDICTED BY IDOCK:   -3.27 KCAL/MOL
REMARK 922        TOTAL FREE ENERGY PREDICTED BY IDOCK:   -6.48 KCAL/MOL
REMARK 923 INTER-LIGAND FREE ENERGY PREDICTED BY IDOCK:   -4.68 KCAL/MOL
REMARK 924 INTRA-LIGAND FREE ENERGY PREDICTED BY IDOCK:   -1.80 KCAL/MOL
REMARK 927      BINDING AFFINITY PREDICTED BY RF-SCORE:    0.00 PKD
ROOT
HETATM    1  O   UNL     1      -6.156   3.799  63.012  1.00  0.00    -0.016 OA 
HETATM    2  H   UNL     1      -6.181   3.532  62.100  1.00  0.00     0.000 HD 
HETATM    3  C   UNL     1      -7.129   3.110  63.795  1.00  0.00    -0.049 C  
ENDROOT
BRANCH   3   4
HETATM    4  C   UNL     1      -7.088   3.545  65.278  1.00  0.00    -0.066 C  
BRANCH   4   5
HETATM    5  N   UNL     1      -7.772   4.817  65.589  1.00  0.00    -0.089 NA 
BRANCH   5   6
HETATM    6  C   UNL     1      -7.852   5.132  66.934  1.00  0.00    -0.100 A  
HETATM    7  C   UNL     1      -7.896   8.026  69.157  1.00  0.00    -0.108 A  
HETATM    8  N   UNL     1      -8.066   8.296  70.475  1.00  0.00    -0.101 NA 
HETATM    9  N   UNL     1      -7.802   6.406  67.325  1.00  0.00    -0.103 NA 
HETATM   10  C   UNL     1      -7.945   6.716  68.643  1.00  0.00    -0.118 A  
HETATM   11  N   UNL     1      -8.011   4.146  67.807  1.00  0.00    -0.090 NA 
HETATM   12  C   UNL     1      -8.242   7.292  71.324  1.00  0.00    -0.106 A  
HETATM   13  C   UNL     1      -8.124   5.741  69.608  1.00  0.00    -0.104 A  
HETATM   14  C   UNL     1      -8.139   4.428  69.119  1.00  0.00    -0.068 A  
HETATM   15  N   UNL     1      -8.225   6.026  70.930  1.00  0.00    -0.123 NA 
BRANCH  14  16
HETATM   16  N   UNL     1      -8.222   3.325  69.961  1.00  0.00    -0.045 NA 
HETATM   17  C   UNL     1      -9.655   2.143  71.490  1.00  0.00    -0.212 C  
HETATM   18  C   UNL     1      -8.417   1.482  72.107  1.00  0.00    -0.051 C  
HETATM   19  C   UNL     1      -9.417   2.489  70.020  1.00  0.00    -0.071 C  
HETATM   20  C   UNL     1      -6.988   2.664  70.384  1.00  0.00    -0.033 C  
HETATM   21  C   UNL     1      -7.147   2.303  71.863  1.00  0.00    -0.034 C  
ENDBRANCH  14  16
BRANCH  12  22
HETATM   22  N   UNL     1      -8.467   7.547  72.660  1.00  0.00    -0.112 NA 
BRANCH  22  23
HETATM   23  C   UNL     1      -9.861   7.506  73.119  1.00  0.00    -0.262 C  
BRANCH  23  24
HETATM   24  C   UNL     1     -10.869   7.979  72.056  1.00  0.00    -0.272 C  
HETATM   25  O   UNL     1     -10.668   9.350  71.714  1.00  0.00    -0.334 OA 
HETATM   26  H   UNL     1     -11.290   9.642  71.058  1.00  0.00     0.000 HD 
ENDBRANCH  23  24
ENDBRANCH  22  23
BRANCH  22  27
HETATM   27  C   UNL     1      -7.387   7.357  73.630  1.00  0.00    -0.095 C  
BRANCH  27  28
HETATM   28  C   UNL     1      -6.616   8.665  73.887  1.00  0.00    -0.052 C  
HETATM   29  O   UNL     1      -6.223   9.289  72.663  1.00  0.00    -0.298 OA 
HETATM   30  H   UNL     1      -5.747  10.096  72.822  1.00  0.00     0.000 HD 
ENDBRANCH  27  28
ENDBRANCH  22  27
ENDBRANCH  12  22
BRANCH   7  31
HETATM   31  N   UNL     1      -7.717   9.161  68.368  1.00  0.00    -0.093 NA 
HETATM   32  C   UNL     1      -8.787   9.761  67.578  1.00  0.00    -0.125 C  
HETATM   33  C   UNL     1      -6.358   9.438  67.898  1.00  0.00    -0.054 C  
HETATM   34  C   UNL     1      -8.605  11.279  67.589  1.00  0.00    -0.124 C  
HETATM   35  C   UNL     1      -6.128  10.948  67.912  1.00  0.00    -0.050 C  
HETATM   36  C   UNL     1      -7.209  11.686  67.123  1.00  0.00    -0.145 C  
ENDBRANCH   7  31
ENDBRANCH   5   6
BRANCH   5  37
HETATM   37  C   UNL     1      -8.903   5.197  64.732  1.00  0.00    -0.100 C  
BRANCH  37  38
HETATM   38  C   UNL     1     -10.220   4.519  65.161  1.00  0.00    -0.119 C  
HETATM   39  O   UNL     1     -11.064   5.401  65.900  1.00  0.00    -0.757 OA 
HETATM   40  H   UNL     1     -11.876   4.984  66.164  1.00  0.00     0.000 HD 
ENDBRANCH  37  38
ENDBRANCH   5  37
ENDBRANCH   4   5
ENDBRANCH   3   4
TORSDOF 12
ENDMDL
MODEL      175
REMARK 921   NORMALIZED FREE ENERGY PREDICTED BY IDOCK:   -3.25 KCAL/MOL
REMARK 922        TOTAL FREE ENERGY PREDICTED BY IDOCK:   -6.46 KCAL/MOL
REMARK 923 INTER-LIGAND FREE ENERGY PREDICTED BY IDOCK:   -5.07 KCAL/MOL
REMARK 924 INTRA-LIGAND FREE ENERGY PREDICTED BY IDOCK:   -1.39 KCAL/MOL
REMARK 927      BINDING AFFINITY PREDICTED BY RF-SCORE:    0.00 PKD
ROOT
HETATM    1  O   UNL     1      -9.069   8.113  73.829  1.00  0.00    -0.248 OA 
HETATM    2  H   UNL     1      -9.771   8.516  74.328  1.00  0.00     0.000 HD 
HETATM    3  C   UNL     1      -9.194   8.370  72.431  1.00  0.00    -0.275 C  
ENDROOT
BRANCH   3   4
HETATM    4  C   UNL     1      -8.053   7.716  71.621  1.00  0.00    -0.102 C  
BRANCH   4   5
HETATM    5  N   UNL     1      -7.657   8.427  70.387  1.00  0.00    -0.069 NA 
BRANCH   5   6
HETATM    6  C   UNL     1      -7.697   7.670  69.229  1.00  0.00    -0.104 A  
HETATM    7  C   UNL     1      -8.129   4.219  68.127  1.00  0.00    -0.089 A  
HETATM    8  N   UNL     1      -8.251   3.527  66.967  1.00  0.00    -0.091 NA 
HETATM    9  N   UNL     1      -7.862   6.349  69.301  1.00  0.00    -0.104 NA 
HETATM   10  C   UNL     1      -7.965   5.617  68.158  1.00  0.00    -0.097 A  
HETATM   11  N   UNL     1      -7.600   8.293  68.062  1.00  0.00    -0.100 NA 
HETATM   12  C   UNL     1      -8.169   4.177  65.814  1.00  0.00    -0.109 A  
HETATM   13  C   UNL     1      -7.883   6.200  66.906  1.00  0.00    -0.104 A  
HETATM   14  C   UNL     1      -7.684   7.587  66.917  1.00  0.00    -0.110 A  
HETATM   15  N   UNL     1      -7.940   5.483  65.757  1.00  0.00    -0.104 NA 
BRANCH  14  16
HETATM   16  N   UNL     1      -7.492   8.317  65.750  1.00  0.00    -0.079 NA 
HETATM   17  C   UNL     1      -5.971   9.779  64.593  1.00  0.00    -0.092 C  
HETATM   18  C   UNL     1      -7.137  10.275  63.730  1.00  0.00    -0.056 C  
HETATM   19  C   UNL     1      -6.207   8.343  65.060  1.00  0.00    -0.052 C  
HETATM   20  C   UNL     1      -8.649   8.620  64.907  1.00  0.00    -0.135 C  
HETATM   21  C   UNL     1      -8.490  10.061  64.416  1.00  0.00    -0.178 C  
ENDBRANCH  14  16
BRANCH  12  22
HETATM   22  N   UNL     1      -8.341   3.502  64.625  1.00  0.00    -0.093 NA 
BRANCH  22  23
HETATM   23  C   UNL     1      -9.647   2.871  64.400  1.00  0.00    -0.151 C  
BRANCH  23  24
HETATM   24  C   UNL     1     -10.744   3.866  63.981  1.00  0.00    -0.208 C  
HETATM   25  O   UNL     1     -11.471   4.353  65.108  1.00  0.00    -1.069 OA 
HETATM   26  H   UNL     1     -12.148   4.967  64.849  1.00  0.00     0.000 HD 
ENDBRANCH  23  24
ENDBRANCH  22  23
BRANCH  22  27
HETATM   27  C   UNL     1      -7.494   3.826  63.475  1.00  0.00    -0.058 C  
BRANCH  27  28
HETATM   28  C   UNL     1      -8.197   4.794  62.505  1.00  0.00    -0.085 C  
HETATM   29  O   UNL     1      -7.756   6.139  62.698  1.00  0.00    -0.071 OA 
HETATM   30  H   UNL     1      -8.190   6.736  62.100  1.00  0.00     0.000 HD 
ENDBRANCH  27  28
ENDBRANCH  22  27
ENDBRANCH  12  22
BRANCH   7  31
HETATM   31  N   UNL     1      -8.229   3.426  69.269  1.00  0.00    -0.059 NA 
HETATM   32  C   UNL     1      -7.079   2.791  69.902  1.00  0.00    -0.033 C  
HETATM   33  C   UNL     1      -9.521   2.784  69.523  1.00  0.00    -0.077 C  
HETATM   34  C   UNL     1      -7.295   2.794  71.416  1.00  0.00    -0.033 C  
HETATM   35  C   UNL     1      -9.785   2.784  71.028  1.00  0.00    -0.160 C  
HETATM   36  C   UNL     1      -8.626   2.152  71.800  1.00  0.00    -0.086 C  
ENDBRANCH   7  31
ENDBRANCH   5   6
BRANCH   5  37
HETATM   37  C   UNL     1      -6.594   9.434  70.505  1.00  0.00    -0.084 C  
BRANCH  37  38
HETATM   38  C   UNL     1      -7.002  10.794  69.902  1.00  0.00    -0.123 C  
HETATM   39  O   UNL     1      -8.395  10.853  69.599  1.00  0.00    -0.378 OA 
HETATM   40  H   UNL     1      -8.645  11.691  69.228  1.00  0.00     0.000 HD 
ENDBRANCH  37  38
ENDBRANCH   5  37
ENDBRANCH   4   5
ENDBRANCH   3   4
TORSDOF 12
ENDMDL
MODEL      176
REMARK 921   NORMALIZED FREE ENERGY PREDICTED BY IDOCK:   -3.24 KCAL/MOL
REMARK 922        TOTAL FREE ENERGY PREDICTED BY IDOCK:   -6.43 KCAL/MOL
REMARK 923 INTER-LIGAND FREE ENERGY PREDICTED BY IDOCK:   -6.09 KCAL/MOL
REMARK 924 INTRA-LIGAND FREE ENERGY PREDICTED BY IDOCK:   -0.34 KCAL/MOL
REMARK 927      BINDING AFFINITY PREDICTED BY RF-SCORE:    0.00 PKD
ROOT
HETATM    1  O   UNL     1      -6.062  12.061  71.117  1.00  0.00    -0.478 OA 
HETATM    2  H   UNL     1      -5.342  11.944  71.726  1.00  0.00     0.000 HD 
HETATM    3  C   UNL     1      -6.274  10.901  70.314  1.00  0.00    -0.141 C  
ENDROOT
BRANCH   3   4
HETATM    4  C   UNL     1      -7.445  11.091  69.324  1.00  0.00    -0.100 C  
BRANCH   4   5
HETATM    5  N   UNL     1      -7.095  11.727  68.036  1.00  0.00    -0.077 NA 
BRANCH   5   6
HETATM    6  C   UNL     1      -7.512  13.038  67.891  1.00  0.00    -0.137 A  
HETATM    7  C   UNL     1     -10.195  14.996  66.381  1.00  0.00    -0.277 A  
HETATM    8  N   UNL     1     -10.616  16.284  66.337  1.00  0.00    -0.288 NA 
HETATM    9  N   UNL     1      -8.612  13.315  67.190  1.00  0.00    -0.205 NA 
HETATM   10  C   UNL     1      -9.053  14.600  67.103  1.00  0.00    -0.223 A  
HETATM   11  N   UNL     1      -6.812  13.995  68.487  1.00  0.00    -0.095 NA 
HETATM   12  C   UNL     1      -9.908  17.219  66.958  1.00  0.00    -0.281 A  
HETATM   13  C   UNL     1      -8.380  15.647  67.708  1.00  0.00    -0.148 A  
HETATM   14  C   UNL     1      -7.221  15.276  68.401  1.00  0.00    -0.114 A  
HETATM   15  N   UNL     1      -8.780  16.938  67.596  1.00  0.00    -0.208 NA 
BRANCH  14  16
HETATM   16  N   UNL     1      -6.380  16.212  68.992  1.00  0.00    -0.140 NA 
HETATM   17  C   UNL     1      -5.180  16.757  71.005  1.00  0.00    -0.126 C  
HETATM   18  C   UNL     1      -5.128  18.221  70.552  1.00  0.00    -0.247 C  
HETATM   19  C   UNL     1      -5.235  15.814  69.804  1.00  0.00    -0.111 C  
HETATM   20  C   UNL     1      -6.282  17.546  68.402  1.00  0.00    -0.175 C  
HETATM   21  C   UNL     1      -6.242  18.553  69.555  1.00  0.00    -0.269 C  
ENDBRANCH  14  16
BRANCH  12  22
HETATM   22  N   UNL     1     -10.345  18.526  66.969  1.00  0.00    -0.380 NA 
BRANCH  22  23
HETATM   23  C   UNL     1      -9.822  19.394  68.030  1.00  0.00    -0.369 C  
BRANCH  23  24
HETATM   24  C   UNL     1     -10.129  18.879  69.448  1.00  0.00     0.105 C  
HETATM   25  O   UNL     1      -9.787  19.843  70.443  1.00  0.00     0.031 OA 
HETATM   26  H   UNL     1      -9.976  19.526  71.318  1.00  0.00     0.000 HD 
ENDBRANCH  23  24
ENDBRANCH  22  23
BRANCH  22  27
HETATM   27  C   UNL     1     -10.866  19.129  65.740  1.00  0.00    -0.205 C  
BRANCH  27  28
HETATM   28  C   UNL     1      -9.946  20.250  65.222  1.00  0.00     0.486 C  
HETATM   29  O   UNL     1      -8.569  19.873  65.300  1.00  0.00    -0.174 OA 
HETATM   30  H   UNL     1      -8.002  20.565  64.980  1.00  0.00     0.000 HD 
ENDBRANCH  27  28
ENDBRANCH  22  27
ENDBRANCH  12  22
BRANCH   7  31
HETATM   31  N   UNL     1     -11.019  14.110  65.689  1.00  0.00    -0.300 NA 
HETATM   32  C   UNL     1     -12.251  13.564  66.247  1.00  0.00    -0.416 C  
HETATM   33  C   UNL     1     -10.396  13.307  64.635  1.00  0.00    -0.375 C  
HETATM   34  C   UNL     1     -13.275  13.425  65.119  1.00  0.00     0.140 C  
HETATM   35  C   UNL     1     -11.382  13.159  63.477  1.00  0.00    -0.214 C  
HETATM   36  C   UNL     1     -12.725  12.606  63.953  1.00  0.00    -0.350 C  
ENDBRANCH   7  31
ENDBRANCH   5   6
BRANCH   5  37
HETATM   37  C   UNL     1      -7.109  10.872  66.842  1.00  0.00    -0.120 C  
BRANCH  37  38
HETATM   38  C   UNL     1      -5.692  10.452  66.402  1.00  0.00    -0.070 C  
HETATM   39  O   UNL     1      -5.468   9.053  66.571  1.00  0.00    -0.037 OA 
HETATM   40  H   UNL     1      -4.595   8.794  66.300  1.00  0.00     0.000 HD 
ENDBRANCH  37  38
ENDBRANCH   5  37
ENDBRANCH   4   5
ENDBRANCH   3   4
TORSDOF 12
ENDMDL
MODEL      177
REMARK 921   NORMALIZED FREE ENERGY PREDICTED BY IDOCK:   -3.22 KCAL/MOL
REMARK 922        TOTAL FREE ENERGY PREDICTED BY IDOCK:   -6.39 KCAL/MOL
REMARK 923 INTER-LIGAND FREE ENERGY PREDICTED BY IDOCK:   -4.30 KCAL/MOL
REMARK 924 INTRA-LIGAND FREE ENERGY PREDICTED BY IDOCK:   -2.09 KCAL/MOL
REMARK 927      BINDING AFFINITY PREDICTED BY RF-SCORE:    0.00 PKD
ROOT
HETATM    1  O   UNL     1      -7.439  13.178  69.238  1.00  0.00    -0.307 OA 
HETATM    2  H   UNL     1      -6.787  13.628  69.763  1.00  0.00     0.000 HD 
HETATM    3  C   UNL     1      -7.224  11.768  69.216  1.00  0.00     0.009 C  
ENDROOT
BRANCH   3   4
HETATM    4  C   UNL     1      -8.284  11.036  68.362  1.00  0.00    -0.137 C  
BRANCH   4   5
HETATM    5  N   UNL     1      -9.033   9.966  69.053  1.00  0.00    -0.150 NA 
BRANCH   5   6
HETATM    6  C   UNL     1      -8.704   8.676  68.677  1.00  0.00    -0.138 A  
HETATM    7  C   UNL     1      -8.749   5.262  69.965  1.00  0.00    -0.116 A  
HETATM    8  N   UNL     1      -8.497   4.004  69.527  1.00  0.00    -0.060 NA 
HETATM    9  N   UNL     1      -8.876   7.667  69.532  1.00  0.00    -0.139 NA 
HETATM   10  C   UNL     1      -8.610   6.392  69.137  1.00  0.00    -0.125 A  
HETATM   11  N   UNL     1      -8.249   8.471  67.448  1.00  0.00    -0.109 NA 
HETATM   12  C   UNL     1      -8.061   3.826  68.287  1.00  0.00    -0.075 A  
HETATM   13  C   UNL     1      -8.143   6.102  67.867  1.00  0.00    -0.114 A  
HETATM   14  C   UNL     1      -7.965   7.218  67.039  1.00  0.00    -0.109 A  
HETATM   15  N   UNL     1      -7.833   4.844  67.468  1.00  0.00    -0.094 NA 
BRANCH  14  16
HETATM   16  N   UNL     1      -7.421   7.116  65.764  1.00  0.00    -0.078 NA 
HETATM   17  C   UNL     1      -5.605   7.832  64.357  1.00  0.00    -0.037 C  
HETATM   18  C   UNL     1      -6.450   7.481  63.126  1.00  0.00    -0.054 C  
HETATM   19  C   UNL     1      -5.986   6.955  65.550  1.00  0.00    -0.036 C  
HETATM   20  C   UNL     1      -8.264   6.630  64.672  1.00  0.00    -0.034 C  
HETATM   21  C   UNL     1      -7.949   7.481  63.439  1.00  0.00    -0.085 C  
ENDBRANCH  14  16
BRANCH  12  22
HETATM   22  N   UNL     1      -7.847   2.552  67.804  1.00  0.00    -0.060 NA 
BRANCH  22  23
HETATM   23  C   UNL     1      -6.627   1.868  68.248  1.00  0.00    -0.029 C  
BRANCH  23  24
HETATM   24  C   UNL     1      -5.446   2.031  67.274  1.00  0.00    -0.017 C  
HETATM   25  O   UNL     1      -5.797   2.840  66.152  1.00  0.00    -0.021 OA 
HETATM   26  H   UNL     1      -5.068   2.941  65.552  1.00  0.00     0.000 HD 
ENDBRANCH  23  24
ENDBRANCH  22  23
BRANCH  22  27
HETATM   27  C   UNL     1      -8.978   1.758  67.319  1.00  0.00    -0.128 C  
BRANCH  27  28
HETATM   28  C   UNL     1      -8.908   1.539  65.797  1.00  0.00    -0.120 C  
HETATM   29  O   UNL     1      -8.793   2.778  65.094  1.00  0.00    -0.116 OA 
HETATM   30  H   UNL     1      -8.750   2.642  64.155  1.00  0.00     0.000 HD 
ENDBRANCH  27  28
ENDBRANCH  22  27
ENDBRANCH  12  22
BRANCH   7  31
HETATM   31  N   UNL     1      -9.198   5.320  71.284  1.00  0.00    -0.144 NA 
HETATM   32  C   UNL     1      -8.329   5.647  72.409  1.00  0.00    -0.115 C  
HETATM   33  C   UNL     1     -10.389   4.535  71.617  1.00  0.00    -0.090 C  
HETATM   34  C   UNL     1      -9.135   6.458  73.425  1.00  0.00    -0.136 C  
HETATM   35  C   UNL     1     -11.234   5.320  72.618  1.00  0.00    -0.311 C  
HETATM   36  C   UNL     1     -10.414   5.734  73.840  1.00  0.00    -0.295 C  
ENDBRANCH   7  31
ENDBRANCH   5   6
BRANCH   5  37
HETATM   37  C   UNL     1     -10.436  10.240  69.390  1.00  0.00    -0.236 C  
BRANCH  37  38
HETATM   38  C   UNL     1     -10.793   9.805  70.826  1.00  0.00    -0.333 C  
HETATM   39  O   UNL     1      -9.634   9.636  71.642  1.00  0.00    -0.168 OA 
HETATM   40  H   UNL     1      -9.854   9.369  72.526  1.00  0.00     0.000 HD 
ENDBRANCH  37  38
ENDBRANCH   5  37
ENDBRANCH   4   5
ENDBRANCH   3   4
TORSDOF 12
ENDMDL
MODEL      178
REMARK 921   NORMALIZED FREE ENERGY PREDICTED BY IDOCK:   -3.16 KCAL/MOL
REMARK 922        TOTAL FREE ENERGY PREDICTED BY IDOCK:   -6.29 KCAL/MOL
REMARK 923 INTER-LIGAND FREE ENERGY PREDICTED BY IDOCK:   -5.32 KCAL/MOL
REMARK 924 INTRA-LIGAND FREE ENERGY PREDICTED BY IDOCK:   -0.98 KCAL/MOL
REMARK 927      BINDING AFFINITY PREDICTED BY RF-SCORE:    0.00 PKD
ROOT
HETATM    1  O   UNL     1      -9.566  14.190  69.045  1.00  0.00    -0.390 OA 
HETATM    2  H   UNL     1      -9.728  14.424  69.951  1.00  0.00     0.000 HD 
HETATM    3  C   UNL     1     -10.321  13.045  68.648  1.00  0.00    -0.191 C  
ENDROOT
BRANCH   3   4
HETATM    4  C   UNL     1     -10.057  12.666  67.173  1.00  0.00    -0.223 C  
BRANCH   4   5
HETATM    5  N   UNL     1      -8.674  12.250  66.858  1.00  0.00    -0.201 NA 
BRANCH   5   6
HETATM    6  C   UNL     1      -8.457  10.884  66.836  1.00  0.00    -0.135 A  
HETATM    7  C   UNL     1      -9.106   7.891  68.819  1.00  0.00    -0.140 A  
HETATM    8  N   UNL     1      -8.951   6.548  68.718  1.00  0.00    -0.125 NA 
HETATM    9  N   UNL     1      -8.872  10.127  67.851  1.00  0.00    -0.125 NA 
HETATM   10  C   UNL     1      -8.712   8.776  67.797  1.00  0.00    -0.136 A  
HETATM   11  N   UNL     1      -7.859  10.355  65.776  1.00  0.00    -0.146 NA 
HETATM   12  C   UNL     1      -8.368   6.043  67.639  1.00  0.00    -0.108 A  
HETATM   13  C   UNL     1      -8.108   8.153  66.719  1.00  0.00    -0.103 A  
HETATM   14  C   UNL     1      -7.677   9.021  65.707  1.00  0.00    -0.091 A  
HETATM   15  N   UNL     1      -7.902   6.815  66.665  1.00  0.00    -0.105 NA 
BRANCH  14  16
HETATM   16  N   UNL     1      -6.974   8.572  64.595  1.00  0.00    -0.072 NA 
HETATM   17  C   UNL     1      -7.200   7.548  62.430  1.00  0.00    -0.083 C  
HETATM   18  C   UNL     1      -5.729   7.122  62.501  1.00  0.00    -0.041 C  
HETATM   19  C   UNL     1      -7.440   8.824  63.236  1.00  0.00    -0.104 C  
HETATM   20  C   UNL     1      -5.537   8.330  64.718  1.00  0.00    -0.044 C  
HETATM   21  C   UNL     1      -5.223   7.046  63.945  1.00  0.00    -0.028 C  
ENDBRANCH  14  16
BRANCH  12  22
HETATM   22  N   UNL     1      -8.247   4.678  67.492  1.00  0.00    -0.101 NA 
BRANCH  22  23
HETATM   23  C   UNL     1      -7.140   4.028  68.203  1.00  0.00    -0.059 C  
BRANCH  23  24
HETATM   24  C   UNL     1      -6.064   3.452  67.266  1.00  0.00    -0.028 C  
HETATM   25  O   UNL     1      -5.998   4.173  66.036  1.00  0.00    -0.022 OA 
HETATM   26  H   UNL     1      -5.334   3.817  65.457  1.00  0.00     0.000 HD 
ENDBRANCH  23  24
ENDBRANCH  22  23
BRANCH  22  27
HETATM   27  C   UNL     1      -9.410   3.882  67.095  1.00  0.00    -0.191 C  
BRANCH  27  28
HETATM   28  C   UNL     1     -10.381   4.693  66.216  1.00  0.00    -0.255 C  
HETATM   29  O   UNL     1      -9.867   4.868  64.894  1.00  0.00    -0.365 OA 
HETATM   30  H   UNL     1     -10.466   5.368  64.353  1.00  0.00     0.000 HD 
ENDBRANCH  27  28
ENDBRANCH  22  27
ENDBRANCH  12  22
BRANCH   7  31
HETATM   31  N   UNL     1      -9.727   8.299  69.999  1.00  0.00    -0.175 NA 
HETATM   32  C   UNL     1     -11.052   8.907  70.034  1.00  0.00    -0.170 C  
HETATM   33  C   UNL     1      -8.858   8.621  71.132  1.00  0.00    -0.199 C  
HETATM   34  C   UNL     1     -11.769   8.438  71.301  1.00  0.00    -0.325 C  
HETATM   35  C   UNL     1      -9.530   8.149  72.421  1.00  0.00    -0.319 C  
HETATM   36  C   UNL     1     -10.943   8.716  72.555  1.00  0.00    -0.221 C  
ENDBRANCH   7  31
ENDBRANCH   5   6
BRANCH   5  37
HETATM   37  C   UNL     1      -7.588  13.105  67.355  1.00  0.00    -0.131 C  
BRANCH  37  38
HETATM   38  C   UNL     1      -6.438  12.291  67.982  1.00  0.00    -0.076 C  
HETATM   39  O   UNL     1      -5.175  12.938  67.831  1.00  0.00    -0.090 OA 
HETATM   40  H   UNL     1      -4.467  12.436  68.217  1.00  0.00     0.000 HD 
ENDBRANCH  37  38
ENDBRANCH   5  37
ENDBRANCH   4   5
ENDBRANCH   3   4
TORSDOF 12
ENDMDL
MODEL      179
REMARK 921   NORMALIZED FREE ENERGY PREDICTED BY IDOCK:   -3.01 KCAL/MOL
REMARK 922        TOTAL FREE ENERGY PREDICTED BY IDOCK:   -6.04 KCAL/MOL
REMARK 923 INTER-LIGAND FREE ENERGY PREDICTED BY IDOCK:   -5.29 KCAL/MOL
REMARK 924 INTRA-LIGAND FREE ENERGY PREDICTED BY IDOCK:   -0.75 KCAL/MOL
REMARK 927      BINDING AFFINITY PREDICTED BY RF-SCORE:    0.00 PKD
ROOT
HETATM    1  O   UNL     1     -11.682  17.439  72.912  1.00  0.00     0.036 OA 
HETATM    2  H   UNL     1     -12.052  17.959  73.615  1.00  0.00     0.000 HD 
HETATM    3  C   UNL     1     -12.482  16.294  72.619  1.00  0.00    -0.366 C  
ENDROOT
BRANCH   3   4
HETATM    4  C   UNL     1     -11.880  15.448  71.475  1.00  0.00    -0.387 C  
BRANCH   4   5
HETATM    5  N   UNL     1     -12.429  14.083  71.333  1.00  0.00    -0.359 NA 
BRANCH   5   6
HETATM    6  C   UNL     1     -11.801  13.287  70.392  1.00  0.00    -0.194 A  
HETATM    7  C   UNL     1     -10.704   9.844  69.887  1.00  0.00    -0.280 A  
HETATM    8  N   UNL     1     -10.167   9.079  68.905  1.00  0.00    -0.203 NA 
HETATM    9  N   UNL     1     -11.564  12.002  70.656  1.00  0.00     0.187 NA 
HETATM   10  C   UNL     1     -11.004  11.207  69.703  1.00  0.00    -0.192 A  
HETATM   11  N   UNL     1     -11.476  13.825  69.224  1.00  0.00    -0.277 NA 
HETATM   12  C   UNL     1      -9.868   9.638  67.739  1.00  0.00    -0.159 A  
HETATM   13  C   UNL     1     -10.648  11.697  68.459  1.00  0.00    -0.215 A  
HETATM   14  C   UNL     1     -10.906  13.061  68.270  1.00  0.00    -0.246 A  
HETATM   15  N   UNL     1     -10.050  10.932  67.513  1.00  0.00    -0.180 NA 
BRANCH  14  16
HETATM   16  N   UNL     1     -10.531  13.733  67.113  1.00  0.00    -0.271 NA 
HETATM   17  C   UNL     1      -9.006  15.362  66.212  1.00  0.00    -0.341 C  
HETATM   18  C   UNL     1      -9.967  15.580  65.038  1.00  0.00    -0.057 C  
HETATM   19  C   UNL     1      -9.129  13.942  66.763  1.00  0.00    -0.223 C  
HETATM   20  C   UNL     1     -11.458  13.765  65.982  1.00  0.00    -0.326 C  
HETATM   21  C   UNL     1     -11.402  15.175  65.387  1.00  0.00    -0.298 C  
ENDBRANCH  14  16
BRANCH  12  22
HETATM   22  N   UNL     1      -9.369   8.869  66.710  1.00  0.00    -0.163 NA 
BRANCH  22  23
HETATM   23  C   UNL     1      -8.881   9.580  65.524  1.00  0.00    -0.168 C  
BRANCH  23  24
HETATM   24  C   UNL     1      -9.379   8.975  64.199  1.00  0.00     0.595 C  
HETATM   25  O   UNL     1      -9.947   9.970  63.347  1.00  0.00    -0.494 OA 
HETATM   26  H   UNL     1     -10.255   9.597  62.530  1.00  0.00     0.000 HD 
ENDBRANCH  23  24
ENDBRANCH  22  23
BRANCH  22  27
HETATM   27  C   UNL     1      -8.885   7.513  66.983  1.00  0.00    -0.128 C  
BRANCH  27  28
HETATM   28  C   UNL     1      -9.944   6.668  67.716  1.00  0.00    -0.132 C  
HETATM   29  O   UNL     1     -11.228   6.789  67.099  1.00  0.00    -0.586 OA 
HETATM   30  H   UNL     1     -11.880   6.268  67.551  1.00  0.00     0.000 HD 
ENDBRANCH  27  28
ENDBRANCH  22  27
ENDBRANCH  12  22
BRANCH   7  31
HETATM   31  N   UNL     1     -10.970   9.145  71.064  1.00  0.00    -0.277 NA 
HETATM   32  C   UNL     1     -12.319   8.814  71.508  1.00  0.00    -0.328 C  
HETATM   33  C   UNL     1      -9.958   9.211  72.120  1.00  0.00     0.183 C  
HETATM   34  C   UNL     1     -12.284   7.444  72.188  1.00  0.00    -0.266 C  
HETATM   35  C   UNL     1      -9.877   7.853  72.814  1.00  0.00    -0.335 C  
HETATM   36  C   UNL     1     -11.249   7.395  73.310  1.00  0.00    -0.203 C  
ENDBRANCH   7  31
ENDBRANCH   5   6
BRANCH   5  37
HETATM   37  C   UNL     1     -13.880  13.924  71.501  1.00  0.00    -0.218 C  
BRANCH  37  38
HETATM   38  C   UNL     1     -14.245  12.662  72.308  1.00  0.00     0.261 C  
HETATM   39  O   UNL     1     -13.303  12.395  73.346  1.00  0.00     1.316 OA 
HETATM   40  H   UNL     1     -13.528  11.618  73.844  1.00  0.00     0.000 HD 
ENDBRANCH  37  38
ENDBRANCH   5  37
ENDBRANCH   4   5
ENDBRANCH   3   4
TORSDOF 12
ENDMDL
MODEL      180
REMARK 921   NORMALIZED FREE ENERGY PREDICTED BY IDOCK:   -2.90 KCAL/MOL
REMARK 922        TOTAL FREE ENERGY PREDICTED BY IDOCK:   -5.85 KCAL/MOL
REMARK 923 INTER-LIGAND FREE ENERGY PREDICTED BY IDOCK:   -4.94 KCAL/MOL
REMARK 924 INTRA-LIGAND FREE ENERGY PREDICTED BY IDOCK:   -0.91 KCAL/MOL
REMARK 927      BINDING AFFINITY PREDICTED BY RF-SCORE:    0.00 PKD
ROOT
HETATM    1  O   UNL     1     -11.343   4.751  64.728  1.00  0.00    -0.646 OA 
HETATM    2  H   UNL     1     -12.097   4.324  65.116  1.00  0.00     0.000 HD 
HETATM    3  C   UNL     1     -10.249   3.850  64.560  1.00  0.00    -0.223 C  
ENDROOT
BRANCH   3   4
HETATM    4  C   UNL     1      -9.022   4.545  63.928  1.00  0.00    -0.136 C  
BRANCH   4   5
HETATM    5  N   UNL     1      -7.916   4.857  64.858  1.00  0.00    -0.093 NA 
BRANCH   5   6
HETATM    6  C   UNL     1      -8.137   5.931  65.702  1.00  0.00    -0.124 A  
HETATM    7  C   UNL     1      -7.729   9.555  65.822  1.00  0.00    -0.100 A  
HETATM    8  N   UNL     1      -8.044  10.589  66.641  1.00  0.00    -0.123 NA 
HETATM    9  N   UNL     1      -7.788   7.160  65.321  1.00  0.00    -0.114 NA 
HETATM   10  C   UNL     1      -8.065   8.222  66.127  1.00  0.00    -0.111 A  
HETATM   11  N   UNL     1      -8.727   5.708  66.869  1.00  0.00    -0.113 NA 
HETATM   12  C   UNL     1      -8.650  10.341  67.794  1.00  0.00    -0.118 A  
HETATM   13  C   UNL     1      -8.687   8.067  67.353  1.00  0.00    -0.124 A  
HETATM   14  C   UNL     1      -8.997   6.743  67.690  1.00  0.00    -0.115 A  
HETATM   15  N   UNL     1      -8.933   9.106  68.189  1.00  0.00    -0.129 NA 
BRANCH  14  16
HETATM   16  N   UNL     1      -9.544   6.400  68.922  1.00  0.00    -0.127 NA 
HETATM   17  C   UNL     1     -11.072   7.107  70.640  1.00  0.00    -0.294 C  
HETATM   18  C   UNL     1     -10.361   6.175  71.627  1.00  0.00    -0.259 C  
HETATM   19  C   UNL     1     -10.963   6.578  69.210  1.00  0.00    -0.331 C  
HETATM   20  C   UNL     1      -8.872   5.388  69.736  1.00  0.00    -0.110 C  
HETATM   21  C   UNL     1      -8.926   5.864  71.191  1.00  0.00    -0.145 C  
ENDBRANCH  14  16
BRANCH  12  22
HETATM   22  N   UNL     1      -9.024  11.381  68.618  1.00  0.00    -0.161 NA 
BRANCH  22  23
HETATM   23  C   UNL     1      -8.684  12.737  68.173  1.00  0.00    -0.193 C  
BRANCH  23  24
HETATM   24  C   UNL     1      -7.314  13.223  68.682  1.00  0.00    -0.101 C  
HETATM   25  O   UNL     1      -6.804  12.374  69.710  1.00  0.00    -0.350 OA 
HETATM   26  H   UNL     1      -5.959  12.674  70.024  1.00  0.00     0.000 HD 
ENDBRANCH  23  24
ENDBRANCH  22  23
BRANCH  22  27
HETATM   27  C   UNL     1     -10.113  11.193  69.579  1.00  0.00     0.143 C  
BRANCH  27  28
HETATM   28  C   UNL     1     -11.331  10.509  68.931  1.00  0.00    -0.251 C  
HETATM   29  O   UNL     1     -11.708  11.155  67.713  1.00  0.00    -0.560 OA 
HETATM   30  H   UNL     1     -12.459  10.733  67.314  1.00  0.00     0.000 HD 
ENDBRANCH  27  28
ENDBRANCH  22  27
ENDBRANCH  12  22
BRANCH   7  31
HETATM   31  N   UNL     1      -7.092   9.942  64.644  1.00  0.00    -0.132 NA 
HETATM   32  C   UNL     1      -7.624   9.654  63.317  1.00  0.00    -0.119 C  
HETATM   33  C   UNL     1      -5.645  10.155  64.709  1.00  0.00    -0.114 C  
HETATM   34  C   UNL     1      -7.297  10.831  62.397  1.00  0.00    -0.119 C  
HETATM   35  C   UNL     1      -5.278  11.338  63.816  1.00  0.00     0.650 C  
HETATM   36  C   UNL     1      -5.804  11.150  62.393  1.00  0.00    -0.022 C  
ENDBRANCH   7  31
ENDBRANCH   5   6
BRANCH   5  37
HETATM   37  C   UNL     1      -6.548   4.648  64.366  1.00  0.00    -0.043 C  
BRANCH  37  38
HETATM   38  C   UNL     1      -5.757   3.647  65.232  1.00  0.00    -0.018 C  
HETATM   39  O   UNL     1      -5.605   4.101  66.577  1.00  0.00    -0.016 OA 
HETATM   40  H   UNL     1      -5.118   3.484  67.110  1.00  0.00     0.000 HD 
ENDBRANCH  37  38
ENDBRANCH   5  37
ENDBRANCH   4   5
ENDBRANCH   3   4
TORSDOF 12
ENDMDL
MODEL      181
REMARK 921   NORMALIZED FREE ENERGY PREDICTED BY IDOCK:   -2.89 KCAL/MOL
REMARK 922        TOTAL FREE ENERGY PREDICTED BY IDOCK:   -5.83 KCAL/MOL
REMARK 923 INTER-LIGAND FREE ENERGY PREDICTED BY IDOCK:   -4.67 KCAL/MOL
REMARK 924 INTRA-LIGAND FREE ENERGY PREDICTED BY IDOCK:   -1.16 KCAL/MOL
REMARK 927      BINDING AFFINITY PREDICTED BY RF-SCORE:    0.00 PKD
ROOT
HETATM    1  O   UNL     1      -9.473   7.919  72.637  1.00  0.00    -0.177 OA 
HETATM    2  H   UNL     1     -10.087   8.476  73.103  1.00  0.00     0.000 HD 
HETATM    3  C   UNL     1      -8.130   8.129  73.070  1.00  0.00    -0.173 C  
ENDROOT
BRANCH   3   4
HETATM    4  C   UNL     1      -7.133   7.224  72.313  1.00  0.00    -0.067 C  
BRANCH   4   5
HETATM    5  N   UNL     1      -6.194   7.923  71.410  1.00  0.00    -0.034 NA 
BRANCH   5   6
HETATM    6  C   UNL     1      -6.748   8.940  70.652  1.00  0.00    -0.054 A  
HETATM    7  C   UNL     1      -9.530   9.568  68.376  1.00  0.00    -0.137 A  
HETATM    8  N   UNL     1     -10.093  10.612  67.719  1.00  0.00    -0.170 NA 
HETATM    9  N   UNL     1      -7.822   8.701  69.899  1.00  0.00    -0.089 NA 
HETATM   10  C   UNL     1      -8.402   9.719  69.205  1.00  0.00    -0.142 A  
HETATM   11  N   UNL     1      -6.205  10.148  70.720  1.00  0.00    -0.212 NA 
HETATM   12  C   UNL     1      -9.541  11.814  67.819  1.00  0.00    -0.184 A  
HETATM   13  C   UNL     1      -7.897  11.007  69.238  1.00  0.00    -0.052 A  
HETATM   14  C   UNL     1      -6.753  11.168  70.030  1.00  0.00    -0.055 A  
HETATM   15  N   UNL     1      -8.434  12.024  68.520  1.00  0.00    -0.136 NA 
BRANCH  14  16
HETATM   16  N   UNL     1      -6.068  12.375  70.104  1.00  0.00    -0.138 NA 
HETATM   17  C   UNL     1      -5.841  14.413  71.363  1.00  0.00    -0.122 C  
HETATM   18  C   UNL     1      -5.200  15.074  70.138  1.00  0.00    -0.107 C  
HETATM   19  C   UNL     1      -5.581  12.907  71.373  1.00  0.00     0.024 C  
HETATM   20  C   UNL     1      -5.357  12.859  68.921  1.00  0.00    -0.067 C  
HETATM   21  C   UNL     1      -5.591  14.370  68.835  1.00  0.00    -0.086 C  
ENDBRANCH  14  16
BRANCH  12  22
HETATM   22  N   UNL     1     -10.126  12.899  67.201  1.00  0.00    -0.240 NA 
BRANCH  22  23
HETATM   23  C   UNL     1     -11.583  13.027  67.320  1.00  0.00    -0.356 C  
BRANCH  23  24
HETATM   24  C   UNL     1     -12.025  13.916  68.496  1.00  0.00    -0.359 C  
HETATM   25  O   UNL     1     -12.214  13.155  69.688  1.00  0.00    -0.270 OA 
HETATM   26  H   UNL     1     -12.488  13.704  70.414  1.00  0.00     0.000 HD 
ENDBRANCH  23  24
ENDBRANCH  22  23
BRANCH  22  27
HETATM   27  C   UNL     1      -9.323  14.087  66.903  1.00  0.00    -0.257 C  
BRANCH  27  28
HETATM   28  C   UNL     1      -9.420  15.135  68.027  1.00  0.00    -0.199 C  
HETATM   29  O   UNL     1      -8.938  14.616  69.268  1.00  0.00    -0.371 OA 
HETATM   30  H   UNL     1      -8.998  15.263  69.961  1.00  0.00     0.000 HD 
ENDBRANCH  27  28
ENDBRANCH  22  27
ENDBRANCH  12  22
BRANCH   7  31
HETATM   31  N   UNL     1     -10.197   8.359  68.189  1.00  0.00    -0.201 NA 
HETATM   32  C   UNL     1     -10.334   7.716  66.887  1.00  0.00    -0.318 C  
HETATM   33  C   UNL     1     -11.218   8.002  69.177  1.00  0.00     0.343 C  
HETATM   34  C   UNL     1     -10.263   6.201  67.084  1.00  0.00    -0.246 C  
HETATM   35  C   UNL     1     -11.167   6.494  69.418  1.00  0.00    -0.418 C  
HETATM   36  C   UNL     1     -11.285   5.714  68.108  1.00  0.00     0.465 C  
ENDBRANCH   7  31
ENDBRANCH   5   6
BRANCH   5  37
HETATM   37  C   UNL     1      -5.131   7.118  70.794  1.00  0.00    -0.023 C  
BRANCH  37  38
HETATM   38  C   UNL     1      -5.520   5.631  70.662  1.00  0.00    -0.009 C  
HETATM   39  O   UNL     1      -6.518   5.422  69.664  1.00  0.00    -0.035 OA 
HETATM   40  H   UNL     1      -6.757   4.507  69.582  1.00  0.00     0.000 HD 
ENDBRANCH  37  38
ENDBRANCH   5  37
ENDBRANCH   4   5
ENDBRANCH   3   4
TORSDOF 12
ENDMDL
MODEL      182
REMARK 921   NORMALIZED FREE ENERGY PREDICTED BY IDOCK:   -2.86 KCAL/MOL
REMARK 922        TOTAL FREE ENERGY PREDICTED BY IDOCK:   -5.79 KCAL/MOL
REMARK 923 INTER-LIGAND FREE ENERGY PREDICTED BY IDOCK:   -6.21 KCAL/MOL
REMARK 924 INTRA-LIGAND FREE ENERGY PREDICTED BY IDOCK:    0.42 KCAL/MOL
REMARK 927      BINDING AFFINITY PREDICTED BY RF-SCORE:    0.00 PKD
ROOT
HETATM    1  O   UNL     1     -10.268  20.469  66.721  1.00  0.00    -0.384 OA 
HETATM    2  H   UNL     1     -10.098  21.396  66.595  1.00  0.00     0.000 HD 
HETATM    3  C   UNL     1     -10.433  19.785  65.480  1.00  0.00    -0.227 C  
ENDROOT
BRANCH   3   4
HETATM    4  C   UNL     1     -10.708  18.279  65.685  1.00  0.00    -0.033 C  
BRANCH   4   5
HETATM    5  N   UNL     1     -10.094  17.675  66.887  1.00  0.00    -0.318 NA 
BRANCH   5   6
HETATM    6  C   UNL     1      -9.779  16.332  66.779  1.00  0.00    -0.241 A  
HETATM    7  C   UNL     1      -7.472  13.857  68.144  1.00  0.00    -0.126 A  
HETATM    8  N   UNL     1      -7.253  12.521  68.075  1.00  0.00    -0.093 NA 
HETATM    9  N   UNL     1      -8.777  15.823  67.497  1.00  0.00    -0.172 NA 
HETATM   10  C   UNL     1      -8.511  14.489  67.436  1.00  0.00    -0.205 A  
HETATM   11  N   UNL     1     -10.512  15.572  65.976  1.00  0.00    -0.307 NA 
HETATM   12  C   UNL     1      -8.013  11.780  67.279  1.00  0.00    -0.161 A  
HETATM   13  C   UNL     1      -9.241  13.634  66.629  1.00  0.00    -0.212 A  
HETATM   14  C   UNL     1     -10.258  14.251  65.888  1.00  0.00    -0.324 A  
HETATM   15  N   UNL     1      -8.964  12.311  66.522  1.00  0.00    -0.194 NA 
BRANCH  14  16
HETATM   16  N   UNL     1     -11.028  13.555  64.964  1.00  0.00    -0.318 NA 
HETATM   17  C   UNL     1     -13.085  12.345  64.659  1.00  0.00     0.108 C  
HETATM   18  C   UNL     1     -12.480  11.670  63.423  1.00  0.00    -0.326 C  
HETATM   19  C   UNL     1     -12.475  13.728  64.882  1.00  0.00    -0.386 C  
HETATM   20  C   UNL     1     -10.396  13.072  63.737  1.00  0.00     0.031 C  
HETATM   21  C   UNL     1     -10.948  11.671  63.460  1.00  0.00    -0.485 C  
ENDBRANCH  14  16
BRANCH  12  22
HETATM   22  N   UNL     1      -7.842  10.413  67.233  1.00  0.00    -0.106 NA 
BRANCH  22  23
HETATM   23  C   UNL     1      -7.384   9.758  68.463  1.00  0.00    -0.074 C  
BRANCH  23  24
HETATM   24  C   UNL     1      -5.916  10.066  68.811  1.00  0.00    -0.037 C  
HETATM   25  O   UNL     1      -5.408   9.163  69.792  1.00  0.00    -0.033 OA 
HETATM   26  H   UNL     1      -4.502   9.354  70.007  1.00  0.00     0.000 HD 
ENDBRANCH  23  24
ENDBRANCH  22  23
BRANCH  22  27
HETATM   27  C   UNL     1      -8.548   9.625  66.220  1.00  0.00    -0.127 C  
BRANCH  27  28
HETATM   28  C   UNL     1      -8.019   8.181  66.153  1.00  0.00    -0.102 C  
HETATM   29  O   UNL     1      -8.313   7.575  64.892  1.00  0.00    -0.264 OA 
HETATM   30  H   UNL     1      -7.986   6.683  64.852  1.00  0.00     0.000 HD 
ENDBRANCH  27  28
ENDBRANCH  22  27
ENDBRANCH  12  22
BRANCH   7  31
HETATM   31  N   UNL     1      -6.607  14.525  69.010  1.00  0.00    -0.094 NA 
HETATM   32  C   UNL     1      -6.125  15.880  68.768  1.00  0.00    -0.105 C  
HETATM   33  C   UNL     1      -5.757  13.699  69.871  1.00  0.00    -0.117 C  
HETATM   34  C   UNL     1      -6.006  16.600  70.111  1.00  0.00    -0.130 C  
HETATM   35  C   UNL     1      -5.628  14.376  71.234  1.00  0.00    -0.179 C  
HETATM   36  C   UNL     1      -5.142  15.819  71.098  1.00  0.00    -0.146 C  
ENDBRANCH   7  31
ENDBRANCH   5   6
BRANCH   5  37
HETATM   37  C   UNL     1     -10.557  18.163  68.192  1.00  0.00    -0.302 C  
BRANCH  37  38
HETATM   38  C   UNL     1     -10.992  17.018  69.129  1.00  0.00    -0.054 C  
HETATM   39  O   UNL     1     -10.707  17.304  70.498  1.00  0.00     0.029 OA 
HETATM   40  H   UNL     1     -10.976  16.599  71.075  1.00  0.00     0.000 HD 
ENDBRANCH  37  38
ENDBRANCH   5  37
ENDBRANCH   4   5
ENDBRANCH   3   4
TORSDOF 12
ENDMDL
MODEL      183
REMARK 921   NORMALIZED FREE ENERGY PREDICTED BY IDOCK:   -2.78 KCAL/MOL
REMARK 922        TOTAL FREE ENERGY PREDICTED BY IDOCK:   -5.65 KCAL/MOL
REMARK 923 INTER-LIGAND FREE ENERGY PREDICTED BY IDOCK:   -5.17 KCAL/MOL
REMARK 924 INTRA-LIGAND FREE ENERGY PREDICTED BY IDOCK:   -0.47 KCAL/MOL
REMARK 927      BINDING AFFINITY PREDICTED BY RF-SCORE:    0.00 PKD
ROOT
HETATM    1  O   UNL     1      -9.555  19.057  66.125  1.00  0.00    -0.390 OA 
HETATM    2  H   UNL     1     -10.209  19.110  65.437  1.00  0.00     0.000 HD 
HETATM    3  C   UNL     1      -9.824  17.992  67.034  1.00  0.00    -0.318 C  
ENDROOT
BRANCH   3   4
HETATM    4  C   UNL     1      -8.761  17.905  68.152  1.00  0.00    -0.268 C  
BRANCH   4   5
HETATM    5  N   UNL     1      -8.087  16.597  68.292  1.00  0.00    -0.190 NA 
BRANCH   5   6
HETATM    6  C   UNL     1      -8.905  15.548  68.674  1.00  0.00    -0.193 A  
HETATM    7  C   UNL     1      -9.204  11.929  68.320  1.00  0.00    -0.187 A  
HETATM    8  N   UNL     1      -9.979  10.920  68.788  1.00  0.00    -0.189 NA 
HETATM    9  N   UNL     1      -8.632  14.308  68.269  1.00  0.00    -0.170 NA 
HETATM   10  C   UNL     1      -9.402  13.271  68.698  1.00  0.00     0.002 A  
HETATM   11  N   UNL     1      -9.935  15.806  69.469  1.00  0.00    -0.270 NA 
HETATM   12  C   UNL     1     -10.991  11.203  69.597  1.00  0.00    -0.192 A  
HETATM   13  C   UNL     1     -10.486  13.463  69.537  1.00  0.00     0.436 A  
HETATM   14  C   UNL     1     -10.721  14.797  69.895  1.00  0.00    -0.113 A  
HETATM   15  N   UNL     1     -11.290  12.449  69.940  1.00  0.00    -0.082 NA 
BRANCH  14  16
HETATM   16  N   UNL     1     -11.818  15.176  70.659  1.00  0.00    -0.299 NA 
HETATM   17  C   UNL     1     -12.658  15.360  72.907  1.00  0.00    -0.524 C  
HETATM   18  C   UNL     1     -14.086  15.374  72.349  1.00  0.00    -0.645 C  
HETATM   19  C   UNL     1     -11.669  15.938  71.895  1.00  0.00    -0.499 C  
HETATM   20  C   UNL     1     -13.122  15.307  70.010  1.00  0.00     0.121 C  
HETATM   21  C   UNL     1     -14.168  14.725  70.964  1.00  0.00    -0.147 C  
ENDBRANCH  14  16
BRANCH  12  22
HETATM   22  N   UNL     1     -11.760  10.188  70.125  1.00  0.00    -0.265 NA 
BRANCH  22  23
HETATM   23  C   UNL     1     -13.150  10.514  70.465  1.00  0.00    -0.133 C  
BRANCH  23  24
HETATM   24  C   UNL     1     -13.381  10.709  71.975  1.00  0.00    -0.304 C  
HETATM   25  O   UNL     1     -12.216  10.381  72.732  1.00  0.00     1.182 OA 
HETATM   26  H   UNL     1     -12.359  10.501  73.663  1.00  0.00     0.000 HD 
ENDBRANCH  23  24
ENDBRANCH  22  23
BRANCH  22  27
HETATM   27  C   UNL     1     -11.390   8.792  69.881  1.00  0.00     0.039 C  
BRANCH  27  28
HETATM   28  C   UNL     1     -10.296   8.315  70.855  1.00  0.00    -0.192 C  
HETATM   29  O   UNL     1      -9.283   9.308  71.030  1.00  0.00    -0.246 OA 
HETATM   30  H   UNL     1      -8.608   9.013  71.630  1.00  0.00     0.000 HD 
ENDBRANCH  27  28
ENDBRANCH  22  27
ENDBRANCH  12  22
BRANCH   7  31
HETATM   31  N   UNL     1      -8.177  11.506  67.477  1.00  0.00    -0.135 NA 
HETATM   32  C   UNL     1      -6.780  11.875  67.674  1.00  0.00    -0.105 C  
HETATM   33  C   UNL     1      -8.546  11.150  66.105  1.00  0.00    -0.172 C  
HETATM   34  C   UNL     1      -5.903  10.692  67.262  1.00  0.00    -0.046 C  
HETATM   35  C   UNL     1      -7.704   9.956  65.660  1.00  0.00    -0.121 C  
HETATM   36  C   UNL     1      -6.210  10.227  65.840  1.00  0.00    -0.105 C  
ENDBRANCH   7  31
ENDBRANCH   5   6
BRANCH   5  37
HETATM   37  C   UNL     1      -6.708  16.604  68.799  1.00  0.00    -0.174 C  
BRANCH  37  38
HETATM   38  C   UNL     1      -6.356  15.314  69.566  1.00  0.00    -0.145 C  
HETATM   39  O   UNL     1      -5.365  15.537  70.569  1.00  0.00    -0.134 OA 
HETATM   40  H   UNL     1      -5.149  14.742  71.042  1.00  0.00     0.000 HD 
ENDBRANCH  37  38
ENDBRANCH   5  37
ENDBRANCH   4   5
ENDBRANCH   3   4
TORSDOF 12
ENDMDL
MODEL      184
REMARK 921   NORMALIZED FREE ENERGY PREDICTED BY IDOCK:   -2.77 KCAL/MOL
REMARK 922        TOTAL FREE ENERGY PREDICTED BY IDOCK:   -5.64 KCAL/MOL
REMARK 923 INTER-LIGAND FREE ENERGY PREDICTED BY IDOCK:   -6.41 KCAL/MOL
REMARK 924 INTRA-LIGAND FREE ENERGY PREDICTED BY IDOCK:    0.78 KCAL/MOL
REMARK 927      BINDING AFFINITY PREDICTED BY RF-SCORE:    0.00 PKD
ROOT
HETATM    1  O   UNL     1      -7.510  10.964  64.626  1.00  0.00    -0.337 OA 
HETATM    2  H   UNL     1      -6.712  10.795  64.138  1.00  0.00     0.000 HD 
HETATM    3  C   UNL     1      -8.623  11.192  63.762  1.00  0.00     0.238 C  
ENDROOT
BRANCH   3   4
HETATM    4  C   UNL     1      -9.920  11.467  64.555  1.00  0.00    -0.271 C  
BRANCH   4   5
HETATM    5  N   UNL     1      -9.741  12.137  65.860  1.00  0.00    -0.243 NA 
BRANCH   5   6
HETATM    6  C   UNL     1      -9.594  11.291  66.945  1.00  0.00    -0.191 A  
HETATM    7  C   UNL     1     -11.042  10.636  70.229  1.00  0.00    -0.233 A  
HETATM    8  N   UNL     1     -10.924   9.732  71.233  1.00  0.00    -0.326 NA 
HETATM    9  N   UNL     1     -10.376  11.437  68.015  1.00  0.00    -0.179 NA 
HETATM   10  C   UNL     1     -10.271  10.563  69.053  1.00  0.00    -0.216 A  
HETATM   11  N   UNL     1      -8.686  10.326  66.877  1.00  0.00    -0.126 NA 
HETATM   12  C   UNL     1     -10.022   8.766  71.131  1.00  0.00    -0.248 A  
HETATM   13  C   UNL     1      -9.355   9.526  69.047  1.00  0.00    -0.155 A  
HETATM   14  C   UNL     1      -8.554   9.459  67.900  1.00  0.00    -0.120 A  
HETATM   15  N   UNL     1      -9.206   8.672  70.090  1.00  0.00    -0.155 NA 
BRANCH  14  16
HETATM   16  N   UNL     1      -7.525   8.534  67.768  1.00  0.00    -0.096 NA 
HETATM   17  C   UNL     1      -5.140   8.288  67.558  1.00  0.00    -0.033 C  
HETATM   18  C   UNL     1      -5.358   6.891  66.964  1.00  0.00    -0.017 C  
HETATM   19  C   UNL     1      -6.275   8.661  68.511  1.00  0.00    -0.053 C  
HETATM   20  C   UNL     1      -7.846   7.175  67.334  1.00  0.00    -0.112 C  
HETATM   21  C   UNL     1      -6.754   6.738  66.354  1.00  0.00    -0.049 C  
ENDBRANCH  14  16
BRANCH  12  22
HETATM   22  N   UNL     1      -9.920   7.807  72.116  1.00  0.00    -0.182 NA 
BRANCH  22  23
HETATM   23  C   UNL     1     -10.976   7.784  73.135  1.00  0.00    -0.310 C  
BRANCH  23  24
HETATM   24  C   UNL     1     -12.345   7.342  72.587  1.00  0.00     0.227 C  
HETATM   25  O   UNL     1     -12.631   5.984  72.920  1.00  0.00    -0.243 OA 
HETATM   26  H   UNL     1     -13.476   5.711  72.582  1.00  0.00     0.000 HD 
ENDBRANCH  23  24
ENDBRANCH  22  23
BRANCH  22  27
HETATM   27  C   UNL     1      -9.130   6.598  71.876  1.00  0.00    -0.143 C  
BRANCH  27  28
HETATM   28  C   UNL     1      -9.958   5.507  71.171  1.00  0.00    -0.195 C  
HETATM   29  O   UNL     1     -10.821   6.066  70.179  1.00  0.00    -0.280 OA 
HETATM   30  H   UNL     1     -11.332   5.393  69.744  1.00  0.00     0.000 HD 
ENDBRANCH  27  28
ENDBRANCH  22  27
ENDBRANCH  12  22
BRANCH   7  31
HETATM   31  N   UNL     1     -12.021  11.604  70.454  1.00  0.00    -0.370 NA 
HETATM   32  C   UNL     1     -13.208  11.364  71.267  1.00  0.00    -0.049 C  
HETATM   33  C   UNL     1     -12.146  12.668  69.456  1.00  0.00    -0.192 C  
HETATM   34  C   UNL     1     -13.549  12.651  72.019  1.00  0.00    -0.426 C  
HETATM   35  C   UNL     1     -12.468  13.980  70.170  1.00  0.00    -0.380 C  
HETATM   36  C   UNL     1     -13.695  13.839  71.071  1.00  0.00     0.095 C  
ENDBRANCH   7  31
ENDBRANCH   5   6
BRANCH   5  37
HETATM   37  C   UNL     1     -10.468  13.396  66.072  1.00  0.00    -0.294 C  
BRANCH  37  38
HETATM   38  C   UNL     1     -11.940  13.309  65.621  1.00  0.00    -0.412 C  
HETATM   39  O   UNL     1     -12.502  12.018  65.859  1.00  0.00    -0.337 OA 
HETATM   40  H   UNL     1     -13.408  11.965  65.581  1.00  0.00     0.000 HD 
ENDBRANCH  37  38
ENDBRANCH   5  37
ENDBRANCH   4   5
ENDBRANCH   3   4
TORSDOF 12
ENDMDL
MODEL      185
REMARK 921   NORMALIZED FREE ENERGY PREDICTED BY IDOCK:   -2.75 KCAL/MOL
REMARK 922        TOTAL FREE ENERGY PREDICTED BY IDOCK:   -5.60 KCAL/MOL
REMARK 923 INTER-LIGAND FREE ENERGY PREDICTED BY IDOCK:   -5.06 KCAL/MOL
REMARK 924 INTRA-LIGAND FREE ENERGY PREDICTED BY IDOCK:   -0.54 KCAL/MOL
REMARK 927      BINDING AFFINITY PREDICTED BY RF-SCORE:    0.00 PKD
ROOT
HETATM    1  O   UNL     1     -11.595   9.249  72.334  1.00  0.00    -0.117 OA 
HETATM    2  H   UNL     1     -12.070   8.729  72.972  1.00  0.00     0.000 HD 
HETATM    3  C   UNL     1     -10.494   8.533  71.778  1.00  0.00    -0.300 C  
ENDROOT
BRANCH   3   4
HETATM    4  C   UNL     1      -9.722   9.379  70.740  1.00  0.00    -0.264 C  
BRANCH   4   5
HETATM    5  N   UNL     1     -10.356   9.491  69.409  1.00  0.00    -0.204 NA 
BRANCH   5   6
HETATM    6  C   UNL     1      -9.930   8.568  68.471  1.00  0.00    -0.184 A  
HETATM    7  C   UNL     1      -8.982   8.352  64.954  1.00  0.00     0.182 A  
HETATM    8  N   UNL     1      -8.481   7.437  64.088  1.00  0.00     0.163 NA 
HETATM    9  N   UNL     1      -9.713   8.949  67.212  1.00  0.00    -0.169 NA 
HETATM   10  C   UNL     1      -9.233   8.053  66.306  1.00  0.00    -0.184 A  
HETATM   11  N   UNL     1      -9.717   7.319  68.863  1.00  0.00    -0.147 NA 
HETATM   12  C   UNL     1      -8.259   6.199  64.510  1.00  0.00    -0.079 A  
HETATM   13  C   UNL     1      -8.977   6.736  66.646  1.00  0.00    -0.144 A  
HETATM   14  C   UNL     1      -9.256   6.410  67.980  1.00  0.00    -0.110 A  
HETATM   15  N   UNL     1      -8.540   5.818  65.749  1.00  0.00    -0.145 NA 
BRANCH  14  16
HETATM   16  N   UNL     1      -9.139   5.113  68.466  1.00  0.00    -0.109 NA 
HETATM   17  C   UNL     1      -7.935   3.710  70.006  1.00  0.00    -0.051 C  
HETATM   18  C   UNL     1      -8.369   2.483  69.195  1.00  0.00    -0.082 C  
HETATM   19  C   UNL     1      -8.961   4.836  69.887  1.00  0.00    -0.096 C  
HETATM   20  C   UNL     1      -9.714   4.013  67.692  1.00  0.00    -0.109 C  
HETATM   21  C   UNL     1      -8.724   2.847  67.750  1.00  0.00    -0.139 C  
ENDBRANCH  14  16
BRANCH  12  22
HETATM   22  N   UNL     1      -7.702   5.267  63.661  1.00  0.00    -0.074 NA 
BRANCH  22  23
HETATM   23  C   UNL     1      -6.327   4.844  63.946  1.00  0.00    -0.022 C  
BRANCH  23  24
HETATM   24  C   UNL     1      -5.265   5.665  63.192  1.00  0.00    -0.013 C  
HETATM   25  O   UNL     1      -5.839   6.801  62.548  1.00  0.00    -0.037 OA 
HETATM   26  H   UNL     1      -5.184   7.307  62.082  1.00  0.00     0.000 HD 
ENDBRANCH  23  24
ENDBRANCH  22  23
BRANCH  22  27
HETATM   27  C   UNL     1      -8.572   4.395  62.869  1.00  0.00    -0.106 C  
BRANCH  27  28
HETATM   28  C   UNL     1      -9.864   4.038  63.627  1.00  0.00    -0.142 C  
HETATM   29  O   UNL     1      -9.778   2.743  64.226  1.00  0.00    -0.150 OA 
HETATM   30  H   UNL     1     -10.575   2.524  64.693  1.00  0.00     0.000 HD 
ENDBRANCH  27  28
ENDBRANCH  22  27
ENDBRANCH  12  22
BRANCH   7  31
HETATM   31  N   UNL     1      -9.175   9.613  64.392  1.00  0.00    -0.239 NA 
HETATM   32  C   UNL     1      -9.120   9.864  62.956  1.00  0.00    -0.269 C  
HETATM   33  C   UNL     1      -8.896  10.772  65.243  1.00  0.00    -0.187 C  
HETATM   34  C   UNL     1     -10.153  10.937  62.611  1.00  0.00     0.019 C  
HETATM   35  C   UNL     1      -9.921  11.864  64.943  1.00  0.00    -0.269 C  
HETATM   36  C   UNL     1      -9.963  12.198  63.452  1.00  0.00    -0.305 C  
ENDBRANCH   7  31
ENDBRANCH   5   6
BRANCH   5  37
HETATM   37  C   UNL     1     -10.685  10.842  68.935  1.00  0.00    -0.222 C  
BRANCH  37  38
HETATM   38  C   UNL     1     -12.072  11.313  69.416  1.00  0.00    -0.315 C  
HETATM   39  O   UNL     1     -11.980  12.295  70.448  1.00  0.00    -0.440 OA 
HETATM   40  H   UNL     1     -12.834  12.586  70.743  1.00  0.00     0.000 HD 
ENDBRANCH  37  38
ENDBRANCH   5  37
ENDBRANCH   4   5
ENDBRANCH   3   4
TORSDOF 12
ENDMDL
MODEL      186
REMARK 921   NORMALIZED FREE ENERGY PREDICTED BY IDOCK:   -2.74 KCAL/MOL
REMARK 922        TOTAL FREE ENERGY PREDICTED BY IDOCK:   -5.57 KCAL/MOL
REMARK 923 INTER-LIGAND FREE ENERGY PREDICTED BY IDOCK:   -5.09 KCAL/MOL
REMARK 924 INTRA-LIGAND FREE ENERGY PREDICTED BY IDOCK:   -0.48 KCAL/MOL
REMARK 927      BINDING AFFINITY PREDICTED BY RF-SCORE:    0.00 PKD
ROOT
HETATM    1  O   UNL     1     -13.079  13.479  64.498  1.00  0.00    -0.506 OA 
HETATM    2  H   UNL     1     -13.199  14.174  63.861  1.00  0.00     0.000 HD 
HETATM    3  C   UNL     1     -11.699  13.177  64.702  1.00  0.00    -0.361 C  
ENDROOT
BRANCH   3   4
HETATM    4  C   UNL     1     -11.504  12.047  65.737  1.00  0.00    -0.320 C  
BRANCH   4   5
HETATM    5  N   UNL     1     -10.234  11.298  65.634  1.00  0.00    -0.244 NA 
BRANCH   5   6
HETATM    6  C   UNL     1      -9.481  11.246  66.794  1.00  0.00    -0.179 A  
HETATM    7  C   UNL     1      -8.562   8.932  69.461  1.00  0.00    -0.134 A  
HETATM    8  N   UNL     1      -7.743   8.896  70.541  1.00  0.00    -0.090 NA 
HETATM    9  N   UNL     1      -9.449  10.128  67.519  1.00  0.00    -0.151 NA 
HETATM   10  C   UNL     1      -8.658  10.060  68.624  1.00  0.00    -0.123 A  
HETATM   11  N   UNL     1      -8.778  12.316  67.140  1.00  0.00    -0.186 NA 
HETATM   12  C   UNL     1      -7.037   9.973  70.855  1.00  0.00     0.266 A  
HETATM   13  C   UNL     1      -7.889  11.134  69.040  1.00  0.00    -0.103 A  
HETATM   14  C   UNL     1      -7.999  12.278  68.240  1.00  0.00    -0.163 A  
HETATM   15  N   UNL     1      -7.128  11.100  70.161  1.00  0.00    -0.005 NA 
BRANCH  14  16
HETATM   16  N   UNL     1      -7.364  13.472  68.562  1.00  0.00    -0.109 NA 
HETATM   17  C   UNL     1      -7.400  15.853  68.220  1.00  0.00    -0.124 C  
HETATM   18  C   UNL     1      -5.928  15.915  68.645  1.00  0.00    -0.101 C  
HETATM   19  C   UNL     1      -8.115  14.679  68.890  1.00  0.00    -0.147 C  
HETATM   20  C   UNL     1      -6.006  13.426  69.103  1.00  0.00    -0.087 C  
HETATM   21  C   UNL     1      -5.219  14.571  68.457  1.00  0.00    -0.103 C  
ENDBRANCH  14  16
BRANCH  12  22
HETATM   22  N   UNL     1      -6.160   9.941  71.918  1.00  0.00    -0.289 NA 
BRANCH  22  23
HETATM   23  C   UNL     1      -5.940   8.641  72.560  1.00  0.00    -0.079 C  
BRANCH  23  24
HETATM   24  C   UNL     1      -7.215   8.039  73.178  1.00  0.00    -0.116 C  
HETATM   25  O   UNL     1      -7.773   8.897  74.172  1.00  0.00    -0.404 OA 
HETATM   26  H   UNL     1      -8.560   8.526  74.553  1.00  0.00     0.000 HD 
ENDBRANCH  23  24
ENDBRANCH  22  23
BRANCH  22  27
HETATM   27  C   UNL     1      -5.150  10.992  72.060  1.00  0.00     0.112 C  
BRANCH  27  28
HETATM   28  C   UNL     1      -5.377  11.832  73.330  1.00  0.00     0.940 C  
HETATM   29  O   UNL     1      -5.201  13.227  73.073  1.00  0.00    -0.379 OA 
HETATM   30  H   UNL     1      -5.341  13.745  73.857  1.00  0.00     0.000 HD 
ENDBRANCH  27  28
ENDBRANCH  22  27
ENDBRANCH  12  22
BRANCH   7  31
HETATM   31  N   UNL     1      -9.253   7.742  69.237  1.00  0.00    -0.146 NA 
HETATM   32  C   UNL     1      -9.741   6.888  70.314  1.00  0.00    -0.172 C  
HETATM   33  C   UNL     1      -9.025   7.070  67.956  1.00  0.00    -0.126 C  
HETATM   34  C   UNL     1     -11.073   6.274  69.882  1.00  0.00    -0.469 C  
HETATM   35  C   UNL     1     -10.340   6.458  67.477  1.00  0.00    -0.245 C  
HETATM   36  C   UNL     1     -10.955   5.550  68.543  1.00  0.00     0.082 C  
ENDBRANCH   7  31
ENDBRANCH   5   6
BRANCH   5  37
HETATM   37  C   UNL     1      -9.513  11.375  64.357  1.00  0.00    -0.135 C  
BRANCH  37  38
HETATM   38  C   UNL     1      -9.250   9.985  63.743  1.00  0.00    -0.271 C  
HETATM   39  O   UNL     1      -9.354   8.941  64.711  1.00  0.00    -0.422 OA 
HETATM   40  H   UNL     1      -9.192   8.085  64.332  1.00  0.00     0.000 HD 
ENDBRANCH  37  38
ENDBRANCH   5  37
ENDBRANCH   4   5
ENDBRANCH   3   4
TORSDOF 12
ENDMDL
MODEL      187
REMARK 921   NORMALIZED FREE ENERGY PREDICTED BY IDOCK:   -2.67 KCAL/MOL
REMARK 922        TOTAL FREE ENERGY PREDICTED BY IDOCK:   -5.46 KCAL/MOL
REMARK 923 INTER-LIGAND FREE ENERGY PREDICTED BY IDOCK:   -5.98 KCAL/MOL
REMARK 924 INTRA-LIGAND FREE ENERGY PREDICTED BY IDOCK:    0.52 KCAL/MOL
REMARK 927      BINDING AFFINITY PREDICTED BY RF-SCORE:    0.00 PKD
ROOT
HETATM    1  O   UNL     1     -11.559   4.456  64.731  1.00  0.00    -1.000 OA 
HETATM    2  H   UNL     1     -12.407   4.785  64.456  1.00  0.00     0.000 HD 
HETATM    3  C   UNL     1     -11.055   3.470  63.831  1.00  0.00     0.128 C  
ENDROOT
BRANCH   3   4
HETATM    4  C   UNL     1      -9.675   2.936  64.277  1.00  0.00    -0.149 C  
BRANCH   4   5
HETATM    5  N   UNL     1      -8.611   3.953  64.416  1.00  0.00    -0.102 NA 
BRANCH   5   6
HETATM    6  C   UNL     1      -8.796   4.867  65.437  1.00  0.00    -0.149 A  
HETATM    7  C   UNL     1      -8.726   8.463  66.052  1.00  0.00    -0.157 A  
HETATM    8  N   UNL     1      -9.002   9.330  67.057  1.00  0.00    -0.125 NA 
HETATM    9  N   UNL     1      -8.634   6.170  65.204  1.00  0.00    -0.097 NA 
HETATM   10  C   UNL     1      -8.878   7.071  66.195  1.00  0.00    -0.147 A  
HETATM   11  N   UNL     1      -9.164   4.418  66.630  1.00  0.00    -0.128 NA 
HETATM   12  C   UNL     1      -9.387   8.856  68.235  1.00  0.00    -0.143 A  
HETATM   13  C   UNL     1      -9.275   6.676  67.460  1.00  0.00    -0.114 A  
HETATM   14  C   UNL     1      -9.396   5.291  67.631  1.00  0.00    -0.118 A  
HETATM   15  N   UNL     1      -9.481   7.554  68.472  1.00  0.00    -0.145 NA 
BRANCH  14  16
HETATM   16  N   UNL     1      -9.700   4.720  68.861  1.00  0.00    -0.169 NA 
HETATM   17  C   UNL     1     -10.115   5.199  71.183  1.00  0.00    -0.291 C  
HETATM   18  C   UNL     1      -9.779   3.742  71.521  1.00  0.00    -0.241 C  
HETATM   19  C   UNL     1     -10.678   5.316  69.766  1.00  0.00    -0.109 C  
HETATM   20  C   UNL     1      -9.484   3.286  69.049  1.00  0.00    -0.117 C  
HETATM   21  C   UNL     1      -8.898   3.092  70.450  1.00  0.00    -0.149 C  
ENDBRANCH  14  16
BRANCH  12  22
HETATM   22  N   UNL     1      -9.721   9.722  69.254  1.00  0.00    -0.185 NA 
BRANCH  22  23
HETATM   23  C   UNL     1     -11.072  10.294  69.225  1.00  0.00    -0.245 C  
BRANCH  23  24
HETATM   24  C   UNL     1     -11.138  11.671  68.540  1.00  0.00    -0.235 C  
HETATM   25  O   UNL     1     -10.374  12.647  69.247  1.00  0.00    -0.424 OA 
HETATM   26  H   UNL     1     -10.415  13.497  68.825  1.00  0.00     0.000 HD 
ENDBRANCH  23  24
ENDBRANCH  22  23
BRANCH  22  27
HETATM   27  C   UNL     1      -8.993   9.667  70.523  1.00  0.00    -0.128 C  
BRANCH  27  28
HETATM   28  C   UNL     1      -9.137   8.294  71.205  1.00  0.00    -0.162 C  
HETATM   29  O   UNL     1     -10.455   8.105  71.725  1.00  0.00    -0.216 OA 
HETATM   30  H   UNL     1     -10.544   7.257  72.145  1.00  0.00     0.000 HD 
ENDBRANCH  27  28
ENDBRANCH  22  27
ENDBRANCH  12  22
BRANCH   7  31
HETATM   31  N   UNL     1      -8.329   9.081  64.868  1.00  0.00    -0.160 NA 
HETATM   32  C   UNL     1      -7.539   8.409  63.843  1.00  0.00    -0.135 C  
HETATM   33  C   UNL     1      -8.230  10.543  64.880  1.00  0.00    -0.117 C  
HETATM   34  C   UNL     1      -8.000   8.905  62.471  1.00  0.00    -0.143 C  
HETATM   35  C   UNL     1      -8.702  11.082  63.531  1.00  0.00     0.011 C  
HETATM   36  C   UNL     1      -7.947  10.428  62.373  1.00  0.00    -0.189 C  
ENDBRANCH   7  31
ENDBRANCH   5   6
BRANCH   5  37
HETATM   37  C   UNL     1      -7.977   4.431  63.180  1.00  0.00    -0.078 C  
BRANCH  37  38
HETATM   38  C   UNL     1      -6.584   3.810  62.954  1.00  0.00    -0.026 C  
HETATM   39  O   UNL     1      -6.610   2.385  63.033  1.00  0.00    -0.024 OA 
HETATM   40  H   UNL     1      -5.752   2.003  62.894  1.00  0.00     0.000 HD 
ENDBRANCH  37  38
ENDBRANCH   5  37
ENDBRANCH   4   5
ENDBRANCH   3   4
TORSDOF 12
ENDMDL
MODEL      188
REMARK 921   NORMALIZED FREE ENERGY PREDICTED BY IDOCK:   -2.62 KCAL/MOL
REMARK 922        TOTAL FREE ENERGY PREDICTED BY IDOCK:   -5.38 KCAL/MOL
REMARK 923 INTER-LIGAND FREE ENERGY PREDICTED BY IDOCK:   -7.22 KCAL/MOL
REMARK 924 INTRA-LIGAND FREE ENERGY PREDICTED BY IDOCK:    1.84 KCAL/MOL
REMARK 927      BINDING AFFINITY PREDICTED BY RF-SCORE:    0.00 PKD
ROOT
HETATM    1  O   UNL     1     -11.014   6.571  71.153  1.00  0.00    -0.244 OA 
HETATM    2  H   UNL     1     -10.316   5.953  70.968  1.00  0.00     0.000 HD 
HETATM    3  C   UNL     1     -11.712   6.954  69.969  1.00  0.00    -0.208 C  
ENDROOT
BRANCH   3   4
HETATM    4  C   UNL     1     -12.848   7.958  70.269  1.00  0.00     1.106 C  
BRANCH   4   5
HETATM    5  N   UNL     1     -12.553   8.962  71.313  1.00  0.00    -0.295 NA 
BRANCH   5   6
HETATM    6  C   UNL     1     -12.204  10.217  70.845  1.00  0.00    -0.356 A  
HETATM    7  C   UNL     1     -10.158  11.799  68.271  1.00  0.00    -0.197 A  
HETATM    8  N   UNL     1      -9.911  13.042  67.788  1.00  0.00    -0.221 NA 
HETATM    9  N   UNL     1     -11.348  10.335  69.830  1.00  0.00    -0.271 NA 
HETATM   10  C   UNL     1     -11.055  11.568  69.332  1.00  0.00    -0.226 A  
HETATM   11  N   UNL     1     -12.761  11.280  71.409  1.00  0.00    -0.406 NA 
HETATM   12  C   UNL     1     -10.496  14.087  68.357  1.00  0.00    -0.253 A  
HETATM   13  C   UNL     1     -11.607  12.721  69.862  1.00  0.00    -0.173 A  
HETATM   14  C   UNL     1     -12.475  12.512  70.942  1.00  0.00    -0.269 A  
HETATM   15  N   UNL     1     -11.295  13.959  69.408  1.00  0.00    -0.263 NA 
BRANCH  14  16
HETATM   16  N   UNL     1     -13.047  13.565  71.647  1.00  0.00    -0.372 NA 
HETATM   17  C   UNL     1     -14.375  15.560  71.432  1.00  0.00    -0.366 C  
HETATM   18  C   UNL     1     -13.828  16.044  72.780  1.00  0.00    -0.385 C  
HETATM   19  C   UNL     1     -14.400  14.033  71.368  1.00  0.00     0.065 C  
HETATM   20  C   UNL     1     -12.558  13.864  72.992  1.00  0.00     0.136 C  
HETATM   21  C   UNL     1     -12.487  15.388  73.124  1.00  0.00    -0.572 C  
ENDBRANCH  14  16
BRANCH  12  22
HETATM   22  N   UNL     1     -10.299  15.353  67.849  1.00  0.00    -0.244 NA 
BRANCH  22  23
HETATM   23  C   UNL     1     -11.225  15.803  66.804  1.00  0.00    -0.021 C  
BRANCH  23  24
HETATM   24  C   UNL     1     -10.864  15.284  65.401  1.00  0.00    -0.387 C  
HETATM   25  O   UNL     1      -9.480  15.474  65.110  1.00  0.00    -0.246 OA 
HETATM   26  H   UNL     1      -9.257  15.154  64.244  1.00  0.00     0.000 HD 
ENDBRANCH  23  24
ENDBRANCH  22  23
BRANCH  22  27
HETATM   27  C   UNL     1      -9.569  16.348  68.638  1.00  0.00    -0.240 C  
BRANCH  27  28
HETATM   28  C   UNL     1      -8.106  15.929  68.871  1.00  0.00    -0.214 C  
HETATM   29  O   UNL     1      -7.252  17.066  69.009  1.00  0.00    -0.227 OA 
HETATM   30  H   UNL     1      -6.349  16.807  69.152  1.00  0.00     0.000 HD 
ENDBRANCH  27  28
ENDBRANCH  22  27
ENDBRANCH  12  22
BRANCH   7  31
HETATM   31  N   UNL     1      -9.483  10.786  67.594  1.00  0.00    -0.153 NA 
HETATM   32  C   UNL     1      -8.101  10.418  67.880  1.00  0.00    -0.102 C  
HETATM   33  C   UNL     1      -9.955  10.456  66.247  1.00  0.00    -0.226 C  
HETATM   34  C   UNL     1      -7.956   8.905  67.708  1.00  0.00    -0.102 C  
HETATM   35  C   UNL     1      -9.845   8.946  66.041  1.00  0.00    -0.277 C  
HETATM   36  C   UNL     1      -8.431   8.443  66.333  1.00  0.00    -0.127 C  
ENDBRANCH   7  31
ENDBRANCH   5   6
BRANCH   5  37
HETATM   37  C   UNL     1     -11.896   8.484  72.536  1.00  0.00    -0.328 C  
BRANCH  37  38
HETATM   38  C   UNL     1     -10.373   8.321  72.361  1.00  0.00    -0.332 C  
HETATM   39  O   UNL     1      -9.793   9.409  71.643  1.00  0.00    -0.219 OA 
HETATM   40  H   UNL     1      -8.855   9.308  71.536  1.00  0.00     0.000 HD 
ENDBRANCH  37  38
ENDBRANCH   5  37
ENDBRANCH   4   5
ENDBRANCH   3   4
TORSDOF 12
ENDMDL
MODEL      189
REMARK 921   NORMALIZED FREE ENERGY PREDICTED BY IDOCK:   -2.60 KCAL/MOL
REMARK 922        TOTAL FREE ENERGY PREDICTED BY IDOCK:   -5.34 KCAL/MOL
REMARK 923 INTER-LIGAND FREE ENERGY PREDICTED BY IDOCK:   -5.20 KCAL/MOL
REMARK 924 INTRA-LIGAND FREE ENERGY PREDICTED BY IDOCK:   -0.14 KCAL/MOL
REMARK 927      BINDING AFFINITY PREDICTED BY RF-SCORE:    0.00 PKD
ROOT
HETATM    1  O   UNL     1     -10.712  14.888  71.816  1.00  0.00    -0.299 OA 
HETATM    2  H   UNL     1     -11.200  15.600  72.213  1.00  0.00     0.000 HD 
HETATM    3  C   UNL     1     -11.237  14.532  70.538  1.00  0.00    -0.036 C  
ENDROOT
BRANCH   3   4
HETATM    4  C   UNL     1     -10.443  13.374  69.892  1.00  0.00     1.041 C  
BRANCH   4   5
HETATM    5  N   UNL     1     -11.205  12.522  68.955  1.00  0.00    -0.265 NA 
BRANCH   5   6
HETATM    6  C   UNL     1     -10.766  11.214  68.855  1.00  0.00    -0.207 A  
HETATM    7  C   UNL     1      -9.064   8.977  66.528  1.00  0.00    -0.163 A  
HETATM    8  N   UNL     1      -8.571   7.714  66.505  1.00  0.00    -0.131 NA 
HETATM    9  N   UNL     1     -10.178  10.791  67.736  1.00  0.00    -0.176 NA 
HETATM   10  C   UNL     1      -9.691   9.521  67.665  1.00  0.00    -0.154 A  
HETATM   11  N   UNL     1     -10.919  10.413  69.902  1.00  0.00    -0.286 NA 
HETATM   12  C   UNL     1      -8.721   6.941  67.572  1.00  0.00    -0.120 A  
HETATM   13  C   UNL     1      -9.806   8.634  68.721  1.00  0.00    -0.172 A  
HETATM   14  C   UNL     1     -10.460   9.147  69.849  1.00  0.00    -0.223 A  
HETATM   15  N   UNL     1      -9.366   7.353  68.655  1.00  0.00    -0.140 NA 
BRANCH  14  16
HETATM   16  N   UNL     1     -10.736   8.365  70.965  1.00  0.00    -0.217 NA 
HETATM   17  C   UNL     1      -9.761   7.305  72.892  1.00  0.00    -0.212 C  
HETATM   18  C   UNL     1     -10.970   6.365  72.960  1.00  0.00    -0.269 C  
HETATM   19  C   UNL     1     -10.145   8.647  72.269  1.00  0.00    -0.292 C  
HETATM   20  C   UNL     1     -11.989   7.612  71.007  1.00  0.00    -0.273 C  
HETATM   21  C   UNL     1     -11.676   6.238  71.607  1.00  0.00    -0.342 C  
ENDBRANCH  14  16
BRANCH  12  22
HETATM   22  N   UNL     1      -8.183   5.671  67.588  1.00  0.00    -0.101 NA 
BRANCH  22  23
HETATM   23  C   UNL     1      -7.761   5.144  68.891  1.00  0.00    -0.081 C  
BRANCH  23  24
HETATM   24  C   UNL     1      -6.920   3.859  68.787  1.00  0.00    -0.047 C  
HETATM   25  O   UNL     1      -5.785   4.040  67.940  1.00  0.00    -0.020 OA 
HETATM   26  H   UNL     1      -5.266   3.247  67.876  1.00  0.00     0.000 HD 
ENDBRANCH  23  24
ENDBRANCH  22  23
BRANCH  22  27
HETATM   27  C   UNL     1      -8.487   4.738  66.501  1.00  0.00    -0.110 C  
BRANCH  27  28
HETATM   28  C   UNL     1      -9.858   4.065  66.696  1.00  0.00    -0.143 C  
HETATM   29  O   UNL     1      -9.727   2.653  66.872  1.00  0.00    -0.401 OA 
HETATM   30  H   UNL     1     -10.572   2.238  66.993  1.00  0.00     0.000 HD 
ENDBRANCH  27  28
ENDBRANCH  22  27
ENDBRANCH  12  22
BRANCH   7  31
HETATM   31  N   UNL     1      -8.849   9.688  65.348  1.00  0.00    -0.159 NA 
HETATM   32  C   UNL     1      -7.954   9.229  64.292  1.00  0.00    -0.135 C  
HETATM   33  C   UNL     1      -9.084  11.133  65.389  1.00  0.00    -0.177 C  
HETATM   34  C   UNL     1      -8.551   9.628  62.942  1.00  0.00    -0.202 C  
HETATM   35  C   UNL     1      -9.701  11.571  64.062  1.00  0.00    -0.248 C  
HETATM   36  C   UNL     1      -8.848  11.124  62.875  1.00  0.00    -0.227 C  
ENDBRANCH   7  31
ENDBRANCH   5   6
BRANCH   5  37
HETATM   37  C   UNL     1     -11.722  13.161  67.738  1.00  0.00    -0.358 C  
BRANCH  37  38
HETATM   38  C   UNL     1     -12.411  12.156  66.792  1.00  0.00     0.741 C  
HETATM   39  O   UNL     1     -12.676  12.720  65.508  1.00  0.00    -0.595 OA 
HETATM   40  H   UNL     1     -13.100  12.101  64.925  1.00  0.00     0.000 HD 
ENDBRANCH  37  38
ENDBRANCH   5  37
ENDBRANCH   4   5
ENDBRANCH   3   4
TORSDOF 12
ENDMDL
MODEL      190
REMARK 921   NORMALIZED FREE ENERGY PREDICTED BY IDOCK:   -2.57 KCAL/MOL
REMARK 922        TOTAL FREE ENERGY PREDICTED BY IDOCK:   -5.29 KCAL/MOL
REMARK 923 INTER-LIGAND FREE ENERGY PREDICTED BY IDOCK:   -5.23 KCAL/MOL
REMARK 924 INTRA-LIGAND FREE ENERGY PREDICTED BY IDOCK:   -0.06 KCAL/MOL
REMARK 927      BINDING AFFINITY PREDICTED BY RF-SCORE:    0.00 PKD
ROOT
HETATM    1  O   UNL     1      -9.141   6.907  66.831  1.00  0.00    -0.129 OA 
HETATM    2  H   UNL     1      -8.670   7.135  66.038  1.00  0.00     0.000 HD 
HETATM    3  C   UNL     1     -10.378   7.611  66.935  1.00  0.00    -0.318 C  
ENDROOT
BRANCH   3   4
HETATM    4  C   UNL     1     -11.144   7.241  68.225  1.00  0.00     0.125 C  
BRANCH   4   5
HETATM    5  N   UNL     1     -10.806   8.040  69.421  1.00  0.00    -0.155 NA 
BRANCH   5   6
HETATM    6  C   UNL     1     -10.518   9.372  69.181  1.00  0.00    -0.217 A  
HETATM    7  C   UNL     1      -8.310  11.463  67.166  1.00  0.00    -0.155 A  
HETATM    8  N   UNL     1      -8.120  12.778  66.893  1.00  0.00    -0.057 NA 
HETATM    9  N   UNL     1      -9.550   9.702  68.326  1.00  0.00    -0.140 NA 
HETATM   10  C   UNL     1      -9.313  11.012  68.044  1.00  0.00    -0.163 A  
HETATM   11  N   UNL     1     -11.245  10.297  69.795  1.00  0.00    -0.265 NA 
HETATM   12  C   UNL     1      -8.873  13.682  67.507  1.00  0.00    -0.205 A  
HETATM   13  C   UNL     1     -10.038  12.030  68.638  1.00  0.00    -0.160 A  
HETATM   14  C   UNL     1     -11.018  11.602  69.544  1.00  0.00    -0.098 A  
HETATM   15  N   UNL     1      -9.788  13.342  68.404  1.00  0.00    -0.230 NA 
BRANCH  14  16
HETATM   16  N   UNL     1     -11.776  12.494  70.293  1.00  0.00    -0.202 NA 
HETATM   17  C   UNL     1     -13.856  12.775  71.468  1.00  0.00     0.502 C  
HETATM   18  C   UNL     1     -13.690  14.295  71.356  1.00  0.00    -0.382 C  
HETATM   19  C   UNL     1     -12.498  12.075  71.490  1.00  0.00    -0.059 C  
HETATM   20  C   UNL     1     -11.450  13.919  70.238  1.00  0.00    -0.056 C  
HETATM   21  C   UNL     1     -12.773  14.688  70.194  1.00  0.00    -0.268 C  
ENDBRANCH  14  16
BRANCH  12  22
HETATM   22  N   UNL     1      -8.731  15.020  67.207  1.00  0.00    -0.190 NA 
BRANCH  22  23
HETATM   23  C   UNL     1      -9.952  15.758  66.865  1.00  0.00    -0.243 C  
BRANCH  23  24
HETATM   24  C   UNL     1      -9.739  16.821  65.771  1.00  0.00    -0.128 C  
HETATM   25  O   UNL     1     -10.950  17.512  65.467  1.00  0.00    -0.296 OA 
HETATM   26  H   UNL     1     -10.819  18.168  64.792  1.00  0.00     0.000 HD 
ENDBRANCH  23  24
ENDBRANCH  22  23
BRANCH  22  27
HETATM   27  C   UNL     1      -7.561  15.754  67.692  1.00  0.00    -0.156 C  
BRANCH  27  28
HETATM   28  C   UNL     1      -7.351  15.555  69.204  1.00  0.00    -0.177 C  
HETATM   29  O   UNL     1      -6.139  16.168  69.649  1.00  0.00    -0.161 OA 
HETATM   30  H   UNL     1      -6.010  16.045  70.582  1.00  0.00     0.000 HD 
ENDBRANCH  27  28
ENDBRANCH  22  27
ENDBRANCH  12  22
BRANCH   7  31
HETATM   31  N   UNL     1      -7.457  10.614  66.463  1.00  0.00    -0.127 NA 
HETATM   32  C   UNL     1      -6.078  10.358  66.864  1.00  0.00    -0.061 C  
HETATM   33  C   UNL     1      -7.749  10.401  65.044  1.00  0.00    -0.095 C  
HETATM   34  C   UNL     1      -5.742   8.900  66.547  1.00  0.00    -0.047 C  
HETATM   35  C   UNL     1      -7.445   8.946  64.690  1.00  0.00    -0.104 C  
HETATM   36  C   UNL     1      -6.020   8.560  65.084  1.00  0.00    -0.048 C  
ENDBRANCH   7  31
ENDBRANCH   5   6
BRANCH   5  37
HETATM   37  C   UNL     1     -10.057   7.364  70.489  1.00  0.00    -0.191 C  
BRANCH  37  38
HETATM   38  C   UNL     1     -10.777   6.101  71.005  1.00  0.00    -0.260 C  
HETATM   39  O   UNL     1     -11.860   6.418  71.879  1.00  0.00    -0.315 OA 
HETATM   40  H   UNL     1     -12.304   5.641  72.196  1.00  0.00     0.000 HD 
ENDBRANCH  37  38
ENDBRANCH   5  37
ENDBRANCH   4   5
ENDBRANCH   3   4
TORSDOF 12
ENDMDL
MODEL      191
REMARK 921   NORMALIZED FREE ENERGY PREDICTED BY IDOCK:   -2.55 KCAL/MOL
REMARK 922        TOTAL FREE ENERGY PREDICTED BY IDOCK:   -5.25 KCAL/MOL
REMARK 923 INTER-LIGAND FREE ENERGY PREDICTED BY IDOCK:   -4.03 KCAL/MOL
REMARK 924 INTRA-LIGAND FREE ENERGY PREDICTED BY IDOCK:   -1.22 KCAL/MOL
REMARK 927      BINDING AFFINITY PREDICTED BY RF-SCORE:    0.00 PKD
ROOT
HETATM    1  O   UNL     1      -9.461   9.992  71.382  1.00  0.00     0.112 OA 
HETATM    2  H   UNL     1      -9.878   9.619  72.151  1.00  0.00     0.000 HD 
HETATM    3  C   UNL     1      -8.173   9.424  71.147  1.00  0.00     0.146 C  
ENDROOT
BRANCH   3   4
HETATM    4  C   UNL     1      -7.496  10.031  69.898  1.00  0.00    -0.167 C  
BRANCH   4   5
HETATM    5  N   UNL     1      -8.325  10.062  68.674  1.00  0.00    -0.112 NA 
BRANCH   5   6
HETATM    6  C   UNL     1      -8.379   8.876  67.965  1.00  0.00    -0.121 A  
HETATM    7  C   UNL     1      -8.117   7.613  64.552  1.00  0.00    -0.098 A  
HETATM    8  N   UNL     1      -8.089   6.421  63.906  1.00  0.00    -0.080 NA 
HETATM    9  N   UNL     1      -8.249   8.885  66.639  1.00  0.00    -0.110 NA 
HETATM   10  C   UNL     1      -8.239   7.709  65.951  1.00  0.00    -0.133 A  
HETATM   11  N   UNL     1      -8.532   7.742  68.638  1.00  0.00    -0.128 NA 
HETATM   12  C   UNL     1      -8.225   5.302  64.605  1.00  0.00    -0.134 A  
HETATM   13  C   UNL     1      -8.383   6.489  66.588  1.00  0.00    -0.113 A  
HETATM   14  C   UNL     1      -8.542   6.568  67.978  1.00  0.00    -0.118 A  
HETATM   15  N   UNL     1      -8.419   5.311  65.917  1.00  0.00    -0.120 NA 
BRANCH  14  16
HETATM   16  N   UNL     1      -8.785   5.445  68.760  1.00  0.00    -0.098 NA 
HETATM   17  C   UNL     1     -10.304   4.472  70.353  1.00  0.00    -0.009 C  
HETATM   18  C   UNL     1      -9.187   3.526  70.808  1.00  0.00    -0.204 C  
HETATM   19  C   UNL     1     -10.121   4.872  68.889  1.00  0.00    -0.115 C  
HETATM   20  C   UNL     1      -7.688   4.514  69.022  1.00  0.00    -0.070 C  
HETATM   21  C   UNL     1      -7.796   4.083  70.488  1.00  0.00    -0.051 C  
ENDBRANCH  14  16
BRANCH  12  22
HETATM   22  N   UNL     1      -8.148   4.078  63.975  1.00  0.00    -0.089 NA 
BRANCH  22  23
HETATM   23  C   UNL     1      -7.066   3.180  64.396  1.00  0.00    -0.057 C  
BRANCH  23  24
HETATM   24  C   UNL     1      -5.743   3.422  63.647  1.00  0.00    -0.013 C  
HETATM   25  O   UNL     1      -5.482   2.391  62.695  1.00  0.00    -0.007 OA 
HETATM   26  H   UNL     1      -4.665   2.540  62.233  1.00  0.00     0.000 HD 
ENDBRANCH  23  24
ENDBRANCH  22  23
BRANCH  22  27
HETATM   27  C   UNL     1      -9.335   3.517  63.327  1.00  0.00    -0.103 C  
BRANCH  27  28
HETATM   28  C   UNL     1     -10.398   3.093  64.358  1.00  0.00    -0.003 C  
HETATM   29  O   UNL     1     -11.408   4.092  64.509  1.00  0.00    -0.770 OA 
HETATM   30  H   UNL     1     -12.064   3.830  65.145  1.00  0.00     0.000 HD 
ENDBRANCH  27  28
ENDBRANCH  22  27
ENDBRANCH  12  22
BRANCH   7  31
HETATM   31  N   UNL     1      -7.969   8.714  63.710  1.00  0.00    -0.153 NA 
HETATM   32  C   UNL     1      -9.088   9.357  63.032  1.00  0.00    -0.053 C  
HETATM   33  C   UNL     1      -6.661   8.895  63.075  1.00  0.00    -0.090 C  
HETATM   34  C   UNL     1      -8.820  10.861  62.971  1.00  0.00    -0.224 C  
HETATM   35  C   UNL     1      -6.345  10.388  63.012  1.00  0.00    -0.121 C  
HETATM   36  C   UNL     1      -7.468  11.169  62.331  1.00  0.00     0.032 C  
ENDBRANCH   7  31
ENDBRANCH   5   6
BRANCH   5  37
HETATM   37  C   UNL     1      -8.339  11.315  67.907  1.00  0.00    -0.131 C  
BRANCH  37  38
HETATM   38  C   UNL     1      -9.761  11.889  67.743  1.00  0.00    -0.189 C  
HETATM   39  O   UNL     1     -10.046  12.906  68.703  1.00  0.00    -0.336 OA 
HETATM   40  H   UNL     1     -10.922  13.259  68.601  1.00  0.00     0.000 HD 
ENDBRANCH  37  38
ENDBRANCH   5  37
ENDBRANCH   4   5
ENDBRANCH   3   4
TORSDOF 12
ENDMDL
MODEL      192
REMARK 921   NORMALIZED FREE ENERGY PREDICTED BY IDOCK:   -2.53 KCAL/MOL
REMARK 922        TOTAL FREE ENERGY PREDICTED BY IDOCK:   -5.22 KCAL/MOL
REMARK 923 INTER-LIGAND FREE ENERGY PREDICTED BY IDOCK:   -6.87 KCAL/MOL
REMARK 924 INTRA-LIGAND FREE ENERGY PREDICTED BY IDOCK:    1.65 KCAL/MOL
REMARK 927      BINDING AFFINITY PREDICTED BY RF-SCORE:    0.00 PKD
ROOT
HETATM    1  O   UNL     1      -7.159   9.514  62.366  1.00  0.00    -0.100 OA 
HETATM    2  H   UNL     1      -6.369   9.426  61.846  1.00  0.00     0.000 HD 
HETATM    3  C   UNL     1      -7.038   8.861  63.629  1.00  0.00    -0.088 C  
ENDROOT
BRANCH   3   4
HETATM    4  C   UNL     1      -8.323   9.004  64.476  1.00  0.00    -0.175 C  
BRANCH   4   5
HETATM    5  N   UNL     1      -8.916  10.357  64.514  1.00  0.00    -0.201 NA 
BRANCH   5   6
HETATM    6  C   UNL     1      -9.513  10.709  65.712  1.00  0.00    -0.200 A  
HETATM    7  C   UNL     1     -10.834  13.628  67.457  1.00  0.00    -0.264 A  
HETATM    8  N   UNL     1     -11.497  13.915  68.604  1.00  0.00    -0.276 NA 
HETATM    9  N   UNL     1      -9.826  11.982  65.953  1.00  0.00    -0.236 NA 
HETATM   10  C   UNL     1     -10.470  12.314  67.105  1.00  0.00    -0.219 A  
HETATM   11  N   UNL     1      -9.788   9.750  66.587  1.00  0.00    -0.202 NA 
HETATM   12  C   UNL     1     -11.777  12.936  69.453  1.00  0.00    -0.321 A  
HETATM   13  C   UNL     1     -10.799  11.366  68.058  1.00  0.00    -0.217 A  
HETATM   14  C   UNL     1     -10.413  10.057  67.742  1.00  0.00    -0.234 A  
HETATM   15  N   UNL     1     -11.402  11.683  69.231  1.00  0.00    -0.268 NA 
BRANCH  14  16
HETATM   16  N   UNL     1     -10.587   8.999  68.625  1.00  0.00    -0.195 NA 
HETATM   17  C   UNL     1     -11.282   6.702  68.802  1.00  0.00    -0.256 C  
HETATM   18  C   UNL     1     -11.518   6.911  70.302  1.00  0.00    -0.373 C  
HETATM   19  C   UNL     1     -10.189   7.637  68.284  1.00  0.00    -0.195 C  
HETATM   20  C   UNL     1     -10.655   9.278  70.059  1.00  0.00    -0.228 C  
HETATM   21  C   UNL     1     -11.751   8.385  70.647  1.00  0.00    -0.159 C  
ENDBRANCH  14  16
BRANCH  12  22
HETATM   22  N   UNL     1     -12.494  13.198  70.601  1.00  0.00    -0.321 NA 
BRANCH  22  23
HETATM   23  C   UNL     1     -13.331  12.112  71.126  1.00  0.00     0.333 C  
BRANCH  23  24
HETATM   24  C   UNL     1     -13.469  12.132  72.659  1.00  0.00     0.606 C  
HETATM   25  O   UNL     1     -13.640  13.460  73.154  1.00  0.00    -0.473 OA 
HETATM   26  H   UNL     1     -13.725  13.472  74.100  1.00  0.00     0.000 HD 
ENDBRANCH  23  24
ENDBRANCH  22  23
BRANCH  22  27
HETATM   27  C   UNL     1     -12.062  14.269  71.501  1.00  0.00    -0.240 C  
BRANCH  27  28
HETATM   28  C   UNL     1     -12.772  15.599  71.186  1.00  0.00    -0.465 C  
HETATM   29  O   UNL     1     -13.681  15.965  72.226  1.00  0.00    -0.437 OA 
HETATM   30  H   UNL     1     -14.119  16.785  72.031  1.00  0.00     0.000 HD 
ENDBRANCH  27  28
ENDBRANCH  22  27
ENDBRANCH  12  22
BRANCH   7  31
HETATM   31  N   UNL     1     -10.595  14.740  66.651  1.00  0.00    -0.293 NA 
HETATM   32  C   UNL     1     -11.393  15.058  65.472  1.00  0.00    -0.312 C  
HETATM   33  C   UNL     1      -9.236  15.285  66.655  1.00  0.00    -0.274 C  
HETATM   34  C   UNL     1     -11.515  16.579  65.365  1.00  0.00     0.491 C  
HETATM   35  C   UNL     1      -9.313  16.808  66.569  1.00  0.00    -0.288 C  
HETATM   36  C   UNL     1     -10.148  17.258  65.370  1.00  0.00     0.210 C  
ENDBRANCH   7  31
ENDBRANCH   5   6
BRANCH   5  37
HETATM   37  C   UNL     1      -9.529  10.855  63.276  1.00  0.00    -0.324 C  
BRANCH  37  38
HETATM   38  C   UNL     1     -11.015  11.226  63.462  1.00  0.00    -0.245 C  
HETATM   39  O   UNL     1     -11.204  12.632  63.617  1.00  0.00    -0.430 OA 
HETATM   40  H   UNL     1     -12.119  12.860  63.731  1.00  0.00     0.000 HD 
ENDBRANCH  37  38
ENDBRANCH   5  37
ENDBRANCH   4   5
ENDBRANCH   3   4
TORSDOF 12
ENDMDL
MODEL      193
REMARK 921   NORMALIZED FREE ENERGY PREDICTED BY IDOCK:   -2.45 KCAL/MOL
REMARK 922        TOTAL FREE ENERGY PREDICTED BY IDOCK:   -5.08 KCAL/MOL
REMARK 923 INTER-LIGAND FREE ENERGY PREDICTED BY IDOCK:   -3.83 KCAL/MOL
REMARK 924 INTRA-LIGAND FREE ENERGY PREDICTED BY IDOCK:   -1.25 KCAL/MOL
REMARK 927      BINDING AFFINITY PREDICTED BY RF-SCORE:    0.00 PKD
ROOT
HETATM    1  O   UNL     1      -5.661  11.046  63.360  1.00  0.00    -0.364 OA 
HETATM    2  H   UNL     1      -5.761  11.907  62.971  1.00  0.00     0.000 HD 
HETATM    3  C   UNL     1      -6.767  10.196  63.060  1.00  0.00    -0.133 C  
ENDROOT
BRANCH   3   4
HETATM    4  C   UNL     1      -6.605   8.795  63.692  1.00  0.00    -0.088 C  
BRANCH   4   5
HETATM    5  N   UNL     1      -7.488   8.507  64.842  1.00  0.00    -0.090 NA 
BRANCH   5   6
HETATM    6  C   UNL     1      -8.124   9.607  65.390  1.00  0.00    -0.127 A  
HETATM    7  C   UNL     1      -8.280  11.520  68.493  1.00  0.00    -0.148 A  
HETATM    8  N   UNL     1      -8.856  12.654  68.963  1.00  0.00     0.377 NA 
HETATM    9  N   UNL     1      -7.883   9.955  66.655  1.00  0.00    -0.109 NA 
HETATM   10  C   UNL     1      -8.462  11.074  67.170  1.00  0.00    -0.137 A  
HETATM   11  N   UNL     1      -8.944  10.312  64.622  1.00  0.00    -0.193 NA 
HETATM   12  C   UNL     1      -9.656  13.352  68.168  1.00  0.00    -0.222 A  
HETATM   13  C   UNL     1      -9.319  11.864  66.425  1.00  0.00    -0.226 A  
HETATM   14  C   UNL     1      -9.540  11.416  65.116  1.00  0.00    -0.229 A  
HETATM   15  N   UNL     1      -9.938  12.958  66.933  1.00  0.00    -0.233 NA 
BRANCH  14  16
HETATM   16  N   UNL     1     -10.440  12.041  64.261  1.00  0.00    -0.303 NA 
HETATM   17  C   UNL     1     -11.904  13.935  64.019  1.00  0.00    -0.372 C  
HETATM   18  C   UNL     1     -12.673  13.175  62.932  1.00  0.00     0.662 C  
HETATM   19  C   UNL     1     -10.444  13.488  64.072  1.00  0.00     0.127 C  
HETATM   20  C   UNL     1     -11.015  11.275  63.156  1.00  0.00     0.052 C  
HETATM   21  C   UNL     1     -12.494  11.659  63.055  1.00  0.00     0.043 C  
ENDBRANCH  14  16
BRANCH  12  22
HETATM   22  N   UNL     1     -10.211  14.534  68.609  1.00  0.00    -0.238 NA 
BRANCH  22  23
HETATM   23  C   UNL     1      -9.579  15.175  69.767  1.00  0.00    -0.053 C  
BRANCH  23  24
HETATM   24  C   UNL     1     -10.585  15.631  70.839  1.00  0.00     0.085 C  
HETATM   25  O   UNL     1     -11.385  14.545  71.306  1.00  0.00    -0.521 OA 
HETATM   26  H   UNL     1     -12.006  14.827  71.967  1.00  0.00     0.000 HD 
ENDBRANCH  23  24
ENDBRANCH  22  23
BRANCH  22  27
HETATM   27  C   UNL     1     -11.022  15.342  67.695  1.00  0.00    -0.315 C  
BRANCH  27  28
HETATM   28  C   UNL     1     -10.250  16.575  67.189  1.00  0.00    -0.284 C  
HETATM   29  O   UNL     1      -9.157  16.199  66.349  1.00  0.00    -0.248 OA 
HETATM   30  H   UNL     1      -8.681  16.959  66.037  1.00  0.00     0.000 HD 
ENDBRANCH  27  28
ENDBRANCH  22  27
ENDBRANCH  12  22
BRANCH   7  31
HETATM   31  N   UNL     1      -7.465  10.875  69.423  1.00  0.00    -0.127 NA 
HETATM   32  C   UNL     1      -7.965   9.889  70.374  1.00  0.00    -0.011 C  
HETATM   33  C   UNL     1      -6.233  11.562  69.817  1.00  0.00    -0.138 C  
HETATM   34  C   UNL     1      -6.892   8.817  70.570  1.00  0.00    -0.046 C  
HETATM   35  C   UNL     1      -5.127  10.524  70.005  1.00  0.00    -0.039 C  
HETATM   36  C   UNL     1      -5.552   9.424  70.977  1.00  0.00    -0.056 C  
ENDBRANCH   7  31
ENDBRANCH   5   6
BRANCH   5  37
HETATM   37  C   UNL     1      -7.070   7.437  65.757  1.00  0.00    -0.065 C  
BRANCH  37  38
HETATM   38  C   UNL     1      -5.556   7.470  66.049  1.00  0.00    -0.032 C  
HETATM   39  O   UNL     1      -5.227   8.397  67.084  1.00  0.00    -0.031 OA 
HETATM   40  H   UNL     1      -4.295   8.416  67.264  1.00  0.00     0.000 HD 
ENDBRANCH  37  38
ENDBRANCH   5  37
ENDBRANCH   4   5
ENDBRANCH   3   4
TORSDOF 12
ENDMDL
MODEL      194
REMARK 921   NORMALIZED FREE ENERGY PREDICTED BY IDOCK:   -2.44 KCAL/MOL
REMARK 922        TOTAL FREE ENERGY PREDICTED BY IDOCK:   -5.06 KCAL/MOL
REMARK 923 INTER-LIGAND FREE ENERGY PREDICTED BY IDOCK:   -5.05 KCAL/MOL
REMARK 924 INTRA-LIGAND FREE ENERGY PREDICTED BY IDOCK:   -0.01 KCAL/MOL
REMARK 927      BINDING AFFINITY PREDICTED BY RF-SCORE:    0.00 PKD
ROOT
HETATM    1  O   UNL     1      -8.352   7.507  66.136  1.00  0.00    -0.123 OA 
HETATM    2  H   UNL     1      -8.611   6.630  65.876  1.00  0.00     0.000 HD 
HETATM    3  C   UNL     1      -9.448   8.419  66.097  1.00  0.00    -0.194 C  
ENDROOT
BRANCH   3   4
HETATM    4  C   UNL     1      -9.026   9.844  66.520  1.00  0.00    -0.146 C  
BRANCH   4   5
HETATM    5  N   UNL     1      -8.625   9.998  67.935  1.00  0.00    -0.121 NA 
BRANCH   5   6
HETATM    6  C   UNL     1      -9.067   9.002  68.787  1.00  0.00    -0.137 A  
HETATM    7  C   UNL     1      -8.367   5.532  69.674  1.00  0.00    -0.102 A  
HETATM    8  N   UNL     1      -8.770   4.612  70.585  1.00  0.00    -0.098 NA 
HETATM    9  N   UNL     1      -8.500   7.795  68.752  1.00  0.00    -0.128 NA 
HETATM   10  C   UNL     1      -8.894   6.837  69.635  1.00  0.00    -0.144 A  
HETATM   11  N   UNL     1     -10.035   9.287  69.647  1.00  0.00    -0.182 NA 
HETATM   12  C   UNL     1      -9.726   4.930  71.446  1.00  0.00    -0.175 A  
HETATM   13  C   UNL     1      -9.890   7.067  70.568  1.00  0.00    -0.179 A  
HETATM   14  C   UNL     1     -10.453   8.350  70.521  1.00  0.00    -0.207 A  
HETATM   15  N   UNL     1     -10.327   6.113  71.426  1.00  0.00    -0.209 NA 
BRANCH  14  16
HETATM   16  N   UNL     1     -11.523   8.719  71.327  1.00  0.00    -0.274 NA 
HETATM   17  C   UNL     1     -13.611   7.970  72.259  1.00  0.00    -0.135 C  
HETATM   18  C   UNL     1     -14.017   9.433  72.470  1.00  0.00    -0.315 C  
HETATM   19  C   UNL     1     -12.092   7.809  72.316  1.00  0.00    -0.287 C  
HETATM   20  C   UNL     1     -11.749  10.139  71.595  1.00  0.00    -0.066 C  
HETATM   21  C   UNL     1     -13.260  10.380  71.534  1.00  0.00    -0.485 C  
ENDBRANCH  14  16
BRANCH  12  22
HETATM   22  N   UNL     1     -10.115   4.028  72.413  1.00  0.00    -0.171 NA 
BRANCH  22  23
HETATM   23  C   UNL     1     -10.148   2.612  72.028  1.00  0.00    -0.120 C  
BRANCH  23  24
HETATM   24  C   UNL     1     -11.030   1.748  72.947  1.00  0.00    -0.119 C  
HETATM   25  O   UNL     1     -12.280   2.378  73.221  1.00  0.00     0.076 OA 
HETATM   26  H   UNL     1     -12.824   1.845  73.788  1.00  0.00     0.000 HD 
ENDBRANCH  23  24
ENDBRANCH  22  23
BRANCH  22  27
HETATM   27  C   UNL     1      -9.999   4.383  73.829  1.00  0.00    -0.138 C  
BRANCH  27  28
HETATM   28  C   UNL     1      -8.636   3.964  74.411  1.00  0.00    -0.095 C  
HETATM   29  O   UNL     1      -7.555   4.536  73.673  1.00  0.00    -0.080 OA 
HETATM   30  H   UNL     1      -6.714   4.277  74.032  1.00  0.00     0.000 HD 
ENDBRANCH  27  28
ENDBRANCH  22  27
ENDBRANCH  12  22
BRANCH   7  31
HETATM   31  N   UNL     1      -7.360   5.079  68.822  1.00  0.00    -0.061 NA 
HETATM   32  C   UNL     1      -7.526   3.941  67.925  1.00  0.00    -0.067 C  
HETATM   33  C   UNL     1      -5.979   5.384  69.203  1.00  0.00    -0.024 C  
HETATM   34  C   UNL     1      -6.753   4.223  66.636  1.00  0.00    -0.051 C  
HETATM   35  C   UNL     1      -5.175   5.691  67.941  1.00  0.00    -0.004 C  
HETATM   36  C   UNL     1      -5.291   4.564  66.915  1.00  0.00    -0.013 C  
ENDBRANCH   7  31
ENDBRANCH   5   6
BRANCH   5  37
HETATM   37  C   UNL     1      -8.554  11.366  68.466  1.00  0.00    -0.150 C  
BRANCH  37  38
HETATM   38  C   UNL     1      -8.238  12.407  67.373  1.00  0.00    -0.180 C  
HETATM   39  O   UNL     1      -6.875  12.830  67.410  1.00  0.00    -0.152 OA 
HETATM   40  H   UNL     1      -6.681  13.471  66.737  1.00  0.00     0.000 HD 
ENDBRANCH  37  38
ENDBRANCH   5  37
ENDBRANCH   4   5
ENDBRANCH   3   4
TORSDOF 12
ENDMDL
MODEL      195
REMARK 921   NORMALIZED FREE ENERGY PREDICTED BY IDOCK:   -2.42 KCAL/MOL
REMARK 922        TOTAL FREE ENERGY PREDICTED BY IDOCK:   -5.04 KCAL/MOL
REMARK 923 INTER-LIGAND FREE ENERGY PREDICTED BY IDOCK:   -4.81 KCAL/MOL
REMARK 924 INTRA-LIGAND FREE ENERGY PREDICTED BY IDOCK:   -0.23 KCAL/MOL
REMARK 927      BINDING AFFINITY PREDICTED BY RF-SCORE:    0.00 PKD
ROOT
HETATM    1  O   UNL     1      -7.507  13.300  69.152  1.00  0.00    -0.298 OA 
HETATM    2  H   UNL     1      -6.817  13.557  69.753  1.00  0.00     0.000 HD 
HETATM    3  C   UNL     1      -7.375  11.941  68.739  1.00  0.00    -0.105 C  
ENDROOT
BRANCH   3   4
HETATM    4  C   UNL     1      -8.498  11.525  67.763  1.00  0.00    -0.137 C  
BRANCH   4   5
HETATM    5  N   UNL     1      -9.333  10.386  68.199  1.00  0.00    -0.143 NA 
BRANCH   5   6
HETATM    6  C   UNL     1      -8.971   9.154  67.683  1.00  0.00    -0.123 A  
HETATM    7  C   UNL     1      -8.979   5.613  68.565  1.00  0.00    -0.115 A  
HETATM    8  N   UNL     1      -8.693   4.420  67.989  1.00  0.00    -0.102 NA 
HETATM    9  N   UNL     1      -9.142   8.050  68.411  1.00  0.00    -0.136 NA 
HETATM   10  C   UNL     1      -8.844   6.834  67.876  1.00  0.00    -0.118 A  
HETATM   11  N   UNL     1      -8.485   9.102  66.450  1.00  0.00    -0.121 NA 
HETATM   12  C   UNL     1      -8.227   4.394  66.748  1.00  0.00    -0.102 A  
HETATM   13  C   UNL     1      -8.344   6.703  66.593  1.00  0.00    -0.117 A  
HETATM   14  C   UNL     1      -8.169   7.910  65.905  1.00  0.00    -0.126 A  
HETATM   15  N   UNL     1      -8.000   5.505  66.059  1.00  0.00    -0.104 NA 
BRANCH  14  16
HETATM   16  N   UNL     1      -7.595   7.966  64.640  1.00  0.00    -0.101 NA 
HETATM   17  C   UNL     1      -6.403   6.692  62.983  1.00  0.00    -0.042 C  
HETATM   18  C   UNL     1      -5.917   8.004  62.355  1.00  0.00    -0.078 C  
HETATM   19  C   UNL     1      -7.753   6.883  63.675  1.00  0.00    -0.111 C  
HETATM   20  C   UNL     1      -7.298   9.273  64.055  1.00  0.00    -0.102 C  
HETATM   21  C   UNL     1      -5.941   9.163  63.356  1.00  0.00    -0.088 C  
ENDBRANCH  14  16
BRANCH  12  22
HETATM   22  N   UNL     1      -7.978   3.189  66.126  1.00  0.00    -0.084 NA 
BRANCH  22  23
HETATM   23  C   UNL     1      -8.694   2.927  64.872  1.00  0.00    -0.112 C  
BRANCH  23  24
HETATM   24  C   UNL     1     -10.095   3.564  64.823  1.00  0.00    -0.087 C  
HETATM   25  O   UNL     1     -10.944   2.895  63.890  1.00  0.00    -0.480 OA 
HETATM   26  H   UNL     1     -11.808   3.288  63.860  1.00  0.00     0.000 HD 
ENDBRANCH  23  24
ENDBRANCH  22  23
BRANCH  22  27
HETATM   27  C   UNL     1      -6.733   2.470  66.405  1.00  0.00    -0.043 C  
BRANCH  27  28
HETATM   28  C   UNL     1      -5.803   3.278  67.328  1.00  0.00    -0.023 C  
HETATM   29  O   UNL     1      -5.946   2.879  68.693  1.00  0.00    -0.023 OA 
HETATM   30  H   UNL     1      -5.372   3.378  69.262  1.00  0.00     0.000 HD 
ENDBRANCH  27  28
ENDBRANCH  22  27
ENDBRANCH  12  22
BRANCH   7  31
HETATM   31  N   UNL     1      -9.457   5.509  69.870  1.00  0.00    -0.151 NA 
HETATM   32  C   UNL     1      -9.763   6.667  70.702  1.00  0.00    -0.172 C  
HETATM   33  C   UNL     1      -9.145   4.277  70.597  1.00  0.00    -0.112 C  
HETATM   34  C   UNL     1     -10.978   6.334  71.570  1.00  0.00    -0.322 C  
HETATM   35  C   UNL     1     -10.344   3.897  71.464  1.00  0.00     0.070 C  
HETATM   36  C   UNL     1     -10.766   5.052  72.372  1.00  0.00    -0.262 C  
ENDBRANCH   7  31
ENDBRANCH   5   6
BRANCH   5  37
HETATM   37  C   UNL     1     -10.765  10.645  68.402  1.00  0.00    -0.222 C  
BRANCH  37  38
HETATM   38  C   UNL     1     -11.124  10.837  69.889  1.00  0.00    -0.271 C  
HETATM   39  O   UNL     1     -10.068  10.423  70.756  1.00  0.00    -0.146 OA 
HETATM   40  H   UNL     1     -10.289  10.542  71.672  1.00  0.00     0.000 HD 
ENDBRANCH  37  38
ENDBRANCH   5  37
ENDBRANCH   4   5
ENDBRANCH   3   4
TORSDOF 12
ENDMDL
MODEL      196
REMARK 921   NORMALIZED FREE ENERGY PREDICTED BY IDOCK:   -2.41 KCAL/MOL
REMARK 922        TOTAL FREE ENERGY PREDICTED BY IDOCK:   -5.02 KCAL/MOL
REMARK 923 INTER-LIGAND FREE ENERGY PREDICTED BY IDOCK:   -5.03 KCAL/MOL
REMARK 924 INTRA-LIGAND FREE ENERGY PREDICTED BY IDOCK:    0.02 KCAL/MOL
REMARK 927      BINDING AFFINITY PREDICTED BY RF-SCORE:    0.00 PKD
ROOT
HETATM    1  O   UNL     1     -11.895  16.933  70.056  1.00  0.00     0.137 OA 
HETATM    2  H   UNL     1     -12.293  16.423  70.752  1.00  0.00     0.000 HD 
HETATM    3  C   UNL     1     -11.891  16.226  68.816  1.00  0.00    -0.024 C  
ENDROOT
BRANCH   3   4
HETATM    4  C   UNL     1     -11.244  17.056  67.683  1.00  0.00     0.094 C  
BRANCH   4   5
HETATM    5  N   UNL     1      -9.830  16.742  67.390  1.00  0.00    -0.247 NA 
BRANCH   5   6
HETATM    6  C   UNL     1      -9.533  15.395  67.278  1.00  0.00    -0.210 A  
HETATM    7  C   UNL     1      -7.324  12.864  68.703  1.00  0.00    -0.099 A  
HETATM    8  N   UNL     1      -7.126  11.525  68.626  1.00  0.00    -0.090 NA 
HETATM    9  N   UNL     1      -8.570  14.860  68.028  1.00  0.00    -0.155 NA 
HETATM   10  C   UNL     1      -8.324  13.523  67.961  1.00  0.00    -0.168 A  
HETATM   11  N   UNL     1     -10.247  14.657  66.437  1.00  0.00    -0.280 NA 
HETATM   12  C   UNL     1      -7.866  10.808  67.791  1.00  0.00    -0.109 A  
HETATM   13  C   UNL     1      -9.035  12.690  67.116  1.00  0.00    -0.205 A  
HETATM   14  C   UNL     1     -10.011  13.333  66.343  1.00  0.00    -0.288 A  
HETATM   15  N   UNL     1      -8.777  11.364  67.003  1.00  0.00    -0.155 NA 
BRANCH  14  16
HETATM   16  N   UNL     1     -10.755  12.662  65.380  1.00  0.00    -0.274 NA 
HETATM   17  C   UNL     1     -10.714  11.807  63.131  1.00  0.00    -0.319 C  
HETATM   18  C   UNL     1     -12.247  11.807  63.126  1.00  0.00    -0.273 C  
HETATM   19  C   UNL     1     -10.172  11.615  64.547  1.00  0.00    -0.291 C  
HETATM   20  C   UNL     1     -12.208  12.587  65.534  1.00  0.00    -0.377 C  
HETATM   21  C   UNL     1     -12.825  12.791  64.148  1.00  0.00    -0.209 C  
ENDBRANCH  14  16
BRANCH  12  22
HETATM   22  N   UNL     1      -7.715   9.439  67.734  1.00  0.00    -0.088 NA 
BRANCH  22  23
HETATM   23  C   UNL     1      -6.459   8.930  67.171  1.00  0.00    -0.061 C  
BRANCH  23  24
HETATM   24  C   UNL     1      -5.361   8.707  68.227  1.00  0.00    -0.034 C  
HETATM   25  O   UNL     1      -5.811   9.057  69.535  1.00  0.00    -0.033 OA 
HETATM   26  H   UNL     1      -5.133   8.920  70.187  1.00  0.00     0.000 HD 
ENDBRANCH  23  24
ENDBRANCH  22  23
BRANCH  22  27
HETATM   27  C   UNL     1      -8.500   8.583  68.626  1.00  0.00    -0.131 C  
BRANCH  27  28
HETATM   28  C   UNL     1      -8.252   7.089  68.345  1.00  0.00    -0.124 C  
HETATM   29  O   UNL     1      -8.756   6.268  69.401  1.00  0.00    -0.126 OA 
HETATM   30  H   UNL     1      -8.603   5.347  69.227  1.00  0.00     0.000 HD 
ENDBRANCH  27  28
ENDBRANCH  22  27
ENDBRANCH  12  22
BRANCH   7  31
HETATM   31  N   UNL     1      -6.484  13.507  69.610  1.00  0.00    -0.103 NA 
HETATM   32  C   UNL     1      -5.656  14.655  69.257  1.00  0.00    -0.092 C  
HETATM   33  C   UNL     1      -6.016  12.723  70.755  1.00  0.00     0.082 C  
HETATM   34  C   UNL     1      -5.596  15.599  70.458  1.00  0.00    -0.119 C  
HETATM   35  C   UNL     1      -5.960  13.628  71.985  1.00  0.00     0.467 C  
HETATM   36  C   UNL     1      -5.125  14.881  71.720  1.00  0.00    -0.149 C  
ENDBRANCH   7  31
ENDBRANCH   5   6
BRANCH   5  37
HETATM   37  C   UNL     1      -8.812  17.616  67.987  1.00  0.00    -0.257 C  
BRANCH  37  38
HETATM   38  C   UNL     1      -9.422  18.877  68.631  1.00  0.00    -0.378 C  
HETATM   39  O   UNL     1      -9.832  19.836  67.657  1.00  0.00    -0.346 OA 
HETATM   40  H   UNL     1     -10.208  20.612  68.054  1.00  0.00     0.000 HD 
ENDBRANCH  37  38
ENDBRANCH   5  37
ENDBRANCH   4   5
ENDBRANCH   3   4
TORSDOF 12
ENDMDL
MODEL      197
REMARK 921   NORMALIZED FREE ENERGY PREDICTED BY IDOCK:   -2.28 KCAL/MOL
REMARK 922        TOTAL FREE ENERGY PREDICTED BY IDOCK:   -4.80 KCAL/MOL
REMARK 923 INTER-LIGAND FREE ENERGY PREDICTED BY IDOCK:   -5.73 KCAL/MOL
REMARK 924 INTRA-LIGAND FREE ENERGY PREDICTED BY IDOCK:    0.94 KCAL/MOL
REMARK 927      BINDING AFFINITY PREDICTED BY RF-SCORE:    0.00 PKD
ROOT
HETATM    1  O   UNL     1      -9.739   2.222  71.272  1.00  0.00    -0.148 OA 
HETATM    2  H   UNL     1     -10.109   1.362  71.437  1.00  0.00     0.000 HD 
HETATM    3  C   UNL     1     -10.659   3.266  71.586  1.00  0.00     0.692 C  
ENDROOT
BRANCH   3   4
HETATM    4  C   UNL     1     -10.058   4.664  71.318  1.00  0.00    -0.175 C  
BRANCH   4   5
HETATM    5  N   UNL     1     -10.968   5.806  71.546  1.00  0.00    -0.259 NA 
BRANCH   5   6
HETATM    6  C   UNL     1     -10.849   6.847  70.643  1.00  0.00    -0.245 A  
HETATM    7  C   UNL     1      -9.299   7.639  67.437  1.00  0.00    -0.141 A  
HETATM    8  N   UNL     1      -9.280   8.653  66.537  1.00  0.00    -0.173 NA 
HETATM    9  N   UNL     1     -10.115   6.694  69.541  1.00  0.00    -0.173 NA 
HETATM   10  C   UNL     1     -10.052   7.699  68.625  1.00  0.00    -0.190 A  
HETATM   11  N   UNL     1     -11.503   7.976  70.888  1.00  0.00    -0.278 NA 
HETATM   12  C   UNL     1      -9.958   9.763  66.797  1.00  0.00    -0.218 A  
HETATM   13  C   UNL     1     -10.717   8.899  68.808  1.00  0.00    -0.090 A  
HETATM   14  C   UNL     1     -11.443   8.990  70.003  1.00  0.00     0.010 A  
HETATM   15  N   UNL     1     -10.631   9.927  67.928  1.00  0.00    -0.237 NA 
BRANCH  14  16
HETATM   16  N   UNL     1     -12.097  10.156  70.385  1.00  0.00    -0.265 NA 
HETATM   17  C   UNL     1     -11.857  12.539  70.614  1.00  0.00    -0.018 C  
HETATM   18  C   UNL     1     -13.029  12.540  71.602  1.00  0.00    -0.405 C  
HETATM   19  C   UNL     1     -11.984  11.390  69.614  1.00  0.00    -0.348 C  
HETATM   20  C   UNL     1     -13.299  10.054  71.211  1.00  0.00    -0.330 C  
HETATM   21  C   UNL     1     -13.231  11.170  72.257  1.00  0.00    -0.097 C  
ENDBRANCH  14  16
BRANCH  12  22
HETATM   22  N   UNL     1      -9.994  10.786  65.874  1.00  0.00    -0.239 NA 
BRANCH  22  23
HETATM   23  C   UNL     1      -9.500  10.483  64.526  1.00  0.00    -0.276 C  
BRANCH  23  24
HETATM   24  C   UNL     1      -9.916  11.525  63.472  1.00  0.00    -0.399 C  
HETATM   25  O   UNL     1     -11.048  11.090  62.721  1.00  0.00    -0.721 OA 
HETATM   26  H   UNL     1     -11.305  11.733  62.070  1.00  0.00     0.000 HD 
ENDBRANCH  23  24
ENDBRANCH  22  23
BRANCH  22  27
HETATM   27  C   UNL     1     -10.918  11.906  66.064  1.00  0.00    -0.309 C  
BRANCH  27  28
HETATM   28  C   UNL     1     -12.274  11.647  65.381  1.00  0.00     0.789 C  
HETATM   29  O   UNL     1     -13.170  12.746  65.563  1.00  0.00    -0.259 OA 
HETATM   30  H   UNL     1     -14.006  12.585  65.142  1.00  0.00     0.000 HD 
ENDBRANCH  27  28
ENDBRANCH  22  27
ENDBRANCH  12  22
BRANCH   7  31
HETATM   31  N   UNL     1      -8.546   6.531  67.052  1.00  0.00    -0.112 NA 
HETATM   32  C   UNL     1      -9.110   5.393  66.335  1.00  0.00    -0.141 C  
HETATM   33  C   UNL     1      -7.333   6.249  67.824  1.00  0.00    -0.084 C  
HETATM   34  C   UNL     1      -8.061   4.870  65.353  1.00  0.00    -0.114 C  
HETATM   35  C   UNL     1      -6.250   5.740  66.875  1.00  0.00    -0.034 C  
HETATM   36  C   UNL     1      -6.741   4.549  66.052  1.00  0.00    -0.053 C  
ENDBRANCH   7  31
ENDBRANCH   5   6
BRANCH   5  37
HETATM   37  C   UNL     1     -11.279   6.146  72.941  1.00  0.00    -0.215 C  
BRANCH  37  38
HETATM   38  C   UNL     1     -10.260   7.131  73.549  1.00  0.00    -0.351 C  
HETATM   39  O   UNL     1      -9.105   7.287  72.725  1.00  0.00    -0.131 OA 
HETATM   40  H   UNL     1      -8.478   7.894  73.100  1.00  0.00     0.000 HD 
ENDBRANCH  37  38
ENDBRANCH   5  37
ENDBRANCH   4   5
ENDBRANCH   3   4
TORSDOF 12
ENDMDL
MODEL      198
REMARK 921   NORMALIZED FREE ENERGY PREDICTED BY IDOCK:   -2.25 KCAL/MOL
REMARK 922        TOTAL FREE ENERGY PREDICTED BY IDOCK:   -4.74 KCAL/MOL
REMARK 923 INTER-LIGAND FREE ENERGY PREDICTED BY IDOCK:   -3.64 KCAL/MOL
REMARK 924 INTRA-LIGAND FREE ENERGY PREDICTED BY IDOCK:   -1.10 KCAL/MOL
REMARK 927      BINDING AFFINITY PREDICTED BY RF-SCORE:    0.00 PKD
ROOT
HETATM    1  O   UNL     1     -13.078  13.040  67.092  1.00  0.00     0.947 OA 
HETATM    2  H   UNL     1     -13.272  13.968  67.151  1.00  0.00     0.000 HD 
HETATM    3  C   UNL     1     -11.675  12.795  67.003  1.00  0.00    -0.374 C  
ENDROOT
BRANCH   3   4
HETATM    4  C   UNL     1     -11.359  11.286  66.908  1.00  0.00    -0.155 C  
BRANCH   4   5
HETATM    5  N   UNL     1      -9.924  10.932  66.918  1.00  0.00    -0.189 NA 
BRANCH   5   6
HETATM    6  C   UNL     1      -9.593   9.822  67.675  1.00  0.00    -0.145 A  
HETATM    7  C   UNL     1      -7.201   7.068  67.751  1.00  0.00    -0.091 A  
HETATM    8  N   UNL     1      -6.853   6.043  68.568  1.00  0.00    -0.067 NA 
HETATM    9  N   UNL     1      -8.595   9.026  67.291  1.00  0.00    -0.114 NA 
HETATM   10  C   UNL     1      -8.231   7.972  68.073  1.00  0.00    -0.129 A  
HETATM   11  N   UNL     1     -10.267   9.597  68.795  1.00  0.00    -0.189 NA 
HETATM   12  C   UNL     1      -7.531   5.851  69.691  1.00  0.00    -0.076 A  
HETATM   13  C   UNL     1      -8.883   7.682  69.259  1.00  0.00    -0.136 A  
HETATM   14  C   UNL     1      -9.935   8.550  69.577  1.00  0.00    -0.193 A  
HETATM   15  N   UNL     1      -8.563   6.613  70.029  1.00  0.00    -0.139 NA 
BRANCH  14  16
HETATM   16  N   UNL     1     -10.749   8.352  70.687  1.00  0.00    -0.215 NA 
HETATM   17  C   UNL     1     -12.675   7.163  71.503  1.00  0.00    -0.433 C  
HETATM   18  C   UNL     1     -12.823   8.208  72.614  1.00  0.00    -0.018 C  
HETATM   19  C   UNL     1     -11.215   7.024  71.072  1.00  0.00    -0.274 C  
HETATM   20  C   UNL     1     -10.716   9.332  71.772  1.00  0.00    -0.254 C  
HETATM   21  C   UNL     1     -12.158   9.538  72.244  1.00  0.00    -0.073 C  
ENDBRANCH  14  16
BRANCH  12  22
HETATM   22  N   UNL     1      -7.162   4.847  70.560  1.00  0.00    -0.052 NA 
BRANCH  22  23
HETATM   23  C   UNL     1      -8.208   4.304  71.434  1.00  0.00    -0.083 C  
BRANCH  23  24
HETATM   24  C   UNL     1      -8.010   4.657  72.919  1.00  0.00    -0.096 C  
HETATM   25  O   UNL     1      -7.947   6.069  73.120  1.00  0.00    -0.108 OA 
HETATM   26  H   UNL     1      -7.825   6.287  74.037  1.00  0.00     0.000 HD 
ENDBRANCH  23  24
ENDBRANCH  22  23
BRANCH  22  27
HETATM   27  C   UNL     1      -5.975   4.038  70.275  1.00  0.00    -0.018 C  
BRANCH  27  28
HETATM   28  C   UNL     1      -6.337   2.737  69.535  1.00  0.00    -0.029 C  
HETATM   29  O   UNL     1      -6.862   3.006  68.233  1.00  0.00    -0.047 OA 
HETATM   30  H   UNL     1      -7.085   2.203  67.777  1.00  0.00     0.000 HD 
ENDBRANCH  27  28
ENDBRANCH  22  27
ENDBRANCH  12  22
BRANCH   7  31
HETATM   31  N   UNL     1      -6.418   7.163  66.602  1.00  0.00    -0.052 NA 
HETATM   32  C   UNL     1      -6.007   6.005  65.818  1.00  0.00    -0.029 C  
HETATM   33  C   UNL     1      -5.559   8.344  66.478  1.00  0.00    -0.035 C  
HETATM   34  C   UNL     1      -5.992   6.400  64.340  1.00  0.00    -0.023 C  
HETATM   35  C   UNL     1      -5.532   8.784  65.015  1.00  0.00    -0.039 C  
HETATM   36  C   UNL     1      -5.128   7.634  64.093  1.00  0.00    -0.029 C  
ENDBRANCH   7  31
ENDBRANCH   5   6
BRANCH   5  37
HETATM   37  C   UNL     1      -8.960  12.039  66.875  1.00  0.00    -0.199 C  
BRANCH  37  38
HETATM   38  C   UNL     1      -8.804  12.736  68.242  1.00  0.00    -0.168 C  
HETATM   39  O   UNL     1      -7.679  12.246  68.972  1.00  0.00    -0.316 OA 
HETATM   40  H   UNL     1      -7.583  12.675  69.813  1.00  0.00     0.000 HD 
ENDBRANCH  37  38
ENDBRANCH   5  37
ENDBRANCH   4   5
ENDBRANCH   3   4
TORSDOF 12
ENDMDL
MODEL      199
REMARK 921   NORMALIZED FREE ENERGY PREDICTED BY IDOCK:   -2.10 KCAL/MOL
REMARK 922        TOTAL FREE ENERGY PREDICTED BY IDOCK:   -4.49 KCAL/MOL
REMARK 923 INTER-LIGAND FREE ENERGY PREDICTED BY IDOCK:   -3.69 KCAL/MOL
REMARK 924 INTRA-LIGAND FREE ENERGY PREDICTED BY IDOCK:   -0.80 KCAL/MOL
REMARK 927      BINDING AFFINITY PREDICTED BY RF-SCORE:    0.00 PKD
ROOT
HETATM    1  O   UNL     1      -7.203   7.740  70.331  1.00  0.00    -0.056 OA 
HETATM    2  H   UNL     1      -7.149   7.088  71.020  1.00  0.00     0.000 HD 
HETATM    3  C   UNL     1      -7.145   7.148  69.034  1.00  0.00    -0.084 C  
ENDROOT
BRANCH   3   4
HETATM    4  C   UNL     1      -7.234   8.207  67.912  1.00  0.00    -0.091 C  
BRANCH   4   5
HETATM    5  N   UNL     1      -8.576   8.784  67.684  1.00  0.00    -0.127 NA 
BRANCH   5   6
HETATM    6  C   UNL     1      -8.630  10.166  67.653  1.00  0.00    -0.118 A  
HETATM    7  C   UNL     1      -7.223  13.082  69.335  1.00  0.00     0.265 A  
HETATM    8  N   UNL     1      -7.235  14.433  69.214  1.00  0.00    -0.126 NA 
HETATM    9  N   UNL     1      -7.922  10.880  68.528  1.00  0.00    -0.125 NA 
HETATM   10  C   UNL     1      -7.927  12.240  68.454  1.00  0.00    -0.152 A  
HETATM   11  N   UNL     1      -9.370  10.750  66.720  1.00  0.00    -0.160 NA 
HETATM   12  C   UNL     1      -7.969  14.991  68.261  1.00  0.00    -0.128 A  
HETATM   13  C   UNL     1      -8.668  12.917  67.501  1.00  0.00    -0.190 A  
HETATM   14  C   UNL     1      -9.403  12.095  66.637  1.00  0.00    -0.226 A  
HETATM   15  N   UNL     1      -8.720  14.270  67.438  1.00  0.00    -0.197 NA 
BRANCH  14  16
HETATM   16  N   UNL     1     -10.267  12.613  65.679  1.00  0.00    -0.271 NA 
HETATM   17  C   UNL     1     -12.569  12.722  64.987  1.00  0.00    -0.538 C  
HETATM   18  C   UNL     1     -12.105  13.100  63.576  1.00  0.00    -0.585 C  
HETATM   19  C   UNL     1     -11.561  13.185  66.038  1.00  0.00    -0.353 C  
HETATM   20  C   UNL     1      -9.715  13.088  64.411  1.00  0.00     0.231 C  
HETATM   21  C   UNL     1     -10.670  12.640  63.301  1.00  0.00    -0.036 C  
ENDBRANCH  14  16
BRANCH  12  22
HETATM   22  N   UNL     1      -7.956  16.358  68.087  1.00  0.00    -0.156 NA 
BRANCH  22  23
HETATM   23  C   UNL     1      -9.235  17.061  68.240  1.00  0.00    -0.255 C  
BRANCH  23  24
HETATM   24  C   UNL     1      -9.530  18.050  67.097  1.00  0.00    -0.264 C  
HETATM   25  O   UNL     1     -10.314  17.446  66.069  1.00  0.00    -0.395 OA 
HETATM   26  H   UNL     1     -10.496  18.056  65.364  1.00  0.00     0.000 HD 
ENDBRANCH  23  24
ENDBRANCH  22  23
BRANCH  22  27
HETATM   27  C   UNL     1      -6.705  17.101  68.256  1.00  0.00    -0.167 C  
BRANCH  27  28
HETATM   28  C   UNL     1      -6.583  17.697  69.671  1.00  0.00    -0.078 C  
HETATM   29  O   UNL     1      -5.729  16.907  70.499  1.00  0.00    -0.178 OA 
HETATM   30  H   UNL     1      -5.654  17.275  71.372  1.00  0.00     0.000 HD 
ENDBRANCH  27  28
ENDBRANCH  22  27
ENDBRANCH  12  22
BRANCH   7  31
HETATM   31  N   UNL     1      -6.420  12.617  70.375  1.00  0.00     0.090 NA 
HETATM   32  C   UNL     1      -5.467  13.462  71.086  1.00  0.00    -0.203 C  
HETATM   33  C   UNL     1      -6.129  11.182  70.401  1.00  0.00    -0.126 C  
HETATM   34  C   UNL     1      -5.439  13.032  72.554  1.00  0.00     0.406 C  
HETATM   35  C   UNL     1      -6.112  10.707  71.853  1.00  0.00     1.036 C  
HETATM   36  C   UNL     1      -5.152  11.540  72.702  1.00  0.00     0.397 C  
ENDBRANCH   7  31
ENDBRANCH   5   6
BRANCH   5  37
HETATM   37  C   UNL     1      -9.720   8.071  68.270  1.00  0.00    -0.164 C  
BRANCH  37  38
HETATM   38  C   UNL     1     -10.251   6.954  67.350  1.00  0.00    -0.203 C  
HETATM   39  O   UNL     1     -11.275   6.182  67.977  1.00  0.00    -0.362 OA 
HETATM   40  H   UNL     1     -11.603   5.493  67.410  1.00  0.00     0.000 HD 
ENDBRANCH  37  38
ENDBRANCH   5  37
ENDBRANCH   4   5
ENDBRANCH   3   4
TORSDOF 12
ENDMDL
MODEL      200
REMARK 921   NORMALIZED FREE ENERGY PREDICTED BY IDOCK:   -2.08 KCAL/MOL
REMARK 922        TOTAL FREE ENERGY PREDICTED BY IDOCK:   -4.46 KCAL/MOL
REMARK 923 INTER-LIGAND FREE ENERGY PREDICTED BY IDOCK:   -4.55 KCAL/MOL
REMARK 924 INTRA-LIGAND FREE ENERGY PREDICTED BY IDOCK:    0.09 KCAL/MOL
REMARK 927      BINDING AFFINITY PREDICTED BY RF-SCORE:    0.00 PKD
ROOT
HETATM    1  O   UNL     1     -10.051   6.654  71.287  1.00  0.00    -0.188 OA 
HETATM    2  H   UNL     1      -9.186   6.261  71.302  1.00  0.00     0.000 HD 
HETATM    3  C   UNL     1     -10.752   6.350  70.082  1.00  0.00    -0.271 C  
ENDROOT
BRANCH   3   4
HETATM    4  C   UNL     1     -12.159   6.989  70.058  1.00  0.00     0.093 C  
BRANCH   4   5
HETATM    5  N   UNL     1     -12.311   8.228  70.850  1.00  0.00    -0.124 NA 
BRANCH   5   6
HETATM    6  C   UNL     1     -11.805   9.373  70.262  1.00  0.00    -0.018 A  
HETATM    7  C   UNL     1      -9.349  10.418  67.774  1.00  0.00    -0.145 A  
HETATM    8  N   UNL     1      -8.943  11.556  67.158  1.00  0.00    -0.162 NA 
HETATM    9  N   UNL     1     -10.830   9.283  69.357  1.00  0.00    -0.205 NA 
HETATM   10  C   UNL     1     -10.379  10.406  68.734  1.00  0.00    -0.196 A  
HETATM   11  N   UNL     1     -12.332  10.543  70.597  1.00  0.00    -0.328 NA 
HETATM   12  C   UNL     1      -9.501  12.711  67.498  1.00  0.00    -0.186 A  
HETATM   13  C   UNL     1     -10.890  11.659  69.025  1.00  0.00    -0.203 A  
HETATM   14  C   UNL     1     -11.891  11.671  70.005  1.00  0.00    -0.355 A  
HETATM   15  N   UNL     1     -10.424  12.793  68.447  1.00  0.00    -0.239 NA 
BRANCH  14  16
HETATM   16  N   UNL     1     -12.450  12.852  70.478  1.00  0.00    -0.265 NA 
HETATM   17  C   UNL     1     -11.944  15.067  71.271  1.00  0.00    -0.388 C  
HETATM   18  C   UNL     1     -13.317  15.115  71.950  1.00  0.00    -0.494 C  
HETATM   19  C   UNL     1     -11.972  14.159  70.041  1.00  0.00    -0.340 C  
HETATM   20  C   UNL     1     -13.826  12.834  70.974  1.00  0.00     1.421 C  
HETATM   21  C   UNL     1     -13.870  13.713  72.227  1.00  0.00    -0.689 C  
ENDBRANCH  14  16
BRANCH  12  22
HETATM   22  N   UNL     1      -9.139  13.872  66.849  1.00  0.00    -0.248 NA 
BRANCH  22  23
HETATM   23  C   UNL     1     -10.182  14.889  66.675  1.00  0.00    -0.261 C  
BRANCH  23  24
HETATM   24  C   UNL     1     -10.213  15.498  65.262  1.00  0.00    -0.346 C  
HETATM   25  O   UNL     1      -9.547  16.760  65.218  1.00  0.00    -0.281 OA 
HETATM   26  H   UNL     1      -9.566  17.136  64.346  1.00  0.00     0.000 HD 
ENDBRANCH  23  24
ENDBRANCH  22  23
BRANCH  22  27
HETATM   27  C   UNL     1      -7.732  14.273  66.805  1.00  0.00     0.576 C  
BRANCH  27  28
HETATM   28  C   UNL     1      -7.286  14.931  68.124  1.00  0.00    -0.119 C  
HETATM   29  O   UNL     1      -7.650  16.313  68.168  1.00  0.00    -0.143 OA 
HETATM   30  H   UNL     1      -7.374  16.718  68.981  1.00  0.00     0.000 HD 
ENDBRANCH  27  28
ENDBRANCH  22  27
ENDBRANCH  12  22
BRANCH   7  31
HETATM   31  N   UNL     1      -8.687   9.273  67.334  1.00  0.00    -0.118 NA 
HETATM   32  C   UNL     1      -9.286   8.306  66.421  1.00  0.00    -0.195 C  
HETATM   33  C   UNL     1      -7.619   8.752  68.190  1.00  0.00    -0.097 C  
HETATM   34  C   UNL     1      -8.191   7.767  65.500  1.00  0.00    -0.137 C  
HETATM   35  C   UNL     1      -6.493   8.219  67.306  1.00  0.00    -0.058 C  
HETATM   36  C   UNL     1      -7.013   7.202  66.290  1.00  0.00    -0.065 C  
ENDBRANCH   7  31
ENDBRANCH   5   6
BRANCH   5  37
HETATM   37  C   UNL     1     -12.201   8.107  72.310  1.00  0.00    -0.346 C  
BRANCH  37  38
HETATM   38  C   UNL     1     -13.562   8.264  73.018  1.00  0.00     0.561 C  
HETATM   39  O   UNL     1     -14.366   7.090  72.908  1.00  0.00     0.006 OA 
HETATM   40  H   UNL     1     -15.204   7.187  73.344  1.00  0.00     0.000 HD 
ENDBRANCH  37  38
ENDBRANCH   5  37
ENDBRANCH   4   5
ENDBRANCH   3   4
TORSDOF 12
ENDMDL
MODEL      201
REMARK 921   NORMALIZED FREE ENERGY PREDICTED BY IDOCK:   -2.07 KCAL/MOL
REMARK 922        TOTAL FREE ENERGY PREDICTED BY IDOCK:   -4.44 KCAL/MOL
REMARK 923 INTER-LIGAND FREE ENERGY PREDICTED BY IDOCK:   -4.18 KCAL/MOL
REMARK 924 INTRA-LIGAND FREE ENERGY PREDICTED BY IDOCK:   -0.26 KCAL/MOL
REMARK 927      BINDING AFFINITY PREDICTED BY RF-SCORE:    0.00 PKD
ROOT
HETATM    1  O   UNL     1      -8.888   2.562  72.996  1.00  0.00    -0.070 OA 
HETATM    2  H   UNL     1      -8.759   2.124  73.829  1.00  0.00     0.000 HD 
HETATM    3  C   UNL     1      -7.938   3.606  72.791  1.00  0.00    -0.077 C  
ENDROOT
BRANCH   3   4
HETATM    4  C   UNL     1      -8.148   4.318  71.435  1.00  0.00    -0.082 C  
BRANCH   4   5
HETATM    5  N   UNL     1      -8.094   5.795  71.474  1.00  0.00    -0.117 NA 
BRANCH   5   6
HETATM    6  C   UNL     1      -8.480   6.432  70.308  1.00  0.00    -0.135 A  
HETATM    7  C   UNL     1     -10.887   8.895  69.103  1.00  0.00    -0.070 A  
HETATM    8  N   UNL     1     -11.175   9.563  67.958  1.00  0.00     0.007 NA 
HETATM    9  N   UNL     1      -9.493   7.298  70.326  1.00  0.00    -0.166 NA 
HETATM   10  C   UNL     1      -9.829   7.970  69.190  1.00  0.00    -0.178 A  
HETATM   11  N   UNL     1      -7.801   6.183  69.196  1.00  0.00    -0.102 NA 
HETATM   12  C   UNL     1     -10.469   9.308  66.865  1.00  0.00    -0.214 A  
HETATM   13  C   UNL     1      -9.159   7.769  67.997  1.00  0.00    -0.128 A  
HETATM   14  C   UNL     1      -8.126   6.825  68.056  1.00  0.00    -0.114 A  
HETATM   15  N   UNL     1      -9.506   8.396  66.846  1.00  0.00    -0.171 NA 
BRANCH  14  16
HETATM   16  N   UNL     1      -7.409   6.439  66.929  1.00  0.00    -0.078 NA 
HETATM   17  C   UNL     1      -6.752   4.550  65.590  1.00  0.00    -0.052 C  
HETATM   18  C   UNL     1      -5.595   5.382  65.024  1.00  0.00    -0.017 C  
HETATM   19  C   UNL     1      -7.924   5.445  65.992  1.00  0.00    -0.105 C  
HETATM   20  C   UNL     1      -6.423   7.361  66.367  1.00  0.00    -0.048 C  
HETATM   21  C   UNL     1      -5.204   6.531  65.957  1.00  0.00    -0.017 C  
ENDBRANCH  14  16
BRANCH  12  22
HETATM   22  N   UNL     1     -10.712  10.011  65.704  1.00  0.00     0.167 NA 
BRANCH  22  23
HETATM   23  C   UNL     1     -11.498  11.245  65.825  1.00  0.00     0.228 C  
BRANCH  23  24
HETATM   24  C   UNL     1     -10.640  12.492  66.108  1.00  0.00    -0.253 C  
HETATM   25  O   UNL     1      -9.291  12.310  65.679  1.00  0.00    -0.417 OA 
HETATM   26  H   UNL     1      -8.762  13.080  65.853  1.00  0.00     0.000 HD 
ENDBRANCH  23  24
ENDBRANCH  22  23
BRANCH  22  27
HETATM   27  C   UNL     1      -9.832   9.832  64.547  1.00  0.00     0.083 C  
BRANCH  27  28
HETATM   28  C   UNL     1     -10.135  10.857  63.438  1.00  0.00    -0.340 C  
HETATM   29  O   UNL     1      -8.957  11.565  63.045  1.00  0.00    -0.515 OA 
HETATM   30  H   UNL     1      -9.144  12.197  62.361  1.00  0.00     0.000 HD 
ENDBRANCH  27  28
ENDBRANCH  22  27
ENDBRANCH  12  22
BRANCH   7  31
HETATM   31  N   UNL     1     -11.699   9.246  70.179  1.00  0.00    -0.062 NA 
HETATM   32  C   UNL     1     -11.382  10.333  71.098  1.00  0.00    -0.146 C  
HETATM   33  C   UNL     1     -12.578   8.205  70.717  1.00  0.00     0.184 C  
HETATM   34  C   UNL     1     -12.687  11.014  71.515  1.00  0.00    -0.521 C  
HETATM   35  C   UNL     1     -13.905   8.842  71.128  1.00  0.00    -0.118 C  
HETATM   36  C   UNL     1     -13.690  10.014  72.086  1.00  0.00    -0.244 C  
ENDBRANCH   7  31
ENDBRANCH   5   6
BRANCH   5  37
HETATM   37  C   UNL     1      -7.012   6.405  72.258  1.00  0.00    -0.074 C  
BRANCH  37  38
HETATM   38  C   UNL     1      -7.541   7.240  73.442  1.00  0.00    -0.089 C  
HETATM   39  O   UNL     1      -8.908   6.953  73.736  1.00  0.00    -0.136 OA 
HETATM   40  H   UNL     1      -9.233   7.467  74.465  1.00  0.00     0.000 HD 
ENDBRANCH  37  38
ENDBRANCH   5  37
ENDBRANCH   4   5
ENDBRANCH   3   4
TORSDOF 12
ENDMDL
MODEL      202
REMARK 921   NORMALIZED FREE ENERGY PREDICTED BY IDOCK:   -1.99 KCAL/MOL
REMARK 922        TOTAL FREE ENERGY PREDICTED BY IDOCK:   -4.31 KCAL/MOL
REMARK 923 INTER-LIGAND FREE ENERGY PREDICTED BY IDOCK:   -3.35 KCAL/MOL
REMARK 924 INTRA-LIGAND FREE ENERGY PREDICTED BY IDOCK:   -0.96 KCAL/MOL
REMARK 927      BINDING AFFINITY PREDICTED BY RF-SCORE:    0.00 PKD
ROOT
HETATM    1  O   UNL     1     -12.208  12.466  66.164  1.00  0.00    -0.635 OA 
HETATM    2  H   UNL     1     -12.127  13.401  66.013  1.00  0.00     0.000 HD 
HETATM    3  C   UNL     1     -10.958  11.794  66.024  1.00  0.00    -0.306 C  
ENDROOT
BRANCH   3   4
HETATM    4  C   UNL     1     -11.089  10.275  66.271  1.00  0.00     0.354 C  
BRANCH   4   5
HETATM    5  N   UNL     1     -10.088   9.427  65.589  1.00  0.00    -0.159 NA 
BRANCH   5   6
HETATM    6  C   UNL     1      -9.351   8.600  66.417  1.00  0.00    -0.211 A  
HETATM    7  C   UNL     1      -8.416   5.093  66.795  1.00  0.00    -0.106 A  
HETATM    8  N   UNL     1      -7.612   4.332  67.578  1.00  0.00    -0.073 NA 
HETATM    9  N   UNL     1      -9.303   7.289  66.179  1.00  0.00    -0.102 NA 
HETATM   10  C   UNL     1      -8.526   6.487  66.958  1.00  0.00    -0.113 A  
HETATM   11  N   UNL     1      -8.677   9.146  67.421  1.00  0.00    -0.115 NA 
HETATM   12  C   UNL     1      -6.935   4.906  68.563  1.00  0.00    -0.056 A  
HETATM   13  C   UNL     1      -7.788   6.989  68.015  1.00  0.00    -0.114 A  
HETATM   14  C   UNL     1      -7.912   8.370  68.214  1.00  0.00    -0.119 A  
HETATM   15  N   UNL     1      -7.042   6.201  68.828  1.00  0.00    -0.079 NA 
BRANCH  14  16
HETATM   16  N   UNL     1      -7.309   9.022  69.284  1.00  0.00    -0.069 NA 
HETATM   17  C   UNL     1      -5.198   9.495  70.337  1.00  0.00    -0.028 C  
HETATM   18  C   UNL     1      -5.942   9.802  71.642  1.00  0.00     0.098 C  
HETATM   19  C   UNL     1      -6.078   9.788  69.122  1.00  0.00    -0.037 C  
HETATM   20  C   UNL     1      -8.130   9.411  70.429  1.00  0.00    -0.175 C  
HETATM   21  C   UNL     1      -7.315   9.124  71.693  1.00  0.00     0.093 C  
ENDBRANCH  14  16
BRANCH  12  22
HETATM   22  N   UNL     1      -6.073   4.160  69.337  1.00  0.00    -0.026 NA 
BRANCH  22  23
HETATM   23  C   UNL     1      -6.063   4.437  70.778  1.00  0.00    -0.018 C  
BRANCH  23  24
HETATM   24  C   UNL     1      -7.163   3.689  71.553  1.00  0.00    -0.039 C  
HETATM   25  O   UNL     1      -8.447   3.881  70.961  1.00  0.00    -0.070 OA 
HETATM   26  H   UNL     1      -9.125   3.420  71.439  1.00  0.00     0.000 HD 
ENDBRANCH  23  24
ENDBRANCH  22  23
BRANCH  22  27
HETATM   27  C   UNL     1      -5.599   2.861  68.854  1.00  0.00    -0.021 C  
BRANCH  27  28
HETATM   28  C   UNL     1      -6.391   1.697  69.479  1.00  0.00    -0.025 C  
HETATM   29  O   UNL     1      -7.758   1.713  69.064  1.00  0.00    -0.042 OA 
HETATM   30  H   UNL     1      -8.246   0.995  69.450  1.00  0.00     0.000 HD 
ENDBRANCH  27  28
ENDBRANCH  22  27
ENDBRANCH  12  22
BRANCH   7  31
HETATM   31  N   UNL     1      -9.077   4.375  65.800  1.00  0.00    -0.128 NA 
HETATM   32  C   UNL     1     -10.530   4.330  65.679  1.00  0.00    -0.123 C  
HETATM   33  C   UNL     1      -8.362   3.242  65.210  1.00  0.00    -0.098 C  
HETATM   34  C   UNL     1     -10.893   4.290  64.194  1.00  0.00     0.043 C  
HETATM   35  C   UNL     1      -8.683   3.177  63.718  1.00  0.00    -0.089 C  
HETATM   36  C   UNL     1     -10.191   3.143  63.471  1.00  0.00    -0.189 C  
ENDBRANCH   7  31
ENDBRANCH   5   6
BRANCH   5  37
HETATM   37  C   UNL     1      -9.409  10.002  64.420  1.00  0.00    -0.290 C  
BRANCH  37  38
HETATM   38  C   UNL     1      -8.160   9.195  64.009  1.00  0.00    -0.151 C  
HETATM   39  O   UNL     1      -7.099  10.037  63.560  1.00  0.00    -0.126 OA 
HETATM   40  H   UNL     1      -6.330   9.540  63.307  1.00  0.00     0.000 HD 
ENDBRANCH  37  38
ENDBRANCH   5  37
ENDBRANCH   4   5
ENDBRANCH   3   4
TORSDOF 12
ENDMDL
MODEL      203
REMARK 921   NORMALIZED FREE ENERGY PREDICTED BY IDOCK:   -1.93 KCAL/MOL
REMARK 922        TOTAL FREE ENERGY PREDICTED BY IDOCK:   -4.20 KCAL/MOL
REMARK 923 INTER-LIGAND FREE ENERGY PREDICTED BY IDOCK:   -4.46 KCAL/MOL
REMARK 924 INTRA-LIGAND FREE ENERGY PREDICTED BY IDOCK:    0.26 KCAL/MOL
REMARK 927      BINDING AFFINITY PREDICTED BY RF-SCORE:    0.00 PKD
ROOT
HETATM    1  O   UNL     1      -8.325   8.673  72.566  1.00  0.00    -0.364 OA 
HETATM    2  H   UNL     1      -8.670   9.543  72.731  1.00  0.00     0.000 HD 
HETATM    3  C   UNL     1      -6.920   8.604  72.805  1.00  0.00     0.044 C  
ENDROOT
BRANCH   3   4
HETATM    4  C   UNL     1      -6.359   7.189  72.538  1.00  0.00    -0.052 C  
BRANCH   4   5
HETATM    5  N   UNL     1      -5.738   6.988  71.212  1.00  0.00    -0.035 NA 
BRANCH   5   6
HETATM    6  C   UNL     1      -6.315   7.698  70.174  1.00  0.00    -0.034 A  
HETATM    7  C   UNL     1      -8.721   7.280  67.463  1.00  0.00    -0.121 A  
HETATM    8  N   UNL     1      -9.329   8.035  66.515  1.00  0.00    -0.193 NA 
HETATM    9  N   UNL     1      -7.185   7.101  69.359  1.00  0.00    -0.082 NA 
HETATM   10  C   UNL     1      -7.798   7.819  68.379  1.00  0.00    -0.121 A  
HETATM   11  N   UNL     1      -6.006   8.981  70.036  1.00  0.00    -0.030 NA 
HETATM   12  C   UNL     1      -9.016   9.319  66.410  1.00  0.00    -0.154 A  
HETATM   13  C   UNL     1      -7.533   9.163  68.183  1.00  0.00    -0.083 A  
HETATM   14  C   UNL     1      -6.589   9.709  69.063  1.00  0.00    -0.049 A  
HETATM   15  N   UNL     1      -8.101   9.885  67.186  1.00  0.00    -0.116 NA 
BRANCH  14  16
HETATM   16  N   UNL     1      -6.142  11.021  68.950  1.00  0.00    -0.040 NA 
HETATM   17  C   UNL     1      -6.605  13.297  69.575  1.00  0.00    -0.040 C  
HETATM   18  C   UNL     1      -5.730  13.773  68.409  1.00  0.00    -0.101 C  
HETATM   19  C   UNL     1      -6.141  11.934  70.088  1.00  0.00    -0.137 C  
HETATM   20  C   UNL     1      -5.190  11.354  67.892  1.00  0.00    -0.044 C  
HETATM   21  C   UNL     1      -5.606  12.710  67.314  1.00  0.00    -0.034 C  
ENDBRANCH  14  16
BRANCH  12  22
HETATM   22  N   UNL     1      -9.659  10.116  65.487  1.00  0.00    -0.229 NA 
BRANCH  22  23
HETATM   23  C   UNL     1     -10.375  11.288  66.004  1.00  0.00    -0.252 C  
BRANCH  23  24
HETATM   24  C   UNL     1     -11.385  10.947  67.114  1.00  0.00    -0.088 C  
HETATM   25  O   UNL     1     -10.914   9.886  67.945  1.00  0.00    -0.364 OA 
HETATM   26  H   UNL     1     -11.538   9.676  68.631  1.00  0.00     0.000 HD 
ENDBRANCH  23  24
ENDBRANCH  22  23
BRANCH  22  27
HETATM   27  C   UNL     1      -9.232  10.096  64.086  1.00  0.00    -0.270 C  
BRANCH  27  28
HETATM   28  C   UNL     1      -8.324   8.889  63.785  1.00  0.00    -0.161 C  
HETATM   29  O   UNL     1      -8.903   8.032  62.799  1.00  0.00    -0.392 OA 
HETATM   30  H   UNL     1      -8.343   7.288  62.614  1.00  0.00     0.000 HD 
ENDBRANCH  27  28
ENDBRANCH  22  27
ENDBRANCH  12  22
BRANCH   7  31
HETATM   31  N   UNL     1      -9.131   5.947  67.471  1.00  0.00    -0.107 NA 
HETATM   32  C   UNL     1      -9.874   5.335  66.376  1.00  0.00    -0.186 C  
HETATM   33  C   UNL     1      -9.297   5.309  68.778  1.00  0.00    -0.121 C  
HETATM   34  C   UNL     1      -9.417   3.882  66.232  1.00  0.00    -0.198 C  
HETATM   35  C   UNL     1      -8.833   3.857  68.683  1.00  0.00    -0.150 C  
HETATM   36  C   UNL     1      -9.540   3.117  67.548  1.00  0.00    -0.091 C  
ENDBRANCH   7  31
ENDBRANCH   5   6
BRANCH   5  37
HETATM   37  C   UNL     1      -5.217   5.648  70.912  1.00  0.00    -0.009 C  
BRANCH  37  38
HETATM   38  C   UNL     1      -5.886   4.551  71.764  1.00  0.00    -0.012 C  
HETATM   39  O   UNL     1      -7.228   4.291  71.351  1.00  0.00    -0.041 OA 
HETATM   40  H   UNL     1      -7.640   3.615  71.876  1.00  0.00     0.000 HD 
ENDBRANCH  37  38
ENDBRANCH   5  37
ENDBRANCH   4   5
ENDBRANCH   3   4
TORSDOF 12
ENDMDL
MODEL      204
REMARK 921   NORMALIZED FREE ENERGY PREDICTED BY IDOCK:   -1.83 KCAL/MOL
REMARK 922        TOTAL FREE ENERGY PREDICTED BY IDOCK:   -4.04 KCAL/MOL
REMARK 923 INTER-LIGAND FREE ENERGY PREDICTED BY IDOCK:   -3.21 KCAL/MOL
REMARK 924 INTRA-LIGAND FREE ENERGY PREDICTED BY IDOCK:   -0.83 KCAL/MOL
REMARK 927      BINDING AFFINITY PREDICTED BY RF-SCORE:    0.00 PKD
ROOT
HETATM    1  O   UNL     1     -10.622  18.679  72.073  1.00  0.00     1.444 OA 
HETATM    2  H   UNL     1     -10.560  19.351  72.742  1.00  0.00     0.000 HD 
HETATM    3  C   UNL     1     -11.704  17.782  72.320  1.00  0.00     2.864 C  
ENDROOT
BRANCH   3   4
HETATM    4  C   UNL     1     -11.805  16.689  71.232  1.00  0.00     0.367 C  
BRANCH   4   5
HETATM    5  N   UNL     1     -11.933  15.303  71.730  1.00  0.00    -0.350 NA 
BRANCH   5   6
HETATM    6  C   UNL     1     -11.620  14.314  70.814  1.00  0.00    -0.120 A  
HETATM    7  C   UNL     1     -10.197  13.905  67.479  1.00  0.00    -0.245 A  
HETATM    8  N   UNL     1      -9.823  12.902  66.647  1.00  0.00    -0.244 NA 
HETATM    9  N   UNL     1     -11.104  14.642  69.629  1.00  0.00    -0.262 NA 
HETATM   10  C   UNL     1     -10.739  13.663  68.756  1.00  0.00    -0.244 A  
HETATM   11  N   UNL     1     -11.816  13.048  71.157  1.00  0.00     0.385 NA 
HETATM   12  C   UNL     1     -10.013  11.644  67.022  1.00  0.00    -0.204 A  
HETATM   13  C   UNL     1     -10.904  12.322  69.051  1.00  0.00    -0.150 A  
HETATM   14  C   UNL     1     -11.475  12.062  70.303  1.00  0.00     0.114 A  
HETATM   15  N   UNL     1     -10.586  11.334  68.178  1.00  0.00    -0.183 NA 
BRANCH  14  16
HETATM   16  N   UNL     1     -11.791  10.775  70.721  1.00  0.00    -0.342 NA 
HETATM   17  C   UNL     1     -13.362   9.469  71.993  1.00  0.00    -0.535 C  
HETATM   18  C   UNL     1     -12.310   8.360  72.114  1.00  0.00    -0.426 C  
HETATM   19  C   UNL     1     -13.162  10.276  70.710  1.00  0.00    -0.216 C  
HETATM   20  C   UNL     1     -10.759   9.740  70.664  1.00  0.00    -0.326 C  
HETATM   21  C   UNL     1     -10.886   8.897  71.936  1.00  0.00    -0.433 C  
ENDBRANCH  14  16
BRANCH  12  22
HETATM   22  N   UNL     1      -9.594  10.609  66.214  1.00  0.00    -0.179 NA 
BRANCH  22  23
HETATM   23  C   UNL     1     -10.329   9.344  66.317  1.00  0.00    -0.141 C  
BRANCH  23  24
HETATM   24  C   UNL     1      -9.511   8.211  66.963  1.00  0.00    -0.177 C  
HETATM   25  O   UNL     1      -9.040   7.281  65.988  1.00  0.00    -0.271 OA 
HETATM   26  H   UNL     1      -8.535   6.582  66.386  1.00  0.00     0.000 HD 
ENDBRANCH  23  24
ENDBRANCH  22  23
BRANCH  22  27
HETATM   27  C   UNL     1      -8.832  10.899  64.997  1.00  0.00    -0.139 C  
BRANCH  27  28
HETATM   28  C   UNL     1      -9.571  10.414  63.735  1.00  0.00    -0.310 C  
HETATM   29  O   UNL     1      -8.953  10.910  62.545  1.00  0.00    -0.271 OA 
HETATM   30  H   UNL     1      -9.409  10.611  61.768  1.00  0.00     0.000 HD 
ENDBRANCH  27  28
ENDBRANCH  22  27
ENDBRANCH  12  22
BRANCH   7  31
HETATM   31  N   UNL     1      -9.951  15.180  66.971  1.00  0.00    -0.239 NA 
HETATM   32  C   UNL     1     -10.988  16.015  66.376  1.00  0.00    -0.070 C  
HETATM   33  C   UNL     1      -8.583  15.471  66.537  1.00  0.00    -0.285 C  
HETATM   34  C   UNL     1     -10.700  17.474  66.735  1.00  0.00    -0.109 C  
HETATM   35  C   UNL     1      -8.248  16.918  66.895  1.00  0.00    -0.245 C  
HETATM   36  C   UNL     1      -9.287  17.888  66.333  1.00  0.00    -0.268 C  
ENDBRANCH   7  31
ENDBRANCH   5   6
BRANCH   5  37
HETATM   37  C   UNL     1     -13.017  15.030  72.682  1.00  0.00    -0.400 C  
BRANCH  37  38
HETATM   38  C   UNL     1     -14.402  14.997  72.004  1.00  0.00    -0.573 C  
HETATM   39  O   UNL     1     -14.304  14.964  70.580  1.00  0.00    -0.428 OA 
HETATM   40  H   UNL     1     -15.157  14.944  70.163  1.00  0.00     0.000 HD 
ENDBRANCH  37  38
ENDBRANCH   5  37
ENDBRANCH   4   5
ENDBRANCH   3   4
TORSDOF 12
ENDMDL
MODEL      205
REMARK 921   NORMALIZED FREE ENERGY PREDICTED BY IDOCK:   -1.70 KCAL/MOL
REMARK 922        TOTAL FREE ENERGY PREDICTED BY IDOCK:   -3.81 KCAL/MOL
REMARK 923 INTER-LIGAND FREE ENERGY PREDICTED BY IDOCK:   -2.72 KCAL/MOL
REMARK 924 INTRA-LIGAND FREE ENERGY PREDICTED BY IDOCK:   -1.09 KCAL/MOL
REMARK 927      BINDING AFFINITY PREDICTED BY RF-SCORE:    0.00 PKD
ROOT
HETATM    1  O   UNL     1     -10.568  10.448  66.083  1.00  0.00    -0.187 OA 
HETATM    2  H   UNL     1     -11.078  10.580  65.292  1.00  0.00     0.000 HD 
HETATM    3  C   UNL     1     -10.439  11.651  66.839  1.00  0.00    -0.227 C  
ENDROOT
BRANCH   3   4
HETATM    4  C   UNL     1      -9.609  11.437  68.125  1.00  0.00    -0.190 C  
BRANCH   4   5
HETATM    5  N   UNL     1      -8.367  12.233  68.224  1.00  0.00    -0.173 NA 
BRANCH   5   6
HETATM    6  C   UNL     1      -8.548  13.602  68.311  1.00  0.00    -0.170 A  
HETATM    7  C   UNL     1     -10.721  16.066  69.900  1.00  0.00    -0.334 A  
HETATM    8  N   UNL     1     -10.809  17.413  70.031  1.00  0.00     0.474 NA 
HETATM    9  N   UNL     1      -9.553  14.097  69.034  1.00  0.00    -0.044 NA 
HETATM   10  C   UNL     1      -9.690  15.445  69.169  1.00  0.00    -0.252 A  
HETATM   11  N   UNL     1      -7.686  14.396  67.690  1.00  0.00    -0.168 NA 
HETATM   12  C   UNL     1      -9.923  18.183  69.414  1.00  0.00     0.059 A  
HETATM   13  C   UNL     1      -8.822  16.333  68.558  1.00  0.00    -0.219 A  
HETATM   14  C   UNL     1      -7.810  15.734  67.796  1.00  0.00    -0.141 A  
HETATM   15  N   UNL     1      -8.967  17.678  68.646  1.00  0.00    -0.283 NA 
BRANCH  14  16
HETATM   16  N   UNL     1      -6.908  16.479  67.047  1.00  0.00    -0.196 NA 
HETATM   17  C   UNL     1      -5.153  18.120  67.178  1.00  0.00    -0.137 C  
HETATM   18  C   UNL     1      -5.389  18.460  65.702  1.00  0.00    -0.207 C  
HETATM   19  C   UNL     1      -5.524  16.667  67.472  1.00  0.00    -0.138 C  
HETATM   20  C   UNL     1      -7.135  16.628  65.610  1.00  0.00     1.651 C  
HETATM   21  C   UNL     1      -6.800  18.077  65.243  1.00  0.00     0.309 C  
ENDBRANCH  14  16
BRANCH  12  22
HETATM   22  N   UNL     1      -9.964  19.551  69.575  1.00  0.00    -0.211 NA 
BRANCH  22  23
HETATM   23  C   UNL     1      -8.939  20.151  70.437  1.00  0.00     1.513 C  
BRANCH  23  24
HETATM   24  C   UNL     1      -7.503  19.914  69.936  1.00  0.00     0.310 C  
HETATM   25  O   UNL     1      -6.535  20.412  70.859  1.00  0.00    -0.514 OA 
HETATM   26  H   UNL     1      -5.649  20.266  70.550  1.00  0.00     0.000 HD 
ENDBRANCH  23  24
ENDBRANCH  22  23
BRANCH  22  27
HETATM   27  C   UNL     1     -10.634  20.382  68.572  1.00  0.00     0.195 C  
BRANCH  27  28
HETATM   28  C   UNL     1      -9.731  20.640  67.351  1.00  0.00    -0.411 C  
HETATM   29  O   UNL     1      -9.832  19.584  66.394  1.00  0.00    -0.359 OA 
HETATM   30  H   UNL     1      -9.274  19.744  65.641  1.00  0.00     0.000 HD 
ENDBRANCH  27  28
ENDBRANCH  22  27
ENDBRANCH  12  22
BRANCH   7  31
HETATM   31  N   UNL     1     -11.710  15.367  70.590  1.00  0.00    -0.306 NA 
HETATM   32  C   UNL     1     -12.579  14.381  69.958  1.00  0.00    -0.233 C  
HETATM   33  C   UNL     1     -12.245  15.992  71.802  1.00  0.00    -0.469 C  
HETATM   34  C   UNL     1     -12.853  13.261  70.963  1.00  0.00    -0.311 C  
HETATM   35  C   UNL     1     -12.516  14.906  72.841  1.00  0.00    -0.467 C  
HETATM   36  C   UNL     1     -13.410  13.802  72.277  1.00  0.00    -0.617 C  
ENDBRANCH   7  31
ENDBRANCH   5   6
BRANCH   5  37
HETATM   37  C   UNL     1      -7.198  11.747  67.480  1.00  0.00    -0.123 C  
BRANCH  37  38
HETATM   38  C   UNL     1      -6.433  10.645  68.240  1.00  0.00    -0.058 C  
HETATM   39  O   UNL     1      -6.897  10.494  69.581  1.00  0.00    -0.085 OA 
HETATM   40  H   UNL     1      -6.425   9.815  70.049  1.00  0.00     0.000 HD 
ENDBRANCH  37  38
ENDBRANCH   5  37
ENDBRANCH   4   5
ENDBRANCH   3   4
TORSDOF 12
ENDMDL
MODEL      206
REMARK 921   NORMALIZED FREE ENERGY PREDICTED BY IDOCK:   -1.66 KCAL/MOL
REMARK 922        TOTAL FREE ENERGY PREDICTED BY IDOCK:   -3.74 KCAL/MOL
REMARK 923 INTER-LIGAND FREE ENERGY PREDICTED BY IDOCK:   -3.85 KCAL/MOL
REMARK 924 INTRA-LIGAND FREE ENERGY PREDICTED BY IDOCK:    0.11 KCAL/MOL
REMARK 927      BINDING AFFINITY PREDICTED BY RF-SCORE:    0.00 PKD
ROOT
HETATM    1  O   UNL     1     -14.408  13.844  71.987  1.00  0.00    -0.483 OA 
HETATM    2  H   UNL     1     -15.357  13.869  71.929  1.00  0.00     0.000 HD 
HETATM    3  C   UNL     1     -13.824  15.114  71.704  1.00  0.00    -0.503 C  
ENDROOT
BRANCH   3   4
HETATM    4  C   UNL     1     -12.282  15.073  71.798  1.00  0.00    -0.350 C  
BRANCH   4   5
HETATM    5  N   UNL     1     -11.557  15.502  70.584  1.00  0.00    -0.314 NA 
BRANCH   5   6
HETATM    6  C   UNL     1     -11.272  14.497  69.677  1.00  0.00    -0.253 A  
HETATM    7  C   UNL     1     -10.498  14.018  66.144  1.00  0.00    -0.297 A  
HETATM    8  N   UNL     1     -10.136  13.014  65.307  1.00  0.00    -0.264 NA 
HETATM    9  N   UNL     1     -11.067  14.794  68.394  1.00  0.00    -0.253 NA 
HETATM   10  C   UNL     1     -10.725  13.809  67.518  1.00  0.00    -0.256 A  
HETATM   11  N   UNL     1     -11.180  13.250  70.123  1.00  0.00     0.191 NA 
HETATM   12  C   UNL     1     -10.032  11.780  65.782  1.00  0.00    -0.238 A  
HETATM   13  C   UNL     1     -10.600  12.489  67.913  1.00  0.00    -0.218 A  
HETATM   14  C   UNL     1     -10.858  12.257  69.271  1.00  0.00    -0.027 A  
HETATM   15  N   UNL     1     -10.303  11.489  67.048  1.00  0.00    -0.213 NA 
BRANCH  14  16
HETATM   16  N   UNL     1     -10.862  10.978  69.816  1.00  0.00    -0.197 NA 
HETATM   17  C   UNL     1     -10.246   8.687  69.415  1.00  0.00    -0.211 C  
HETATM   18  C   UNL     1     -11.251   8.252  70.488  1.00  0.00    -0.247 C  
HETATM   19  C   UNL     1      -9.711  10.089  69.703  1.00  0.00    -0.229 C  
HETATM   20  C   UNL     1     -11.753  10.691  70.939  1.00  0.00    -0.289 C  
HETATM   21  C   UNL     1     -12.347   9.299  70.707  1.00  0.00    -0.144 C  
ENDBRANCH  14  16
BRANCH  12  22
HETATM   22  N   UNL     1      -9.616  10.754  64.961  1.00  0.00    -0.233 NA 
BRANCH  22  23
HETATM   23  C   UNL     1      -8.962   9.610  65.605  1.00  0.00    -0.169 C  
BRANCH  23  24
HETATM   24  C   UNL     1      -7.575   9.944  66.184  1.00  0.00    -0.104 C  
HETATM   25  O   UNL     1      -7.206  11.296  65.917  1.00  0.00    -0.366 OA 
HETATM   26  H   UNL     1      -6.350  11.502  66.274  1.00  0.00     0.000 HD 
ENDBRANCH  23  24
ENDBRANCH  22  23
BRANCH  22  27
HETATM   27  C   UNL     1     -10.234  10.580  63.644  1.00  0.00    -0.043 C  
BRANCH  27  28
HETATM   28  C   UNL     1     -11.480  11.470  63.478  1.00  0.00    -0.234 C  
HETATM   29  O   UNL     1     -11.200  12.617  62.673  1.00  0.00    -0.342 OA 
HETATM   30  H   UNL     1     -11.968  13.165  62.571  1.00  0.00     0.000 HD 
ENDBRANCH  27  28
ENDBRANCH  22  27
ENDBRANCH  12  22
BRANCH   7  31
HETATM   31  N   UNL     1     -10.576  15.265  65.527  1.00  0.00    -0.344 NA 
HETATM   32  C   UNL     1     -11.173  15.469  64.212  1.00  0.00    -0.081 C  
HETATM   33  C   UNL     1      -9.594  16.272  65.935  1.00  0.00    -0.301 C  
HETATM   34  C   UNL     1     -11.885  16.823  64.207  1.00  0.00     1.181 C  
HETATM   35  C   UNL     1     -10.272  17.641  65.961  1.00  0.00    -0.301 C  
HETATM   36  C   UNL     1     -10.951  17.955  64.629  1.00  0.00     2.010 C  
ENDBRANCH   7  31
ENDBRANCH   5   6
BRANCH   5  37
HETATM   37  C   UNL     1     -10.569  16.578  70.739  1.00  0.00     0.642 C  
BRANCH  37  38
HETATM   38  C   UNL     1     -10.146  17.189  69.387  1.00  0.00    -0.116 C  
HETATM   39  O   UNL     1      -8.812  16.828  69.028  1.00  0.00    -0.253 OA 
HETATM   40  H   UNL     1      -8.552  17.204  68.195  1.00  0.00     0.000 HD 
ENDBRANCH  37  38
ENDBRANCH   5  37
ENDBRANCH   4   5
ENDBRANCH   3   4
TORSDOF 12
ENDMDL
MODEL      207
REMARK 921   NORMALIZED FREE ENERGY PREDICTED BY IDOCK:   -1.58 KCAL/MOL
REMARK 922        TOTAL FREE ENERGY PREDICTED BY IDOCK:   -3.60 KCAL/MOL
REMARK 923 INTER-LIGAND FREE ENERGY PREDICTED BY IDOCK:   -6.06 KCAL/MOL
REMARK 924 INTRA-LIGAND FREE ENERGY PREDICTED BY IDOCK:    2.46 KCAL/MOL
REMARK 927      BINDING AFFINITY PREDICTED BY RF-SCORE:    0.00 PKD
ROOT
HETATM    1  O   UNL     1      -8.438   8.111  65.716  1.00  0.00    -0.134 OA 
HETATM    2  H   UNL     1      -8.671   7.207  65.542  1.00  0.00     0.000 HD 
HETATM    3  C   UNL     1      -9.540   8.994  65.509  1.00  0.00    -0.096 C  
ENDROOT
BRANCH   3   4
HETATM    4  C   UNL     1      -9.160  10.465  65.792  1.00  0.00    -0.168 C  
BRANCH   4   5
HETATM    5  N   UNL     1      -8.924  10.802  67.212  1.00  0.00    -0.140 NA 
BRANCH   5   6
HETATM    6  C   UNL     1      -9.311   9.834  68.122  1.00  0.00    -0.128 A  
HETATM    7  C   UNL     1      -8.298   6.551  69.350  1.00  0.00    -0.123 A  
HETATM    8  N   UNL     1      -8.658   5.668  70.314  1.00  0.00    -0.129 NA 
HETATM    9  N   UNL     1      -8.615   8.702  68.226  1.00  0.00    -0.137 NA 
HETATM   10  C   UNL     1      -8.961   7.780  69.167  1.00  0.00    -0.145 A  
HETATM   11  N   UNL     1     -10.359  10.077  68.898  1.00  0.00    -0.191 NA 
HETATM   12  C   UNL     1      -9.699   5.944  71.089  1.00  0.00    -0.174 A  
HETATM   13  C   UNL     1     -10.035   7.970  70.017  1.00  0.00    -0.191 A  
HETATM   14  C   UNL     1     -10.729   9.172  69.826  1.00  0.00    -0.228 A  
HETATM   15  N   UNL     1     -10.421   7.045  70.930  1.00  0.00    -0.213 NA 
BRANCH  14  16
HETATM   16  N   UNL     1     -11.884   9.482  70.534  1.00  0.00    -0.227 NA 
HETATM   17  C   UNL     1     -12.976  11.191  71.830  1.00  0.00    -0.526 C  
HETATM   18  C   UNL     1     -13.877  10.116  72.448  1.00  0.00     0.077 C  
HETATM   19  C   UNL     1     -12.527  10.788  70.425  1.00  0.00    -0.347 C  
HETATM   20  C   UNL     1     -12.766   8.396  70.960  1.00  0.00    -0.007 C  
HETATM   21  C   UNL     1     -13.242   8.724  72.378  1.00  0.00    -0.441 C  
ENDBRANCH  14  16
BRANCH  12  22
HETATM   22  N   UNL     1     -10.051   5.085  72.108  1.00  0.00    -0.189 NA 
BRANCH  22  23
HETATM   23  C   UNL     1      -9.097   4.021  72.441  1.00  0.00    -0.114 C  
BRANCH  23  24
HETATM   24  C   UNL     1      -7.696   4.547  72.803  1.00  0.00    -0.087 C  
HETATM   25  O   UNL     1      -6.883   3.524  73.377  1.00  0.00    -0.033 OA 
HETATM   26  H   UNL     1      -6.018   3.848  73.600  1.00  0.00     0.000 HD 
ENDBRANCH  23  24
ENDBRANCH  22  23
BRANCH  22  27
HETATM   27  C   UNL     1     -11.032   5.507  73.109  1.00  0.00    -0.293 C  
BRANCH  27  28
HETATM   28  C   UNL     1     -10.353   6.103  74.356  1.00  0.00    -0.261 C  
HETATM   29  O   UNL     1      -9.890   7.433  74.115  1.00  0.00    -0.413 OA 
HETATM   30  H   UNL     1      -9.471   7.800  74.884  1.00  0.00     0.000 HD 
ENDBRANCH  27  28
ENDBRANCH  22  27
ENDBRANCH  12  22
BRANCH   7  31
HETATM   31  N   UNL     1      -7.195   6.147  68.600  1.00  0.00    -0.082 NA 
HETATM   32  C   UNL     1      -6.576   4.833  68.734  1.00  0.00    -0.045 C  
HETATM   33  C   UNL     1      -6.323   7.202  68.078  1.00  0.00    -0.044 C  
HETATM   34  C   UNL     1      -6.095   4.380  67.355  1.00  0.00    -0.027 C  
HETATM   35  C   UNL     1      -5.835   6.797  66.688  1.00  0.00    -0.022 C  
HETATM   36  C   UNL     1      -5.179   5.416  66.706  1.00  0.00    -0.008 C  
ENDBRANCH   7  31
ENDBRANCH   5   6
BRANCH   5  37
HETATM   37  C   UNL     1      -9.089  12.208  67.603  1.00  0.00    -0.181 C  
BRANCH  37  38
HETATM   38  C   UNL     1     -10.550  12.556  67.953  1.00  0.00    -0.218 C  
HETATM   39  O   UNL     1     -11.483  11.784  67.197  1.00  0.00    -0.372 OA 
HETATM   40  H   UNL     1     -12.383  11.998  67.413  1.00  0.00     0.000 HD 
ENDBRANCH  37  38
ENDBRANCH   5  37
ENDBRANCH   4   5
ENDBRANCH   3   4
TORSDOF 12
ENDMDL
MODEL      208
REMARK 921   NORMALIZED FREE ENERGY PREDICTED BY IDOCK:   -1.55 KCAL/MOL
REMARK 922        TOTAL FREE ENERGY PREDICTED BY IDOCK:   -3.56 KCAL/MOL
REMARK 923 INTER-LIGAND FREE ENERGY PREDICTED BY IDOCK:   -4.12 KCAL/MOL
REMARK 924 INTRA-LIGAND FREE ENERGY PREDICTED BY IDOCK:    0.56 KCAL/MOL
REMARK 927      BINDING AFFINITY PREDICTED BY RF-SCORE:    0.00 PKD
ROOT
HETATM    1  O   UNL     1      -6.595  11.083  65.578  1.00  0.00    -0.362 OA 
HETATM    2  H   UNL     1      -5.958  10.555  65.112  1.00  0.00     0.000 HD 
HETATM    3  C   UNL     1      -7.793  11.260  64.825  1.00  0.00     0.835 C  
ENDROOT
BRANCH   3   4
HETATM    4  C   UNL     1      -8.829  12.120  65.584  1.00  0.00     0.361 C  
BRANCH   4   5
HETATM    5  N   UNL     1      -8.494  12.430  66.990  1.00  0.00    -0.182 NA 
BRANCH   5   6
HETATM    6  C   UNL     1      -8.985  11.536  67.926  1.00  0.00    -0.159 A  
HETATM    7  C   UNL     1     -11.540  11.286  70.519  1.00  0.00    -0.133 A  
HETATM    8  N   UNL     1     -12.050  10.352  71.360  1.00  0.00    -0.355 NA 
HETATM    9  N   UNL     1      -9.978  11.900  68.738  1.00  0.00    -0.147 NA 
HETATM   10  C   UNL     1     -10.501  10.998  69.614  1.00  0.00    -0.023 A  
HETATM   11  N   UNL     1      -8.468  10.316  67.968  1.00  0.00    -0.117 NA 
HETATM   12  C   UNL     1     -11.527   9.134  71.369  1.00  0.00    -0.350 A  
HETATM   13  C   UNL     1     -10.018   9.704  69.706  1.00  0.00    -0.227 A  
HETATM   14  C   UNL     1      -8.959   9.410  68.838  1.00  0.00    -0.136 A  
HETATM   15  N   UNL     1     -10.496   8.805  70.601  1.00  0.00    -0.200 NA 
BRANCH  14  16
HETATM   16  N   UNL     1      -8.300   8.186  68.861  1.00  0.00    -0.124 NA 
HETATM   17  C   UNL     1      -6.140   7.139  69.028  1.00  0.00    -0.023 C  
HETATM   18  C   UNL     1      -6.728   5.874  68.393  1.00  0.00    -0.060 C  
HETATM   19  C   UNL     1      -7.211   7.916  69.794  1.00  0.00    -0.066 C  
HETATM   20  C   UNL     1      -8.996   6.999  68.367  1.00  0.00    -0.122 C  
HETATM   21  C   UNL     1      -7.982   6.176  67.567  1.00  0.00    -0.106 C  
ENDBRANCH  14  16
BRANCH  12  22
HETATM   22  N   UNL     1     -12.063   8.156  72.179  1.00  0.00    -0.337 NA 
BRANCH  22  23
HETATM   23  C   UNL     1     -13.301   8.488  72.893  1.00  0.00     0.127 C  
BRANCH  23  24
HETATM   24  C   UNL     1     -14.397   9.068  71.980  1.00  0.00    -0.244 C  
HETATM   25  O   UNL     1     -14.333   8.516  70.666  1.00  0.00    -0.354 OA 
HETATM   26  H   UNL     1     -15.009   8.875  70.102  1.00  0.00     0.000 HD 
ENDBRANCH  23  24
ENDBRANCH  22  23
BRANCH  22  27
HETATM   27  C   UNL     1     -11.725   6.750  71.944  1.00  0.00    -0.310 C  
BRANCH  27  28
HETATM   28  C   UNL     1     -10.276   6.436  72.361  1.00  0.00    -0.186 C  
HETATM   29  O   UNL     1     -10.191   6.099  73.747  1.00  0.00    -0.214 OA 
HETATM   30  H   UNL     1      -9.297   5.906  74.003  1.00  0.00     0.000 HD 
ENDBRANCH  27  28
ENDBRANCH  22  27
ENDBRANCH  12  22
BRANCH   7  31
HETATM   31  N   UNL     1     -12.170  12.526  70.605  1.00  0.00    -0.351 NA 
HETATM   32  C   UNL     1     -13.616  12.681  70.713  1.00  0.00     1.237 C  
HETATM   33  C   UNL     1     -11.454  13.676  70.048  1.00  0.00    -0.090 C  
HETATM   34  C   UNL     1     -13.910  13.878  71.619  1.00  0.00    -0.376 C  
HETATM   35  C   UNL     1     -11.706  14.893  70.938  1.00  0.00    -0.374 C  
HETATM   36  C   UNL     1     -13.202  15.141  71.135  1.00  0.00    -0.535 C  
ENDBRANCH   7  31
ENDBRANCH   5   6
BRANCH   5  37
HETATM   37  C   UNL     1      -8.435  13.848  67.368  1.00  0.00    -0.199 C  
BRANCH  37  38
HETATM   38  C   UNL     1      -7.633  14.079  68.665  1.00  0.00    -0.130 C  
HETATM   39  O   UNL     1      -6.225  13.969  68.454  1.00  0.00    -0.085 OA 
HETATM   40  H   UNL     1      -5.732  14.111  69.253  1.00  0.00     0.000 HD 
ENDBRANCH  37  38
ENDBRANCH   5  37
ENDBRANCH   4   5
ENDBRANCH   3   4
TORSDOF 12
ENDMDL
MODEL      209
REMARK 921   NORMALIZED FREE ENERGY PREDICTED BY IDOCK:   -1.20 KCAL/MOL
REMARK 922        TOTAL FREE ENERGY PREDICTED BY IDOCK:   -2.96 KCAL/MOL
REMARK 923 INTER-LIGAND FREE ENERGY PREDICTED BY IDOCK:   -3.69 KCAL/MOL
REMARK 924 INTRA-LIGAND FREE ENERGY PREDICTED BY IDOCK:    0.73 KCAL/MOL
REMARK 927      BINDING AFFINITY PREDICTED BY RF-SCORE:    0.00 PKD
ROOT
HETATM    1  O   UNL     1     -12.962   7.294  70.146  1.00  0.00    -0.042 OA 
HETATM    2  H   UNL     1     -13.197   6.386  70.304  1.00  0.00     0.000 HD 
HETATM    3  C   UNL     1     -11.622   7.421  69.673  1.00  0.00     0.234 C  
ENDROOT
BRANCH   3   4
HETATM    4  C   UNL     1     -11.239   8.896  69.415  1.00  0.00     0.159 C  
BRANCH   4   5
HETATM    5  N   UNL     1     -10.187   9.115  68.401  1.00  0.00    -0.194 NA 
BRANCH   5   6
HETATM    6  C   UNL     1      -9.736  10.418  68.288  1.00  0.00    -0.151 A  
HETATM    7  C   UNL     1      -7.073  12.597  69.503  1.00  0.00     0.277 A  
HETATM    8  N   UNL     1      -6.613  13.856  69.297  1.00  0.00    -0.111 NA 
HETATM    9  N   UNL     1      -8.666  10.815  68.978  1.00  0.00    -0.155 NA 
HETATM   10  C   UNL     1      -8.187  12.079  68.816  1.00  0.00     0.027 A  
HETATM   11  N   UNL     1     -10.371  11.239  67.463  1.00  0.00    -0.188 NA 
HETATM   12  C   UNL     1      -7.256  14.650  68.452  1.00  0.00    -0.117 A  
HETATM   13  C   UNL     1      -8.792  12.987  67.964  1.00  0.00    -0.191 A  
HETATM   14  C   UNL     1      -9.925  12.500  67.298  1.00  0.00    -0.211 A  
HETATM   15  N   UNL     1      -8.357  14.263  67.822  1.00  0.00    -0.158 NA 
BRANCH  14  16
HETATM   16  N   UNL     1     -10.702  13.306  66.473  1.00  0.00    -0.283 NA 
HETATM   17  C   UNL     1     -12.949  13.740  65.731  1.00  0.00    -0.310 C  
HETATM   18  C   UNL     1     -12.381  14.444  64.493  1.00  0.00    -0.440 C  
HETATM   19  C   UNL     1     -11.984  13.846  66.912  1.00  0.00    -0.433 C  
HETATM   20  C   UNL     1     -10.050  14.060  65.403  1.00  0.00    -0.319 C  
HETATM   21  C   UNL     1     -10.957  13.981  64.172  1.00  0.00    -0.011 C  
ENDBRANCH  14  16
BRANCH  12  22
HETATM   22  N   UNL     1      -6.775  15.915  68.189  1.00  0.00    -0.117 NA 
BRANCH  22  23
HETATM   23  C   UNL     1      -7.734  16.896  67.666  1.00  0.00    -0.165 C  
BRANCH  23  24
HETATM   24  C   UNL     1      -7.924  18.116  68.585  1.00  0.00    -0.288 C  
HETATM   25  O   UNL     1      -9.273  18.231  69.035  1.00  0.00    -0.205 OA 
HETATM   26  H   UNL     1      -9.390  18.984  69.602  1.00  0.00     0.000 HD 
ENDBRANCH  23  24
ENDBRANCH  22  23
BRANCH  22  27
HETATM   27  C   UNL     1      -5.561  16.386  68.857  1.00  0.00    -0.122 C  
BRANCH  27  28
HETATM   28  C   UNL     1      -5.654  16.227  70.386  1.00  0.00    -0.141 C  
HETATM   29  O   UNL     1      -5.807  17.491  71.035  1.00  0.00     0.213 OA 
HETATM   30  H   UNL     1      -5.864  17.392  71.978  1.00  0.00     0.000 HD 
ENDBRANCH  27  28
ENDBRANCH  22  27
ENDBRANCH  12  22
BRANCH   7  31
HETATM   31  N   UNL     1      -6.316  11.863  70.415  1.00  0.00    -0.165 NA 
HETATM   32  C   UNL     1      -5.325  12.466  71.299  1.00  0.00    -0.079 C  
HETATM   33  C   UNL     1      -6.115  10.442  70.122  1.00  0.00    -0.097 C  
HETATM   34  C   UNL     1      -5.348  11.721  72.634  1.00  0.00     0.764 C  
HETATM   35  C   UNL     1      -6.151   9.657  71.432  1.00  0.00     0.001 C  
HETATM   36  C   UNL     1      -5.155  10.218  72.447  1.00  0.00     0.043 C  
ENDBRANCH   7  31
ENDBRANCH   5   6
BRANCH   5  37
HETATM   37  C   UNL     1     -10.262   8.312  67.173  1.00  0.00    -0.295 C  
BRANCH  37  38
HETATM   38  C   UNL     1      -9.602   9.014  65.969  1.00  0.00    -0.272 C  
HETATM   39  O   UNL     1      -8.493   8.277  65.457  1.00  0.00    -0.147 OA 
HETATM   40  H   UNL     1      -8.087   8.709  64.715  1.00  0.00     0.000 HD 
ENDBRANCH  37  38
ENDBRANCH   5  37
ENDBRANCH   4   5
ENDBRANCH   3   4
TORSDOF 12
ENDMDL
MODEL      210
REMARK 921   NORMALIZED FREE ENERGY PREDICTED BY IDOCK:   -1.19 KCAL/MOL
REMARK 922        TOTAL FREE ENERGY PREDICTED BY IDOCK:   -2.94 KCAL/MOL
REMARK 923 INTER-LIGAND FREE ENERGY PREDICTED BY IDOCK:   -3.13 KCAL/MOL
REMARK 924 INTRA-LIGAND FREE ENERGY PREDICTED BY IDOCK:    0.19 KCAL/MOL
REMARK 927      BINDING AFFINITY PREDICTED BY RF-SCORE:    0.00 PKD
ROOT
HETATM    1  O   UNL     1      -8.844   6.573  71.835  1.00  0.00    -0.134 OA 
HETATM    2  H   UNL     1      -8.958   5.745  72.289  1.00  0.00     0.000 HD 
HETATM    3  C   UNL     1      -7.705   6.555  70.975  1.00  0.00    -0.094 C  
ENDROOT
BRANCH   3   4
HETATM    4  C   UNL     1      -7.520   7.901  70.238  1.00  0.00    -0.077 C  
BRANCH   4   5
HETATM    5  N   UNL     1      -8.370   8.097  69.045  1.00  0.00    -0.127 NA 
BRANCH   5   6
HETATM    6  C   UNL     1      -8.543   9.412  68.651  1.00  0.00    -0.123 A  
HETATM    7  C   UNL     1      -7.384  12.776  69.461  1.00  0.00     0.492 A  
HETATM    8  N   UNL     1      -7.513  14.040  68.987  1.00  0.00    -0.098 NA 
HETATM    9  N   UNL     1      -7.894  10.389  69.285  1.00  0.00    -0.135 NA 
HETATM   10  C   UNL     1      -8.017  11.674  68.854  1.00  0.00    -0.026 A  
HETATM   11  N   UNL     1      -9.336   9.665  67.618  1.00  0.00    -0.127 NA 
HETATM   12  C   UNL     1      -8.298  14.262  67.942  1.00  0.00    -0.162 A  
HETATM   13  C   UNL     1      -8.819  12.011  67.778  1.00  0.00    -0.165 A  
HETATM   14  C   UNL     1      -9.486  10.932  67.183  1.00  0.00    -0.160 A  
HETATM   15  N   UNL     1      -8.988  13.290  67.361  1.00  0.00    -0.204 NA 
BRANCH  14  16
HETATM   16  N   UNL     1     -10.397  11.104  66.147  1.00  0.00    -0.244 NA 
HETATM   17  C   UNL     1     -10.613  11.358  63.764  1.00  0.00    -0.464 C  
HETATM   18  C   UNL     1     -11.996  11.984  63.978  1.00  0.00    -0.499 C  
HETATM   19  C   UNL     1     -10.276  10.378  64.887  1.00  0.00    -0.260 C  
HETATM   20  C   UNL     1     -11.747  11.568  66.463  1.00  0.00     0.173 C  
HETATM   21  C   UNL     1     -12.147  12.576  65.383  1.00  0.00    -0.494 C  
ENDBRANCH  14  16
BRANCH  12  22
HETATM   22  N   UNL     1      -8.404  15.531  67.413  1.00  0.00    -0.169 NA 
BRANCH  22  23
HETATM   23  C   UNL     1      -7.859  16.633  68.213  1.00  0.00    -0.182 C  
BRANCH  23  24
HETATM   24  C   UNL     1      -6.953  17.584  67.410  1.00  0.00    -0.164 C  
HETATM   25  O   UNL     1      -5.591  17.158  67.436  1.00  0.00    -0.120 OA 
HETATM   26  H   UNL     1      -5.032  17.745  66.940  1.00  0.00     0.000 HD 
ENDBRANCH  23  24
ENDBRANCH  22  23
BRANCH  22  27
HETATM   27  C   UNL     1      -8.565  15.706  65.968  1.00  0.00     0.063 C  
BRANCH  27  28
HETATM   28  C   UNL     1     -10.018  15.453  65.523  1.00  0.00    -0.344 C  
HETATM   29  O   UNL     1     -10.411  16.352  64.485  1.00  0.00    -0.558 OA 
HETATM   30  H   UNL     1     -11.307  16.196  64.211  1.00  0.00     0.000 HD 
ENDBRANCH  27  28
ENDBRANCH  22  27
ENDBRANCH  12  22
BRANCH   7  31
HETATM   31  N   UNL     1      -6.537  12.671  70.563  1.00  0.00     0.336 NA 
HETATM   32  C   UNL     1      -5.953  13.827  71.234  1.00  0.00    -0.053 C  
HETATM   33  C   UNL     1      -5.801  11.415  70.720  1.00  0.00    -0.031 C  
HETATM   34  C   UNL     1      -5.876  13.531  72.732  1.00  0.00     0.623 C  
HETATM   35  C   UNL     1      -5.718  11.072  72.206  1.00  0.00     1.033 C  
HETATM   36  C   UNL     1      -5.132  12.229  73.015  1.00  0.00     0.406 C  
ENDBRANCH   7  31
ENDBRANCH   5   6
BRANCH   5  37
HETATM   37  C   UNL     1      -9.504   7.180  68.872  1.00  0.00    -0.142 C  
BRANCH  37  38
HETATM   38  C   UNL     1     -10.700   7.545  69.775  1.00  0.00    -0.242 C  
HETATM   39  O   UNL     1     -11.825   6.697  69.549  1.00  0.00    -0.658 OA 
HETATM   40  H   UNL     1     -12.561   6.922  70.105  1.00  0.00     0.000 HD 
ENDBRANCH  37  38
ENDBRANCH   5  37
ENDBRANCH   4   5
ENDBRANCH   3   4
TORSDOF 12
ENDMDL
MODEL      211
REMARK 921   NORMALIZED FREE ENERGY PREDICTED BY IDOCK:   -0.78 KCAL/MOL
REMARK 922        TOTAL FREE ENERGY PREDICTED BY IDOCK:   -2.24 KCAL/MOL
REMARK 923 INTER-LIGAND FREE ENERGY PREDICTED BY IDOCK:   -1.75 KCAL/MOL
REMARK 924 INTRA-LIGAND FREE ENERGY PREDICTED BY IDOCK:   -0.49 KCAL/MOL
REMARK 927      BINDING AFFINITY PREDICTED BY RF-SCORE:    0.00 PKD
ROOT
HETATM    1  O   UNL     1     -10.431  15.570  72.309  1.00  0.00     0.652 OA 
HETATM    2  H   UNL     1     -11.061  15.966  72.900  1.00  0.00     0.000 HD 
HETATM    3  C   UNL     1     -10.832  15.693  70.945  1.00  0.00    -0.183 C  
ENDROOT
BRANCH   3   4
HETATM    4  C   UNL     1      -9.807  15.049  69.984  1.00  0.00     0.113 C  
BRANCH   4   5
HETATM    5  N   UNL     1     -10.379  14.226  68.898  1.00  0.00    -0.234 NA 
BRANCH   5   6
HETATM    6  C   UNL     1      -9.979  12.901  68.886  1.00  0.00     0.107 A  
HETATM    7  C   UNL     1     -10.989   9.637  70.165  1.00  0.00    -0.275 A  
HETATM    8  N   UNL     1     -10.613   8.339  70.056  1.00  0.00    -0.233 NA 
HETATM    9  N   UNL     1     -10.681  11.986  69.555  1.00  0.00     0.075 NA 
HETATM   10  C   UNL     1     -10.321  10.675  69.489  1.00  0.00    -0.182 A  
HETATM   11  N   UNL     1      -8.910  12.569  68.174  1.00  0.00    -0.188 NA 
HETATM   12  C   UNL     1      -9.551   8.032  69.322  1.00  0.00    -0.157 A  
HETATM   13  C   UNL     1      -9.224  10.254  68.758  1.00  0.00    -0.166 A  
HETATM   14  C   UNL     1      -8.525  11.279  68.107  1.00  0.00    -0.145 A  
HETATM   15  N   UNL     1      -8.824   8.960  68.715  1.00  0.00    -0.137 NA 
BRANCH  14  16
HETATM   16  N   UNL     1      -7.350  11.043  67.402  1.00  0.00    -0.100 NA 
HETATM   17  C   UNL     1      -6.442  10.622  65.214  1.00  0.00    -0.008 C  
HETATM   18  C   UNL     1      -5.192  10.026  65.871  1.00  0.00    -0.042 C  
HETATM   19  C   UNL     1      -7.085  11.676  66.114  1.00  0.00     0.368 C  
HETATM   20  C   UNL     1      -6.159  10.616  68.135  1.00  0.00    -0.050 C  
HETATM   21  C   UNL     1      -5.469   9.537  67.295  1.00  0.00    -0.036 C  
ENDBRANCH  14  16
BRANCH  12  22
HETATM   22  N   UNL     1      -9.182   6.714  69.156  1.00  0.00    -0.137 NA 
BRANCH  22  23
HETATM   23  C   UNL     1      -8.924   5.936  70.373  1.00  0.00    -0.147 C  
BRANCH  23  24
HETATM   24  C   UNL     1      -8.379   4.524  70.093  1.00  0.00    -0.070 C  
HETATM   25  O   UNL     1      -8.916   3.564  71.002  1.00  0.00    -0.081 OA 
HETATM   26  H   UNL     1      -8.579   2.692  70.830  1.00  0.00     0.000 HD 
ENDBRANCH  23  24
ENDBRANCH  22  23
BRANCH  22  27
HETATM   27  C   UNL     1      -9.524   6.013  67.916  1.00  0.00    -0.112 C  
BRANCH  27  28
HETATM   28  C   UNL     1      -8.635   6.467  66.743  1.00  0.00    -0.113 C  
HETATM   29  O   UNL     1      -7.426   7.071  67.206  1.00  0.00    -0.094 OA 
HETATM   30  H   UNL     1      -6.878   7.351  66.482  1.00  0.00     0.000 HD 
ENDBRANCH  27  28
ENDBRANCH  22  27
ENDBRANCH  12  22
BRANCH   7  31
HETATM   31  N   UNL     1     -12.114   9.832  70.965  1.00  0.00    -0.324 NA 
HETATM   32  C   UNL     1     -12.779   8.751  71.684  1.00  0.00    -0.348 C  
HETATM   33  C   UNL     1     -12.951  10.996  70.664  1.00  0.00    -0.131 C  
HETATM   34  C   UNL     1     -13.290   9.299  73.018  1.00  0.00     0.323 C  
HETATM   35  C   UNL     1     -13.467  11.586  71.975  1.00  0.00    -0.298 C  
HETATM   36  C   UNL     1     -14.173  10.529  72.824  1.00  0.00     1.384 C  
ENDBRANCH   7  31
ENDBRANCH   5   6
BRANCH   5  37
HETATM   37  C   UNL     1     -10.597  14.882  67.603  1.00  0.00    -0.264 C  
BRANCH  37  38
HETATM   38  C   UNL     1      -9.575  16.005  67.331  1.00  0.00    -0.225 C  
HETATM   39  O   UNL     1     -10.063  16.963  66.393  1.00  0.00    -0.296 OA 
HETATM   40  H   UNL     1      -9.433  17.654  66.226  1.00  0.00     0.000 HD 
ENDBRANCH  37  38
ENDBRANCH   5  37
ENDBRANCH   4   5
ENDBRANCH   3   4
TORSDOF 12
ENDMDL
MODEL      212
REMARK 921   NORMALIZED FREE ENERGY PREDICTED BY IDOCK:   -0.78 KCAL/MOL
REMARK 922        TOTAL FREE ENERGY PREDICTED BY IDOCK:   -2.24 KCAL/MOL
REMARK 923 INTER-LIGAND FREE ENERGY PREDICTED BY IDOCK:   -3.21 KCAL/MOL
REMARK 924 INTRA-LIGAND FREE ENERGY PREDICTED BY IDOCK:    0.97 KCAL/MOL
REMARK 927      BINDING AFFINITY PREDICTED BY RF-SCORE:    0.00 PKD
ROOT
HETATM    1  O   UNL     1     -12.625  12.403  65.206  1.00  0.00    -0.636 OA 
HETATM    2  H   UNL     1     -12.557  13.146  64.618  1.00  0.00     0.000 HD 
HETATM    3  C   UNL     1     -11.352  12.011  65.717  1.00  0.00    -0.331 C  
ENDROOT
BRANCH   3   4
HETATM    4  C   UNL     1     -11.462  10.803  66.674  1.00  0.00     0.474 C  
BRANCH   4   5
HETATM    5  N   UNL     1     -10.303   9.886  66.681  1.00  0.00    -0.224 NA 
BRANCH   5   6
HETATM    6  C   UNL     1      -9.451  10.017  67.764  1.00  0.00    -0.140 A  
HETATM    7  C   UNL     1      -8.769   8.509  71.016  1.00  0.00    -0.173 A  
HETATM    8  N   UNL     1      -7.860   8.613  72.016  1.00  0.00    -0.295 NA 
HETATM    9  N   UNL     1      -9.586   9.213  68.819  1.00  0.00    -0.157 NA 
HETATM   10  C   UNL     1      -8.707   9.303  69.855  1.00  0.00    -0.180 A  
HETATM   11  N   UNL     1      -8.492  10.931  67.707  1.00  0.00    -0.122 NA 
HETATM   12  C   UNL     1      -6.898   9.523  71.926  1.00  0.00     0.535 A  
HETATM   13  C   UNL     1      -7.675  10.225  69.860  1.00  0.00    -0.126 A  
HETATM   14  C   UNL     1      -7.618  11.048  68.728  1.00  0.00    -0.127 A  
HETATM   15  N   UNL     1      -6.816  10.359  70.900  1.00  0.00    -0.239 NA 
BRANCH  14  16
HETATM   16  N   UNL     1      -6.699  12.085  68.610  1.00  0.00    -0.074 NA 
HETATM   17  C   UNL     1      -5.416  13.700  69.848  1.00  0.00    -0.101 C  
HETATM   18  C   UNL     1      -5.271  14.533  68.569  1.00  0.00    -0.103 C  
HETATM   19  C   UNL     1      -5.566  12.215  69.520  1.00  0.00    -0.079 C  
HETATM   20  C   UNL     1      -6.521  12.728  67.309  1.00  0.00    -0.066 C  
HETATM   21  C   UNL     1      -6.383  14.232  67.559  1.00  0.00    -0.028 C  
ENDBRANCH  14  16
BRANCH  12  22
HETATM   22  N   UNL     1      -5.934   9.610  72.907  1.00  0.00    -0.251 NA 
BRANCH  22  23
HETATM   23  C   UNL     1      -5.400   8.348  73.431  1.00  0.00    -0.054 C  
BRANCH  23  24
HETATM   24  C   UNL     1      -6.305   7.693  74.490  1.00  0.00    -0.090 C  
HETATM   25  O   UNL     1      -6.866   6.469  74.018  1.00  0.00    -0.077 OA 
HETATM   26  H   UNL     1      -7.425   6.065  74.672  1.00  0.00     0.000 HD 
ENDBRANCH  23  24
ENDBRANCH  22  23
BRANCH  22  27
HETATM   27  C   UNL     1      -5.141  10.835  73.041  1.00  0.00     0.309 C  
BRANCH  27  28
HETATM   28  C   UNL     1      -5.575  11.662  74.265  1.00  0.00     1.059 C  
HETATM   29  O   UNL     1      -5.853  13.018  73.908  1.00  0.00     0.093 OA 
HETATM   30  H   UNL     1      -6.120  13.528  74.664  1.00  0.00     0.000 HD 
ENDBRANCH  27  28
ENDBRANCH  22  27
ENDBRANCH  12  22
BRANCH   7  31
HETATM   31  N   UNL     1      -9.730   7.522  71.228  1.00  0.00    -0.165 NA 
HETATM   32  C   UNL     1     -10.186   6.614  70.182  1.00  0.00    -0.187 C  
HETATM   33  C   UNL     1     -10.671   7.735  72.330  1.00  0.00    -0.269 C  
HETATM   34  C   UNL     1     -10.461   5.248  70.811  1.00  0.00    -0.298 C  
HETATM   35  C   UNL     1     -10.960   6.393  73.000  1.00  0.00    -0.269 C  
HETATM   36  C   UNL     1     -11.431   5.351  71.986  1.00  0.00    -0.041 C  
ENDBRANCH   7  31
ENDBRANCH   5   6
BRANCH   5  37
HETATM   37  C   UNL     1      -9.706   9.551  65.382  1.00  0.00    -0.244 C  
BRANCH  37  38
HETATM   38  C   UNL     1      -9.418  10.800  64.526  1.00  0.00    -0.252 C  
HETATM   39  O   UNL     1      -9.473  10.520  63.128  1.00  0.00    -0.281 OA 
HETATM   40  H   UNL     1      -9.295  11.290  62.601  1.00  0.00     0.000 HD 
ENDBRANCH  37  38
ENDBRANCH   5  37
ENDBRANCH   4   5
ENDBRANCH   3   4
TORSDOF 12
ENDMDL
MODEL      213
REMARK 921   NORMALIZED FREE ENERGY PREDICTED BY IDOCK:   -0.76 KCAL/MOL
REMARK 922        TOTAL FREE ENERGY PREDICTED BY IDOCK:   -2.21 KCAL/MOL
REMARK 923 INTER-LIGAND FREE ENERGY PREDICTED BY IDOCK:   -2.99 KCAL/MOL
REMARK 924 INTRA-LIGAND FREE ENERGY PREDICTED BY IDOCK:    0.77 KCAL/MOL
REMARK 927      BINDING AFFINITY PREDICTED BY RF-SCORE:    0.00 PKD
ROOT
HETATM    1  O   UNL     1     -10.795   2.858  64.284  1.00  0.00    -0.444 OA 
HETATM    2  H   UNL     1     -11.319   2.245  63.782  1.00  0.00     0.000 HD 
HETATM    3  C   UNL     1     -11.599   3.861  64.903  1.00  0.00     1.758 C  
ENDROOT
BRANCH   3   4
HETATM    4  C   UNL     1     -10.747   4.858  65.721  1.00  0.00    -0.143 C  
BRANCH   4   5
HETATM    5  N   UNL     1      -9.353   5.033  65.262  1.00  0.00    -0.127 NA 
BRANCH   5   6
HETATM    6  C   UNL     1      -8.676   6.103  65.821  1.00  0.00    -0.145 A  
HETATM    7  C   UNL     1      -8.250   7.815  69.014  1.00  0.00    -0.126 A  
HETATM    8  N   UNL     1      -7.501   8.815  69.542  1.00  0.00    -0.074 NA 
HETATM    9  N   UNL     1      -8.849   6.402  67.108  1.00  0.00    -0.112 NA 
HETATM   10  C   UNL     1      -8.133   7.415  67.669  1.00  0.00    -0.114 A  
HETATM   11  N   UNL     1      -7.839   6.791  65.056  1.00  0.00    -0.111 NA 
HETATM   12  C   UNL     1      -6.658   9.475  68.760  1.00  0.00    -0.051 A  
HETATM   13  C   UNL     1      -7.234   8.169  66.936  1.00  0.00    -0.083 A  
HETATM   14  C   UNL     1      -7.131   7.808  65.586  1.00  0.00    -0.060 A  
HETATM   15  N   UNL     1      -6.544   9.209  67.466  1.00  0.00    -0.064 NA 
BRANCH  14  16
HETATM   16  N   UNL     1      -6.341   8.517  64.688  1.00  0.00    -0.065 NA 
HETATM   17  C   UNL     1      -6.276  10.445  63.250  1.00  0.00    -0.108 C  
HETATM   18  C   UNL     1      -5.136   9.792  62.461  1.00  0.00    -0.081 C  
HETATM   19  C   UNL     1      -6.276   9.975  64.705  1.00  0.00    -0.124 C  
HETATM   20  C   UNL     1      -5.181   7.856  64.091  1.00  0.00    -0.036 C  
HETATM   21  C   UNL     1      -5.129   8.268  62.618  1.00  0.00    -0.063 C  
ENDBRANCH  14  16
BRANCH  12  22
HETATM   22  N   UNL     1      -5.851  10.460  69.288  1.00  0.00    -0.037 NA 
BRANCH  22  23
HETATM   23  C   UNL     1      -5.717  11.698  68.510  1.00  0.00    -0.045 C  
BRANCH  23  24
HETATM   24  C   UNL     1      -7.068  12.316  68.107  1.00  0.00    -0.091 C  
HETATM   25  O   UNL     1      -7.610  13.123  69.152  1.00  0.00    -0.321 OA 
HETATM   26  H   UNL     1      -8.444  13.505  68.903  1.00  0.00     0.000 HD 
ENDBRANCH  23  24
ENDBRANCH  22  23
BRANCH  22  27
HETATM   27  C   UNL     1      -5.576  10.483  70.726  1.00  0.00    -0.099 C  
BRANCH  27  28
HETATM   28  C   UNL     1      -5.777   9.097  71.366  1.00  0.00    -0.063 C  
HETATM   29  O   UNL     1      -6.786   9.130  72.377  1.00  0.00    -0.313 OA 
HETATM   30  H   UNL     1      -6.910   8.275  72.771  1.00  0.00     0.000 HD 
ENDBRANCH  27  28
ENDBRANCH  22  27
ENDBRANCH  12  22
BRANCH   7  31
HETATM   31  N   UNL     1      -9.099   7.201  69.934  1.00  0.00    -0.142 NA 
HETATM   32  C   UNL     1     -10.359   7.790  70.372  1.00  0.00    -0.212 C  
HETATM   33  C   UNL     1      -8.494   6.245  70.863  1.00  0.00    -0.131 C  
HETATM   34  C   UNL     1     -11.372   6.664  70.586  1.00  0.00    -0.401 C  
HETATM   35  C   UNL     1      -9.470   5.091  71.089  1.00  0.00    -0.212 C  
HETATM   36  C   UNL     1     -10.840   5.597  71.539  1.00  0.00    -0.297 C  
ENDBRANCH   7  31
ENDBRANCH   5   6
BRANCH   5  37
HETATM   37  C   UNL     1      -9.062   4.700  63.862  1.00  0.00    -0.078 C  
BRANCH  37  38
HETATM   38  C   UNL     1      -8.083   3.516  63.729  1.00  0.00    -0.089 C  
HETATM   39  O   UNL     1      -7.817   2.894  64.986  1.00  0.00    -0.080 OA 
HETATM   40  H   UNL     1      -7.214   2.164  64.904  1.00  0.00     0.000 HD 
ENDBRANCH  37  38
ENDBRANCH   5  37
ENDBRANCH   4   5
ENDBRANCH   3   4
TORSDOF 12
ENDMDL
MODEL      214
REMARK 921   NORMALIZED FREE ENERGY PREDICTED BY IDOCK:   -0.52 KCAL/MOL
REMARK 922        TOTAL FREE ENERGY PREDICTED BY IDOCK:   -1.80 KCAL/MOL
REMARK 923 INTER-LIGAND FREE ENERGY PREDICTED BY IDOCK:   -1.21 KCAL/MOL
REMARK 924 INTRA-LIGAND FREE ENERGY PREDICTED BY IDOCK:   -0.59 KCAL/MOL
REMARK 927      BINDING AFFINITY PREDICTED BY RF-SCORE:    0.00 PKD
ROOT
HETATM    1  O   UNL     1      -8.550  19.849  71.464  1.00  0.00     1.997 OA 
HETATM    2  H   UNL     1      -7.893  20.103  72.103  1.00  0.00     0.000 HD 
HETATM    3  C   UNL     1      -7.977  19.604  70.181  1.00  0.00     0.950 C  
ENDROOT
BRANCH   3   4
HETATM    4  C   UNL     1      -9.045  19.191  69.143  1.00  0.00    -0.134 C  
BRANCH   4   5
HETATM    5  N   UNL     1      -8.525  18.618  67.884  1.00  0.00    -0.271 NA 
BRANCH   5   6
HETATM    6  C   UNL     1      -8.651  17.245  67.762  1.00  0.00    -0.225 A  
HETATM    7  C   UNL     1      -7.506  14.156  69.331  1.00  0.00     0.080 A  
HETATM    8  N   UNL     1      -7.727  12.822  69.234  1.00  0.00     0.340 NA 
HETATM    9  N   UNL     1      -7.989  16.438  68.592  1.00  0.00    -0.207 NA 
HETATM   10  C   UNL     1      -8.165  15.091  68.510  1.00  0.00    -0.151 A  
HETATM   11  N   UNL     1      -9.462  16.764  66.829  1.00  0.00    -0.236 NA 
HETATM   12  C   UNL     1      -8.557  12.368  68.305  1.00  0.00    -0.172 A  
HETATM   13  C   UNL     1      -9.003  14.519  67.569  1.00  0.00    -0.188 A  
HETATM   14  C   UNL     1      -9.640  15.433  66.719  1.00  0.00    -0.241 A  
HETATM   15  N   UNL     1      -9.159  13.178  67.444  1.00  0.00    -0.199 NA 
BRANCH  14  16
HETATM   16  N   UNL     1     -10.447  15.024  65.663  1.00  0.00    -0.324 NA 
HETATM   17  C   UNL     1     -12.532  15.430  64.533  1.00  0.00     0.047 C  
HETATM   18  C   UNL     1     -12.461  14.019  63.940  1.00  0.00    -0.170 C  
HETATM   19  C   UNL     1     -11.132  15.983  64.803  1.00  0.00    -0.365 C  
HETATM   20  C   UNL     1     -10.211  13.714  65.059  1.00  0.00    -0.334 C  
HETATM   21  C   UNL     1     -11.579  13.087  64.777  1.00  0.00    -0.368 C  
ENDBRANCH  14  16
BRANCH  12  22
HETATM   22  N   UNL     1      -8.834  11.021  68.221  1.00  0.00    -0.138 NA 
BRANCH  22  23
HETATM   23  C   UNL     1      -8.186  10.273  67.138  1.00  0.00    -0.121 C  
BRANCH  23  24
HETATM   24  C   UNL     1      -8.995   9.051  66.668  1.00  0.00    -0.135 C  
HETATM   25  O   UNL     1     -10.215   9.438  66.038  1.00  0.00    -0.269 OA 
HETATM   26  H   UNL     1     -10.714   8.684  65.749  1.00  0.00     0.000 HD 
ENDBRANCH  23  24
ENDBRANCH  22  23
BRANCH  22  27
HETATM   27  C   UNL     1      -9.309  10.301  69.405  1.00  0.00    -0.199 C  
BRANCH  27  28
HETATM   28  C   UNL     1      -8.200   9.427  70.022  1.00  0.00    -0.162 C  
HETATM   29  O   UNL     1      -7.341  10.194  70.869  1.00  0.00    -0.380 OA 
HETATM   30  H   UNL     1      -6.658   9.655  71.249  1.00  0.00     0.000 HD 
ENDBRANCH  27  28
ENDBRANCH  22  27
ENDBRANCH  12  22
BRANCH   7  31
HETATM   31  N   UNL     1      -6.612  14.507  70.341  1.00  0.00    -0.123 NA 
HETATM   32  C   UNL     1      -5.757  15.687  70.276  1.00  0.00    -0.149 C  
HETATM   33  C   UNL     1      -6.132  13.430  71.209  1.00  0.00     0.410 C  
HETATM   34  C   UNL     1      -5.622  16.267  71.684  1.00  0.00     0.590 C  
HETATM   35  C   UNL     1      -6.001  13.964  72.635  1.00  0.00     0.489 C  
HETATM   36  C   UNL     1      -5.132  15.222  72.683  1.00  0.00     0.159 C  
ENDBRANCH   7  31
ENDBRANCH   5   6
BRANCH   5  37
HETATM   37  C   UNL     1      -7.329  19.245  67.306  1.00  0.00    -0.223 C  
BRANCH  37  38
HETATM   38  C   UNL     1      -7.550  19.703  65.850  1.00  0.00    -0.310 C  
HETATM   39  O   UNL     1      -6.681  19.034  64.937  1.00  0.00    -0.478 OA 
HETATM   40  H   UNL     1      -6.817  19.316  64.041  1.00  0.00     0.000 HD 
ENDBRANCH  37  38
ENDBRANCH   5  37
ENDBRANCH   4   5
ENDBRANCH   3   4
TORSDOF 12
ENDMDL
MODEL      215
REMARK 921   NORMALIZED FREE ENERGY PREDICTED BY IDOCK:   -0.17 KCAL/MOL
REMARK 922        TOTAL FREE ENERGY PREDICTED BY IDOCK:   -1.21 KCAL/MOL
REMARK 923 INTER-LIGAND FREE ENERGY PREDICTED BY IDOCK:   -1.46 KCAL/MOL
REMARK 924 INTRA-LIGAND FREE ENERGY PREDICTED BY IDOCK:    0.25 KCAL/MOL
REMARK 927      BINDING AFFINITY PREDICTED BY RF-SCORE:    0.00 PKD
ROOT
HETATM    1  O   UNL     1     -11.453  15.865  71.610  1.00  0.00    -0.407 OA 
HETATM    2  H   UNL     1     -12.364  15.974  71.359  1.00  0.00     0.000 HD 
HETATM    3  C   UNL     1     -10.660  15.374  70.530  1.00  0.00    -0.198 C  
ENDROOT
BRANCH   3   4
HETATM    4  C   UNL     1      -9.180  15.198  70.937  1.00  0.00     2.093 C  
BRANCH   4   5
HETATM    5  N   UNL     1      -8.195  15.345  69.844  1.00  0.00    -0.017 NA 
BRANCH   5   6
HETATM    6  C   UNL     1      -8.453  14.596  68.710  1.00  0.00    -0.161 A  
HETATM    7  C   UNL     1      -7.906  11.255  67.348  1.00  0.00    -0.128 A  
HETATM    8  N   UNL     1      -8.256  10.530  66.257  1.00  0.00    -0.141 NA 
HETATM    9  N   UNL     1      -8.016  13.339  68.626  1.00  0.00    -0.091 NA 
HETATM   10  C   UNL     1      -8.327  12.586  67.536  1.00  0.00    -0.175 A  
HETATM   11  N   UNL     1      -9.165  15.148  67.736  1.00  0.00    -0.180 NA 
HETATM   12  C   UNL     1      -8.984  11.100  65.307  1.00  0.00    -0.121 A  
HETATM   13  C   UNL     1      -9.074  13.091  66.486  1.00  0.00    -0.127 A  
HETATM   14  C   UNL     1      -9.472  14.426  66.639  1.00  0.00    -0.283 A  
HETATM   15  N   UNL     1      -9.357  12.371  65.373  1.00  0.00     0.070 NA 
BRANCH  14  16
HETATM   16  N   UNL     1     -10.153  15.115  65.642  1.00  0.00    -0.337 NA 
HETATM   17  C   UNL     1     -11.281  17.175  65.120  1.00  0.00     0.341 C  
HETATM   18  C   UNL     1     -12.006  16.462  63.972  1.00  0.00     0.932 C  
HETATM   19  C   UNL     1      -9.920  16.533  65.391  1.00  0.00     0.036 C  
HETATM   20  C   UNL     1     -10.687  14.368  64.505  1.00  0.00    -0.214 C  
HETATM   21  C   UNL     1     -12.068  14.947  64.186  1.00  0.00    -0.289 C  
ENDBRANCH  14  16
BRANCH  12  22
HETATM   22  N   UNL     1      -9.394  10.366  64.214  1.00  0.00    -0.251 NA 
BRANCH  22  23
HETATM   23  C   UNL     1     -10.441  10.954  63.371  1.00  0.00    -0.153 C  
BRANCH  23  24
HETATM   24  C   UNL     1     -11.757  11.219  64.125  1.00  0.00     0.272 C  
HETATM   25  O   UNL     1     -12.711  11.886  63.300  1.00  0.00    -0.747 OA 
HETATM   26  H   UNL     1     -13.523  12.050  63.765  1.00  0.00     0.000 HD 
ENDBRANCH  23  24
ENDBRANCH  22  23
BRANCH  22  27
HETATM   27  C   UNL     1      -8.509   9.345  63.650  1.00  0.00    -0.200 C  
BRANCH  27  28
HETATM   28  C   UNL     1      -7.079   9.880  63.447  1.00  0.00    -0.126 C  
HETATM   29  O   UNL     1      -7.036  10.883  62.430  1.00  0.00    -0.308 OA 
HETATM   30  H   UNL     1      -6.154  11.213  62.305  1.00  0.00     0.000 HD 
ENDBRANCH  27  28
ENDBRANCH  22  27
ENDBRANCH  12  22
BRANCH   7  31
HETATM   31  N   UNL     1      -7.139  10.549  68.272  1.00  0.00    -0.080 NA 
HETATM   32  C   UNL     1      -5.683  10.477  68.213  1.00  0.00    -0.040 C  
HETATM   33  C   UNL     1      -7.794   9.444  68.976  1.00  0.00    -0.079 C  
HETATM   34  C   UNL     1      -5.139  10.465  69.642  1.00  0.00    -0.038 C  
HETATM   35  C   UNL     1      -7.291   9.409  70.418  1.00  0.00    -0.124 C  
HETATM   36  C   UNL     1      -5.765   9.350  70.477  1.00  0.00    -0.045 C  
ENDBRANCH   7  31
ENDBRANCH   5   6
BRANCH   5  37
HETATM   37  C   UNL     1      -6.790  15.534  70.229  1.00  0.00     0.188 C  
BRANCH  37  38
HETATM   38  C   UNL     1      -6.012  16.396  69.214  1.00  0.00    -0.154 C  
HETATM   39  O   UNL     1      -6.868  17.277  68.487  1.00  0.00    -0.180 OA 
HETATM   40  H   UNL     1      -6.389  17.807  67.862  1.00  0.00     0.000 HD 
ENDBRANCH  37  38
ENDBRANCH   5  37
ENDBRANCH   4   5
ENDBRANCH   3   4
TORSDOF 12
ENDMDL
MODEL      216
REMARK 921   NORMALIZED FREE ENERGY PREDICTED BY IDOCK:   -0.12 KCAL/MOL
REMARK 922        TOTAL FREE ENERGY PREDICTED BY IDOCK:   -1.13 KCAL/MOL
REMARK 923 INTER-LIGAND FREE ENERGY PREDICTED BY IDOCK:   -0.21 KCAL/MOL
REMARK 924 INTRA-LIGAND FREE ENERGY PREDICTED BY IDOCK:   -0.91 KCAL/MOL
REMARK 927      BINDING AFFINITY PREDICTED BY RF-SCORE:    0.00 PKD
ROOT
HETATM    1  O   UNL     1     -12.202  11.377  65.423  1.00  0.00     0.239 OA 
HETATM    2  H   UNL     1     -13.121  11.615  65.394  1.00  0.00     0.000 HD 
HETATM    3  C   UNL     1     -11.379  12.360  64.797  1.00  0.00    -0.315 C  
ENDROOT
BRANCH   3   4
HETATM    4  C   UNL     1      -9.883  11.973  64.844  1.00  0.00    -0.175 C  
BRANCH   4   5
HETATM    5  N   UNL     1      -9.182  12.287  66.106  1.00  0.00    -0.181 NA 
BRANCH   5   6
HETATM    6  C   UNL     1      -8.587  11.209  66.737  1.00  0.00    -0.157 A  
HETATM    7  C   UNL     1      -7.821   7.685  66.180  1.00  0.00    -0.096 A  
HETATM    8  N   UNL     1      -7.152   6.678  66.795  1.00  0.00    -0.067 NA 
HETATM    9  N   UNL     1      -8.549  10.021  66.133  1.00  0.00    -0.131 NA 
HETATM   10  C   UNL     1      -7.908   8.978  66.729  1.00  0.00    -0.104 A  
HETATM   11  N   UNL     1      -8.037  11.397  67.930  1.00  0.00    -0.121 NA 
HETATM   12  C   UNL     1      -6.595   6.898  67.978  1.00  0.00    -0.059 A  
HETATM   13  C   UNL     1      -7.302   9.104  67.967  1.00  0.00    -0.083 A  
HETATM   14  C   UNL     1      -7.410  10.375  68.546  1.00  0.00    -0.086 A  
HETATM   15  N   UNL     1      -6.696   8.067  68.596  1.00  0.00    -0.060 NA 
BRANCH  14  16
HETATM   16  N   UNL     1      -6.935  10.651  69.823  1.00  0.00    -0.138 NA 
HETATM   17  C   UNL     1      -5.245  11.835  71.060  1.00  0.00    -0.124 C  
HETATM   18  C   UNL     1      -5.493  10.902  72.251  1.00  0.00     0.563 C  
HETATM   19  C   UNL     1      -6.508  11.990  70.214  1.00  0.00     0.266 C  
HETATM   20  C   UNL     1      -7.343   9.788  70.931  1.00  0.00     0.142 C  
HETATM   21  C   UNL     1      -6.114   9.571  71.818  1.00  0.00     0.085 C  
ENDBRANCH  14  16
BRANCH  12  22
HETATM   22  N   UNL     1      -5.868   5.904  68.597  1.00  0.00    -0.015 NA 
BRANCH  22  23
HETATM   23  C   UNL     1      -5.359   4.823  67.745  1.00  0.00    -0.012 C  
BRANCH  23  24
HETATM   24  C   UNL     1      -6.213   3.544  67.804  1.00  0.00    -0.032 C  
HETATM   25  O   UNL     1      -5.558   2.507  68.533  1.00  0.00    -0.017 OA 
HETATM   26  H   UNL     1      -6.085   1.717  68.570  1.00  0.00     0.000 HD 
ENDBRANCH  23  24
ENDBRANCH  22  23
BRANCH  22  27
HETATM   27  C   UNL     1      -5.218   6.170  69.882  1.00  0.00    -0.012 C  
BRANCH  27  28
HETATM   28  C   UNL     1      -5.992   5.536  71.053  1.00  0.00    -0.028 C  
HETATM   29  O   UNL     1      -7.104   6.345  71.443  1.00  0.00    -0.074 OA 
HETATM   30  H   UNL     1      -7.581   5.954  72.165  1.00  0.00     0.000 HD 
ENDBRANCH  27  28
ENDBRANCH  22  27
ENDBRANCH  12  22
BRANCH   7  31
HETATM   31  N   UNL     1      -8.365   7.330  64.947  1.00  0.00    -0.072 NA 
HETATM   32  C   UNL     1      -8.641   8.294  63.889  1.00  0.00     0.176 C  
HETATM   33  C   UNL     1      -9.157   6.099  64.898  1.00  0.00     0.468 C  
HETATM   34  C   UNL     1      -8.362   7.629  62.540  1.00  0.00    -0.027 C  
HETATM   35  C   UNL     1      -8.892   5.391  63.571  1.00  0.00     0.161 C  
HETATM   36  C   UNL     1      -9.135   6.322  62.382  1.00  0.00     0.578 C  
ENDBRANCH   7  31
ENDBRANCH   5   6
BRANCH   5  37
HETATM   37  C   UNL     1      -9.765  13.334  66.954  1.00  0.00    -0.248 C  
BRANCH  37  38
HETATM   38  C   UNL     1      -9.393  14.753  66.479  1.00  0.00    -0.290 C  
HETATM   39  O   UNL     1      -8.704  15.495  67.485  1.00  0.00    -0.164 OA 
HETATM   40  H   UNL     1      -8.474  16.369  67.191  1.00  0.00     0.000 HD 
ENDBRANCH  37  38
ENDBRANCH   5  37
ENDBRANCH   4   5
ENDBRANCH   3   4
TORSDOF 12
ENDMDL
MODEL      217
REMARK 921   NORMALIZED FREE ENERGY PREDICTED BY IDOCK:   -0.03 KCAL/MOL
REMARK 922        TOTAL FREE ENERGY PREDICTED BY IDOCK:   -0.97 KCAL/MOL
REMARK 923 INTER-LIGAND FREE ENERGY PREDICTED BY IDOCK:   -1.11 KCAL/MOL
REMARK 924 INTRA-LIGAND FREE ENERGY PREDICTED BY IDOCK:    0.14 KCAL/MOL
REMARK 927      BINDING AFFINITY PREDICTED BY RF-SCORE:    0.00 PKD
ROOT
HETATM    1  O   UNL     1     -10.827  15.314  71.507  1.00  0.00    -0.486 OA 
HETATM    2  H   UNL     1     -11.699  15.526  71.194  1.00  0.00     0.000 HD 
HETATM    3  C   UNL     1      -9.912  15.106  70.432  1.00  0.00     0.290 C  
ENDROOT
BRANCH   3   4
HETATM    4  C   UNL     1      -8.494  14.760  70.941  1.00  0.00     2.703 C  
BRANCH   4   5
HETATM    5  N   UNL     1      -7.485  14.501  69.893  1.00  0.00     0.080 NA 
BRANCH   5   6
HETATM    6  C   UNL     1      -7.993  14.124  68.663  1.00  0.00    -0.132 A  
HETATM    7  C   UNL     1      -8.410  11.165  66.569  1.00  0.00    -0.166 A  
HETATM    8  N   UNL     1      -8.998  10.821  65.396  1.00  0.00    -0.190 NA 
HETATM    9  N   UNL     1      -7.903  12.854  68.265  1.00  0.00    -0.136 NA 
HETATM   10  C   UNL     1      -8.460  12.475  67.082  1.00  0.00    -0.186 A  
HETATM   11  N   UNL     1      -8.590  15.043  67.916  1.00  0.00    -0.151 NA 
HETATM   12  C   UNL     1      -9.606  11.756  64.678  1.00  0.00    -0.077 A  
HETATM   13  C   UNL     1      -9.108  13.377  66.256  1.00  0.00     0.036 A  
HETATM   14  C   UNL     1      -9.136  14.694  66.734  1.00  0.00    -0.264 A  
HETATM   15  N   UNL     1      -9.631  13.028  65.055  1.00  0.00     0.119 NA 
BRANCH  14  16
HETATM   16  N   UNL     1      -9.669  15.740  65.991  1.00  0.00    -0.318 NA 
HETATM   17  C   UNL     1     -10.351  18.046  66.082  1.00  0.00    -0.368 C  
HETATM   18  C   UNL     1     -11.220  17.816  64.840  1.00  0.00     1.319 C  
HETATM   19  C   UNL     1      -9.150  17.100  66.093  1.00  0.00    -0.179 C  
HETATM   20  C   UNL     1     -10.359  15.438  64.737  1.00  0.00    -0.055 C  
HETATM   21  C   UNL     1     -11.593  16.341  64.666  1.00  0.00    -0.067 C  
ENDBRANCH  14  16
BRANCH  12  22
HETATM   22  N   UNL     1     -10.254  11.419  63.508  1.00  0.00    -0.372 NA 
BRANCH  22  23
HETATM   23  C   UNL     1     -11.580  12.008  63.289  1.00  0.00    -0.319 C  
BRANCH  23  24
HETATM   24  C   UNL     1     -12.480  11.971  64.537  1.00  0.00    -0.172 C  
HETATM   25  O   UNL     1     -13.072  13.243  64.796  1.00  0.00    -0.709 OA 
HETATM   26  H   UNL     1     -13.627  13.220  65.566  1.00  0.00     0.000 HD 
ENDBRANCH  23  24
ENDBRANCH  22  23
BRANCH  22  27
HETATM   27  C   UNL     1      -9.480  10.945  62.359  1.00  0.00    -0.164 C  
BRANCH  27  28
HETATM   28  C   UNL     1      -9.324   9.412  62.372  1.00  0.00     0.097 C  
HETATM   29  O   UNL     1      -8.353   8.994  63.334  1.00  0.00    -0.178 OA 
HETATM   30  H   UNL     1      -8.257   8.049  63.341  1.00  0.00     0.000 HD 
ENDBRANCH  27  28
ENDBRANCH  22  27
ENDBRANCH  12  22
BRANCH   7  31
HETATM   31  N   UNL     1      -7.802  10.098  67.228  1.00  0.00    -0.102 NA 
HETATM   32  C   UNL     1      -8.204   9.646  68.555  1.00  0.00    -0.105 C  
HETATM   33  C   UNL     1      -6.426   9.776  66.844  1.00  0.00    -0.066 C  
HETATM   34  C   UNL     1      -8.063   8.124  68.613  1.00  0.00    -0.124 C  
HETATM   35  C   UNL     1      -6.247   8.259  66.870  1.00  0.00    -0.055 C  
HETATM   36  C   UNL     1      -6.659   7.670  68.220  1.00  0.00    -0.054 C  
ENDBRANCH   7  31
ENDBRANCH   5   6
BRANCH   5  37
HETATM   37  C   UNL     1      -6.216  13.896  70.320  1.00  0.00    -0.110 C  
BRANCH  37  38
HETATM   38  C   UNL     1      -5.675  14.520  71.623  1.00  0.00    -0.045 C  
HETATM   39  O   UNL     1      -5.882  13.673  72.752  1.00  0.00    -0.401 OA 
HETATM   40  H   UNL     1      -5.548  14.057  73.554  1.00  0.00     0.000 HD 
ENDBRANCH  37  38
ENDBRANCH   5  37
ENDBRANCH   4   5
ENDBRANCH   3   4
TORSDOF 12
ENDMDL
MODEL      218
REMARK 921   NORMALIZED FREE ENERGY PREDICTED BY IDOCK:    0.30 KCAL/MOL
REMARK 922        TOTAL FREE ENERGY PREDICTED BY IDOCK:   -0.42 KCAL/MOL
REMARK 923 INTER-LIGAND FREE ENERGY PREDICTED BY IDOCK:   -2.38 KCAL/MOL
REMARK 924 INTRA-LIGAND FREE ENERGY PREDICTED BY IDOCK:    1.96 KCAL/MOL
REMARK 927      BINDING AFFINITY PREDICTED BY RF-SCORE:    0.00 PKD
ROOT
HETATM    1  O   UNL     1     -11.010  15.222  73.604  1.00  0.00     1.025 OA 
HETATM    2  H   UNL     1     -10.613  15.832  74.215  1.00  0.00     0.000 HD 
HETATM    3  C   UNL     1     -12.331  15.618  73.239  1.00  0.00    -0.497 C  
ENDROOT
BRANCH   3   4
HETATM    4  C   UNL     1     -12.976  14.627  72.245  1.00  0.00    -0.355 C  
BRANCH   4   5
HETATM    5  N   UNL     1     -12.288  13.326  72.103  1.00  0.00     0.276 NA 
BRANCH   5   6
HETATM    6  C   UNL     1     -11.690  13.103  70.876  1.00  0.00     0.512 A  
HETATM    7  C   UNL     1     -10.648  10.366  68.699  1.00  0.00    -0.209 A  
HETATM    8  N   UNL     1     -10.141  10.191  67.454  1.00  0.00    -0.194 NA 
HETATM    9  N   UNL     1     -11.464  11.857  70.460  1.00  0.00     0.180 NA 
HETATM   10  C   UNL     1     -10.934  11.640  69.225  1.00  0.00    -0.192 A  
HETATM   11  N   UNL     1     -11.382  14.151  70.122  1.00  0.00    -0.152 NA 
HETATM   12  C   UNL     1      -9.860  11.254  66.714  1.00  0.00    -0.199 A  
HETATM   13  C   UNL     1     -10.598  12.684  68.381  1.00  0.00    -0.243 A  
HETATM   14  C   UNL     1     -10.842  13.961  68.901  1.00  0.00    -0.255 A  
HETATM   15  N   UNL     1     -10.029  12.490  67.165  1.00  0.00    -0.214 NA 
BRANCH  14  16
HETATM   16  N   UNL     1     -10.482  15.120  68.222  1.00  0.00    -0.237 NA 
HETATM   17  C   UNL     1      -9.783  17.405  68.500  1.00  0.00    -0.304 C  
HETATM   18  C   UNL     1     -10.248  17.699  67.070  1.00  0.00    -0.332 C  
HETATM   19  C   UNL     1      -9.357  15.944  68.648  1.00  0.00    -0.212 C  
HETATM   20  C   UNL     1     -10.842  15.252  66.811  1.00  0.00    -0.312 C  
HETATM   21  C   UNL     1     -11.302  16.696  66.591  1.00  0.00     0.610 C  
ENDBRANCH  14  16
BRANCH  12  22
HETATM   22  N   UNL     1      -9.392  11.098  65.427  1.00  0.00    -0.217 NA 
BRANCH  22  23
HETATM   23  C   UNL     1      -8.291  10.148  65.229  1.00  0.00    -0.159 C  
BRANCH  23  24
HETATM   24  C   UNL     1      -7.285  10.126  66.394  1.00  0.00    -0.108 C  
HETATM   25  O   UNL     1      -6.263   9.152  66.187  1.00  0.00    -0.061 OA 
HETATM   26  H   UNL     1      -5.642   9.139  66.906  1.00  0.00     0.000 HD 
ENDBRANCH  23  24
ENDBRANCH  22  23
BRANCH  22  27
HETATM   27  C   UNL     1     -10.251  11.447  64.293  1.00  0.00    -0.315 C  
BRANCH  27  28
HETATM   28  C   UNL     1     -11.067  12.723  64.569  1.00  0.00    -0.330 C  
HETATM   29  O   UNL     1     -10.812  13.729  63.586  1.00  0.00    -0.319 OA 
HETATM   30  H   UNL     1     -11.316  14.516  63.756  1.00  0.00     0.000 HD 
ENDBRANCH  27  28
ENDBRANCH  22  27
ENDBRANCH  12  22
BRANCH   7  31
HETATM   31  N   UNL     1     -10.898   9.175  69.379  1.00  0.00    -0.194 NA 
HETATM   32  C   UNL     1     -11.580   9.118  70.667  1.00  0.00    -0.235 C  
HETATM   33  C   UNL     1     -10.017   8.042  69.084  1.00  0.00    -0.188 C  
HETATM   34  C   UNL     1     -12.440   7.854  70.706  1.00  0.00     0.057 C  
HETATM   35  C   UNL     1     -10.843   6.757  69.094  1.00  0.00    -0.298 C  
HETATM   36  C   UNL     1     -11.620   6.602  70.401  1.00  0.00    -0.457 C  
ENDBRANCH   7  31
ENDBRANCH   5   6
BRANCH   5  37
HETATM   37  C   UNL     1     -12.887  12.173  72.788  1.00  0.00     1.933 C  
BRANCH  37  38
HETATM   38  C   UNL     1     -13.694  11.273  71.830  1.00  0.00     0.286 C  
HETATM   39  O   UNL     1     -13.916   9.972  72.372  1.00  0.00    -0.471 OA 
HETATM   40  H   UNL     1     -14.413   9.418  71.782  1.00  0.00     0.000 HD 
ENDBRANCH  37  38
ENDBRANCH   5  37
ENDBRANCH   4   5
ENDBRANCH   3   4
TORSDOF 12
ENDMDL
MODEL      219
REMARK 921   NORMALIZED FREE ENERGY PREDICTED BY IDOCK:    0.31 KCAL/MOL
REMARK 922        TOTAL FREE ENERGY PREDICTED BY IDOCK:   -0.39 KCAL/MOL
REMARK 923 INTER-LIGAND FREE ENERGY PREDICTED BY IDOCK:   -2.80 KCAL/MOL
REMARK 924 INTRA-LIGAND FREE ENERGY PREDICTED BY IDOCK:    2.41 KCAL/MOL
REMARK 927      BINDING AFFINITY PREDICTED BY RF-SCORE:    0.00 PKD
ROOT
HETATM    1  O   UNL     1     -13.105  12.364  72.832  1.00  0.00    -0.069 OA 
HETATM    2  H   UNL     1     -12.895  11.484  72.540  1.00  0.00     0.000 HD 
HETATM    3  C   UNL     1     -14.064  12.991  71.981  1.00  0.00     0.039 C  
ENDROOT
BRANCH   3   4
HETATM    4  C   UNL     1     -14.406  14.421  72.456  1.00  0.00    -0.097 C  
BRANCH   4   5
HETATM    5  N   UNL     1     -13.403  15.458  72.133  1.00  0.00    -0.406 NA 
BRANCH   5   6
HETATM    6  C   UNL     1     -12.629  15.205  71.015  1.00  0.00    -0.377 A  
HETATM    7  C   UNL     1     -11.300  12.415  69.075  1.00  0.00    -0.283 A  
HETATM    8  N   UNL     1     -10.612  12.210  67.925  1.00  0.00    -0.201 NA 
HETATM    9  N   UNL     1     -12.356  13.949  70.663  1.00  0.00    -0.360 NA 
HETATM   10  C   UNL     1     -11.647  13.702  69.527  1.00  0.00    -0.301 A  
HETATM   11  N   UNL     1     -12.197  16.234  70.298  1.00  0.00     0.049 NA 
HETATM   12  C   UNL     1     -10.209  13.256  67.216  1.00  0.00    -0.240 A  
HETATM   13  C   UNL     1     -11.175  14.726  68.724  1.00  0.00    -0.270 A  
HETATM   14  C   UNL     1     -11.480  16.015  69.177  1.00  0.00    -0.347 A  
HETATM   15  N   UNL     1     -10.431  14.502  67.613  1.00  0.00    -0.245 NA 
BRANCH  14  16
HETATM   16  N   UNL     1     -11.008  17.156  68.539  1.00  0.00    -0.273 NA 
HETATM   17  C   UNL     1     -10.443  18.098  66.398  1.00  0.00    -0.364 C  
HETATM   18  C   UNL     1      -9.577  19.143  67.110  1.00  0.00    -0.378 C  
HETATM   19  C   UNL     1     -11.594  17.638  67.292  1.00  0.00     1.304 C  
HETATM   20  C   UNL     1     -10.319  18.175  69.329  1.00  0.00     0.113 C  
HETATM   21  C   UNL     1      -9.132  18.672  68.498  1.00  0.00    -0.358 C  
ENDBRANCH  14  16
BRANCH  12  22
HETATM   22  N   UNL     1      -9.553  13.070  66.019  1.00  0.00    -0.215 NA 
BRANCH  22  23
HETATM   23  C   UNL     1      -9.806  11.810  65.310  1.00  0.00    -0.239 C  
BRANCH  23  24
HETATM   24  C   UNL     1      -8.752  10.724  65.596  1.00  0.00    -0.190 C  
HETATM   25  O   UNL     1      -7.435  11.271  65.647  1.00  0.00    -0.361 OA 
HETATM   26  H   UNL     1      -6.784  10.601  65.823  1.00  0.00     0.000 HD 
ENDBRANCH  23  24
ENDBRANCH  22  23
BRANCH  22  27
HETATM   27  C   UNL     1      -9.064  14.228  65.269  1.00  0.00     1.305 C  
BRANCH  27  28
HETATM   28  C   UNL     1      -8.800  15.433  66.191  1.00  0.00    -0.187 C  
HETATM   29  O   UNL     1      -7.879  16.352  65.600  1.00  0.00     0.285 OA 
HETATM   30  H   UNL     1      -7.717  17.095  66.169  1.00  0.00     0.000 HD 
ENDBRANCH  27  28
ENDBRANCH  22  27
ENDBRANCH  12  22
BRANCH   7  31
HETATM   31  N   UNL     1     -11.664  11.240  69.731  1.00  0.00    -0.317 NA 
HETATM   32  C   UNL     1     -10.702  10.225  70.143  1.00  0.00    -0.278 C  
HETATM   33  C   UNL     1     -13.034  10.763  69.531  1.00  0.00     0.709 C  
HETATM   34  C   UNL     1     -11.169   9.622  71.469  1.00  0.00    -0.377 C  
HETATM   35  C   UNL     1     -13.548  10.169  70.842  1.00  0.00    -0.012 C  
HETATM   36  C   UNL     1     -12.600   9.097  71.379  1.00  0.00    -0.390 C  
ENDBRANCH   7  31
ENDBRANCH   5   6
BRANCH   5  37
HETATM   37  C   UNL     1     -12.764  16.147  73.263  1.00  0.00    -0.504 C  
BRANCH  37  38
HETATM   38  C   UNL     1     -11.456  15.461  73.707  1.00  0.00     0.498 C  
HETATM   39  O   UNL     1     -10.574  15.223  72.611  1.00  0.00     0.539 OA 
HETATM   40  H   UNL     1      -9.768  14.801  72.885  1.00  0.00     0.000 HD 
ENDBRANCH  37  38
ENDBRANCH   5  37
ENDBRANCH   4   5
ENDBRANCH   3   4
TORSDOF 12
ENDMDL
MODEL      220
REMARK 921   NORMALIZED FREE ENERGY PREDICTED BY IDOCK:    0.49 KCAL/MOL
REMARK 922        TOTAL FREE ENERGY PREDICTED BY IDOCK:   -0.08 KCAL/MOL
REMARK 923 INTER-LIGAND FREE ENERGY PREDICTED BY IDOCK:    0.94 KCAL/MOL
REMARK 924 INTRA-LIGAND FREE ENERGY PREDICTED BY IDOCK:   -1.02 KCAL/MOL
REMARK 927      BINDING AFFINITY PREDICTED BY RF-SCORE:    0.00 PKD
ROOT
HETATM    1  O   UNL     1     -12.752  17.201  63.879  1.00  0.00     3.008 OA 
HETATM    2  H   UNL     1     -12.998  17.695  63.106  1.00  0.00     0.000 HD 
HETATM    3  C   UNL     1     -12.958  15.801  63.704  1.00  0.00     2.158 C  
ENDROOT
BRANCH   3   4
HETATM    4  C   UNL     1     -12.557  14.998  64.962  1.00  0.00     0.142 C  
BRANCH   4   5
HETATM    5  N   UNL     1     -11.104  14.831  65.177  1.00  0.00    -0.362 NA 
BRANCH   5   6
HETATM    6  C   UNL     1     -10.742  13.760  65.974  1.00  0.00    -0.284 A  
HETATM    7  C   UNL     1     -11.100  12.540  69.394  1.00  0.00    -0.079 A  
HETATM    8  N   UNL     1     -10.802  11.432  70.117  1.00  0.00     0.260 NA 
HETATM    9  N   UNL     1     -11.089  13.739  67.261  1.00  0.00    -0.298 NA 
HETATM   10  C   UNL     1     -10.787  12.655  68.026  1.00  0.00    -0.225 A  
HETATM   11  N   UNL     1     -10.077  12.755  65.420  1.00  0.00    -0.281 NA 
HETATM   12  C   UNL     1     -10.152  10.433  69.534  1.00  0.00    -0.219 A  
HETATM   13  C   UNL     1     -10.104  11.565  67.513  1.00  0.00    -0.183 A  
HETATM   14  C   UNL     1      -9.753  11.677  66.162  1.00  0.00    -0.229 A  
HETATM   15  N   UNL     1      -9.756  10.495  68.270  1.00  0.00    -0.150 NA 
BRANCH  14  16
HETATM   16  N   UNL     1      -8.990  10.713  65.513  1.00  0.00    -0.184 NA 
HETATM   17  C   UNL     1      -6.784  10.194  64.705  1.00  0.00    -0.121 C  
HETATM   18  C   UNL     1      -7.398   9.154  63.760  1.00  0.00    -0.100 C  
HETATM   19  C   UNL     1      -7.643  10.371  65.957  1.00  0.00    -0.137 C  
HETATM   20  C   UNL     1      -9.670   9.668  64.750  1.00  0.00    -0.038 C  
HETATM   21  C   UNL     1      -8.871   9.448  63.462  1.00  0.00    -0.198 C  
ENDBRANCH  14  16
BRANCH  12  22
HETATM   22  N   UNL     1      -9.885   9.278  70.236  1.00  0.00    -0.205 NA 
BRANCH  22  23
HETATM   23  C   UNL     1     -10.787   8.142  70.017  1.00  0.00    -0.233 C  
BRANCH  23  24
HETATM   24  C   UNL     1     -10.334   7.212  68.876  1.00  0.00    -0.196 C  
HETATM   25  O   UNL     1      -9.387   6.246  69.329  1.00  0.00    -0.136 OA 
HETATM   26  H   UNL     1      -9.108   5.673  68.625  1.00  0.00     0.000 HD 
ENDBRANCH  23  24
ENDBRANCH  22  23
BRANCH  22  27
HETATM   27  C   UNL     1      -8.534   9.034  70.747  1.00  0.00    -0.200 C  
BRANCH  27  28
HETATM   28  C   UNL     1      -8.379   9.520  72.200  1.00  0.00     1.687 C  
HETATM   29  O   UNL     1      -7.489   8.682  72.940  1.00  0.00    -0.335 OA 
HETATM   30  H   UNL     1      -7.393   8.982  73.836  1.00  0.00     0.000 HD 
ENDBRANCH  27  28
ENDBRANCH  22  27
ENDBRANCH  12  22
BRANCH   7  31
HETATM   31  N   UNL     1     -11.778  13.520  70.118  1.00  0.00    -0.253 NA 
HETATM   32  C   UNL     1     -11.193  14.814  70.451  1.00  0.00    -0.169 C  
HETATM   33  C   UNL     1     -12.853  13.068  71.004  1.00  0.00    -0.198 C  
HETATM   34  C   UNL     1     -12.297  15.872  70.400  1.00  0.00    -0.253 C  
HETATM   35  C   UNL     1     -13.987  14.091  70.967  1.00  0.00     0.138 C  
HETATM   36  C   UNL     1     -13.482  15.498  71.287  1.00  0.00    -0.560 C  
ENDBRANCH   7  31
ENDBRANCH   5   6
BRANCH   5  37
HETATM   37  C   UNL     1     -10.297  16.054  65.273  1.00  0.00    -0.290 C  
BRANCH  37  38
HETATM   38  C   UNL     1     -10.740  16.963  66.437  1.00  0.00    -0.085 C  
HETATM   39  O   UNL     1     -10.133  16.588  67.674  1.00  0.00    -0.253 OA 
HETATM   40  H   UNL     1     -10.406  17.148  68.391  1.00  0.00     0.000 HD 
ENDBRANCH  37  38
ENDBRANCH   5  37
ENDBRANCH   4   5
ENDBRANCH   3   4
TORSDOF 12
ENDMDL
MODEL      221
REMARK 921   NORMALIZED FREE ENERGY PREDICTED BY IDOCK:    1.20 KCAL/MOL
REMARK 922        TOTAL FREE ENERGY PREDICTED BY IDOCK:    1.12 KCAL/MOL
REMARK 923 INTER-LIGAND FREE ENERGY PREDICTED BY IDOCK:   -0.48 KCAL/MOL
REMARK 924 INTRA-LIGAND FREE ENERGY PREDICTED BY IDOCK:    1.60 KCAL/MOL
REMARK 927      BINDING AFFINITY PREDICTED BY RF-SCORE:    0.00 PKD
ROOT
HETATM    1  O   UNL     1     -11.660  16.052  71.432  1.00  0.00    -0.417 OA 
HETATM    2  H   UNL     1     -12.567  16.225  71.206  1.00  0.00     0.000 HD 
HETATM    3  C   UNL     1     -10.932  15.510  70.331  1.00  0.00    -0.339 C  
ENDROOT
BRANCH   3   4
HETATM    4  C   UNL     1      -9.457  15.229  70.698  1.00  0.00     1.190 C  
BRANCH   4   5
HETATM    5  N   UNL     1      -8.484  15.383  69.597  1.00  0.00    -0.207 NA 
BRANCH   5   6
HETATM    6  C   UNL     1      -8.659  14.522  68.528  1.00  0.00    -0.175 A  
HETATM    7  C   UNL     1      -7.773  11.152  67.445  1.00  0.00    -0.120 A  
HETATM    8  N   UNL     1      -8.042  10.309  66.417  1.00  0.00    -0.119 NA 
HETATM    9  N   UNL     1      -8.099  13.312  68.547  1.00  0.00    -0.129 NA 
HETATM   10  C   UNL     1      -8.325  12.445  67.523  1.00  0.00    -0.173 A  
HETATM   11  N   UNL     1      -9.414  14.919  67.512  1.00  0.00    -0.198 NA 
HETATM   12  C   UNL     1      -8.816  10.724  65.424  1.00  0.00    -0.189 A  
HETATM   13  C   UNL     1      -9.111  12.787  66.436  1.00  0.00    -0.089 A  
HETATM   14  C   UNL     1      -9.640  14.083  66.479  1.00  0.00    -0.293 A  
HETATM   15  N   UNL     1      -9.313  11.953  65.386  1.00  0.00    -0.108 NA 
BRANCH  14  16
HETATM   16  N   UNL     1     -10.378  14.617  65.429  1.00  0.00    -0.356 NA 
HETATM   17  C   UNL     1     -11.574  16.567  64.682  1.00  0.00     0.159 C  
HETATM   18  C   UNL     1     -12.331  15.691  63.677  1.00  0.00     0.887 C  
HETATM   19  C   UNL     1     -10.189  15.991  64.976  1.00  0.00     0.022 C  
HETATM   20  C   UNL     1     -10.943  13.712  64.429  1.00  0.00    -0.366 C  
HETATM   21  C   UNL     1     -12.350  14.219  64.098  1.00  0.00    -0.361 C  
ENDBRANCH  14  16
BRANCH  12  22
HETATM   22  N   UNL     1      -9.143   9.866  64.396  1.00  0.00    -0.238 NA 
BRANCH  22  23
HETATM   23  C   UNL     1      -9.608   8.525  64.770  1.00  0.00     1.214 C  
BRANCH  23  24
HETATM   24  C   UNL     1      -8.463   7.547  65.089  1.00  0.00    -0.031 C  
HETATM   25  O   UNL     1      -8.243   7.435  66.495  1.00  0.00    -0.112 OA 
HETATM   26  H   UNL     1      -7.537   6.832  66.692  1.00  0.00     0.000 HD 
ENDBRANCH  23  24
ENDBRANCH  22  23
BRANCH  22  27
HETATM   27  C   UNL     1      -9.495  10.406  63.081  1.00  0.00    -0.327 C  
BRANCH  27  28
HETATM   28  C   UNL     1     -10.756  11.288  63.148  1.00  0.00    -0.095 C  
HETATM   29  O   UNL     1     -11.827  10.620  63.817  1.00  0.00     0.936 OA 
HETATM   30  H   UNL     1     -12.604  11.164  63.858  1.00  0.00     0.000 HD 
ENDBRANCH  27  28
ENDBRANCH  22  27
ENDBRANCH  12  22
BRANCH   7  31
HETATM   31  N   UNL     1      -6.947  10.603  68.423  1.00  0.00    -0.064 NA 
HETATM   32  C   UNL     1      -7.169  10.790  69.853  1.00  0.00    -0.050 C  
HETATM   33  C   UNL     1      -5.567  10.299  68.036  1.00  0.00    -0.037 C  
HETATM   34  C   UNL     1      -6.768   9.505  70.578  1.00  0.00    -0.101 C  
HETATM   35  C   UNL     1      -5.133   9.008  68.727  1.00  0.00    -0.034 C  
HETATM   36  C   UNL     1      -5.340   9.085  70.239  1.00  0.00    -0.027 C  
ENDBRANCH   7  31
ENDBRANCH   5   6
BRANCH   5  37
HETATM   37  C   UNL     1      -7.108  15.742  69.964  1.00  0.00     0.172 C  
BRANCH  37  38
HETATM   38  C   UNL     1      -6.442  16.665  68.923  1.00  0.00    -0.174 C  
HETATM   39  O   UNL     1      -6.248  16.011  67.669  1.00  0.00    -0.134 OA 
HETATM   40  H   UNL     1      -5.838  16.580  67.028  1.00  0.00     0.000 HD 
ENDBRANCH  37  38
ENDBRANCH   5  37
ENDBRANCH   4   5
ENDBRANCH   3   4
TORSDOF 12
ENDMDL
MODEL      222
REMARK 921   NORMALIZED FREE ENERGY PREDICTED BY IDOCK:    1.32 KCAL/MOL
REMARK 922        TOTAL FREE ENERGY PREDICTED BY IDOCK:    1.32 KCAL/MOL
REMARK 923 INTER-LIGAND FREE ENERGY PREDICTED BY IDOCK:    1.19 KCAL/MOL
REMARK 924 INTRA-LIGAND FREE ENERGY PREDICTED BY IDOCK:    0.13 KCAL/MOL
REMARK 927      BINDING AFFINITY PREDICTED BY RF-SCORE:    0.00 PKD
ROOT
HETATM    1  O   UNL     1     -13.018   8.654  69.260  1.00  0.00     3.135 OA 
HETATM    2  H   UNL     1     -13.209   7.767  69.543  1.00  0.00     0.000 HD 
HETATM    3  C   UNL     1     -11.631   8.964  69.382  1.00  0.00     0.600 C  
ENDROOT
BRANCH   3   4
HETATM    4  C   UNL     1     -11.320  10.406  68.921  1.00  0.00    -0.219 C  
BRANCH   4   5
HETATM    5  N   UNL     1      -9.889  10.720  68.725  1.00  0.00    -0.187 NA 
BRANCH   5   6
HETATM    6  C   UNL     1      -9.596  12.060  68.542  1.00  0.00    -0.143 A  
HETATM    7  C   UNL     1      -7.261  14.620  69.684  1.00  0.00    -0.098 A  
HETATM    8  N   UNL     1      -6.951  15.912  69.410  1.00  0.00    -0.203 NA 
HETATM    9  N   UNL     1      -8.607  12.627  69.232  1.00  0.00     0.739 NA 
HETATM   10  C   UNL     1      -8.281  13.928  69.003  1.00  0.00     0.159 A  
HETATM   11  N   UNL     1     -10.299  12.745  67.649  1.00  0.00    -0.218 NA 
HETATM   12  C   UNL     1      -7.657  16.568  68.500  1.00  0.00    -0.200 A  
HETATM   13  C   UNL     1      -8.963  14.701  68.080  1.00  0.00    -0.174 A  
HETATM   14  C   UNL     1     -10.005  14.040  67.416  1.00  0.00    -0.243 A  
HETATM   15  N   UNL     1      -8.682  16.011  67.868  1.00  0.00    -0.165 NA 
BRANCH  14  16
HETATM   16  N   UNL     1     -10.846  14.692  66.523  1.00  0.00    -0.309 NA 
HETATM   17  C   UNL     1     -11.932  14.512  64.383  1.00  0.00    -0.467 C  
HETATM   18  C   UNL     1     -12.082  16.037  64.355  1.00  0.00     0.200 C  
HETATM   19  C   UNL     1     -11.915  13.990  65.820  1.00  0.00    -0.404 C  
HETATM   20  C   UNL     1     -11.046  16.134  66.662  1.00  0.00     0.052 C  
HETATM   21  C   UNL     1     -11.054  16.732  65.253  1.00  0.00     0.005 C  
ENDBRANCH  14  16
BRANCH  12  22
HETATM   22  N   UNL     1      -7.327  17.865  68.170  1.00  0.00    -0.232 NA 
BRANCH  22  23
HETATM   23  C   UNL     1      -5.994  18.334  68.568  1.00  0.00    -0.187 C  
BRANCH  23  24
HETATM   24  C   UNL     1      -6.007  19.723  69.232  1.00  0.00    -0.276 C  
HETATM   25  O   UNL     1      -5.446  19.683  70.544  1.00  0.00    -0.217 OA 
HETATM   26  H   UNL     1      -5.455  20.540  70.954  1.00  0.00     0.000 HD 
ENDBRANCH  23  24
ENDBRANCH  22  23
BRANCH  22  27
HETATM   27  C   UNL     1      -8.026  18.538  67.073  1.00  0.00    -0.236 C  
BRANCH  27  28
HETATM   28  C   UNL     1      -8.730  19.822  67.550  1.00  0.00    -0.330 C  
HETATM   29  O   UNL     1     -10.002  19.984  66.920  1.00  0.00    -0.393 OA 
HETATM   30  H   UNL     1     -10.436  20.777  67.214  1.00  0.00     0.000 HD 
ENDBRANCH  27  28
ENDBRANCH  22  27
ENDBRANCH  12  22
BRANCH   7  31
HETATM   31  N   UNL     1      -6.452  14.041  70.660  1.00  0.00    -0.009 NA 
HETATM   32  C   UNL     1      -5.665  14.820  71.609  1.00  0.00     0.098 C  
HETATM   33  C   UNL     1      -5.962  12.685  70.400  1.00  0.00    -0.103 C  
HETATM   34  C   UNL     1      -5.649  14.080  72.948  1.00  0.00    -0.077 C  
HETATM   35  C   UNL     1      -5.949  11.904  71.713  1.00  0.00     1.506 C  
HETATM   36  C   UNL     1      -5.160  12.642  72.795  1.00  0.00     0.236 C  
ENDBRANCH   7  31
ENDBRANCH   5   6
BRANCH   5  37
HETATM   37  C   UNL     1      -9.084   9.740  67.984  1.00  0.00    -0.125 C  
BRANCH  37  38
HETATM   38  C   UNL     1      -8.645  10.263  66.602  1.00  0.00    -0.127 C  
HETATM   39  O   UNL     1      -9.751  10.713  65.820  1.00  0.00    -0.198 OA 
HETATM   40  H   UNL     1      -9.480  11.035  64.968  1.00  0.00     0.000 HD 
ENDBRANCH  37  38
ENDBRANCH   5  37
ENDBRANCH   4   5
ENDBRANCH   3   4
TORSDOF 12
ENDMDL
MODEL      223
REMARK 921   NORMALIZED FREE ENERGY PREDICTED BY IDOCK:    1.81 KCAL/MOL
REMARK 922        TOTAL FREE ENERGY PREDICTED BY IDOCK:    2.15 KCAL/MOL
REMARK 923 INTER-LIGAND FREE ENERGY PREDICTED BY IDOCK:   -5.98 KCAL/MOL
REMARK 924 INTRA-LIGAND FREE ENERGY PREDICTED BY IDOCK:    8.14 KCAL/MOL
REMARK 927      BINDING AFFINITY PREDICTED BY RF-SCORE:    0.00 PKD
ROOT
HETATM    1  O   UNL     1     -13.017  11.034  72.567  1.00  0.00    -0.271 OA 
HETATM    2  H   UNL     1     -13.526  11.804  72.341  1.00  0.00     0.000 HD 
HETATM    3  C   UNL     1     -12.556  10.342  71.408  1.00  0.00    -0.434 C  
ENDROOT
BRANCH   3   4
HETATM    4  C   UNL     1     -11.728   9.091  71.775  1.00  0.00    -0.369 C  
BRANCH   4   5
HETATM    5  N   UNL     1     -10.598   8.784  70.872  1.00  0.00    -0.207 NA 
BRANCH   5   6
HETATM    6  C   UNL     1     -10.154   9.843  70.100  1.00  0.00    -0.255 A  
HETATM    7  C   UNL     1     -10.962  13.320  69.346  1.00  0.00    -0.012 A  
HETATM    8  N   UNL     1     -10.443  14.358  68.644  1.00  0.00    -0.241 NA 
HETATM    9  N   UNL     1     -10.813  11.002  70.115  1.00  0.00    -0.023 NA 
HETATM   10  C   UNL     1     -10.336  12.060  69.404  1.00  0.00     0.342 A  
HETATM   11  N   UNL     1      -9.052   9.682  69.379  1.00  0.00    -0.175 NA 
HETATM   12  C   UNL     1      -9.330  14.175  67.947  1.00  0.00    -0.204 A  
HETATM   13  C   UNL     1      -9.187  11.969  68.638  1.00  0.00    -0.037 A  
HETATM   14  C   UNL     1      -8.570  10.712  68.655  1.00  0.00    -0.144 A  
HETATM   15  N   UNL     1      -8.721  12.998  67.889  1.00  0.00    -0.179 NA 
BRANCH  14  16
HETATM   16  N   UNL     1      -7.457  10.422  67.873  1.00  0.00    -0.087 NA 
HETATM   17  C   UNL     1      -5.495  11.367  66.851  1.00  0.00    -0.115 C  
HETATM   18  C   UNL     1      -5.454  10.180  65.882  1.00  0.00    -0.058 C  
HETATM   19  C   UNL     1      -6.139  10.969  68.179  1.00  0.00    -0.049 C  
HETATM   20  C   UNL     1      -7.445   9.187  67.090  1.00  0.00    -0.087 C  
HETATM   21  C   UNL     1      -6.826   9.516  65.729  1.00  0.00    -0.087 C  
ENDBRANCH  14  16
BRANCH  12  22
HETATM   22  N   UNL     1      -8.758  15.230  67.267  1.00  0.00    -0.185 NA 
BRANCH  22  23
HETATM   23  C   UNL     1      -9.631  15.994  66.368  1.00  0.00    -0.283 C  
BRANCH  23  24
HETATM   24  C   UNL     1     -10.363  17.154  67.067  1.00  0.00    -0.308 C  
HETATM   25  O   UNL     1     -10.167  18.389  66.378  1.00  0.00    -0.370 OA 
HETATM   26  H   UNL     1     -10.619  19.105  66.809  1.00  0.00     0.000 HD 
ENDBRANCH  23  24
ENDBRANCH  22  23
BRANCH  22  27
HETATM   27  C   UNL     1      -7.539  15.854  67.785  1.00  0.00    -0.140 C  
BRANCH  27  28
HETATM   28  C   UNL     1      -6.303  14.962  67.560  1.00  0.00    -0.043 C  
HETATM   29  O   UNL     1      -6.644  13.575  67.608  1.00  0.00    -0.158 OA 
HETATM   30  H   UNL     1      -5.882  13.026  67.469  1.00  0.00     0.000 HD 
ENDBRANCH  27  28
ENDBRANCH  22  27
ENDBRANCH  12  22
BRANCH   7  31
HETATM   31  N   UNL     1     -12.134  13.635  70.033  1.00  0.00    -0.338 NA 
HETATM   32  C   UNL     1     -13.015  12.626  70.611  1.00  0.00     0.196 C  
HETATM   33  C   UNL     1     -12.768  14.916  69.715  1.00  0.00    -0.027 C  
HETATM   34  C   UNL     1     -13.595  13.179  71.914  1.00  0.00    -0.453 C  
HETATM   35  C   UNL     1     -13.346  15.513  70.997  1.00  0.00    -0.495 C  
HETATM   36  C   UNL     1     -14.278  14.528  71.703  1.00  0.00    -0.554 C  
ENDBRANCH   7  31
ENDBRANCH   5   6
BRANCH   5  37
HETATM   37  C   UNL     1     -10.564   7.444  70.273  1.00  0.00    -0.231 C  
BRANCH  37  38
HETATM   38  C   UNL     1     -11.974   6.859  70.057  1.00  0.00    -0.072 C  
HETATM   39  O   UNL     1     -12.127   6.290  68.756  1.00  0.00     0.173 OA 
HETATM   40  H   UNL     1     -12.996   5.930  68.623  1.00  0.00     0.000 HD 
ENDBRANCH  37  38
ENDBRANCH   5  37
ENDBRANCH   4   5
ENDBRANCH   3   4
TORSDOF 12
ENDMDL
MODEL      224
REMARK 921   NORMALIZED FREE ENERGY PREDICTED BY IDOCK:    2.00 KCAL/MOL
REMARK 922        TOTAL FREE ENERGY PREDICTED BY IDOCK:    2.49 KCAL/MOL
REMARK 923 INTER-LIGAND FREE ENERGY PREDICTED BY IDOCK:    2.56 KCAL/MOL
REMARK 924 INTRA-LIGAND FREE ENERGY PREDICTED BY IDOCK:   -0.08 KCAL/MOL
REMARK 927      BINDING AFFINITY PREDICTED BY RF-SCORE:    0.00 PKD
ROOT
HETATM    1  O   UNL     1     -13.761  14.170  71.547  1.00  0.00    -0.353 OA 
HETATM    2  H   UNL     1     -14.602  14.426  71.186  1.00  0.00     0.000 HD 
HETATM    3  C   UNL     1     -12.739  15.117  71.240  1.00  0.00    -0.369 C  
ENDROOT
BRANCH   3   4
HETATM    4  C   UNL     1     -11.372  14.701  71.828  1.00  0.00     0.295 C  
BRANCH   4   5
HETATM    5  N   UNL     1     -10.187  15.140  71.062  1.00  0.00     0.455 NA 
BRANCH   5   6
HETATM    6  C   UNL     1     -10.176  14.775  69.728  1.00  0.00     0.035 A  
HETATM    7  C   UNL     1     -10.650  11.850  67.598  1.00  0.00    -0.211 A  
HETATM    8  N   UNL     1     -10.718  11.552  66.277  1.00  0.00    -0.264 NA 
HETATM    9  N   UNL     1     -10.389  13.505  69.382  1.00  0.00     0.212 NA 
HETATM   10  C   UNL     1     -10.441  13.162  68.066  1.00  0.00    -0.239 A  
HETATM   11  N   UNL     1      -9.981  15.718  68.815  1.00  0.00    -0.206 NA 
HETATM   12  C   UNL     1     -10.538  12.516  65.385  1.00  0.00    -0.281 A  
HETATM   13  C   UNL     1     -10.257  14.093  67.059  1.00  0.00    -0.260 A  
HETATM   14  C   UNL     1     -10.012  15.398  67.506  1.00  0.00    -0.226 A  
HETATM   15  N   UNL     1     -10.262  13.763  65.744  1.00  0.00    -0.303 NA 
BRANCH  14  16
HETATM   16  N   UNL     1      -9.720  16.438  66.631  1.00  0.00    -0.244 NA 
HETATM   17  C   UNL     1      -8.006  17.979  65.939  1.00  0.00    -0.056 C  
HETATM   18  C   UNL     1      -9.090  18.883  65.341  1.00  0.00     1.371 C  
HETATM   19  C   UNL     1      -8.444  16.515  65.925  1.00  0.00     0.019 C  
HETATM   20  C   UNL     1     -10.822  17.154  65.989  1.00  0.00     0.014 C  
HETATM   21  C   UNL     1     -10.459  18.641  65.984  1.00  0.00    -0.456 C  
ENDBRANCH  14  16
BRANCH  12  22
HETATM   22  N   UNL     1     -10.653  12.245  64.039  1.00  0.00    -0.365 NA 
BRANCH  22  23
HETATM   23  C   UNL     1     -11.275  13.278  63.203  1.00  0.00     0.727 C  
BRANCH  23  24
HETATM   24  C   UNL     1     -12.763  13.511  63.523  1.00  0.00     0.248 C  
HETATM   25  O   UNL     1     -13.236  12.600  64.514  1.00  0.00    -0.783 OA 
HETATM   26  H   UNL     1     -14.154  12.744  64.712  1.00  0.00     0.000 HD 
ENDBRANCH  23  24
ENDBRANCH  22  23
BRANCH  22  27
HETATM   27  C   UNL     1      -9.771  11.254  63.418  1.00  0.00    -0.360 C  
BRANCH  27  28
HETATM   28  C   UNL     1      -8.945  10.490  64.469  1.00  0.00    -0.209 C  
HETATM   29  O   UNL     1      -9.568   9.254  64.827  1.00  0.00    -0.432 OA 
HETATM   30  H   UNL     1      -9.058   8.784  65.475  1.00  0.00     0.000 HD 
ENDBRANCH  27  28
ENDBRANCH  22  27
ENDBRANCH  12  22
BRANCH   7  31
HETATM   31  N   UNL     1     -10.851  10.753  68.435  1.00  0.00    -0.213 NA 
HETATM   32  C   UNL     1     -10.719   9.372  67.986  1.00  0.00    -0.190 C  
HETATM   33  C   UNL     1     -11.712  10.955  69.602  1.00  0.00    -0.331 C  
HETATM   34  C   UNL     1     -10.133   8.543  69.130  1.00  0.00    -0.207 C  
HETATM   35  C   UNL     1     -11.149  10.157  70.777  1.00  0.00    -0.372 C  
HETATM   36  C   UNL     1     -10.952   8.686  70.410  1.00  0.00    -0.256 C  
ENDBRANCH   7  31
ENDBRANCH   5   6
BRANCH   5  37
HETATM   37  C   UNL     1      -8.901  15.163  71.772  1.00  0.00     5.082 C  
BRANCH  37  38
HETATM   38  C   UNL     1      -7.703  15.334  70.816  1.00  0.00     1.656 C  
HETATM   39  O   UNL     1      -6.895  14.159  70.751  1.00  0.00    -0.364 OA 
HETATM   40  H   UNL     1      -6.158  14.264  70.161  1.00  0.00     0.000 HD 
ENDBRANCH  37  38
ENDBRANCH   5  37
ENDBRANCH   4   5
ENDBRANCH   3   4
TORSDOF 12
ENDMDL
MODEL      225
REMARK 921   NORMALIZED FREE ENERGY PREDICTED BY IDOCK:    2.95 KCAL/MOL
REMARK 922        TOTAL FREE ENERGY PREDICTED BY IDOCK:    4.09 KCAL/MOL
REMARK 923 INTER-LIGAND FREE ENERGY PREDICTED BY IDOCK:    4.15 KCAL/MOL
REMARK 924 INTRA-LIGAND FREE ENERGY PREDICTED BY IDOCK:   -0.06 KCAL/MOL
REMARK 927      BINDING AFFINITY PREDICTED BY RF-SCORE:    0.00 PKD
ROOT
HETATM    1  O   UNL     1      -5.927  15.829  73.416  1.00  0.00     1.471 OA 
HETATM    2  H   UNL     1      -6.177  16.712  73.664  1.00  0.00     0.000 HD 
HETATM    3  C   UNL     1      -6.834  15.267  72.468  1.00  0.00     3.453 C  
ENDROOT
BRANCH   3   4
HETATM    4  C   UNL     1      -6.427  13.832  72.065  1.00  0.00     1.806 C  
BRANCH   4   5
HETATM    5  N   UNL     1      -6.223  13.609  70.618  1.00  0.00    -0.068 NA 
BRANCH   5   6
HETATM    6  C   UNL     1      -7.376  13.586  69.854  1.00  0.00     0.796 A  
HETATM    7  C   UNL     1      -9.695  15.849  68.176  1.00  0.00    -0.212 A  
HETATM    8  N   UNL     1     -10.773  15.779  67.357  1.00  0.00    -0.314 NA 
HETATM    9  N   UNL     1      -7.932  14.729  69.450  1.00  0.00    -0.114 NA 
HETATM   10  C   UNL     1      -9.030  14.700  68.646  1.00  0.00    -0.184 A  
HETATM   11  N   UNL     1      -7.886  12.410  69.513  1.00  0.00     0.722 NA 
HETATM   12  C   UNL     1     -11.252  14.590  67.016  1.00  0.00    -0.337 A  
HETATM   13  C   UNL     1      -9.610  13.511  68.242  1.00  0.00    -0.218 A  
HETATM   14  C   UNL     1      -8.982  12.357  68.730  1.00  0.00     0.158 A  
HETATM   15  N   UNL     1     -10.728  13.462  67.477  1.00  0.00    -0.253 NA 
BRANCH  14  16
HETATM   16  N   UNL     1      -9.486  11.083  68.493  1.00  0.00    -0.182 NA 
HETATM   17  C   UNL     1      -9.737   9.366  66.827  1.00  0.00    -0.257 C  
HETATM   18  C   UNL     1     -10.886   8.768  67.647  1.00  0.00    -0.092 C  
HETATM   19  C   UNL     1      -8.738  10.089  67.730  1.00  0.00    -0.125 C  
HETATM   20  C   UNL     1     -10.477  10.532  69.417  1.00  0.00    -0.240 C  
HETATM   21  C   UNL     1     -11.529   9.803  68.575  1.00  0.00     0.146 C  
ENDBRANCH  14  16
BRANCH  12  22
HETATM   22  N   UNL     1     -12.316  14.496  66.144  1.00  0.00    -0.285 NA 
BRANCH  22  23
HETATM   23  C   UNL     1     -12.625  15.684  65.341  1.00  0.00     1.267 C  
BRANCH  23  24
HETATM   24  C   UNL     1     -11.377  16.483  64.924  1.00  0.00    -0.031 C  
HETATM   25  O   UNL     1     -11.263  16.578  63.505  1.00  0.00    -0.812 OA 
HETATM   26  H   UNL     1     -10.493  17.071  63.248  1.00  0.00     0.000 HD 
ENDBRANCH  23  24
ENDBRANCH  22  23
BRANCH  22  27
HETATM   27  C   UNL     1     -12.762  13.180  65.680  1.00  0.00    -0.233 C  
BRANCH  27  28
HETATM   28  C   UNL     1     -13.307  13.239  64.241  1.00  0.00     1.204 C  
HETATM   29  O   UNL     1     -12.289  13.615  63.311  1.00  0.00    -1.001 OA 
HETATM   30  H   UNL     1     -12.627  13.651  62.423  1.00  0.00     0.000 HD 
ENDBRANCH  27  28
ENDBRANCH  22  27
ENDBRANCH  12  22
BRANCH   7  31
HETATM   31  N   UNL     1      -9.290  17.151  68.464  1.00  0.00    -0.267 NA 
HETATM   32  C   UNL     1      -7.893  17.530  68.647  1.00  0.00    -0.272 C  
HETATM   33  C   UNL     1     -10.269  18.024  69.115  1.00  0.00    -0.148 C  
HETATM   34  C   UNL     1      -7.693  18.935  68.078  1.00  0.00    -0.298 C  
HETATM   35  C   UNL     1     -10.115  19.439  68.559  1.00  0.00    -0.527 C  
HETATM   36  C   UNL     1      -8.675  19.936  68.684  1.00  0.00    -0.137 C  
ENDBRANCH   7  31
ENDBRANCH   5   6
BRANCH   5  37
HETATM   37  C   UNL     1      -5.129  12.711  70.226  1.00  0.00    -0.101 C  
BRANCH  37  38
HETATM   38  C   UNL     1      -5.162  11.373  70.991  1.00  0.00    -0.116 C  
HETATM   39  O   UNL     1      -5.673  10.307  70.191  1.00  0.00    -0.045 OA 
HETATM   40  H   UNL     1      -5.693   9.483  70.662  1.00  0.00     0.000 HD 
ENDBRANCH  37  38
ENDBRANCH   5  37
ENDBRANCH   4   5
ENDBRANCH   3   4
TORSDOF 12
ENDMDL
MODEL      226
REMARK 921   NORMALIZED FREE ENERGY PREDICTED BY IDOCK:    4.93 KCAL/MOL
REMARK 922        TOTAL FREE ENERGY PREDICTED BY IDOCK:    7.47 KCAL/MOL
REMARK 923 INTER-LIGAND FREE ENERGY PREDICTED BY IDOCK:    7.22 KCAL/MOL
REMARK 924 INTRA-LIGAND FREE ENERGY PREDICTED BY IDOCK:    0.26 KCAL/MOL
REMARK 927      BINDING AFFINITY PREDICTED BY RF-SCORE:    0.00 PKD
ROOT
HETATM    1  O   UNL     1      -7.515  13.323  71.122  1.00  0.00     2.651 OA 
HETATM    2  H   UNL     1      -7.561  13.677  72.003  1.00  0.00     0.000 HD 
HETATM    3  C   UNL     1      -8.774  12.811  70.687  1.00  0.00     7.616 C  
ENDROOT
BRANCH   3   4
HETATM    4  C   UNL     1      -8.698  12.236  69.255  1.00  0.00     0.893 C  
BRANCH   4   5
HETATM    5  N   UNL     1      -7.434  11.552  68.908  1.00  0.00    -0.118 NA 
BRANCH   5   6
HETATM    6  C   UNL     1      -7.573  10.263  68.423  1.00  0.00    -0.092 A  
HETATM    7  C   UNL     1      -9.404   7.179  69.090  1.00  0.00    -0.141 A  
HETATM    8  N   UNL     1      -9.577   5.955  68.531  1.00  0.00    -0.120 NA 
HETATM    9  N   UNL     1      -8.391   9.405  69.033  1.00  0.00    -0.120 NA 
HETATM   10  C   UNL     1      -8.573   8.159  68.516  1.00  0.00    -0.130 A  
HETATM   11  N   UNL     1      -6.902   9.923  67.330  1.00  0.00    -0.082 NA 
HETATM   12  C   UNL     1      -8.909   5.647  67.427  1.00  0.00    -0.105 A  
HETATM   13  C   UNL     1      -7.915   7.739  67.373  1.00  0.00    -0.119 A  
HETATM   14  C   UNL     1      -7.055   8.689  66.808  1.00  0.00    -0.078 A  
HETATM   15  N   UNL     1      -8.050   6.488  66.867  1.00  0.00    -0.111 NA 
BRANCH  14  16
HETATM   16  N   UNL     1      -6.252   8.402  65.710  1.00  0.00    -0.051 NA 
HETATM   17  C   UNL     1      -5.501   9.225  63.578  1.00  0.00    -0.067 C  
HETATM   18  C   UNL     1      -5.130   7.792  63.179  1.00  0.00    -0.038 C  
HETATM   19  C   UNL     1      -5.404   9.415  65.091  1.00  0.00    -0.045 C  
HETATM   20  C   UNL     1      -5.823   7.022  65.489  1.00  0.00    -0.036 C  
HETATM   21  C   UNL     1      -5.914   6.751  63.985  1.00  0.00    -0.035 C  
ENDBRANCH  14  16
BRANCH  12  22
HETATM   22  N   UNL     1      -9.109   4.429  66.815  1.00  0.00    -0.122 NA 
BRANCH  22  23
HETATM   23  C   UNL     1      -8.537   3.250  67.475  1.00  0.00    -0.104 C  
BRANCH  23  24
HETATM   24  C   UNL     1      -7.711   2.359  66.528  1.00  0.00    -0.072 C  
HETATM   25  O   UNL     1      -6.558   3.041  66.037  1.00  0.00    -0.037 OA 
HETATM   26  H   UNL     1      -6.049   2.492  65.453  1.00  0.00     0.000 HD 
ENDBRANCH  23  24
ENDBRANCH  22  23
BRANCH  22  27
HETATM   27  C   UNL     1     -10.226   4.257  65.882  1.00  0.00    -0.173 C  
BRANCH  27  28
HETATM   28  C   UNL     1      -9.847   4.694  64.455  1.00  0.00     0.161 C  
HETATM   29  O   UNL     1     -10.347   3.779  63.478  1.00  0.00    -0.196 OA 
HETATM   30  H   UNL     1     -10.113   4.049  62.598  1.00  0.00     0.000 HD 
ENDBRANCH  27  28
ENDBRANCH  22  27
ENDBRANCH  12  22
BRANCH   7  31
HETATM   31  N   UNL     1     -10.156   7.381  70.246  1.00  0.00    -0.195 NA 
HETATM   32  C   UNL     1      -9.576   7.391  71.584  1.00  0.00    -0.150 C  
HETATM   33  C   UNL     1     -11.581   7.048  70.181  1.00  0.00    -0.225 C  
HETATM   34  C   UNL     1     -10.322   8.425  72.429  1.00  0.00    -0.399 C  
HETATM   35  C   UNL     1     -12.366   8.071  70.999  1.00  0.00    -0.164 C  
HETATM   36  C   UNL     1     -11.828   8.178  72.426  1.00  0.00    -0.448 C  
ENDBRANCH   7  31
ENDBRANCH   5   6
BRANCH   5  37
HETATM   37  C   UNL     1      -6.263  11.841  69.746  1.00  0.00    -0.138 C  
BRANCH  37  38
HETATM   38  C   UNL     1      -5.711  10.580  70.442  1.00  0.00    -0.087 C  
HETATM   39  O   UNL     1      -6.275  10.391  71.740  1.00  0.00    -0.107 OA 
HETATM   40  H   UNL     1      -5.935   9.614  72.168  1.00  0.00     0.000 HD 
ENDBRANCH  37  38
ENDBRANCH   5  37
ENDBRANCH   4   5
ENDBRANCH   3   4
TORSDOF 12
ENDMDL
MODEL      227
REMARK 921   NORMALIZED FREE ENERGY PREDICTED BY IDOCK:    6.42 KCAL/MOL
REMARK 922        TOTAL FREE ENERGY PREDICTED BY IDOCK:   10.00 KCAL/MOL
REMARK 923 INTER-LIGAND FREE ENERGY PREDICTED BY IDOCK:    6.23 KCAL/MOL
REMARK 924 INTRA-LIGAND FREE ENERGY PREDICTED BY IDOCK:    3.78 KCAL/MOL
REMARK 927      BINDING AFFINITY PREDICTED BY RF-SCORE:    0.00 PKD
ROOT
HETATM    1  O   UNL     1      -7.827  12.639  64.811  1.00  0.00     3.314 OA 
HETATM    2  H   UNL     1      -8.013  13.571  64.777  1.00  0.00     0.000 HD 
HETATM    3  C   UNL     1      -8.470  11.929  63.754  1.00  0.00     1.457 C  
ENDROOT
BRANCH   3   4
HETATM    4  C   UNL     1      -8.168  10.415  63.810  1.00  0.00    -0.122 C  
BRANCH   4   5
HETATM    5  N   UNL     1      -8.756   9.688  64.954  1.00  0.00    -0.167 NA 
BRANCH   5   6
HETATM    6  C   UNL     1      -9.502  10.461  65.827  1.00  0.00    -0.198 A  
HETATM    7  C   UNL     1     -10.062  10.937  69.401  1.00  0.00    -0.088 A  
HETATM    8  N   UNL     1     -10.742  11.774  70.223  1.00  0.00     0.992 NA 
HETATM    9  N   UNL     1      -9.404  10.264  67.142  1.00  0.00    -0.152 NA 
HETATM   10  C   UNL     1     -10.090  11.069  67.999  1.00  0.00    -0.179 A  
HETATM   11  N   UNL     1     -10.281  11.410  65.325  1.00  0.00    -0.257 NA 
HETATM   12  C   UNL     1     -11.499  12.727  69.695  1.00  0.00    -0.185 A  
HETATM   13  C   UNL     1     -10.913  12.085  67.548  1.00  0.00    -0.253 A  
HETATM   14  C   UNL     1     -10.981  12.209  66.154  1.00  0.00    -0.298 A  
HETATM   15  N   UNL     1     -11.638  12.869  68.384  1.00  0.00    -0.311 NA 
BRANCH  14  16
HETATM   16  N   UNL     1     -11.827  13.120  65.531  1.00  0.00    -0.358 NA 
HETATM   17  C   UNL     1     -13.091  13.552  63.530  1.00  0.00     1.211 C  
HETATM   18  C   UNL     1     -13.100  15.044  63.884  1.00  0.00     1.561 C  
HETATM   19  C   UNL     1     -13.009  12.691  64.790  1.00  0.00    -0.102 C  
HETATM   20  C   UNL     1     -11.880  14.493  66.032  1.00  0.00    -0.334 C  
HETATM   21  C   UNL     1     -11.944  15.420  64.816  1.00  0.00    -0.106 C  
ENDBRANCH  14  16
BRANCH  12  22
HETATM   22  N   UNL     1     -12.158  13.620  70.513  1.00  0.00    -0.349 NA 
BRANCH  22  23
HETATM   23  C   UNL     1     -13.623  13.542  70.538  1.00  0.00     0.844 C  
BRANCH  23  24
HETATM   24  C   UNL     1     -14.308  14.920  70.577  1.00  0.00     0.942 C  
HETATM   25  O   UNL     1     -13.608  15.878  69.783  1.00  0.00     0.092 OA 
HETATM   26  H   UNL     1     -14.031  16.728  69.807  1.00  0.00     0.000 HD 
ENDBRANCH  23  24
ENDBRANCH  22  23
BRANCH  22  27
HETATM   27  C   UNL     1     -11.452  14.231  71.640  1.00  0.00     0.674 C  
BRANCH  27  28
HETATM   28  C   UNL     1     -11.425  15.767  71.529  1.00  0.00    -0.429 C  
HETATM   29  O   UNL     1     -10.677  16.196  70.389  1.00  0.00    -0.280 OA 
HETATM   30  H   UNL     1     -10.660  17.143  70.321  1.00  0.00     0.000 HD 
ENDBRANCH  27  28
ENDBRANCH  22  27
ENDBRANCH  12  22
BRANCH   7  31
HETATM   31  N   UNL     1      -9.307   9.977  70.073  1.00  0.00    -0.186 NA 
HETATM   32  C   UNL     1      -7.853  10.033  70.175  1.00  0.00    -0.123 C  
HETATM   33  C   UNL     1      -9.896   8.643  70.211  1.00  0.00    -0.178 C  
HETATM   34  C   UNL     1      -7.442   9.496  71.547  1.00  0.00     0.479 C  
HETATM   35  C   UNL     1      -9.524   8.077  71.580  1.00  0.00    -0.213 C  
HETATM   36  C   UNL     1      -8.012   8.104  71.804  1.00  0.00    -0.149 C  
ENDBRANCH   7  31
ENDBRANCH   5   6
BRANCH   5  37
HETATM   37  C   UNL     1      -7.971   8.585  65.523  1.00  0.00    -0.110 C  
BRANCH  37  38
HETATM   38  C   UNL     1      -8.390   8.247  66.968  1.00  0.00    -0.122 C  
HETATM   39  O   UNL     1      -7.525   8.844  67.933  1.00  0.00    -0.090 OA 
HETATM   40  H   UNL     1      -7.783   8.636  68.823  1.00  0.00     0.000 HD 
ENDBRANCH  37  38
ENDBRANCH   5  37
ENDBRANCH   4   5
ENDBRANCH   3   4
TORSDOF 12
ENDMDL
MODEL      228
REMARK 921   NORMALIZED FREE ENERGY PREDICTED BY IDOCK:    7.60 KCAL/MOL
REMARK 922        TOTAL FREE ENERGY PREDICTED BY IDOCK:   12.02 KCAL/MOL
REMARK 923 INTER-LIGAND FREE ENERGY PREDICTED BY IDOCK:   10.08 KCAL/MOL
REMARK 924 INTRA-LIGAND FREE ENERGY PREDICTED BY IDOCK:    1.94 KCAL/MOL
REMARK 927      BINDING AFFINITY PREDICTED BY RF-SCORE:    0.00 PKD
ROOT
HETATM    1  O   UNL     1      -7.580  13.649  71.137  1.00  0.00     2.245 OA 
HETATM    2  H   UNL     1      -7.556  13.987  72.025  1.00  0.00     0.000 HD 
HETATM    3  C   UNL     1      -8.771  12.906  70.883  1.00  0.00     9.594 C  
ENDROOT
BRANCH   3   4
HETATM    4  C   UNL     1      -8.809  12.356  69.439  1.00  0.00     1.247 C  
BRANCH   4   5
HETATM    5  N   UNL     1      -7.493  12.147  68.800  1.00  0.00    -0.103 NA 
BRANCH   5   6
HETATM    6  C   UNL     1      -7.285  10.887  68.270  1.00  0.00    -0.084 A  
HETATM    7  C   UNL     1      -7.699   7.363  69.122  1.00  0.00    -0.111 A  
HETATM    8  N   UNL     1      -7.564   6.149  68.533  1.00  0.00    -0.090 NA 
HETATM    9  N   UNL     1      -7.576   9.803  68.991  1.00  0.00    -0.079 NA 
HETATM   10  C   UNL     1      -7.430   8.566  68.442  1.00  0.00    -0.095 A  
HETATM   11  N   UNL     1      -6.825  10.789  67.029  1.00  0.00    -0.088 NA 
HETATM   12  C   UNL     1      -7.120   6.081  67.285  1.00  0.00    -0.070 A  
HETATM   13  C   UNL     1      -6.965   8.389  67.151  1.00  0.00    -0.075 A  
HETATM   14  C   UNL     1      -6.658   9.574  66.470  1.00  0.00    -0.071 A  
HETATM   15  N   UNL     1      -6.773   7.164  66.602  1.00  0.00    -0.058 NA 
BRANCH  14  16
HETATM   16  N   UNL     1      -6.098   9.574  65.198  1.00  0.00    -0.068 NA 
HETATM   17  C   UNL     1      -6.216  10.584  63.017  1.00  0.00    -0.097 C  
HETATM   18  C   UNL     1      -5.486   9.367  62.438  1.00  0.00    -0.085 C  
HETATM   19  C   UNL     1      -5.825  10.813  64.477  1.00  0.00     0.082 C  
HETATM   20  C   UNL     1      -5.290   8.429  64.781  1.00  0.00    -0.036 C  
HETATM   21  C   UNL     1      -5.645   8.127  63.322  1.00  0.00    -0.066 C  
ENDBRANCH  14  16
BRANCH  12  22
HETATM   22  N   UNL     1      -7.023   4.862  66.650  1.00  0.00    -0.066 NA 
BRANCH  22  23
HETATM   23  C   UNL     1      -7.910   4.636  65.503  1.00  0.00    -0.094 C  
BRANCH  23  24
HETATM   24  C   UNL     1      -8.224   5.918  64.711  1.00  0.00    -0.129 C  
HETATM   25  O   UNL     1      -8.245   5.675  63.304  1.00  0.00    -0.114 OA 
HETATM   26  H   UNL     1      -8.438   6.466  62.815  1.00  0.00     0.000 HD 
ENDBRANCH  23  24
ENDBRANCH  22  23
BRANCH  22  27
HETATM   27  C   UNL     1      -5.796   4.072  66.773  1.00  0.00    -0.023 C  
BRANCH  27  28
HETATM   28  C   UNL     1      -6.034   2.769  67.559  1.00  0.00    -0.023 C  
HETATM   29  O   UNL     1      -6.553   3.033  68.864  1.00  0.00    -0.033 OA 
HETATM   30  H   UNL     1      -6.699   2.229  69.348  1.00  0.00     0.000 HD 
ENDBRANCH  27  28
ENDBRANCH  22  27
ENDBRANCH  12  22
BRANCH   7  31
HETATM   31  N   UNL     1      -8.170   7.303  70.433  1.00  0.00    -0.123 NA 
HETATM   32  C   UNL     1      -9.015   6.223  70.930  1.00  0.00    -0.147 C  
HETATM   33  C   UNL     1      -8.276   8.570  71.160  1.00  0.00    -0.144 C  
HETATM   34  C   UNL     1      -8.638   5.943  72.385  1.00  0.00    -0.120 C  
HETATM   35  C   UNL     1      -7.888   8.337  72.619  1.00  0.00    -0.184 C  
HETATM   36  C   UNL     1      -8.706   7.205  73.241  1.00  0.00    -0.162 C  
ENDBRANCH   7  31
ENDBRANCH   5   6
BRANCH   5  37
HETATM   37  C   UNL     1      -6.340  12.831  69.402  1.00  0.00    -0.110 C  
BRANCH  37  38
HETATM   38  C   UNL     1      -5.250  11.846  69.871  1.00  0.00    -0.080 C  
HETATM   39  O   UNL     1      -5.521  11.323  71.172  1.00  0.00    -0.260 OA 
HETATM   40  H   UNL     1      -4.849  10.717  71.461  1.00  0.00     0.000 HD 
ENDBRANCH  37  38
ENDBRANCH   5  37
ENDBRANCH   4   5
ENDBRANCH   3   4
TORSDOF 12
ENDMDL
MODEL      229
REMARK 921   NORMALIZED FREE ENERGY PREDICTED BY IDOCK:    7.80 KCAL/MOL
REMARK 922        TOTAL FREE ENERGY PREDICTED BY IDOCK:   12.36 KCAL/MOL
REMARK 923 INTER-LIGAND FREE ENERGY PREDICTED BY IDOCK:    9.88 KCAL/MOL
REMARK 924 INTRA-LIGAND FREE ENERGY PREDICTED BY IDOCK:    2.48 KCAL/MOL
REMARK 927      BINDING AFFINITY PREDICTED BY RF-SCORE:    0.00 PKD
ROOT
HETATM    1  O   UNL     1     -11.586   2.265  63.515  1.00  0.00    -0.509 OA 
HETATM    2  H   UNL     1     -12.062   1.573  63.070  1.00  0.00     0.000 HD 
HETATM    3  C   UNL     1     -12.383   2.904  64.511  1.00  0.00     7.387 C  
ENDROOT
BRANCH   3   4
HETATM    4  C   UNL     1     -11.608   4.028  65.235  1.00  0.00     2.113 C  
BRANCH   4   5
HETATM    5  N   UNL     1     -10.499   4.635  64.468  1.00  0.00     0.197 NA 
BRANCH   5   6
HETATM    6  C   UNL     1      -9.633   5.423  65.204  1.00  0.00     0.284 A  
HETATM    7  C   UNL     1      -8.459   5.889  68.628  1.00  0.00    -0.111 A  
HETATM    8  N   UNL     1      -7.535   6.621  69.297  1.00  0.00    -0.092 NA 
HETATM    9  N   UNL     1      -9.533   5.253  66.523  1.00  0.00    -0.141 NA 
HETATM   10  C   UNL     1      -8.634   5.987  67.234  1.00  0.00    -0.106 A  
HETATM   11  N   UNL     1      -8.892   6.319  64.564  1.00  0.00     0.322 NA 
HETATM   12  C   UNL     1      -6.794   7.496  68.630  1.00  0.00    -0.066 A  
HETATM   13  C   UNL     1      -7.821   6.931  66.632  1.00  0.00    -0.107 A  
HETATM   14  C   UNL     1      -8.006   7.067  65.250  1.00  0.00    -0.127 A  
HETATM   15  N   UNL     1      -6.950   7.701  67.329  1.00  0.00    -0.081 NA 
BRANCH  14  16
HETATM   16  N   UNL     1      -7.334   8.030  64.504  1.00  0.00    -0.084 NA 
HETATM   17  C   UNL     1      -5.157   8.839  63.875  1.00  0.00    -0.055 C  
HETATM   18  C   UNL     1      -5.787  10.189  63.513  1.00  0.00    -0.137 C  
HETATM   19  C   UNL     1      -6.162   7.700  63.699  1.00  0.00    -0.054 C  
HETATM   20  C   UNL     1      -8.060   9.225  64.075  1.00  0.00    -0.150 C  
HETATM   21  C   UNL     1      -7.114  10.417  64.243  1.00  0.00     0.017 C  
ENDBRANCH  14  16
BRANCH  12  22
HETATM   22  N   UNL     1      -5.815   8.214  69.282  1.00  0.00    -0.033 NA 
BRANCH  22  23
HETATM   23  C   UNL     1      -5.495   9.542  68.747  1.00  0.00    -0.037 C  
BRANCH  23  24
HETATM   24  C   UNL     1      -6.587  10.592  69.022  1.00  0.00    -0.060 C  
HETATM   25  O   UNL     1      -6.029  11.890  69.222  1.00  0.00    -0.066 OA 
HETATM   26  H   UNL     1      -6.703  12.538  69.392  1.00  0.00     0.000 HD 
ENDBRANCH  23  24
ENDBRANCH  22  23
BRANCH  22  27
HETATM   27  C   UNL     1      -5.495   7.907  70.678  1.00  0.00    -0.026 C  
BRANCH  27  28
HETATM   28  C   UNL     1      -6.576   8.435  71.639  1.00  0.00    -0.067 C  
HETATM   29  O   UNL     1      -7.889   8.212  71.121  1.00  0.00    -0.082 OA 
HETATM   30  H   UNL     1      -8.556   8.539  71.714  1.00  0.00     0.000 HD 
ENDBRANCH  27  28
ENDBRANCH  22  27
ENDBRANCH  12  22
BRANCH   7  31
HETATM   31  N   UNL     1      -9.176   5.010  69.438  1.00  0.00    -0.102 NA 
HETATM   32  C   UNL     1      -9.582   3.677  69.005  1.00  0.00    -0.095 C  
HETATM   33  C   UNL     1      -9.987   5.599  70.505  1.00  0.00    -0.205 C  
HETATM   34  C   UNL     1      -9.505   2.733  70.206  1.00  0.00    -0.183 C  
HETATM   35  C   UNL     1      -9.922   4.693  71.734  1.00  0.00    -0.260 C  
HETATM   36  C   UNL     1     -10.314   3.256  71.391  1.00  0.00     0.378 C  
ENDBRANCH   7  31
ENDBRANCH   5   6
BRANCH   5  37
HETATM   37  C   UNL     1     -10.786   5.045  63.087  1.00  0.00     1.560 C  
BRANCH  37  38
HETATM   38  C   UNL     1      -9.539   5.595  62.365  1.00  0.00     0.746 C  
HETATM   39  O   UNL     1      -8.360   4.858  62.690  1.00  0.00    -0.091 OA 
HETATM   40  H   UNL     1      -7.592   5.197  62.245  1.00  0.00     0.000 HD 
ENDBRANCH  37  38
ENDBRANCH   5  37
ENDBRANCH   4   5
ENDBRANCH   3   4
TORSDOF 12
ENDMDL
MODEL      230
REMARK 921   NORMALIZED FREE ENERGY PREDICTED BY IDOCK:    8.84 KCAL/MOL
REMARK 922        TOTAL FREE ENERGY PREDICTED BY IDOCK:   14.13 KCAL/MOL
REMARK 923 INTER-LIGAND FREE ENERGY PREDICTED BY IDOCK:   12.32 KCAL/MOL
REMARK 924 INTRA-LIGAND FREE ENERGY PREDICTED BY IDOCK:    1.81 KCAL/MOL
REMARK 927      BINDING AFFINITY PREDICTED BY RF-SCORE:    0.00 PKD
ROOT
HETATM    1  O   UNL     1      -7.425  12.845  71.267  1.00  0.00     3.878 OA 
HETATM    2  H   UNL     1      -7.376  13.144  72.168  1.00  0.00     0.000 HD 
HETATM    3  C   UNL     1      -8.644  12.151  71.003  1.00  0.00    10.255 C  
ENDROOT
BRANCH   3   4
HETATM    4  C   UNL     1      -8.724  11.665  69.539  1.00  0.00     1.017 C  
BRANCH   4   5
HETATM    5  N   UNL     1      -7.426  11.442  68.868  1.00  0.00    -0.117 NA 
BRANCH   5   6
HETATM    6  C   UNL     1      -7.275  10.204  68.268  1.00  0.00    -0.080 A  
HETATM    7  C   UNL     1      -7.814   6.658  68.940  1.00  0.00    -0.111 A  
HETATM    8  N   UNL     1      -7.734   5.474  68.285  1.00  0.00    -0.084 NA 
HETATM    9  N   UNL     1      -7.597   9.096  68.936  1.00  0.00    -0.075 NA 
HETATM   10  C   UNL     1      -7.507   7.885  68.320  1.00  0.00    -0.104 A  
HETATM   11  N   UNL     1      -6.835  10.156  67.017  1.00  0.00    -0.082 NA 
HETATM   12  C   UNL     1      -7.309   5.455  67.029  1.00  0.00    -0.083 A  
HETATM   13  C   UNL     1      -7.067   7.759  67.014  1.00  0.00    -0.085 A  
HETATM   14  C   UNL     1      -6.723   8.967  66.393  1.00  0.00    -0.074 A  
HETATM   15  N   UNL     1      -6.930   6.559  66.399  1.00  0.00    -0.065 NA 
BRANCH  14  16
HETATM   16  N   UNL     1      -6.181   9.013  65.114  1.00  0.00    -0.060 NA 
HETATM   17  C   UNL     1      -6.288  10.143  62.992  1.00  0.00    -0.137 C  
HETATM   18  C   UNL     1      -5.615   8.931  62.337  1.00  0.00    -0.083 C  
HETATM   19  C   UNL     1      -5.869  10.278  64.455  1.00  0.00    -0.136 C  
HETATM   20  C   UNL     1      -5.425   7.862  64.623  1.00  0.00    -0.040 C  
HETATM   21  C   UNL     1      -5.811   7.652  63.157  1.00  0.00    -0.051 C  
ENDBRANCH  14  16
BRANCH  12  22
HETATM   22  N   UNL     1      -7.269   4.269  66.329  1.00  0.00    -0.074 NA 
BRANCH  22  23
HETATM   23  C   UNL     1      -6.944   3.057  67.090  1.00  0.00    -0.049 C  
BRANCH  23  24
HETATM   24  C   UNL     1      -5.636   3.173  67.895  1.00  0.00    -0.018 C  
HETATM   25  O   UNL     1      -5.352   1.972  68.612  1.00  0.00    -0.012 OA 
HETATM   26  H   UNL     1      -4.546   2.043  69.109  1.00  0.00     0.000 HD 
ENDBRANCH  23  24
ENDBRANCH  22  23
BRANCH  22  27
HETATM   27  C   UNL     1      -7.992   4.146  65.061  1.00  0.00    -0.093 C  
BRANCH  27  28
HETATM   28  C   UNL     1      -7.400   3.036  64.173  1.00  0.00    -0.066 C  
HETATM   29  O   UNL     1      -5.987   3.188  64.018  1.00  0.00    -0.016 OA 
HETATM   30  H   UNL     1      -5.623   2.504  63.470  1.00  0.00     0.000 HD 
ENDBRANCH  27  28
ENDBRANCH  22  27
ENDBRANCH  12  22
BRANCH   7  31
HETATM   31  N   UNL     1      -8.268   6.547  70.253  1.00  0.00    -0.124 NA 
HETATM   32  C   UNL     1      -9.521   5.891  70.611  1.00  0.00    -0.171 C  
HETATM   33  C   UNL     1      -7.782   7.541  71.212  1.00  0.00    -0.085 C  
HETATM   34  C   UNL     1      -9.328   5.174  71.948  1.00  0.00    -0.171 C  
HETATM   35  C   UNL     1      -7.557   6.859  72.561  1.00  0.00    -0.091 C  
HETATM   36  C   UNL     1      -8.811   6.120  73.029  1.00  0.00    -0.124 C  
ENDBRANCH   7  31
ENDBRANCH   5   6
BRANCH   5  37
HETATM   37  C   UNL     1      -6.239  12.048  69.486  1.00  0.00    -0.117 C  
BRANCH  37  38
HETATM   38  C   UNL     1      -5.134  12.361  68.457  1.00  0.00    -0.052 C  
HETATM   39  O   UNL     1      -5.181  13.716  68.011  1.00  0.00    -0.102 OA 
HETATM   40  H   UNL     1      -4.500  13.908  67.378  1.00  0.00     0.000 HD 
ENDBRANCH  37  38
ENDBRANCH   5  37
ENDBRANCH   4   5
ENDBRANCH   3   4
TORSDOF 12
ENDMDL
MODEL      231
REMARK 921   NORMALIZED FREE ENERGY PREDICTED BY IDOCK:    9.77 KCAL/MOL
REMARK 922        TOTAL FREE ENERGY PREDICTED BY IDOCK:   15.71 KCAL/MOL
REMARK 923 INTER-LIGAND FREE ENERGY PREDICTED BY IDOCK:   16.12 KCAL/MOL
REMARK 924 INTRA-LIGAND FREE ENERGY PREDICTED BY IDOCK:   -0.41 KCAL/MOL
REMARK 927      BINDING AFFINITY PREDICTED BY RF-SCORE:    0.00 PKD
ROOT
HETATM    1  O   UNL     1     -12.660   3.755  67.656  1.00  0.00    15.207 OA 
HETATM    2  H   UNL     1     -12.498   2.957  67.167  1.00  0.00     0.000 HD 
HETATM    3  C   UNL     1     -11.513   4.602  67.688  1.00  0.00     4.405 C  
ENDROOT
BRANCH   3   4
HETATM    4  C   UNL     1     -11.778   5.901  68.483  1.00  0.00     1.533 C  
BRANCH   4   5
HETATM    5  N   UNL     1     -10.577   6.677  68.857  1.00  0.00    -0.211 NA 
BRANCH   5   6
HETATM    6  C   UNL     1      -9.873   7.224  67.800  1.00  0.00    -0.149 A  
HETATM    7  C   UNL     1      -9.165  10.450  66.249  1.00  0.00    -0.166 A  
HETATM    8  N   UNL     1      -8.391  10.956  65.257  1.00  0.00    -0.087 NA 
HETATM    9  N   UNL     1      -9.920   8.537  67.575  1.00  0.00    -0.184 NA 
HETATM   10  C   UNL     1      -9.176   9.080  66.572  1.00  0.00    -0.179 A  
HETATM   11  N   UNL     1      -9.135   6.419  67.046  1.00  0.00    -0.124 NA 
HETATM   12  C   UNL     1      -7.648  10.131  64.531  1.00  0.00    -0.130 A  
HETATM   13  C   UNL     1      -8.375   8.303  65.754  1.00  0.00    -0.137 A  
HETATM   14  C   UNL     1      -8.401   6.932  66.038  1.00  0.00    -0.134 A  
HETATM   15  N   UNL     1      -7.660   8.819  64.724  1.00  0.00    -0.103 NA 
BRANCH  14  16
HETATM   16  N   UNL     1      -7.725   6.000  65.259  1.00  0.00    -0.088 NA 
HETATM   17  C   UNL     1      -5.551   5.117  64.727  1.00  0.00    -0.013 C  
HETATM   18  C   UNL     1      -6.116   4.580  63.407  1.00  0.00    -0.018 C  
HETATM   19  C   UNL     1      -6.638   5.190  65.799  1.00  0.00    -0.044 C  
HETATM   20  C   UNL     1      -8.400   5.428  64.095  1.00  0.00    -0.118 C  
HETATM   21  C   UNL     1      -7.369   5.342  62.966  1.00  0.00    -0.046 C  
ENDBRANCH  14  16
BRANCH  12  22
HETATM   22  N   UNL     1      -6.816  10.630  63.551  1.00  0.00     0.090 NA 
BRANCH  22  23
HETATM   23  C   UNL     1      -7.456  11.261  62.392  1.00  0.00     0.203 C  
BRANCH  23  24
HETATM   24  C   UNL     1      -8.993  11.275  62.474  1.00  0.00    -0.233 C  
HETATM   25  O   UNL     1      -9.469  12.397  63.216  1.00  0.00    -0.607 OA 
HETATM   26  H   UNL     1     -10.418  12.405  63.267  1.00  0.00     0.000 HD 
ENDBRANCH  23  24
ENDBRANCH  22  23
BRANCH  22  27
HETATM   27  C   UNL     1      -5.429  10.969  63.878  1.00  0.00     0.316 C  
BRANCH  27  28
HETATM   28  C   UNL     1      -5.152  10.839  65.387  1.00  0.00    -0.133 C  
HETATM   29  O   UNL     1      -5.562  12.009  66.097  1.00  0.00    -0.457 OA 
HETATM   30  H   UNL     1      -5.391  11.928  67.028  1.00  0.00     0.000 HD 
ENDBRANCH  27  28
ENDBRANCH  22  27
ENDBRANCH  12  22
BRANCH   7  31
HETATM   31  N   UNL     1      -9.901  11.414  66.936  1.00  0.00    -0.191 NA 
HETATM   32  C   UNL     1     -11.285  11.215  67.350  1.00  0.00    -0.294 C  
HETATM   33  C   UNL     1      -9.488  12.809  66.772  1.00  0.00    -0.243 C  
HETATM   34  C   UNL     1     -11.493  11.910  68.697  1.00  0.00    -0.350 C  
HETATM   35  C   UNL     1      -9.662  13.537  68.104  1.00  0.00    -0.233 C  
HETATM   36  C   UNL     1     -11.083  13.380  68.645  1.00  0.00    -0.295 C  
ENDBRANCH   7  31
ENDBRANCH   5   6
BRANCH   5  37
HETATM   37  C   UNL     1      -9.808   6.204  70.015  1.00  0.00    -0.170 C  
BRANCH  37  38
HETATM   38  C   UNL     1     -10.707   5.603  71.115  1.00  0.00    -0.241 C  
HETATM   39  O   UNL     1     -11.289   6.609  71.943  1.00  0.00    -0.253 OA 
HETATM   40  H   UNL     1     -11.843   6.239  72.620  1.00  0.00     0.000 HD 
ENDBRANCH  37  38
ENDBRANCH   5  37
ENDBRANCH   4   5
ENDBRANCH   3   4
TORSDOF 12
ENDMDL
MODEL      232
REMARK 921   NORMALIZED FREE ENERGY PREDICTED BY IDOCK:   10.11 KCAL/MOL
REMARK 922        TOTAL FREE ENERGY PREDICTED BY IDOCK:   16.29 KCAL/MOL
REMARK 923 INTER-LIGAND FREE ENERGY PREDICTED BY IDOCK:   14.26 KCAL/MOL
REMARK 924 INTRA-LIGAND FREE ENERGY PREDICTED BY IDOCK:    2.03 KCAL/MOL
REMARK 927      BINDING AFFINITY PREDICTED BY RF-SCORE:    0.00 PKD
ROOT
HETATM    1  O   UNL     1     -13.421  11.200  72.721  1.00  0.00    -0.166 OA 
HETATM    2  H   UNL     1     -12.891  10.417  72.817  1.00  0.00     0.000 HD 
HETATM    3  C   UNL     1     -13.152  11.877  71.494  1.00  0.00    -0.275 C  
ENDROOT
BRANCH   3   4
HETATM    4  C   UNL     1     -14.015  13.150  71.339  1.00  0.00     0.680 C  
BRANCH   4   5
HETATM    5  N   UNL     1     -13.331  14.426  71.640  1.00  0.00    -0.343 NA 
BRANCH   5   6
HETATM    6  C   UNL     1     -12.413  14.843  70.693  1.00  0.00    -0.352 A  
HETATM    7  C   UNL     1     -10.036  13.489  68.278  1.00  0.00    -0.237 A  
HETATM    8  N   UNL     1      -9.212  13.936  67.299  1.00  0.00    -0.224 NA 
HETATM    9  N   UNL     1     -11.698  13.944  70.016  1.00  0.00    -0.281 NA 
HETATM   10  C   UNL     1     -10.842  14.356  69.041  1.00  0.00    -0.252 A  
HETATM   11  N   UNL     1     -12.290  16.143  70.459  1.00  0.00    -0.113 NA 
HETATM   12  C   UNL     1      -9.122  15.240  67.073  1.00  0.00    -0.225 A  
HETATM   13  C   UNL     1     -10.670  15.694  68.736  1.00  0.00    -0.250 A  
HETATM   14  C   UNL     1     -11.438  16.575  69.509  1.00  0.00     0.015 A  
HETATM   15  N   UNL     1      -9.791  16.127  67.798  1.00  0.00    -0.230 NA 
BRANCH  14  16
HETATM   16  N   UNL     1     -11.322  17.956  69.394  1.00  0.00     1.727 NA 
HETATM   17  C   UNL     1     -10.847  19.750  67.863  1.00  0.00    -0.234 C  
HETATM   18  C   UNL     1     -10.516  20.653  69.057  1.00  0.00     0.367 C  
HETATM   19  C   UNL     1     -11.868  18.681  68.251  1.00  0.00     2.893 C  
HETATM   20  C   UNL     1     -11.155  18.755  70.606  1.00  0.00     3.835 C  
HETATM   21  C   UNL     1     -10.123  19.843  70.297  1.00  0.00     0.725 C  
ENDBRANCH  14  16
BRANCH  12  22
HETATM   22  N   UNL     1      -8.330  15.713  66.049  1.00  0.00     0.127 NA 
BRANCH  22  23
HETATM   23  C   UNL     1      -8.580  15.170  64.709  1.00  0.00     5.499 C  
BRANCH  23  24
HETATM   24  C   UNL     1     -10.040  14.735  64.488  1.00  0.00     0.538 C  
HETATM   25  O   UNL     1     -10.704  14.476  65.724  1.00  0.00    -0.293 OA 
HETATM   26  H   UNL     1     -11.605  14.208  65.588  1.00  0.00     0.000 HD 
ENDBRANCH  23  24
ENDBRANCH  22  23
BRANCH  22  27
HETATM   27  C   UNL     1      -7.662  17.009  66.185  1.00  0.00    -0.257 C  
BRANCH  27  28
HETATM   28  C   UNL     1      -6.337  16.888  66.960  1.00  0.00    -0.194 C  
HETATM   29  O   UNL     1      -5.217  17.225  66.138  1.00  0.00    -0.288 OA 
HETATM   30  H   UNL     1      -4.400  17.150  66.617  1.00  0.00     0.000 HD 
ENDBRANCH  27  28
ENDBRANCH  22  27
ENDBRANCH  12  22
BRANCH   7  31
HETATM   31  N   UNL     1     -10.040  12.102  68.421  1.00  0.00    -0.210 NA 
HETATM   32  C   UNL     1     -11.043  11.240  67.807  1.00  0.00    -0.271 C  
HETATM   33  C   UNL     1      -9.380  11.553  69.608  1.00  0.00     1.125 C  
HETATM   34  C   UNL     1     -10.368   9.933  67.386  1.00  0.00    -0.301 C  
HETATM   35  C   UNL     1      -8.675  10.253  69.225  1.00  0.00    -0.182 C  
HETATM   36  C   UNL     1      -9.635   9.273  68.552  1.00  0.00    -0.155 C  
ENDBRANCH   7  31
ENDBRANCH   5   6
BRANCH   5  37
HETATM   37  C   UNL     1     -13.032  14.709  73.049  1.00  0.00    -0.510 C  
BRANCH  37  38
HETATM   38  C   UNL     1     -11.610  14.266  73.450  1.00  0.00     1.151 C  
HETATM   39  O   UNL     1     -11.088  15.040  74.529  1.00  0.00     1.419 OA 
HETATM   40  H   UNL     1     -10.213  14.767  74.776  1.00  0.00     0.000 HD 
ENDBRANCH  37  38
ENDBRANCH   5  37
ENDBRANCH   4   5
ENDBRANCH   3   4
TORSDOF 12
ENDMDL
MODEL      233
REMARK 921   NORMALIZED FREE ENERGY PREDICTED BY IDOCK:   13.59 KCAL/MOL
REMARK 922        TOTAL FREE ENERGY PREDICTED BY IDOCK:   22.21 KCAL/MOL
REMARK 923 INTER-LIGAND FREE ENERGY PREDICTED BY IDOCK:   22.27 KCAL/MOL
REMARK 924 INTRA-LIGAND FREE ENERGY PREDICTED BY IDOCK:   -0.06 KCAL/MOL
REMARK 927      BINDING AFFINITY PREDICTED BY RF-SCORE:    0.00 PKD
ROOT
HETATM    1  O   UNL     1      -6.500  15.477  73.452  1.00  0.00     2.555 OA 
HETATM    2  H   UNL     1      -6.829  16.369  73.458  1.00  0.00     0.000 HD 
HETATM    3  C   UNL     1      -7.514  14.539  73.094  1.00  0.00     5.704 C  
ENDROOT
BRANCH   3   4
HETATM    4  C   UNL     1      -6.979  13.089  73.085  1.00  0.00     6.817 C  
BRANCH   4   5
HETATM    5  N   UNL     1      -6.309  12.664  71.838  1.00  0.00     1.887 NA 
BRANCH   5   6
HETATM    6  C   UNL     1      -7.145  12.473  70.752  1.00  0.00     3.161 A  
HETATM    7  C   UNL     1      -9.528  14.290  68.671  1.00  0.00    -0.178 A  
HETATM    8  N   UNL     1     -10.266  14.086  67.551  1.00  0.00    -0.243 NA 
HETATM    9  N   UNL     1      -7.908  13.474  70.313  1.00  0.00     2.062 NA 
HETATM   10  C   UNL     1      -8.681  13.301  69.206  1.00  0.00     0.859 A  
HETATM   11  N   UNL     1      -7.141  11.290  70.150  1.00  0.00     0.074 NA 
HETATM   12  C   UNL     1     -10.229  12.900  66.958  1.00  0.00    -0.243 A  
HETATM   13  C   UNL     1      -8.719  12.099  68.522  1.00  0.00    -0.079 A  
HETATM   14  C   UNL     1      -7.910  11.091  69.062  1.00  0.00    -0.126 A  
HETATM   15  N   UNL     1      -9.515  11.893  67.444  1.00  0.00    -0.173 NA 
BRANCH  14  16
HETATM   16  N   UNL     1      -7.896   9.798  68.550  1.00  0.00    -0.081 NA 
HETATM   17  C   UNL     1      -7.261   8.459  66.655  1.00  0.00    -0.077 C  
HETATM   18  C   UNL     1      -8.251   7.381  67.112  1.00  0.00    -0.118 C  
HETATM   19  C   UNL     1      -6.737   9.261  67.846  1.00  0.00    -0.071 C  
HETATM   20  C   UNL     1      -8.773   8.792  69.148  1.00  0.00    -0.136 C  
HETATM   21  C   UNL     1      -9.355   7.956  68.004  1.00  0.00    -0.152 C  
ENDBRANCH  14  16
BRANCH  12  22
HETATM   22  N   UNL     1     -10.931  12.688  65.791  1.00  0.00    -0.274 NA 
BRANCH  22  23
HETATM   23  C   UNL     1     -11.079  13.832  64.885  1.00  0.00    -0.362 C  
BRANCH  23  24
HETATM   24  C   UNL     1      -9.811  14.699  64.782  1.00  0.00     0.313 C  
HETATM   25  O   UNL     1     -10.128  16.087  64.696  1.00  0.00    -0.335 OA 
HETATM   26  H   UNL     1      -9.345  16.622  64.632  1.00  0.00     0.000 HD 
ENDBRANCH  23  24
ENDBRANCH  22  23
BRANCH  22  27
HETATM   27  C   UNL     1     -11.064  11.330  65.259  1.00  0.00    -0.076 C  
BRANCH  27  28
HETATM   28  C   UNL     1     -11.057  11.319  63.719  1.00  0.00    -0.231 C  
HETATM   29  O   UNL     1      -9.789  11.724  63.199  1.00  0.00    -0.409 OA 
HETATM   30  H   UNL     1      -9.786  11.717  62.249  1.00  0.00     0.000 HD 
ENDBRANCH  27  28
ENDBRANCH  22  27
ENDBRANCH  12  22
BRANCH   7  31
HETATM   31  N   UNL     1      -9.653  15.572  69.203  1.00  0.00    -0.235 NA 
HETATM   32  C   UNL     1      -8.510  16.408  69.549  1.00  0.00     0.207 C  
HETATM   33  C   UNL     1     -10.895  15.878  69.916  1.00  0.00    -0.333 C  
HETATM   34  C   UNL     1      -8.861  17.864  69.242  1.00  0.00     0.274 C  
HETATM   35  C   UNL     1     -11.293  17.323  69.619  1.00  0.00     1.077 C  
HETATM   36  C   UNL     1     -10.154  18.293  69.932  1.00  0.00     0.815 C  
ENDBRANCH   7  31
ENDBRANCH   5   6
BRANCH   5  37
HETATM   37  C   UNL     1      -5.151  11.770  71.971  1.00  0.00     0.155 C  
BRANCH  37  38
HETATM   38  C   UNL     1      -5.505  10.449  72.682  1.00  0.00     0.476 C  
HETATM   39  O   UNL     1      -6.100   9.502  71.794  1.00  0.00    -0.232 OA 
HETATM   40  H   UNL     1      -6.318   8.688  72.232  1.00  0.00     0.000 HD 
ENDBRANCH  37  38
ENDBRANCH   5  37
ENDBRANCH   4   5
ENDBRANCH   3   4
TORSDOF 12
ENDMDL
MODEL      234
REMARK 921   NORMALIZED FREE ENERGY PREDICTED BY IDOCK:   14.73 KCAL/MOL
REMARK 922        TOTAL FREE ENERGY PREDICTED BY IDOCK:   24.15 KCAL/MOL
REMARK 923 INTER-LIGAND FREE ENERGY PREDICTED BY IDOCK:    9.89 KCAL/MOL
REMARK 924 INTRA-LIGAND FREE ENERGY PREDICTED BY IDOCK:   14.26 KCAL/MOL
REMARK 927      BINDING AFFINITY PREDICTED BY RF-SCORE:    0.00 PKD
ROOT
HETATM    1  O   UNL     1      -6.307  11.385  65.492  1.00  0.00    -0.346 OA 
HETATM    2  H   UNL     1      -5.850  10.828  64.872  1.00  0.00     0.000 HD 
HETATM    3  C   UNL     1      -7.174  12.310  64.838  1.00  0.00     4.992 C  
ENDROOT
BRANCH   3   4
HETATM    4  C   UNL     1      -7.917  13.214  65.847  1.00  0.00     2.378 C  
BRANCH   4   5
HETATM    5  N   UNL     1      -7.692  12.900  67.273  1.00  0.00    -0.149 NA 
BRANCH   5   6
HETATM    6  C   UNL     1      -8.078  11.631  67.667  1.00  0.00    -0.140 A  
HETATM    7  C   UNL     1     -10.782   9.921  69.423  1.00  0.00    -0.232 A  
HETATM    8  N   UNL     1     -11.167   8.654  69.712  1.00  0.00    -0.069 NA 
HETATM    9  N   UNL     1      -9.206  11.461  68.358  1.00  0.00    -0.179 NA 
HETATM   10  C   UNL     1      -9.614  10.205  68.688  1.00  0.00    -0.163 A  
HETATM   11  N   UNL     1      -7.319  10.601  67.316  1.00  0.00    -0.089 NA 
HETATM   12  C   UNL     1     -10.400   7.641  69.333  1.00  0.00    -0.214 A  
HETATM   13  C   UNL     1      -8.880   9.084  68.346  1.00  0.00    -0.134 A  
HETATM   14  C   UNL     1      -7.696   9.349  67.646  1.00  0.00    -0.088 A  
HETATM   15  N   UNL     1      -9.247   7.828  68.704  1.00  0.00    -0.139 NA 
BRANCH  14  16
HETATM   16  N   UNL     1      -6.797   8.346  67.302  1.00  0.00    -0.069 NA 
HETATM   17  C   UNL     1      -5.214   7.634  65.636  1.00  0.00    -0.028 C  
HETATM   18  C   UNL     1      -5.343   6.199  66.157  1.00  0.00    -0.013 C  
HETATM   19  C   UNL     1      -5.481   8.647  66.749  1.00  0.00    -0.040 C  
HETATM   20  C   UNL     1      -6.903   7.045  67.962  1.00  0.00    -0.074 C  
HETATM   21  C   UNL     1      -6.665   5.972  66.896  1.00  0.00    -0.058 C  
ENDBRANCH  14  16
BRANCH  12  22
HETATM   22  N   UNL     1     -10.798   6.343  69.573  1.00  0.00    -0.285 NA 
BRANCH  22  23
HETATM   23  C   UNL     1     -12.031   6.157  70.346  1.00  0.00     0.241 C  
BRANCH  23  24
HETATM   24  C   UNL     1     -12.294   7.285  71.359  1.00  0.00    -0.368 C  
HETATM   25  O   UNL     1     -11.626   8.490  70.990  1.00  0.00    -0.275 OA 
HETATM   26  H   UNL     1     -11.788   9.187  71.616  1.00  0.00     0.000 HD 
ENDBRANCH  23  24
ENDBRANCH  22  23
BRANCH  22  27
HETATM   27  C   UNL     1     -10.329   5.265  68.699  1.00  0.00    -0.122 C  
BRANCH  27  28
HETATM   28  C   UNL     1      -8.847   5.442  68.322  1.00  0.00    -0.104 C  
HETATM   29  O   UNL     1      -8.079   4.286  68.663  1.00  0.00    -0.076 OA 
HETATM   30  H   UNL     1      -7.165   4.396  68.431  1.00  0.00     0.000 HD 
ENDBRANCH  27  28
ENDBRANCH  22  27
ENDBRANCH  12  22
BRANCH   7  31
HETATM   31  N   UNL     1     -11.667  10.897  69.876  1.00  0.00    -0.307 NA 
HETATM   32  C   UNL     1     -13.065  10.961  69.463  1.00  0.00     0.973 C  
HETATM   33  C   UNL     1     -11.087  12.163  70.330  1.00  0.00     1.098 C  
HETATM   34  C   UNL     1     -13.900  11.441  70.651  1.00  0.00     2.170 C  
HETATM   35  C   UNL     1     -11.883  12.669  71.532  1.00  0.00     1.365 C  
HETATM   36  C   UNL     1     -13.376  12.760  71.216  1.00  0.00     0.001 C  
ENDBRANCH   7  31
ENDBRANCH   5   6
BRANCH   5  37
HETATM   37  C   UNL     1      -7.868  13.994  68.236  1.00  0.00    -0.140 C  
BRANCH  37  38
HETATM   38  C   UNL     1      -7.880  13.498  69.697  1.00  0.00     0.945 C  
HETATM   39  O   UNL     1      -6.578  13.131  70.152  1.00  0.00    -0.367 OA 
HETATM   40  H   UNL     1      -6.586  12.825  71.051  1.00  0.00     0.000 HD 
ENDBRANCH  37  38
ENDBRANCH   5  37
ENDBRANCH   4   5
ENDBRANCH   3   4
TORSDOF 12
ENDMDL
MODEL      235
REMARK 921   NORMALIZED FREE ENERGY PREDICTED BY IDOCK:   14.96 KCAL/MOL
REMARK 922        TOTAL FREE ENERGY PREDICTED BY IDOCK:   24.54 KCAL/MOL
REMARK 923 INTER-LIGAND FREE ENERGY PREDICTED BY IDOCK:   21.25 KCAL/MOL
REMARK 924 INTRA-LIGAND FREE ENERGY PREDICTED BY IDOCK:    3.29 KCAL/MOL
REMARK 927      BINDING AFFINITY PREDICTED BY RF-SCORE:    0.00 PKD
ROOT
HETATM    1  O   UNL     1      -6.165  12.328  71.157  1.00  0.00    -0.416 OA 
HETATM    2  H   UNL     1      -5.450  12.648  71.695  1.00  0.00     0.000 HD 
HETATM    3  C   UNL     1      -6.520  10.986  71.487  1.00  0.00     1.879 C  
ENDROOT
BRANCH   3   4
HETATM    4  C   UNL     1      -7.683  10.466  70.612  1.00  0.00     1.024 C  
BRANCH   4   5
HETATM    5  N   UNL     1      -7.686  10.934  69.210  1.00  0.00    -0.126 NA 
BRANCH   5   6
HETATM    6  C   UNL     1      -8.068  12.250  69.026  1.00  0.00     0.282 A  
HETATM    7  C   UNL     1     -10.004  14.334  66.739  1.00  0.00    -0.265 A  
HETATM    8  N   UNL     1     -10.430  15.617  66.643  1.00  0.00    -0.296 NA 
HETATM    9  N   UNL     1      -8.805  12.589  67.967  1.00  0.00    -0.181 NA 
HETATM   10  C   UNL     1      -9.232  13.874  67.823  1.00  0.00    -0.197 A  
HETATM   11  N   UNL     1      -7.711  13.147  69.936  1.00  0.00     1.297 NA 
HETATM   12  C   UNL     1     -10.075  16.489  67.578  1.00  0.00    -0.267 A  
HETATM   13  C   UNL     1      -8.908  14.859  68.739  1.00  0.00    -0.183 A  
HETATM   14  C   UNL     1      -8.110  14.428  69.807  1.00  0.00     0.514 A  
HETATM   15  N   UNL     1      -9.287  16.152  68.591  1.00  0.00    -0.212 NA 
BRANCH  14  16
HETATM   16  N   UNL     1      -7.621  15.305  70.768  1.00  0.00     1.166 NA 
HETATM   17  C   UNL     1      -6.259  17.258  71.111  1.00  0.00     1.732 C  
HETATM   18  C   UNL     1      -6.099  16.862  72.583  1.00  0.00     3.402 C  
HETATM   19  C   UNL     1      -7.584  16.747  70.547  1.00  0.00     2.899 C  
HETATM   20  C   UNL     1      -7.643  14.899  72.173  1.00  0.00     4.584 C  
HETATM   21  C   UNL     1      -6.328  15.364  72.803  1.00  0.00     2.275 C  
ENDBRANCH  14  16
BRANCH  12  22
HETATM   22  N   UNL     1     -10.539  17.786  67.527  1.00  0.00    -0.378 NA 
BRANCH  22  23
HETATM   23  C   UNL     1     -11.650  18.131  68.421  1.00  0.00     1.843 C  
BRANCH  23  24
HETATM   24  C   UNL     1     -12.729  17.036  68.507  1.00  0.00     3.803 C  
HETATM   25  O   UNL     1     -12.300  15.937  69.311  1.00  0.00    -0.504 OA 
HETATM   26  H   UNL     1     -12.966  15.262  69.364  1.00  0.00     0.000 HD 
ENDBRANCH  23  24
ENDBRANCH  22  23
BRANCH  22  27
HETATM   27  C   UNL     1      -9.671  18.850  67.018  1.00  0.00    -0.309 C  
BRANCH  27  28
HETATM   28  C   UNL     1      -8.204  18.390  66.921  1.00  0.00    -0.247 C  
HETATM   29  O   UNL     1      -7.649  18.135  68.212  1.00  0.00    -0.255 OA 
HETATM   30  H   UNL     1      -6.744  17.852  68.151  1.00  0.00     0.000 HD 
ENDBRANCH  27  28
ENDBRANCH  22  27
ENDBRANCH  12  22
BRANCH   7  31
HETATM   31  N   UNL     1     -10.438  13.516  65.697  1.00  0.00    -0.286 NA 
HETATM   32  C   UNL     1     -11.847  13.281  65.401  1.00  0.00    -0.359 C  
HETATM   33  C   UNL     1      -9.517  12.473  65.241  1.00  0.00     0.161 C  
HETATM   34  C   UNL     1     -12.012  13.164  63.885  1.00  0.00    -0.550 C  
HETATM   35  C   UNL     1      -9.637  12.336  63.724  1.00  0.00     0.068 C  
HETATM   36  C   UNL     1     -11.086  12.103  63.295  1.00  0.00    -0.408 C  
ENDBRANCH   7  31
ENDBRANCH   5   6
BRANCH   5  37
HETATM   37  C   UNL     1      -8.075   9.961  68.180  1.00  0.00    -0.104 C  
BRANCH  37  38
HETATM   38  C   UNL     1      -7.084   9.924  67.000  1.00  0.00    -0.089 C  
HETATM   39  O   UNL     1      -5.730   9.805  67.437  1.00  0.00    -0.043 OA 
HETATM   40  H   UNL     1      -5.120   9.782  66.709  1.00  0.00     0.000 HD 
ENDBRANCH  37  38
ENDBRANCH   5  37
ENDBRANCH   4   5
ENDBRANCH   3   4
TORSDOF 12
ENDMDL
MODEL      236
REMARK 921   NORMALIZED FREE ENERGY PREDICTED BY IDOCK:   18.44 KCAL/MOL
REMARK 922        TOTAL FREE ENERGY PREDICTED BY IDOCK:   30.46 KCAL/MOL
REMARK 923 INTER-LIGAND FREE ENERGY PREDICTED BY IDOCK:   29.22 KCAL/MOL
REMARK 924 INTRA-LIGAND FREE ENERGY PREDICTED BY IDOCK:    1.24 KCAL/MOL
REMARK 927      BINDING AFFINITY PREDICTED BY RF-SCORE:    0.00 PKD
ROOT
HETATM    1  O   UNL     1      -6.533  15.480  73.472  1.00  0.00     2.605 OA 
HETATM    2  H   UNL     1      -6.772  16.399  73.514  1.00  0.00     0.000 HD 
HETATM    3  C   UNL     1      -7.640  14.659  73.104  1.00  0.00     6.289 C  
ENDROOT
BRANCH   3   4
HETATM    4  C   UNL     1      -7.251  13.165  73.035  1.00  0.00     8.145 C  
BRANCH   4   5
HETATM    5  N   UNL     1      -6.603  12.731  71.779  1.00  0.00     2.604 NA 
BRANCH   5   6
HETATM    6  C   UNL     1      -7.405  12.778  70.653  1.00  0.00     3.467 A  
HETATM    7  C   UNL     1      -7.947  11.022  67.500  1.00  0.00    -0.116 A  
HETATM    8  N   UNL     1      -8.811  11.048  66.455  1.00  0.00    -0.163 NA 
HETATM    9  N   UNL     1      -7.226  11.895  69.670  1.00  0.00     0.200 NA 
HETATM   10  C   UNL     1      -8.058  11.904  68.592  1.00  0.00    -0.086 A  
HETATM   11  N   UNL     1      -8.363  13.694  70.594  1.00  0.00     3.854 NA 
HETATM   12  C   UNL     1      -9.771  11.962  66.431  1.00  0.00    -0.221 A  
HETATM   13  C   UNL     1      -9.085  12.823  68.469  1.00  0.00    -0.049 A  
HETATM   14  C   UNL     1      -9.189  13.732  69.530  1.00  0.00     1.027 A  
HETATM   15  N   UNL     1      -9.896  12.876  67.384  1.00  0.00    -0.204 NA 
BRANCH  14  16
HETATM   16  N   UNL     1     -10.108  14.775  69.525  1.00  0.00    -0.112 NA 
HETATM   17  C   UNL     1     -12.452  15.307  69.633  1.00  0.00    -0.174 C  
HETATM   18  C   UNL     1     -12.150  16.669  68.997  1.00  0.00     0.912 C  
HETATM   19  C   UNL     1     -11.252  14.797  70.430  1.00  0.00    -0.169 C  
HETATM   20  C   UNL     1      -9.687  16.087  69.034  1.00  0.00    -0.244 C  
HETATM   21  C   UNL     1     -10.840  16.655  68.203  1.00  0.00    -0.348 C  
ENDBRANCH  14  16
BRANCH  12  22
HETATM   22  N   UNL     1     -10.690  11.974  65.404  1.00  0.00    -0.278 NA 
BRANCH  22  23
HETATM   23  C   UNL     1     -12.035  12.470  65.719  1.00  0.00    -0.420 C  
BRANCH  23  24
HETATM   24  C   UNL     1     -12.332  12.514  67.229  1.00  0.00     0.489 C  
HETATM   25  O   UNL     1     -13.376  13.438  67.533  1.00  0.00     1.689 OA 
HETATM   26  H   UNL     1     -13.559  13.465  68.465  1.00  0.00     0.000 HD 
ENDBRANCH  23  24
ENDBRANCH  22  23
BRANCH  22  27
HETATM   27  C   UNL     1     -10.229  11.988  64.014  1.00  0.00    -0.365 C  
BRANCH  27  28
HETATM   28  C   UNL     1     -11.404  12.104  63.025  1.00  0.00     0.027 C  
HETATM   29  O   UNL     1     -12.064  13.366  63.143  1.00  0.00    -0.808 OA 
HETATM   30  H   UNL     1     -12.788  13.437  62.533  1.00  0.00     0.000 HD 
ENDBRANCH  27  28
ENDBRANCH  22  27
ENDBRANCH  12  22
BRANCH   7  31
HETATM   31  N   UNL     1      -6.982  10.021  67.409  1.00  0.00    -0.082 NA 
HETATM   32  C   UNL     1      -6.941   8.868  68.301  1.00  0.00    -0.076 C  
HETATM   33  C   UNL     1      -5.705  10.382  66.789  1.00  0.00    -0.049 C  
HETATM   34  C   UNL     1      -6.467   7.653  67.503  1.00  0.00    -0.058 C  
HETATM   35  C   UNL     1      -5.204   9.198  65.964  1.00  0.00    -0.036 C  
HETATM   36  C   UNL     1      -5.138   7.920  66.801  1.00  0.00    -0.027 C  
ENDBRANCH   7  31
ENDBRANCH   5   6
BRANCH   5  37
HETATM   37  C   UNL     1      -5.623  11.641  71.873  1.00  0.00     0.685 C  
BRANCH  37  38
HETATM   38  C   UNL     1      -6.234  10.349  72.452  1.00  0.00     1.554 C  
HETATM   39  O   UNL     1      -5.288   9.602  73.217  1.00  0.00    -0.242 OA 
HETATM   40  H   UNL     1      -5.664   8.806  73.574  1.00  0.00     0.000 HD 
ENDBRANCH  37  38
ENDBRANCH   5  37
ENDBRANCH   4   5
ENDBRANCH   3   4
TORSDOF 12
ENDMDL
MODEL      237
REMARK 921   NORMALIZED FREE ENERGY PREDICTED BY IDOCK:   19.14 KCAL/MOL
REMARK 922        TOTAL FREE ENERGY PREDICTED BY IDOCK:   31.66 KCAL/MOL
REMARK 923 INTER-LIGAND FREE ENERGY PREDICTED BY IDOCK:   31.14 KCAL/MOL
REMARK 924 INTRA-LIGAND FREE ENERGY PREDICTED BY IDOCK:    0.51 KCAL/MOL
REMARK 927      BINDING AFFINITY PREDICTED BY RF-SCORE:    0.00 PKD
ROOT
HETATM    1  O   UNL     1      -6.565  15.499  73.479  1.00  0.00     3.098 OA 
HETATM    2  H   UNL     1      -6.712  16.421  73.652  1.00  0.00     0.000 HD 
HETATM    3  C   UNL     1      -7.751  14.846  73.028  1.00  0.00     7.007 C  
ENDROOT
BRANCH   3   4
HETATM    4  C   UNL     1      -7.511  13.346  72.746  1.00  0.00     8.797 C  
BRANCH   4   5
HETATM    5  N   UNL     1      -6.879  13.033  71.447  1.00  0.00     2.464 NA 
BRANCH   5   6
HETATM    6  C   UNL     1      -7.598  13.421  70.330  1.00  0.00     2.531 A  
HETATM    7  C   UNL     1      -8.164  12.446  66.860  1.00  0.00    -0.089 A  
HETATM    8  N   UNL     1      -8.952  12.805  65.816  1.00  0.00     0.325 NA 
HETATM    9  N   UNL     1      -7.473  12.744  69.188  1.00  0.00     0.109 NA 
HETATM   10  C   UNL     1      -8.229  13.090  68.111  1.00  0.00    -0.157 A  
HETATM   11  N   UNL     1      -8.427  14.451  70.437  1.00  0.00     1.597 NA 
HETATM   12  C   UNL     1      -9.786  13.827  65.956  1.00  0.00    -0.282 A  
HETATM   13  C   UNL     1      -9.123  14.146  68.152  1.00  0.00    -0.193 A  
HETATM   14  C   UNL     1      -9.175  14.821  69.379  1.00  0.00     0.041 A  
HETATM   15  N   UNL     1      -9.853  14.532  67.078  1.00  0.00    -0.244 NA 
BRANCH  14  16
HETATM   16  N   UNL     1      -9.953  15.958  69.566  1.00  0.00    -0.270 NA 
HETATM   17  C   UNL     1     -12.214  16.770  69.706  1.00  0.00     1.840 C  
HETATM   18  C   UNL     1     -11.704  18.180  69.387  1.00  0.00     4.350 C  
HETATM   19  C   UNL     1     -11.139  15.947  70.416  1.00  0.00    -0.370 C  
HETATM   20  C   UNL     1      -9.341  17.272  69.381  1.00  0.00     0.236 C  
HETATM   21  C   UNL     1     -10.360  18.152  68.653  1.00  0.00    -0.315 C  
ENDBRANCH  14  16
BRANCH  12  22
HETATM   22  N   UNL     1     -10.632  14.176  64.925  1.00  0.00    -0.411 NA 
BRANCH  22  23
HETATM   23  C   UNL     1     -10.769  15.608  64.632  1.00  0.00    -0.137 C  
BRANCH  23  24
HETATM   24  C   UNL     1     -10.270  16.516  65.771  1.00  0.00    -0.329 C  
HETATM   25  O   UNL     1      -9.935  17.819  65.296  1.00  0.00    -0.133 OA 
HETATM   26  H   UNL     1      -9.627  18.379  65.998  1.00  0.00     0.000 HD 
ENDBRANCH  23  24
ENDBRANCH  22  23
BRANCH  22  27
HETATM   27  C   UNL     1     -10.954  13.197  63.885  1.00  0.00    -0.274 C  
BRANCH  27  28
HETATM   28  C   UNL     1     -11.859  12.072  64.422  1.00  0.00    -0.313 C  
HETATM   29  O   UNL     1     -13.149  12.567  64.785  1.00  0.00    -0.853 OA 
HETATM   30  H   UNL     1     -13.706  11.873  65.117  1.00  0.00     0.000 HD 
ENDBRANCH  27  28
ENDBRANCH  22  27
ENDBRANCH  12  22
BRANCH   7  31
HETATM   31  N   UNL     1      -7.329  11.363  66.589  1.00  0.00    -0.134 NA 
HETATM   32  C   UNL     1      -5.874  11.463  66.568  1.00  0.00    -0.138 C  
HETATM   33  C   UNL     1      -7.896  10.267  65.801  1.00  0.00    -0.145 C  
HETATM   34  C   UNL     1      -5.291  10.161  67.119  1.00  0.00    -0.041 C  
HETATM   35  C   UNL     1      -7.352   8.942  66.334  1.00  0.00    -0.088 C  
HETATM   36  C   UNL     1      -5.824   8.941  66.373  1.00  0.00    -0.054 C  
ENDBRANCH   7  31
ENDBRANCH   5   6
BRANCH   5  37
HETATM   37  C   UNL     1      -6.106  11.787  71.360  1.00  0.00     1.239 C  
BRANCH  37  38
HETATM   38  C   UNL     1      -6.939  10.549  71.750  1.00  0.00     2.765 C  
HETATM   39  O   UNL     1      -7.952  10.257  70.788  1.00  0.00    -0.285 OA 
HETATM   40  H   UNL     1      -8.465   9.494  71.028  1.00  0.00     0.000 HD 
ENDBRANCH  37  38
ENDBRANCH   5  37
ENDBRANCH   4   5
ENDBRANCH   3   4
TORSDOF 12
ENDMDL
MODEL      238
REMARK 921   NORMALIZED FREE ENERGY PREDICTED BY IDOCK:   26.40 KCAL/MOL
REMARK 922        TOTAL FREE ENERGY PREDICTED BY IDOCK:   44.00 KCAL/MOL
REMARK 923 INTER-LIGAND FREE ENERGY PREDICTED BY IDOCK:   37.44 KCAL/MOL
REMARK 924 INTRA-LIGAND FREE ENERGY PREDICTED BY IDOCK:    6.56 KCAL/MOL
REMARK 927      BINDING AFFINITY PREDICTED BY RF-SCORE:    0.00 PKD
ROOT
HETATM    1  O   UNL     1     -12.776  12.641  73.417  1.00  0.00     1.890 OA 
HETATM    2  H   UNL     1     -13.584  12.257  73.098  1.00  0.00     0.000 HD 
HETATM    3  C   UNL     1     -12.249  13.604  72.506  1.00  0.00     0.652 C  
ENDROOT
BRANCH   3   4
HETATM    4  C   UNL     1     -10.934  14.229  73.025  1.00  0.00     3.061 C  
BRANCH   4   5
HETATM    5  N   UNL     1     -10.279  15.190  72.112  1.00  0.00     1.864 NA 
BRANCH   5   6
HETATM    6  C   UNL     1     -10.582  15.032  70.771  1.00  0.00     0.120 A  
HETATM    7  C   UNL     1     -11.548  12.451  68.380  1.00  0.00    -0.324 A  
HETATM    8  N   UNL     1     -11.925  12.355  67.081  1.00  0.00    -0.549 NA 
HETATM    9  N   UNL     1     -10.874  13.823  70.291  1.00  0.00     0.556 NA 
HETATM   10  C   UNL     1     -11.233  13.683  68.985  1.00  0.00    -0.273 A  
HETATM   11  N   UNL     1     -10.605  16.109  69.997  1.00  0.00    -0.294 NA 
HETATM   12  C   UNL     1     -11.957  13.450  66.333  1.00  0.00    -0.406 A  
HETATM   13  C   UNL     1     -11.288  14.762  68.121  1.00  0.00    -0.307 A  
HETATM   14  C   UNL     1     -10.943  15.992  68.697  1.00  0.00    -0.323 A  
HETATM   15  N   UNL     1     -11.602  14.636  66.808  1.00  0.00    -0.371 NA 
BRANCH  14  16
HETATM   16  N   UNL     1     -10.861  17.162  67.952  1.00  0.00    -0.344 NA 
HETATM   17  C   UNL     1      -9.349  18.641  66.804  1.00  0.00    -0.312 C  
HETATM   18  C   UNL     1     -10.398  19.754  66.900  1.00  0.00    -0.601 C  
HETATM   19  C   UNL     1     -10.013  17.264  66.769  1.00  0.00    -0.301 C  
HETATM   20  C   UNL     1     -11.980  18.104  67.989  1.00  0.00     2.806 C  
HETATM   21  C   UNL     1     -11.386  19.515  68.046  1.00  0.00     0.721 C  
ENDBRANCH  14  16
BRANCH  12  22
HETATM   22  N   UNL     1     -12.385  13.383  65.025  1.00  0.00    -0.431 NA 
BRANCH  22  23
HETATM   23  C   UNL     1     -11.637  14.170  64.038  1.00  0.00    -0.126 C  
BRANCH  23  24
HETATM   24  C   UNL     1     -10.139  14.301  64.368  1.00  0.00     0.621 C  
HETATM   25  O   UNL     1      -9.366  14.574  63.201  1.00  0.00     7.064 OA 
HETATM   26  H   UNL     1      -8.441  14.654  63.404  1.00  0.00     0.000 HD 
ENDBRANCH  23  24
ENDBRANCH  22  23
BRANCH  22  27
HETATM   27  C   UNL     1     -13.175  12.234  64.576  1.00  0.00     0.445 C  
BRANCH  27  28
HETATM   28  C   UNL     1     -13.167  11.097  65.615  1.00  0.00     7.378 C  
HETATM   29  O   UNL     1     -11.839  10.784  66.037  1.00  0.00     0.607 OA 
HETATM   30  H   UNL     1     -11.835  10.083  66.677  1.00  0.00     0.000 HD 
ENDBRANCH  27  28
ENDBRANCH  22  27
ENDBRANCH  12  22
BRANCH   7  31
HETATM   31  N   UNL     1     -11.550  11.233  69.059  1.00  0.00    -0.289 NA 
HETATM   32  C   UNL     1     -10.331  10.561  69.495  1.00  0.00    -0.221 C  
HETATM   33  C   UNL     1     -12.712  10.364  68.863  1.00  0.00     1.688 C  
HETATM   34  C   UNL     1     -10.610   9.871  70.831  1.00  0.00    -0.254 C  
HETATM   35  C   UNL     1     -13.037   9.668  70.184  1.00  0.00     0.641 C  
HETATM   36  C   UNL     1     -11.817   8.939  70.747  1.00  0.00    -0.230 C  
ENDBRANCH   7  31
ENDBRANCH   5   6
BRANCH   5  37
HETATM   37  C   UNL     1      -8.918  15.620  72.456  1.00  0.00     9.213 C  
BRANCH  37  38
HETATM   38  C   UNL     1      -7.879  15.189  71.401  1.00  0.00     3.393 C  
HETATM   39  O   UNL     1      -8.460  14.394  70.367  1.00  0.00     0.679 OA 
HETATM   40  H   UNL     1      -7.820  14.130  69.717  1.00  0.00     0.000 HD 
ENDBRANCH  37  38
ENDBRANCH   5  37
ENDBRANCH   4   5
ENDBRANCH   3   4
TORSDOF 12
ENDMDL
MODEL      239
REMARK 921   NORMALIZED FREE ENERGY PREDICTED BY IDOCK:   34.81 KCAL/MOL
REMARK 922        TOTAL FREE ENERGY PREDICTED BY IDOCK:   58.31 KCAL/MOL
REMARK 923 INTER-LIGAND FREE ENERGY PREDICTED BY IDOCK:   47.66 KCAL/MOL
REMARK 924 INTRA-LIGAND FREE ENERGY PREDICTED BY IDOCK:   10.65 KCAL/MOL
REMARK 927      BINDING AFFINITY PREDICTED BY RF-SCORE:    0.00 PKD
ROOT
HETATM    1  O   UNL     1      -7.784  13.766  63.622  1.00  0.00    11.278 OA 
HETATM    2  H   UNL     1      -7.670  14.709  63.657  1.00  0.00     0.000 HD 
HETATM    3  C   UNL     1      -8.388  13.349  62.398  1.00  0.00    11.957 C  
ENDROOT
BRANCH   3   4
HETATM    4  C   UNL     1      -8.574  11.816  62.341  1.00  0.00     0.850 C  
BRANCH   4   5
HETATM    5  N   UNL     1      -9.402  11.233  63.418  1.00  0.00    -0.253 NA 
BRANCH   5   6
HETATM    6  C   UNL     1      -9.732  12.098  64.446  1.00  0.00    -0.036 A  
HETATM    7  C   UNL     1     -10.161  12.142  68.069  1.00  0.00    -0.201 A  
HETATM    8  N   UNL     1     -10.401  13.040  69.056  1.00  0.00    -0.027 NA 
HETATM    9  N   UNL     1      -9.798  11.649  65.699  1.00  0.00    -0.234 NA 
HETATM   10  C   UNL     1     -10.060  12.517  66.715  1.00  0.00    -0.223 A  
HETATM   11  N   UNL     1      -9.946  13.374  64.155  1.00  0.00    -0.101 NA 
HETATM   12  C   UNL     1     -10.593  14.314  68.739  1.00  0.00    -0.252 A  
HETATM   13  C   UNL     1     -10.284  13.863  66.488  1.00  0.00    -0.280 A  
HETATM   14  C   UNL     1     -10.223  14.249  65.143  1.00  0.00    -0.385 A  
HETATM   15  N   UNL     1     -10.589  14.734  67.481  1.00  0.00    -0.256 NA 
BRANCH  14  16
HETATM   16  N   UNL     1     -10.508  15.545  64.730  1.00  0.00    -0.385 NA 
HETATM   17  C   UNL     1     -11.236  17.713  65.478  1.00  0.00     0.722 C  
HETATM   18  C   UNL     1     -11.646  18.048  64.040  1.00  0.00     6.243 C  
HETATM   19  C   UNL     1     -10.083  16.709  65.500  1.00  0.00    -0.134 C  
HETATM   20  C   UNL     1     -10.743  15.799  63.309  1.00  0.00     5.539 C  
HETATM   21  C   UNL     1     -11.907  16.789  63.208  1.00  0.00     5.625 C  
ENDBRANCH  14  16
BRANCH  12  22
HETATM   22  N   UNL     1     -10.788  15.252  69.731  1.00  0.00    -0.271 NA 
BRANCH  22  23
HETATM   23  C   UNL     1     -12.079  15.949  69.743  1.00  0.00    -0.215 C  
BRANCH  23  24
HETATM   24  C   UNL     1     -11.969  17.433  70.137  1.00  0.00     3.961 C  
HETATM   25  O   UNL     1     -12.530  17.677  71.426  1.00  0.00     4.595 OA 
HETATM   26  H   UNL     1     -12.462  18.593  71.670  1.00  0.00     0.000 HD 
ENDBRANCH  23  24
ENDBRANCH  22  23
BRANCH  22  27
HETATM   27  C   UNL     1      -9.998  15.184  70.962  1.00  0.00     1.211 C  
BRANCH  27  28
HETATM   28  C   UNL     1     -10.887  15.287  72.215  1.00  0.00     0.643 C  
HETATM   29  O   UNL     1     -11.589  16.531  72.258  1.00  0.00    -0.422 OA 
HETATM   30  H   UNL     1     -12.137  16.594  73.031  1.00  0.00     0.000 HD 
ENDBRANCH  27  28
ENDBRANCH  22  27
ENDBRANCH  12  22
BRANCH   7  31
HETATM   31  N   UNL     1      -9.981  10.837  68.526  1.00  0.00    -0.170 NA 
HETATM   32  C   UNL     1      -8.694  10.151  68.492  1.00  0.00    -0.123 C  
HETATM   33  C   UNL     1     -11.158   9.966  68.536  1.00  0.00    -0.129 C  
HETATM   34  C   UNL     1      -8.587   9.260  69.731  1.00  0.00    -0.164 C  
HETATM   35  C   UNL     1     -11.100   9.070  69.772  1.00  0.00    -0.117 C  
HETATM   36  C   UNL     1      -9.776   8.309  69.849  1.00  0.00    -0.180 C  
ENDBRANCH   7  31
ENDBRANCH   5   6
BRANCH   5  37
HETATM   37  C   UNL     1      -9.157   9.827  63.763  1.00  0.00    -0.230 C  
BRANCH  37  38
HETATM   38  C   UNL     1      -9.743   9.447  65.138  1.00  0.00    -0.036 C  
HETATM   39  O   UNL     1      -8.812   9.660  66.199  1.00  0.00    -0.142 OA 
HETATM   40  H   UNL     1      -9.173   9.426  67.045  1.00  0.00     0.000 HD 
ENDBRANCH  37  38
ENDBRANCH   5  37
ENDBRANCH   4   5
ENDBRANCH   3   4
TORSDOF 12
ENDMDL
MODEL      240
REMARK 921   NORMALIZED FREE ENERGY PREDICTED BY IDOCK:   39.16 KCAL/MOL
REMARK 922        TOTAL FREE ENERGY PREDICTED BY IDOCK:   65.72 KCAL/MOL
REMARK 923 INTER-LIGAND FREE ENERGY PREDICTED BY IDOCK:   62.59 KCAL/MOL
REMARK 924 INTRA-LIGAND FREE ENERGY PREDICTED BY IDOCK:    3.13 KCAL/MOL
REMARK 927      BINDING AFFINITY PREDICTED BY RF-SCORE:    0.00 PKD
ROOT
HETATM    1  O   UNL     1      -6.380  12.501  71.445  1.00  0.00     0.066 OA 
HETATM    2  H   UNL     1      -5.602  12.737  71.937  1.00  0.00     0.000 HD 
HETATM    3  C   UNL     1      -7.129  11.475  72.096  1.00  0.00     7.724 C  
ENDROOT
BRANCH   3   4
HETATM    4  C   UNL     1      -8.394  11.091  71.296  1.00  0.00     6.600 C  
BRANCH   4   5
HETATM    5  N   UNL     1      -8.276  11.193  69.826  1.00  0.00     0.538 NA 
BRANCH   5   6
HETATM    6  C   UNL     1      -8.177  12.481  69.329  1.00  0.00     0.752 A  
HETATM    7  C   UNL     1      -8.527  14.334  66.205  1.00  0.00     0.884 A  
HETATM    8  N   UNL     1      -8.506  15.620  65.775  1.00  0.00     0.468 NA 
HETATM    9  N   UNL     1      -8.376  12.711  68.031  1.00  0.00    -0.166 NA 
HETATM   10  C   UNL     1      -8.340  13.987  67.557  1.00  0.00    -0.192 A  
HETATM   11  N   UNL     1      -7.911  13.468  70.175  1.00  0.00     1.973 NA 
HETATM   12  C   UNL     1      -8.257  16.589  66.645  1.00  0.00    -0.271 A  
HETATM   13  C   UNL     1      -8.080  15.067  68.382  1.00  0.00    -0.141 A  
HETATM   14  C   UNL     1      -7.855  14.737  69.725  1.00  0.00     0.112 A  
HETATM   15  N   UNL     1      -7.997  16.339  67.922  1.00  0.00    -0.144 NA 
BRANCH  14  16
HETATM   16  N   UNL     1      -7.495  15.690  70.672  1.00  0.00     1.170 NA 
HETATM   17  C   UNL     1      -5.724  17.155  71.385  1.00  0.00     0.787 C  
HETATM   18  C   UNL     1      -6.368  17.222  72.774  1.00  0.00     4.822 C  
HETATM   19  C   UNL     1      -6.777  16.906  70.305  1.00  0.00     0.865 C  
HETATM   20  C   UNL     1      -8.262  15.779  71.913  1.00  0.00     7.401 C  
HETATM   21  C   UNL     1      -7.264  16.010  73.051  1.00  0.00     9.537 C  
ENDBRANCH  14  16
BRANCH  12  22
HETATM   22  N   UNL     1      -8.282  17.907  66.240  1.00  0.00    -0.423 NA 
BRANCH  22  23
HETATM   23  C   UNL     1      -8.293  18.927  67.294  1.00  0.00    -0.272 C  
BRANCH  23  24
HETATM   24  C   UNL     1      -7.130  19.930  67.188  1.00  0.00    -0.224 C  
HETATM   25  O   UNL     1      -7.319  20.841  66.106  1.00  0.00    -0.492 OA 
HETATM   26  H   UNL     1      -6.601  21.460  66.040  1.00  0.00     0.000 HD 
ENDBRANCH  23  24
ENDBRANCH  22  23
BRANCH  22  27
HETATM   27  C   UNL     1      -7.813  18.265  64.900  1.00  0.00     3.012 C  
BRANCH  27  28
HETATM   28  C   UNL     1      -7.028  17.112  64.245  1.00  0.00     7.993 C  
HETATM   29  O   UNL     1      -5.849  16.794  64.988  1.00  0.00     2.187 OA 
HETATM   30  H   UNL     1      -5.366  16.084  64.584  1.00  0.00     0.000 HD 
ENDBRANCH  27  28
ENDBRANCH  22  27
ENDBRANCH  12  22
BRANCH   7  31
HETATM   31  N   UNL     1      -8.794  13.407  65.198  1.00  0.00     1.656 NA 
HETATM   32  C   UNL     1      -9.995  13.452  64.371  1.00  0.00     0.070 C  
HETATM   33  C   UNL     1      -8.162  12.092  65.319  1.00  0.00     1.411 C  
HETATM   34  C   UNL     1      -9.628  12.994  62.959  1.00  0.00     3.589 C  
HETATM   35  C   UNL     1      -7.761  11.606  63.927  1.00  0.00     2.120 C  
HETATM   36  C   UNL     1      -8.948  11.627  62.964  1.00  0.00     0.077 C  
ENDBRANCH   7  31
ENDBRANCH   5   6
BRANCH   5  37
HETATM   37  C   UNL     1      -9.015  10.209  69.025  1.00  0.00    -0.167 C  
BRANCH  37  38
HETATM   38  C   UNL     1     -10.543  10.376  69.148  1.00  0.00    -0.228 C  
HETATM   39  O   UNL     1     -11.243   9.737  68.081  1.00  0.00    -0.502 OA 
HETATM   40  H   UNL     1     -12.184   9.840  68.158  1.00  0.00     0.000 HD 
ENDBRANCH  37  38
ENDBRANCH   5  37
ENDBRANCH   4   5
ENDBRANCH   3   4
TORSDOF 12
ENDMDL
MODEL      241
REMARK 921   NORMALIZED FREE ENERGY PREDICTED BY IDOCK:   75.87 KCAL/MOL
REMARK 922        TOTAL FREE ENERGY PREDICTED BY IDOCK:  128.18 KCAL/MOL
REMARK 923 INTER-LIGAND FREE ENERGY PREDICTED BY IDOCK:  120.15 KCAL/MOL
REMARK 924 INTRA-LIGAND FREE ENERGY PREDICTED BY IDOCK:    8.03 KCAL/MOL
REMARK 927      BINDING AFFINITY PREDICTED BY RF-SCORE:    0.00 PKD
ROOT
HETATM    1  O   UNL     1      -7.784  13.772  63.619  1.00  0.00    11.278 OA 
HETATM    2  H   UNL     1      -7.660  14.714  63.637  1.00  0.00     0.000 HD 
HETATM    3  C   UNL     1      -8.374  13.337  62.394  1.00  0.00    10.736 C  
ENDROOT
BRANCH   3   4
HETATM    4  C   UNL     1      -8.574  11.805  62.365  1.00  0.00     0.850 C  
BRANCH   4   5
HETATM    5  N   UNL     1      -9.443  11.254  63.426  1.00  0.00    -0.287 NA 
BRANCH   5   6
HETATM    6  C   UNL     1      -9.833  12.156  64.399  1.00  0.00    -0.128 A  
HETATM    7  C   UNL     1      -8.852  15.367  65.827  1.00  0.00     0.333 A  
HETATM    8  N   UNL     1      -9.317  16.266  66.729  1.00  0.00    -0.225 NA 
HETATM    9  N   UNL     1      -9.118  13.261  64.610  1.00  0.00     1.348 NA 
HETATM   10  C   UNL     1      -9.540  14.177  65.524  1.00  0.00    -0.018 A  
HETATM   11  N   UNL     1     -10.941  11.908  65.086  1.00  0.00    -0.306 NA 
HETATM   12  C   UNL     1     -10.438  16.002  67.387  1.00  0.00    -0.308 A  
HETATM   13  C   UNL     1     -10.691  13.990  66.269  1.00  0.00    -0.289 A  
HETATM   14  C   UNL     1     -11.370  12.793  66.007  1.00  0.00    -0.321 A  
HETATM   15  N   UNL     1     -11.104  14.869  67.215  1.00  0.00    -0.327 NA 
BRANCH  14  16
HETATM   16  N   UNL     1     -12.495  12.407  66.727  1.00  0.00    -0.082 NA 
HETATM   17  C   UNL     1     -13.937  13.005  68.558  1.00  0.00    10.082 C  
HETATM   18  C   UNL     1     -14.404  11.547  68.639  1.00  0.00    12.725 C  
HETATM   19  C   UNL     1     -13.516  13.367  67.134  1.00  0.00     5.106 C  
HETATM   20  C   UNL     1     -12.958  11.023  66.628  1.00  0.00     7.444 C  
HETATM   21  C   UNL     1     -13.381  10.582  68.032  1.00  0.00     8.551 C  
ENDBRANCH  14  16
BRANCH  12  22
HETATM   22  N   UNL     1     -10.955  16.925  68.271  1.00  0.00    -0.349 NA 
BRANCH  22  23
HETATM   23  C   UNL     1     -11.042  16.522  69.679  1.00  0.00    -0.235 C  
BRANCH  23  24
HETATM   24  C   UNL     1     -12.305  17.043  70.388  1.00  0.00     3.774 C  
HETATM   25  O   UNL     1     -11.992  18.055  71.344  1.00  0.00     3.938 OA 
HETATM   26  H   UNL     1     -12.772  18.376  71.782  1.00  0.00     0.000 HD 
ENDBRANCH  23  24
ENDBRANCH  22  23
BRANCH  22  27
HETATM   27  C   UNL     1     -10.932  18.350  67.932  1.00  0.00    -0.047 C  
BRANCH  27  28
HETATM   28  C   UNL     1     -10.539  19.216  69.144  1.00  0.00     0.556 C  
HETATM   29  O   UNL     1     -10.678  20.609  68.857  1.00  0.00    -0.079 OA 
HETATM   30  H   UNL     1     -10.436  21.143  69.605  1.00  0.00     0.000 HD 
ENDBRANCH  27  28
ENDBRANCH  22  27
ENDBRANCH  12  22
BRANCH   7  31
HETATM   31  N   UNL     1      -7.666  15.756  65.204  1.00  0.00     4.369 NA 
HETATM   32  C   UNL     1      -7.591  16.138  63.799  1.00  0.00    18.463 C  
HETATM   33  C   UNL     1      -6.416  15.270  65.792  1.00  0.00     6.669 C  
HETATM   34  C   UNL     1      -6.559  17.257  63.655  1.00  0.00     9.861 C  
HETATM   35  C   UNL     1      -5.360  16.369  65.685  1.00  0.00     2.979 C  
HETATM   36  C   UNL     1      -5.208  16.861  64.246  1.00  0.00     4.512 C  
ENDBRANCH   7  31
ENDBRANCH   5   6
BRANCH   5  37
HETATM   37  C   UNL     1      -9.195   9.867  63.843  1.00  0.00    -0.248 C  
BRANCH  37  38
HETATM   38  C   UNL     1      -9.840   9.537  65.204  1.00  0.00    -0.031 C  
HETATM   39  O   UNL     1      -8.963   9.810  66.296  1.00  0.00    -0.146 OA 
HETATM   40  H   UNL     1      -9.361   9.607  67.134  1.00  0.00     0.000 HD 
ENDBRANCH  37  38
ENDBRANCH   5  37
ENDBRANCH   4   5
ENDBRANCH   3   4
TORSDOF 12
ENDMDL
