MODEL        1
REMARK 921   NORMALIZED FREE ENERGY PREDICTED BY IDOCK:   -6.28 KCAL/MOL
REMARK 922        TOTAL FREE ENERGY PREDICTED BY IDOCK:   -7.58 KCAL/MOL
REMARK 923 INTER-LIGAND FREE ENERGY PREDICTED BY IDOCK:   -7.38 KCAL/MOL
REMARK 924 INTRA-LIGAND FREE ENERGY PREDICTED BY IDOCK:   -0.19 KCAL/MOL
REMARK 927      BINDING AFFINITY PREDICTED BY RF-SCORE:    0.00 PKD
ROOT
HETATM    1  O   UNL     1     -12.736  14.722  64.078  1.00  0.00    -0.786 OA 
HETATM    2  N   UNL     1     -12.050  13.671  64.307  1.00  0.00    -0.483 NA 
HETATM    3  C   UNL     1     -12.042  12.661  63.347  1.00  0.00    -0.525 A  
HETATM    4  C   UNL     1     -11.312  11.486  63.513  1.00  0.00    -0.375 A  
HETATM    5  C   UNL     1     -10.565  11.313  64.669  1.00  0.00    -0.392 A  
HETATM    6  C   UNL     1     -10.553  12.311  65.645  1.00  0.00    -0.295 A  
HETATM    7  C   UNL     1     -11.300  13.494  65.479  1.00  0.00    -0.296 A  
ENDROOT
BRANCH   7   8
HETATM    8  S   UNL     1     -11.244  14.792  66.719  1.00  0.00    -0.341 SA 
BRANCH   8   9
HETATM    9  S   UNL     1      -9.406  15.667  66.405  1.00  0.00    -0.327 SA 
BRANCH   9  10
HETATM   10  C   UNL     1      -9.723  17.425  66.578  1.00  0.00    -0.293 A  
HETATM   11  C   UNL     1      -9.112  18.162  67.612  1.00  0.00    -0.260 A  
HETATM   12  C   UNL     1      -9.279  19.543  67.701  1.00  0.00    -0.389 A  
HETATM   13  C   UNL     1     -10.051  20.211  66.760  1.00  0.00    -0.591 A  
HETATM   14  C   UNL     1     -10.655  19.480  65.739  1.00  0.00    -0.427 A  
HETATM   15  N   UNL     1     -10.504  18.100  65.629  1.00  0.00    -0.624 NA 
HETATM   16  O   UNL     1     -11.080  17.501  64.659  1.00  0.00    -0.978 OA 
ENDBRANCH   9  10
ENDBRANCH   8   9
ENDBRANCH   7   8
TORSDOF 3
ENDMDL
MODEL        2
REMARK 921   NORMALIZED FREE ENERGY PREDICTED BY IDOCK:   -6.18 KCAL/MOL
REMARK 922        TOTAL FREE ENERGY PREDICTED BY IDOCK:   -7.45 KCAL/MOL
REMARK 923 INTER-LIGAND FREE ENERGY PREDICTED BY IDOCK:   -7.36 KCAL/MOL
REMARK 924 INTRA-LIGAND FREE ENERGY PREDICTED BY IDOCK:   -0.09 KCAL/MOL
REMARK 927      BINDING AFFINITY PREDICTED BY RF-SCORE:    0.00 PKD
ROOT
HETATM    1  O   UNL     1     -11.004  17.773  64.854  1.00  0.00    -0.866 OA 
HETATM    2  N   UNL     1     -10.374  18.315  65.823  1.00  0.00    -0.618 NA 
HETATM    3  C   UNL     1     -10.611  19.660  66.100  1.00  0.00    -0.483 A  
HETATM    4  C   UNL     1      -9.975  20.325  67.145  1.00  0.00    -0.593 A  
HETATM    5  C   UNL     1      -9.075  19.629  67.939  1.00  0.00    -0.396 A  
HETATM    6  C   UNL     1      -8.821  18.280  67.686  1.00  0.00    -0.261 A  
HETATM    7  C   UNL     1      -9.460  17.612  66.622  1.00  0.00    -0.279 A  
ENDROOT
BRANCH   7   8
HETATM    8  S   UNL     1      -9.162  15.866  66.330  1.00  0.00    -0.360 SA 
BRANCH   8   9
HETATM    9  S   UNL     1     -11.021  15.018  66.592  1.00  0.00    -0.319 SA 
BRANCH   9  10
HETATM   10  C   UNL     1     -11.078  13.701  65.375  1.00  0.00    -0.298 A  
HETATM   11  C   UNL     1     -10.348  12.513  65.575  1.00  0.00    -0.303 A  
HETATM   12  C   UNL     1     -10.455  11.448  64.682  1.00  0.00    -0.373 A  
HETATM   13  C   UNL     1     -11.295  11.548  63.581  1.00  0.00    -0.412 A  
HETATM   14  C   UNL     1     -12.014  12.724  63.384  1.00  0.00    -0.535 A  
HETATM   15  N   UNL     1     -11.924  13.802  64.261  1.00  0.00    -0.433 NA 
HETATM   16  O   UNL     1     -12.623  14.843  64.020  1.00  0.00    -0.832 OA 
ENDBRANCH   9  10
ENDBRANCH   8   9
ENDBRANCH   7   8
TORSDOF 3
ENDMDL
MODEL        3
REMARK 921   NORMALIZED FREE ENERGY PREDICTED BY IDOCK:   -6.06 KCAL/MOL
REMARK 922        TOTAL FREE ENERGY PREDICTED BY IDOCK:   -7.31 KCAL/MOL
REMARK 923 INTER-LIGAND FREE ENERGY PREDICTED BY IDOCK:   -7.11 KCAL/MOL
REMARK 924 INTRA-LIGAND FREE ENERGY PREDICTED BY IDOCK:   -0.20 KCAL/MOL
REMARK 927      BINDING AFFINITY PREDICTED BY RF-SCORE:    0.00 PKD
ROOT
HETATM    1  O   UNL     1     -13.382  14.033  65.116  1.00  0.00    -0.703 OA 
HETATM    2  N   UNL     1     -12.414  13.204  65.042  1.00  0.00    -0.525 NA 
HETATM    3  C   UNL     1     -12.300  12.416  63.899  1.00  0.00    -0.508 A  
HETATM    4  C   UNL     1     -11.268  11.495  63.733  1.00  0.00    -0.456 A  
HETATM    5  C   UNL     1     -10.319  11.357  64.736  1.00  0.00    -0.349 A  
HETATM    6  C   UNL     1     -10.408  12.137  65.890  1.00  0.00    -0.286 A  
HETATM    7  C   UNL     1     -11.459  13.060  66.059  1.00  0.00    -0.335 A  
ENDROOT
BRANCH   7   8
HETATM    8  S   UNL     1     -11.541  14.092  67.527  1.00  0.00    -0.387 SA 
BRANCH   8   9
HETATM    9  S   UNL     1     -11.455  12.730  69.070  1.00  0.00    -0.324 SA 
BRANCH   9  10
HETATM   10  C   UNL     1     -12.359  13.521  70.403  1.00  0.00    -0.327 A  
HETATM   11  C   UNL     1     -12.511  14.921  70.430  1.00  0.00    -0.403 A  
HETATM   12  C   UNL     1     -13.287  15.538  71.410  1.00  0.00    -0.592 A  
HETATM   13  C   UNL     1     -13.927  14.770  72.373  1.00  0.00    -0.575 A  
HETATM   14  C   UNL     1     -13.775  13.385  72.345  1.00  0.00    -0.597 A  
HETATM   15  N   UNL     1     -13.004  12.745  71.377  1.00  0.00    -0.329 NA 
HETATM   16  O   UNL     1     -12.921  11.471  71.411  1.00  0.00    -0.412 OA 
ENDBRANCH   9  10
ENDBRANCH   8   9
ENDBRANCH   7   8
TORSDOF 3
ENDMDL
MODEL        4
REMARK 921   NORMALIZED FREE ENERGY PREDICTED BY IDOCK:   -6.05 KCAL/MOL
REMARK 922        TOTAL FREE ENERGY PREDICTED BY IDOCK:   -7.30 KCAL/MOL
REMARK 923 INTER-LIGAND FREE ENERGY PREDICTED BY IDOCK:   -7.09 KCAL/MOL
REMARK 924 INTRA-LIGAND FREE ENERGY PREDICTED BY IDOCK:   -0.21 KCAL/MOL
REMARK 927      BINDING AFFINITY PREDICTED BY RF-SCORE:    0.00 PKD
ROOT
HETATM    1  O   UNL     1     -12.649  14.847  64.078  1.00  0.00    -0.832 OA 
HETATM    2  N   UNL     1     -11.917  13.824  64.291  1.00  0.00    -0.433 NA 
HETATM    3  C   UNL     1     -11.927  12.792  63.355  1.00  0.00    -0.535 A  
HETATM    4  C   UNL     1     -11.150  11.646  63.505  1.00  0.00    -0.476 A  
HETATM    5  C   UNL     1     -10.336  11.525  64.622  1.00  0.00    -0.349 A  
HETATM    6  C   UNL     1     -10.305  12.544  65.574  1.00  0.00    -0.303 A  
HETATM    7  C   UNL     1     -11.099  13.698  65.425  1.00  0.00    -0.298 A  
ENDROOT
BRANCH   7   8
HETATM    8  S   UNL     1     -11.019  15.026  66.631  1.00  0.00    -0.319 SA 
BRANCH   8   9
HETATM    9  S   UNL     1      -9.162  15.853  66.303  1.00  0.00    -0.360 SA 
BRANCH   9  10
HETATM   10  C   UNL     1      -9.431  17.619  66.485  1.00  0.00    -0.283 A  
HETATM   11  C   UNL     1     -10.577  18.101  67.146  1.00  0.00    -0.362 A  
HETATM   12  C   UNL     1     -10.751  19.465  67.373  1.00  0.00    -0.594 A  
HETATM   13  C   UNL     1      -9.785  20.368  66.950  1.00  0.00    -0.567 A  
HETATM   14  C   UNL     1      -8.653  19.889  66.295  1.00  0.00    -0.337 A  
HETATM   15  N   UNL     1      -8.456  18.531  66.056  1.00  0.00    -0.501 NA 
HETATM   16  O   UNL     1      -7.387  18.167  65.458  1.00  0.00    -0.543 OA 
ENDBRANCH   9  10
ENDBRANCH   8   9
ENDBRANCH   7   8
TORSDOF 3
ENDMDL
MODEL        5
REMARK 921   NORMALIZED FREE ENERGY PREDICTED BY IDOCK:   -6.02 KCAL/MOL
REMARK 922        TOTAL FREE ENERGY PREDICTED BY IDOCK:   -7.27 KCAL/MOL
REMARK 923 INTER-LIGAND FREE ENERGY PREDICTED BY IDOCK:   -6.85 KCAL/MOL
REMARK 924 INTRA-LIGAND FREE ENERGY PREDICTED BY IDOCK:   -0.42 KCAL/MOL
REMARK 927      BINDING AFFINITY PREDICTED BY RF-SCORE:    0.00 PKD
ROOT
HETATM    1  O   UNL     1     -11.177  16.959  64.307  1.00  0.00    -1.204 OA 
HETATM    2  N   UNL     1     -10.634  17.208  65.435  1.00  0.00    -0.626 NA 
HETATM    3  C   UNL     1     -10.644  18.520  65.903  1.00  0.00    -0.300 A  
HETATM    4  C   UNL     1     -10.084  18.875  67.127  1.00  0.00    -0.414 A  
HETATM    5  C   UNL     1      -9.497  17.892  67.911  1.00  0.00    -0.272 A  
HETATM    6  C   UNL     1      -9.475  16.569  67.467  1.00  0.00    -0.224 A  
HETATM    7  C   UNL     1     -10.034  16.214  66.223  1.00  0.00    -0.317 A  
ENDROOT
BRANCH   7   8
HETATM    8  S   UNL     1     -10.043  14.503  65.680  1.00  0.00    -0.363 SA 
BRANCH   8   9
HETATM    9  S   UNL     1     -11.984  13.906  66.024  1.00  0.00    -0.436 SA 
BRANCH   9  10
HETATM   10  C   UNL     1     -11.961  13.293  67.711  1.00  0.00    -0.314 A  
HETATM   11  C   UNL     1     -12.117  14.180  68.793  1.00  0.00    -0.326 A  
HETATM   12  C   UNL     1     -12.192  13.705  70.102  1.00  0.00    -0.413 A  
HETATM   13  C   UNL     1     -12.119  12.342  70.351  1.00  0.00    -0.385 A  
HETATM   14  C   UNL     1     -11.963  11.466  69.278  1.00  0.00    -0.332 A  
HETATM   15  N   UNL     1     -11.885  11.916  67.962  1.00  0.00    -0.526 NA 
HETATM   16  O   UNL     1     -11.753  11.051  67.031  1.00  0.00    -0.399 OA 
ENDBRANCH   9  10
ENDBRANCH   8   9
ENDBRANCH   7   8
TORSDOF 3
ENDMDL
MODEL        6
REMARK 921   NORMALIZED FREE ENERGY PREDICTED BY IDOCK:   -6.00 KCAL/MOL
REMARK 922        TOTAL FREE ENERGY PREDICTED BY IDOCK:   -7.24 KCAL/MOL
REMARK 923 INTER-LIGAND FREE ENERGY PREDICTED BY IDOCK:   -6.94 KCAL/MOL
REMARK 924 INTRA-LIGAND FREE ENERGY PREDICTED BY IDOCK:   -0.31 KCAL/MOL
REMARK 927      BINDING AFFINITY PREDICTED BY RF-SCORE:    0.00 PKD
ROOT
HETATM    1  O   UNL     1     -11.722  11.287  66.573  1.00  0.00    -0.323 OA 
HETATM    2  N   UNL     1     -11.846  11.886  67.693  1.00  0.00    -0.583 NA 
HETATM    3  C   UNL     1     -11.786  11.130  68.861  1.00  0.00    -0.337 A  
HETATM    4  C   UNL     1     -11.901  11.706  70.124  1.00  0.00    -0.428 A  
HETATM    5  C   UNL     1     -12.079  13.078  70.226  1.00  0.00    -0.388 A  
HETATM    6  C   UNL     1     -12.140  13.860  69.071  1.00  0.00    -0.365 A  
HETATM    7  C   UNL     1     -12.033  13.273  67.795  1.00  0.00    -0.314 A  
ENDROOT
BRANCH   7   8
HETATM    8  S   UNL     1     -12.067  14.290  66.316  1.00  0.00    -0.382 SA 
BRANCH   8   9
HETATM    9  S   UNL     1     -10.133  14.985  66.174  1.00  0.00    -0.315 SA 
BRANCH   9  10
HETATM   10  C   UNL     1     -10.274  16.743  66.507  1.00  0.00    -0.316 A  
HETATM   11  C   UNL     1      -9.820  17.276  67.730  1.00  0.00    -0.281 A  
HETATM   12  C   UNL     1      -9.841  18.650  67.964  1.00  0.00    -0.378 A  
HETATM   13  C   UNL     1     -10.308  19.513  66.982  1.00  0.00    -0.568 A  
HETATM   14  C   UNL     1     -10.758  18.984  65.774  1.00  0.00    -0.276 A  
HETATM   15  N   UNL     1     -10.748  17.615  65.517  1.00  0.00    -0.544 NA 
HETATM   16  O   UNL     1     -11.167  17.207  64.381  1.00  0.00    -1.143 OA 
ENDBRANCH   9  10
ENDBRANCH   8   9
ENDBRANCH   7   8
TORSDOF 3
ENDMDL
MODEL        7
REMARK 921   NORMALIZED FREE ENERGY PREDICTED BY IDOCK:   -5.99 KCAL/MOL
REMARK 922        TOTAL FREE ENERGY PREDICTED BY IDOCK:   -7.23 KCAL/MOL
REMARK 923 INTER-LIGAND FREE ENERGY PREDICTED BY IDOCK:   -6.94 KCAL/MOL
REMARK 924 INTRA-LIGAND FREE ENERGY PREDICTED BY IDOCK:   -0.29 KCAL/MOL
REMARK 927      BINDING AFFINITY PREDICTED BY RF-SCORE:    0.00 PKD
ROOT
HETATM    1  O   UNL     1     -10.750  17.456  65.239  1.00  0.00    -0.646 OA 
HETATM    2  N   UNL     1     -10.453  18.160  66.261  1.00  0.00    -0.388 NA 
HETATM    3  C   UNL     1     -10.090  19.492  66.068  1.00  0.00    -0.436 A  
HETATM    4  C   UNL     1      -9.761  20.332  67.128  1.00  0.00    -0.592 A  
HETATM    5  C   UNL     1      -9.797  19.832  68.422  1.00  0.00    -0.522 A  
HETATM    6  C   UNL     1     -10.159  18.502  68.644  1.00  0.00    -0.406 A  
HETATM    7  C   UNL     1     -10.482  17.652  67.568  1.00  0.00    -0.365 A  
ENDROOT
BRANCH   7   8
HETATM    8  S   UNL     1     -10.991  15.955  67.865  1.00  0.00    -0.310 SA 
BRANCH   8   9
HETATM    9  S   UNL     1     -10.042  15.477  69.630  1.00  0.00    -0.288 SA 
BRANCH   9  10
HETATM   10  C   UNL     1     -11.384  15.139  70.772  1.00  0.00    -0.304 A  
HETATM   11  C   UNL     1     -11.739  16.083  71.755  1.00  0.00    -0.593 A  
HETATM   12  C   UNL     1     -12.837  15.871  72.588  1.00  0.00    -0.548 A  
HETATM   13  C   UNL     1     -13.599  14.720  72.450  1.00  0.00    -0.550 A  
HETATM   14  C   UNL     1     -13.246  13.786  71.478  1.00  0.00    -0.341 A  
HETATM   15  N   UNL     1     -12.154  13.975  70.634  1.00  0.00    -0.346 NA 
HETATM   16  O   UNL     1     -11.899  13.079  69.760  1.00  0.00    -0.308 OA 
ENDBRANCH   9  10
ENDBRANCH   8   9
ENDBRANCH   7   8
TORSDOF 3
ENDMDL
MODEL        8
REMARK 921   NORMALIZED FREE ENERGY PREDICTED BY IDOCK:   -5.94 KCAL/MOL
REMARK 922        TOTAL FREE ENERGY PREDICTED BY IDOCK:   -7.18 KCAL/MOL
REMARK 923 INTER-LIGAND FREE ENERGY PREDICTED BY IDOCK:   -6.99 KCAL/MOL
REMARK 924 INTRA-LIGAND FREE ENERGY PREDICTED BY IDOCK:   -0.19 KCAL/MOL
REMARK 927      BINDING AFFINITY PREDICTED BY RF-SCORE:    0.00 PKD
ROOT
HETATM    1  O   UNL     1     -12.570  11.477  71.066  1.00  0.00    -0.383 OA 
HETATM    2  N   UNL     1     -12.767  12.736  71.141  1.00  0.00    -0.328 NA 
HETATM    3  C   UNL     1     -13.512  13.229  72.210  1.00  0.00    -0.582 A  
HETATM    4  C   UNL     1     -13.765  14.589  72.374  1.00  0.00    -0.583 A  
HETATM    5  C   UNL     1     -13.258  15.486  71.444  1.00  0.00    -0.587 A  
HETATM    6  C   UNL     1     -12.506  15.019  70.365  1.00  0.00    -0.407 A  
HETATM    7  C   UNL     1     -12.261  13.642  70.197  1.00  0.00    -0.342 A  
ENDROOT
BRANCH   7   8
HETATM    8  S   UNL     1     -11.255  13.053  68.831  1.00  0.00    -0.281 SA 
BRANCH   8   9
HETATM    9  S   UNL     1     -11.877  14.215  67.248  1.00  0.00    -0.420 SA 
BRANCH   9  10
HETATM   10  C   UNL     1     -11.532  13.208  65.803  1.00  0.00    -0.325 A  
HETATM   11  C   UNL     1     -10.812  12.003  65.929  1.00  0.00    -0.329 A  
HETATM   12  C   UNL     1     -10.617  11.168  64.829  1.00  0.00    -0.371 A  
HETATM   13  C   UNL     1     -11.139  11.518  63.592  1.00  0.00    -0.469 A  
HETATM   14  C   UNL     1     -11.849  12.711  63.469  1.00  0.00    -0.541 A  
HETATM   15  N   UNL     1     -12.057  13.562  64.552  1.00  0.00    -0.403 NA 
HETATM   16  O   UNL     1     -12.727  14.632  64.364  1.00  0.00    -0.636 OA 
ENDBRANCH   9  10
ENDBRANCH   8   9
ENDBRANCH   7   8
TORSDOF 3
ENDMDL
MODEL        9
REMARK 921   NORMALIZED FREE ENERGY PREDICTED BY IDOCK:   -5.86 KCAL/MOL
REMARK 922        TOTAL FREE ENERGY PREDICTED BY IDOCK:   -7.08 KCAL/MOL
REMARK 923 INTER-LIGAND FREE ENERGY PREDICTED BY IDOCK:   -6.91 KCAL/MOL
REMARK 924 INTRA-LIGAND FREE ENERGY PREDICTED BY IDOCK:   -0.17 KCAL/MOL
REMARK 927      BINDING AFFINITY PREDICTED BY RF-SCORE:    0.00 PKD
ROOT
HETATM    1  O   UNL     1     -10.979  17.492  64.781  1.00  0.00    -0.950 OA 
HETATM    2  N   UNL     1     -10.650  18.112  65.847  1.00  0.00    -0.494 NA 
HETATM    3  C   UNL     1     -10.458  19.490  65.783  1.00  0.00    -0.425 A  
HETATM    4  C   UNL     1     -10.109  20.244  66.900  1.00  0.00    -0.565 A  
HETATM    5  C   UNL     1      -9.948  19.605  68.121  1.00  0.00    -0.547 A  
HETATM    6  C   UNL     1     -10.136  18.225  68.215  1.00  0.00    -0.406 A  
HETATM    7  C   UNL     1     -10.480  17.464  67.080  1.00  0.00    -0.305 A  
ENDROOT
BRANCH   7   8
HETATM    8  S   UNL     1     -10.765  15.696  67.218  1.00  0.00    -0.297 SA 
BRANCH   8   9
HETATM    9  S   UNL     1     -11.660  15.502  69.063  1.00  0.00    -0.377 SA 
BRANCH   9  10
HETATM   10  C   UNL     1     -11.863  13.731  69.268  1.00  0.00    -0.344 A  
HETATM   11  C   UNL     1     -11.621  12.857  68.190  1.00  0.00    -0.378 A  
HETATM   12  C   UNL     1     -11.687  11.474  68.361  1.00  0.00    -0.372 A  
HETATM   13  C   UNL     1     -11.988  10.944  69.608  1.00  0.00    -0.414 A  
HETATM   14  C   UNL     1     -12.228  11.811  70.672  1.00  0.00    -0.349 A  
HETATM   15  N   UNL     1     -12.169  13.195  70.526  1.00  0.00    -0.361 NA 
HETATM   16  O   UNL     1     -12.390  13.924  71.551  1.00  0.00    -0.323 OA 
ENDBRANCH   9  10
ENDBRANCH   8   9
ENDBRANCH   7   8
TORSDOF 3
ENDMDL
MODEL       10
REMARK 921   NORMALIZED FREE ENERGY PREDICTED BY IDOCK:   -5.83 KCAL/MOL
REMARK 922        TOTAL FREE ENERGY PREDICTED BY IDOCK:   -7.04 KCAL/MOL
REMARK 923 INTER-LIGAND FREE ENERGY PREDICTED BY IDOCK:   -6.76 KCAL/MOL
REMARK 924 INTRA-LIGAND FREE ENERGY PREDICTED BY IDOCK:   -0.29 KCAL/MOL
REMARK 927      BINDING AFFINITY PREDICTED BY RF-SCORE:    0.00 PKD
ROOT
HETATM    1  O   UNL     1     -10.145  12.027  66.777  1.00  0.00    -0.201 OA 
HETATM    2  N   UNL     1     -10.813  12.420  65.762  1.00  0.00    -0.268 NA 
HETATM    3  C   UNL     1     -10.964  11.545  64.688  1.00  0.00    -0.288 A  
HETATM    4  C   UNL     1     -11.686  11.890  63.548  1.00  0.00    -0.550 A  
HETATM    5  C   UNL     1     -12.276  13.143  63.476  1.00  0.00    -0.552 A  
HETATM    6  C   UNL     1     -12.142  14.038  64.539  1.00  0.00    -0.484 A  
HETATM    7  C   UNL     1     -11.404  13.690  65.687  1.00  0.00    -0.299 A  
ENDROOT
BRANCH   7   8
HETATM    8  S   UNL     1     -11.274  14.829  67.070  1.00  0.00    -0.349 SA 
BRANCH   8   9
HETATM    9  S   UNL     1      -9.458  15.750  66.757  1.00  0.00    -0.256 SA 
BRANCH   9  10
HETATM   10  C   UNL     1      -9.840  17.503  66.821  1.00  0.00    -0.306 A  
HETATM   11  C   UNL     1      -9.399  18.288  67.904  1.00  0.00    -0.284 A  
HETATM   12  C   UNL     1      -9.611  19.667  67.921  1.00  0.00    -0.459 A  
HETATM   13  C   UNL     1     -10.258  20.282  66.859  1.00  0.00    -0.504 A  
HETATM   14  C   UNL     1     -10.694  19.502  65.789  1.00  0.00    -0.393 A  
HETATM   15  N   UNL     1     -10.496  18.124  65.749  1.00  0.00    -0.613 NA 
HETATM   16  O   UNL     1     -10.915  17.479  64.730  1.00  0.00    -0.950 OA 
ENDBRANCH   9  10
ENDBRANCH   8   9
ENDBRANCH   7   8
TORSDOF 3
ENDMDL
MODEL       11
REMARK 921   NORMALIZED FREE ENERGY PREDICTED BY IDOCK:   -5.70 KCAL/MOL
REMARK 922        TOTAL FREE ENERGY PREDICTED BY IDOCK:   -6.90 KCAL/MOL
REMARK 923 INTER-LIGAND FREE ENERGY PREDICTED BY IDOCK:   -6.57 KCAL/MOL
REMARK 924 INTRA-LIGAND FREE ENERGY PREDICTED BY IDOCK:   -0.33 KCAL/MOL
REMARK 927      BINDING AFFINITY PREDICTED BY RF-SCORE:    0.00 PKD
ROOT
HETATM    1  O   UNL     1     -12.592  14.385  63.934  1.00  0.00    -0.814 OA 
HETATM    2  N   UNL     1     -11.938  13.359  64.320  1.00  0.00    -0.410 NA 
HETATM    3  C   UNL     1     -11.447  12.483  63.355  1.00  0.00    -0.452 A  
HETATM    4  C   UNL     1     -10.714  11.347  63.689  1.00  0.00    -0.470 A  
HETATM    5  C   UNL     1     -10.462  11.076  65.026  1.00  0.00    -0.344 A  
HETATM    6  C   UNL     1     -10.940  11.939  66.013  1.00  0.00    -0.355 A  
HETATM    7  C   UNL     1     -11.689  13.082  65.672  1.00  0.00    -0.375 A  
ENDROOT
BRANCH   7   8
HETATM    8  S   UNL     1     -12.261  14.212  66.945  1.00  0.00    -0.253 SA 
BRANCH   8   9
HETATM    9  S   UNL     1     -10.917  13.919  68.479  1.00  0.00    -0.268 SA 
BRANCH   9  10
HETATM   10  C   UNL     1     -11.904  13.199  69.794  1.00  0.00    -0.316 A  
HETATM   11  C   UNL     1     -11.952  11.801  69.965  1.00  0.00    -0.421 A  
HETATM   12  C   UNL     1     -12.641  11.235  71.037  1.00  0.00    -0.495 A  
HETATM   13  C   UNL     1     -13.285  12.051  71.956  1.00  0.00    -0.481 A  
HETATM   14  C   UNL     1     -13.238  13.433  71.784  1.00  0.00    -0.407 A  
HETATM   15  N   UNL     1     -12.557  14.023  70.721  1.00  0.00    -0.349 NA 
HETATM   16  O   UNL     1     -12.549  15.297  70.636  1.00  0.00    -0.363 OA 
ENDBRANCH   9  10
ENDBRANCH   8   9
ENDBRANCH   7   8
TORSDOF 3
ENDMDL
MODEL       12
REMARK 921   NORMALIZED FREE ENERGY PREDICTED BY IDOCK:   -5.63 KCAL/MOL
REMARK 922        TOTAL FREE ENERGY PREDICTED BY IDOCK:   -6.82 KCAL/MOL
REMARK 923 INTER-LIGAND FREE ENERGY PREDICTED BY IDOCK:   -6.63 KCAL/MOL
REMARK 924 INTRA-LIGAND FREE ENERGY PREDICTED BY IDOCK:   -0.19 KCAL/MOL
REMARK 927      BINDING AFFINITY PREDICTED BY RF-SCORE:    0.00 PKD
ROOT
HETATM    1  O   UNL     1      -9.223  12.544  66.496  1.00  0.00    -0.232 OA 
HETATM    2  N   UNL     1     -10.208  12.491  65.686  1.00  0.00    -0.265 NA 
HETATM    3  C   UNL     1     -10.068  11.745  64.518  1.00  0.00    -0.274 A  
HETATM    4  C   UNL     1     -11.096  11.625  63.586  1.00  0.00    -0.506 A  
HETATM    5  C   UNL     1     -12.301  12.268  63.826  1.00  0.00    -0.637 A  
HETATM    6  C   UNL     1     -12.470  13.021  64.990  1.00  0.00    -0.534 A  
HETATM    7  C   UNL     1     -11.424  13.147  65.926  1.00  0.00    -0.333 A  
ENDROOT
BRANCH   7   8
HETATM    8  S   UNL     1     -11.664  14.079  67.442  1.00  0.00    -0.408 SA 
BRANCH   8   9
HETATM    9  S   UNL     1     -11.775  12.615  68.886  1.00  0.00    -0.321 SA 
BRANCH   9  10
HETATM   10  C   UNL     1     -12.451  13.461  70.317  1.00  0.00    -0.215 A  
HETATM   11  C   UNL     1     -12.498  14.869  70.357  1.00  0.00    -0.403 A  
HETATM   12  C   UNL     1     -13.103  15.535  71.422  1.00  0.00    -0.580 A  
HETATM   13  C   UNL     1     -13.673  14.810  72.459  1.00  0.00    -0.572 A  
HETATM   14  C   UNL     1     -13.624  13.418  72.419  1.00  0.00    -0.606 A  
HETATM   15  N   UNL     1     -13.025  12.730  71.367  1.00  0.00    -0.329 NA 
HETATM   16  O   UNL     1     -13.029  11.453  71.395  1.00  0.00    -0.412 OA 
ENDBRANCH   9  10
ENDBRANCH   8   9
ENDBRANCH   7   8
TORSDOF 3
ENDMDL
MODEL       13
REMARK 921   NORMALIZED FREE ENERGY PREDICTED BY IDOCK:   -5.60 KCAL/MOL
REMARK 922        TOTAL FREE ENERGY PREDICTED BY IDOCK:   -6.78 KCAL/MOL
REMARK 923 INTER-LIGAND FREE ENERGY PREDICTED BY IDOCK:   -6.55 KCAL/MOL
REMARK 924 INTRA-LIGAND FREE ENERGY PREDICTED BY IDOCK:   -0.23 KCAL/MOL
REMARK 927      BINDING AFFINITY PREDICTED BY RF-SCORE:    0.00 PKD
ROOT
HETATM    1  O   UNL     1     -12.153  11.568  68.445  1.00  0.00    -0.556 OA 
HETATM    2  N   UNL     1     -11.423  11.090  67.514  1.00  0.00    -0.515 NA 
HETATM    3  C   UNL     1     -10.765   9.882  67.739  1.00  0.00    -0.277 A  
HETATM    4  C   UNL     1      -9.958   9.286  66.773  1.00  0.00    -0.312 A  
HETATM    5  C   UNL     1      -9.802   9.912  65.545  1.00  0.00    -0.381 A  
HETATM    6  C   UNL     1     -10.451  11.121  65.292  1.00  0.00    -0.326 A  
HETATM    7  C   UNL     1     -11.260  11.726  66.274  1.00  0.00    -0.312 A  
ENDROOT
BRANCH   7   8
HETATM    8  S   UNL     1     -12.128  13.259  65.925  1.00  0.00    -0.447 SA 
BRANCH   8   9
HETATM    9  S   UNL     1     -10.791  14.307  64.760  1.00  0.00    -0.382 SA 
BRANCH   9  10
HETATM   10  C   UNL     1     -10.467  15.801  65.700  1.00  0.00    -0.383 A  
HETATM   11  C   UNL     1      -9.753  15.739  66.912  1.00  0.00    -0.240 A  
HETATM   12  C   UNL     1      -9.417  16.902  67.605  1.00  0.00    -0.241 A  
HETATM   13  C   UNL     1      -9.782  18.141  67.098  1.00  0.00    -0.301 A  
HETATM   14  C   UNL     1     -10.490  18.200  65.899  1.00  0.00    -0.283 A  
HETATM   15  N   UNL     1     -10.838  17.053  65.189  1.00  0.00    -0.601 NA 
HETATM   16  O   UNL     1     -11.479  17.188  64.093  1.00  0.00    -0.993 OA 
ENDBRANCH   9  10
ENDBRANCH   8   9
ENDBRANCH   7   8
TORSDOF 3
ENDMDL
MODEL       14
REMARK 921   NORMALIZED FREE ENERGY PREDICTED BY IDOCK:   -5.60 KCAL/MOL
REMARK 922        TOTAL FREE ENERGY PREDICTED BY IDOCK:   -6.77 KCAL/MOL
REMARK 923 INTER-LIGAND FREE ENERGY PREDICTED BY IDOCK:   -6.53 KCAL/MOL
REMARK 924 INTRA-LIGAND FREE ENERGY PREDICTED BY IDOCK:   -0.24 KCAL/MOL
REMARK 927      BINDING AFFINITY PREDICTED BY RF-SCORE:    0.00 PKD
ROOT
HETATM    1  O   UNL     1      -7.359  18.193  65.451  1.00  0.00    -0.520 OA 
HETATM    2  N   UNL     1      -8.428  18.490  66.081  1.00  0.00    -0.479 NA 
HETATM    3  C   UNL     1      -8.719  19.835  66.301  1.00  0.00    -0.363 A  
HETATM    4  C   UNL     1      -9.868  20.245  66.970  1.00  0.00    -0.607 A  
HETATM    5  C   UNL     1     -10.758  19.287  67.434  1.00  0.00    -0.594 A  
HETATM    6  C   UNL     1     -10.492  17.932  67.226  1.00  0.00    -0.373 A  
HETATM    7  C   UNL     1      -9.323  17.520  66.557  1.00  0.00    -0.265 A  
ENDROOT
BRANCH   7   8
HETATM    8  S   UNL     1      -9.011  15.778  66.253  1.00  0.00    -0.342 SA 
BRANCH   8   9
HETATM    9  S   UNL     1     -10.768  14.873  66.835  1.00  0.00    -0.314 SA 
BRANCH   9  10
HETATM   10  C   UNL     1     -11.055  13.624  65.578  1.00  0.00    -0.295 A  
HETATM   11  C   UNL     1     -11.912  13.889  64.493  1.00  0.00    -0.464 A  
HETATM   12  C   UNL     1     -12.072  12.962  63.464  1.00  0.00    -0.633 A  
HETATM   13  C   UNL     1     -11.377  11.761  63.499  1.00  0.00    -0.496 A  
HETATM   14  C   UNL     1     -10.531  11.500  64.575  1.00  0.00    -0.314 A  
HETATM   15  N   UNL     1     -10.355  12.409  65.615  1.00  0.00    -0.253 NA 
HETATM   16  O   UNL     1      -9.554  12.104  66.561  1.00  0.00    -0.216 OA 
ENDBRANCH   9  10
ENDBRANCH   8   9
ENDBRANCH   7   8
TORSDOF 3
ENDMDL
MODEL       15
REMARK 921   NORMALIZED FREE ENERGY PREDICTED BY IDOCK:   -5.58 KCAL/MOL
REMARK 922        TOTAL FREE ENERGY PREDICTED BY IDOCK:   -6.75 KCAL/MOL
REMARK 923 INTER-LIGAND FREE ENERGY PREDICTED BY IDOCK:   -6.49 KCAL/MOL
REMARK 924 INTRA-LIGAND FREE ENERGY PREDICTED BY IDOCK:   -0.26 KCAL/MOL
REMARK 927      BINDING AFFINITY PREDICTED BY RF-SCORE:    0.00 PKD
ROOT
HETATM    1  O   UNL     1     -12.996  11.363  71.701  1.00  0.00    -0.448 OA 
HETATM    2  N   UNL     1     -13.071  12.623  71.510  1.00  0.00    -0.342 NA 
HETATM    3  C   UNL     1     -13.760  13.397  72.442  1.00  0.00    -0.597 A  
HETATM    4  C   UNL     1     -13.880  14.778  72.315  1.00  0.00    -0.590 A  
HETATM    5  C   UNL     1     -13.295  15.409  71.227  1.00  0.00    -0.598 A  
HETATM    6  C   UNL     1     -12.596  14.659  70.280  1.00  0.00    -0.370 A  
HETATM    7  C   UNL     1     -12.484  13.260  70.406  1.00  0.00    -0.225 A  
ENDROOT
BRANCH   7   8
HETATM    8  S   UNL     1     -11.546  12.307  69.208  1.00  0.00    -0.330 SA 
BRANCH   8   9
HETATM    9  S   UNL     1     -10.433  13.738  68.230  1.00  0.00    -0.252 SA 
BRANCH   9  10
HETATM   10  C   UNL     1     -11.130  13.781  66.577  1.00  0.00    -0.306 A  
HETATM   11  C   UNL     1     -11.805  12.659  66.059  1.00  0.00    -0.492 A  
HETATM   12  C   UNL     1     -12.429  12.712  64.812  1.00  0.00    -0.555 A  
HETATM   13  C   UNL     1     -12.394  13.883  64.069  1.00  0.00    -0.355 A  
HETATM   14  C   UNL     1     -11.725  14.991  64.583  1.00  0.00    -0.382 A  
HETATM   15  N   UNL     1     -11.094  14.964  65.824  1.00  0.00    -0.337 NA 
HETATM   16  O   UNL     1     -10.510  16.023  66.233  1.00  0.00    -0.307 OA 
ENDBRANCH   9  10
ENDBRANCH   8   9
ENDBRANCH   7   8
TORSDOF 3
ENDMDL
MODEL       16
REMARK 921   NORMALIZED FREE ENERGY PREDICTED BY IDOCK:   -5.57 KCAL/MOL
REMARK 922        TOTAL FREE ENERGY PREDICTED BY IDOCK:   -6.74 KCAL/MOL
REMARK 923 INTER-LIGAND FREE ENERGY PREDICTED BY IDOCK:   -6.40 KCAL/MOL
REMARK 924 INTRA-LIGAND FREE ENERGY PREDICTED BY IDOCK:   -0.34 KCAL/MOL
REMARK 927      BINDING AFFINITY PREDICTED BY RF-SCORE:    0.00 PKD
ROOT
HETATM    1  O   UNL     1     -11.799  12.001  66.656  1.00  0.00    -0.583 OA 
HETATM    2  N   UNL     1     -11.764  12.723  67.708  1.00  0.00    -0.351 NA 
HETATM    3  C   UNL     1     -12.007  12.116  68.939  1.00  0.00    -0.242 A  
HETATM    4  C   UNL     1     -11.978  12.828  70.135  1.00  0.00    -0.371 A  
HETATM    5  C   UNL     1     -11.695  14.186  70.106  1.00  0.00    -0.350 A  
HETATM    6  C   UNL     1     -11.444  14.818  68.887  1.00  0.00    -0.321 A  
HETATM    7  C   UNL     1     -11.484  14.097  67.677  1.00  0.00    -0.338 A  
ENDROOT
BRANCH   7   8
HETATM    8  S   UNL     1     -11.116  14.908  66.117  1.00  0.00    -0.323 SA 
BRANCH   8   9
HETATM    9  S   UNL     1      -9.217  15.653  66.407  1.00  0.00    -0.336 SA 
BRANCH   9  10
HETATM   10  C   UNL     1      -9.452  17.430  66.492  1.00  0.00    -0.273 A  
HETATM   11  C   UNL     1     -10.606  17.968  67.094  1.00  0.00    -0.337 A  
HETATM   12  C   UNL     1     -10.757  19.346  67.247  1.00  0.00    -0.603 A  
HETATM   13  C   UNL     1      -9.759  20.205  66.810  1.00  0.00    -0.577 A  
HETATM   14  C   UNL     1      -8.618  19.671  66.214  1.00  0.00    -0.366 A  
HETATM   15  N   UNL     1      -8.445  18.299  66.049  1.00  0.00    -0.511 NA 
HETATM   16  O   UNL     1      -7.367  17.883  65.503  1.00  0.00    -0.522 OA 
ENDBRANCH   9  10
ENDBRANCH   8   9
ENDBRANCH   7   8
TORSDOF 3
ENDMDL
MODEL       17
REMARK 921   NORMALIZED FREE ENERGY PREDICTED BY IDOCK:   -5.55 KCAL/MOL
REMARK 922        TOTAL FREE ENERGY PREDICTED BY IDOCK:   -6.72 KCAL/MOL
REMARK 923 INTER-LIGAND FREE ENERGY PREDICTED BY IDOCK:   -6.55 KCAL/MOL
REMARK 924 INTRA-LIGAND FREE ENERGY PREDICTED BY IDOCK:   -0.17 KCAL/MOL
REMARK 927      BINDING AFFINITY PREDICTED BY RF-SCORE:    0.00 PKD
ROOT
HETATM    1  O   UNL     1     -12.734  13.835  71.370  1.00  0.00    -0.345 OA 
HETATM    2  N   UNL     1     -12.209  13.148  70.432  1.00  0.00    -0.345 NA 
HETATM    3  C   UNL     1     -12.109  11.768  70.595  1.00  0.00    -0.311 A  
HETATM    4  C   UNL     1     -11.559  10.943  69.617  1.00  0.00    -0.394 A  
HETATM    5  C   UNL     1     -11.095  11.511  68.439  1.00  0.00    -0.288 A  
HETATM    6  C   UNL     1     -11.185  12.891  68.249  1.00  0.00    -0.304 A  
HETATM    7  C   UNL     1     -11.733  13.724  69.244  1.00  0.00    -0.327 A  
ENDROOT
BRANCH   7   8
HETATM    8  S   UNL     1     -11.886  15.492  68.974  1.00  0.00    -0.316 SA 
BRANCH   8   9
HETATM    9  S   UNL     1     -10.733  15.817  67.298  1.00  0.00    -0.295 SA 
BRANCH   9  10
HETATM   10  C   UNL     1     -10.507  17.597  67.261  1.00  0.00    -0.338 A  
HETATM   11  C   UNL     1     -10.143  18.294  68.430  1.00  0.00    -0.412 A  
HETATM   12  C   UNL     1      -9.876  19.662  68.393  1.00  0.00    -0.531 A  
HETATM   13  C   UNL     1      -9.962  20.354  67.193  1.00  0.00    -0.568 A  
HETATM   14  C   UNL     1     -10.323  19.663  66.038  1.00  0.00    -0.523 A  
HETATM   15  N   UNL     1     -10.596  18.297  66.049  1.00  0.00    -0.437 NA 
HETATM   16  O   UNL     1     -10.910  17.731  64.948  1.00  0.00    -0.815 OA 
ENDBRANCH   9  10
ENDBRANCH   8   9
ENDBRANCH   7   8
TORSDOF 3
ENDMDL
MODEL       18
REMARK 921   NORMALIZED FREE ENERGY PREDICTED BY IDOCK:   -5.54 KCAL/MOL
REMARK 922        TOTAL FREE ENERGY PREDICTED BY IDOCK:   -6.70 KCAL/MOL
REMARK 923 INTER-LIGAND FREE ENERGY PREDICTED BY IDOCK:   -6.31 KCAL/MOL
REMARK 924 INTRA-LIGAND FREE ENERGY PREDICTED BY IDOCK:   -0.40 KCAL/MOL
REMARK 927      BINDING AFFINITY PREDICTED BY RF-SCORE:    0.00 PKD
ROOT
HETATM    1  O   UNL     1     -13.449  15.594  71.664  1.00  0.00    -0.490 OA 
HETATM    2  N   UNL     1     -13.130  14.385  71.406  1.00  0.00    -0.330 NA 
HETATM    3  C   UNL     1     -13.651  13.374  72.211  1.00  0.00    -0.605 A  
HETATM    4  C   UNL     1     -13.363  12.030  71.993  1.00  0.00    -0.447 A  
HETATM    5  C   UNL     1     -12.531  11.680  70.939  1.00  0.00    -0.440 A  
HETATM    6  C   UNL     1     -11.998  12.673  70.115  1.00  0.00    -0.375 A  
HETATM    7  C   UNL     1     -12.283  14.033  70.344  1.00  0.00    -0.363 A  
ENDROOT
BRANCH   7   8
HETATM    8  S   UNL     1     -11.630  15.301  69.253  1.00  0.00    -0.354 SA 
BRANCH   8   9
HETATM    9  S   UNL     1     -10.185  14.302  68.177  1.00  0.00    -0.236 SA 
BRANCH   9  10
HETATM   10  C   UNL     1     -10.980  13.934  66.611  1.00  0.00    -0.301 A  
HETATM   11  C   UNL     1     -11.582  12.678  66.395  1.00  0.00    -0.441 A  
HETATM   12  C   UNL     1     -12.280  12.413  65.218  1.00  0.00    -0.418 A  
HETATM   13  C   UNL     1     -12.395  13.395  64.243  1.00  0.00    -0.396 A  
HETATM   14  C   UNL     1     -11.798  14.635  64.459  1.00  0.00    -0.431 A  
HETATM   15  N   UNL     1     -11.094  14.924  65.626  1.00  0.00    -0.339 NA 
HETATM   16  O   UNL     1     -10.584  16.088  65.756  1.00  0.00    -0.343 OA 
ENDBRANCH   9  10
ENDBRANCH   8   9
ENDBRANCH   7   8
TORSDOF 3
ENDMDL
MODEL       19
REMARK 921   NORMALIZED FREE ENERGY PREDICTED BY IDOCK:   -5.53 KCAL/MOL
REMARK 922        TOTAL FREE ENERGY PREDICTED BY IDOCK:   -6.69 KCAL/MOL
REMARK 923 INTER-LIGAND FREE ENERGY PREDICTED BY IDOCK:   -6.59 KCAL/MOL
REMARK 924 INTRA-LIGAND FREE ENERGY PREDICTED BY IDOCK:   -0.10 KCAL/MOL
REMARK 927      BINDING AFFINITY PREDICTED BY RF-SCORE:    0.00 PKD
ROOT
HETATM    1  O   UNL     1     -10.442  15.542  70.411  1.00  0.00    -0.313 OA 
HETATM    2  N   UNL     1     -11.509  15.170  71.003  1.00  0.00    -0.319 NA 
HETATM    3  C   UNL     1     -12.022  15.976  72.017  1.00  0.00    -0.537 A  
HETATM    4  C   UNL     1     -13.187  15.649  72.706  1.00  0.00    -0.610 A  
HETATM    5  C   UNL     1     -13.864  14.484  72.374  1.00  0.00    -0.587 A  
HETATM    6  C   UNL     1     -13.373  13.660  71.359  1.00  0.00    -0.321 A  
HETATM    7  C   UNL     1     -12.189  13.988  70.671  1.00  0.00    -0.372 A  
ENDROOT
BRANCH   7   8
HETATM    8  S   UNL     1     -11.589  12.947  69.336  1.00  0.00    -0.285 SA 
BRANCH   8   9
HETATM    9  S   UNL     1     -11.765  14.154  67.677  1.00  0.00    -0.401 SA 
BRANCH   9  10
HETATM   10  C   UNL     1     -11.391  13.064  66.301  1.00  0.00    -0.317 A  
HETATM   11  C   UNL     1     -10.343  12.128  66.398  1.00  0.00    -0.246 A  
HETATM   12  C   UNL     1     -10.101  11.216  65.371  1.00  0.00    -0.317 A  
HETATM   13  C   UNL     1     -10.902  11.219  64.238  1.00  0.00    -0.398 A  
HETATM   14  C   UNL     1     -11.937  12.147  64.143  1.00  0.00    -0.408 A  
HETATM   15  N   UNL     1     -12.198  13.069  65.154  1.00  0.00    -0.432 NA 
HETATM   16  O   UNL     1     -13.172  13.881  65.000  1.00  0.00    -0.729 OA 
ENDBRANCH   9  10
ENDBRANCH   8   9
ENDBRANCH   7   8
TORSDOF 3
ENDMDL
MODEL       20
REMARK 921   NORMALIZED FREE ENERGY PREDICTED BY IDOCK:   -5.52 KCAL/MOL
REMARK 922        TOTAL FREE ENERGY PREDICTED BY IDOCK:   -6.69 KCAL/MOL
REMARK 923 INTER-LIGAND FREE ENERGY PREDICTED BY IDOCK:   -6.35 KCAL/MOL
REMARK 924 INTRA-LIGAND FREE ENERGY PREDICTED BY IDOCK:   -0.34 KCAL/MOL
REMARK 927      BINDING AFFINITY PREDICTED BY RF-SCORE:    0.00 PKD
ROOT
HETATM    1  O   UNL     1     -10.975  16.917  64.421  1.00  0.00    -1.016 OA 
HETATM    2  N   UNL     1     -10.558  17.298  65.565  1.00  0.00    -0.589 NA 
HETATM    3  C   UNL     1     -10.625  18.654  65.879  1.00  0.00    -0.321 A  
HETATM    4  C   UNL     1     -10.201  19.152  67.108  1.00  0.00    -0.489 A  
HETATM    5  C   UNL     1      -9.697  18.273  68.056  1.00  0.00    -0.324 A  
HETATM    6  C   UNL     1      -9.622  16.909  67.768  1.00  0.00    -0.249 A  
HETATM    7  C   UNL     1     -10.042  16.409  66.520  1.00  0.00    -0.295 A  
ENDROOT
BRANCH   7   8
HETATM    8  S   UNL     1      -9.984  14.647  66.175  1.00  0.00    -0.319 SA 
BRANCH   8   9
HETATM    9  S   UNL     1     -11.954  14.067  66.338  1.00  0.00    -0.455 SA 
BRANCH   9  10
HETATM   10  C   UNL     1     -12.020  13.171  67.891  1.00  0.00    -0.303 A  
HETATM   11  C   UNL     1     -11.845  11.774  67.916  1.00  0.00    -0.289 A  
HETATM   12  C   UNL     1     -11.804  11.080  69.125  1.00  0.00    -0.407 A  
HETATM   13  C   UNL     1     -11.930  11.767  70.324  1.00  0.00    -0.429 A  
HETATM   14  C   UNL     1     -12.105  13.149  70.297  1.00  0.00    -0.328 A  
HETATM   15  N   UNL     1     -12.150  13.865  69.103  1.00  0.00    -0.356 NA 
HETATM   16  O   UNL     1     -12.302  15.132  69.159  1.00  0.00    -0.180 OA 
ENDBRANCH   9  10
ENDBRANCH   8   9
ENDBRANCH   7   8
TORSDOF 3
ENDMDL
MODEL       21
REMARK 921   NORMALIZED FREE ENERGY PREDICTED BY IDOCK:   -5.50 KCAL/MOL
REMARK 922        TOTAL FREE ENERGY PREDICTED BY IDOCK:   -6.66 KCAL/MOL
REMARK 923 INTER-LIGAND FREE ENERGY PREDICTED BY IDOCK:   -6.36 KCAL/MOL
REMARK 924 INTRA-LIGAND FREE ENERGY PREDICTED BY IDOCK:   -0.31 KCAL/MOL
REMARK 927      BINDING AFFINITY PREDICTED BY RF-SCORE:    0.00 PKD
ROOT
HETATM    1  O   UNL     1     -12.101  11.928  67.183  1.00  0.00    -0.590 OA 
HETATM    2  N   UNL     1     -11.743  12.910  66.450  1.00  0.00    -0.375 NA 
HETATM    3  C   UNL     1     -12.386  13.095  65.228  1.00  0.00    -0.481 A  
HETATM    4  C   UNL     1     -12.064  14.146  64.373  1.00  0.00    -0.486 A  
HETATM    5  C   UNL     1     -11.073  15.041  64.747  1.00  0.00    -0.388 A  
HETATM    6  C   UNL     1     -10.415  14.881  65.968  1.00  0.00    -0.326 A  
HETATM    7  C   UNL     1     -10.736  13.811  66.826  1.00  0.00    -0.276 A  
ENDROOT
BRANCH   7   8
HETATM    8  S   UNL     1      -9.917  13.637  68.415  1.00  0.00    -0.217 SA 
BRANCH   8   9
HETATM    9  S   UNL     1     -10.643  15.231  69.500  1.00  0.00    -0.281 SA 
BRANCH   9  10
HETATM   10  C   UNL     1     -11.809  14.487  70.644  1.00  0.00    -0.303 A  
HETATM   11  C   UNL     1     -12.227  13.154  70.469  1.00  0.00    -0.405 A  
HETATM   12  C   UNL     1     -13.061  12.537  71.401  1.00  0.00    -0.303 A  
HETATM   13  C   UNL     1     -13.484  13.237  72.523  1.00  0.00    -0.620 A  
HETATM   14  C   UNL     1     -13.070  14.557  72.693  1.00  0.00    -0.467 A  
HETATM   15  N   UNL     1     -12.238  15.195  71.776  1.00  0.00    -0.328 NA 
HETATM   16  O   UNL     1     -11.892  16.403  72.006  1.00  0.00    -0.511 OA 
ENDBRANCH   9  10
ENDBRANCH   8   9
ENDBRANCH   7   8
TORSDOF 3
ENDMDL
MODEL       22
REMARK 921   NORMALIZED FREE ENERGY PREDICTED BY IDOCK:   -5.49 KCAL/MOL
REMARK 922        TOTAL FREE ENERGY PREDICTED BY IDOCK:   -6.65 KCAL/MOL
REMARK 923 INTER-LIGAND FREE ENERGY PREDICTED BY IDOCK:   -6.37 KCAL/MOL
REMARK 924 INTRA-LIGAND FREE ENERGY PREDICTED BY IDOCK:   -0.28 KCAL/MOL
REMARK 927      BINDING AFFINITY PREDICTED BY RF-SCORE:    0.00 PKD
ROOT
HETATM    1  O   UNL     1     -13.472  15.456  71.688  1.00  0.00    -0.437 OA 
HETATM    2  N   UNL     1     -13.155  14.237  71.481  1.00  0.00    -0.326 NA 
HETATM    3  C   UNL     1     -13.687  13.261  72.321  1.00  0.00    -0.589 A  
HETATM    4  C   UNL     1     -13.402  11.907  72.159  1.00  0.00    -0.361 A  
HETATM    5  C   UNL     1     -12.563  11.514  71.126  1.00  0.00    -0.463 A  
HETATM    6  C   UNL     1     -12.019  12.471  70.268  1.00  0.00    -0.364 A  
HETATM    7  C   UNL     1     -12.301  13.840  70.441  1.00  0.00    -0.353 A  
ENDROOT
BRANCH   7   8
HETATM    8  S   UNL     1     -11.634  15.062  69.306  1.00  0.00    -0.336 SA 
BRANCH   8   9
HETATM    9  S   UNL     1     -10.346  13.964  68.131  1.00  0.00    -0.253 SA 
BRANCH   9  10
HETATM   10  C   UNL     1     -11.174  13.872  66.542  1.00  0.00    -0.321 A  
HETATM   11  C   UNL     1     -11.048  14.921  65.611  1.00  0.00    -0.348 A  
HETATM   12  C   UNL     1     -11.611  14.821  64.339  1.00  0.00    -0.304 A  
HETATM   13  C   UNL     1     -12.303  13.674  63.975  1.00  0.00    -0.382 A  
HETATM   14  C   UNL     1     -12.428  12.638  64.898  1.00  0.00    -0.494 A  
HETATM   15  N   UNL     1     -11.875  12.714  66.175  1.00  0.00    -0.434 NA 
HETATM   16  O   UNL     1     -12.023  11.719  66.962  1.00  0.00    -0.610 OA 
ENDBRANCH   9  10
ENDBRANCH   8   9
ENDBRANCH   7   8
TORSDOF 3
ENDMDL
MODEL       23
REMARK 921   NORMALIZED FREE ENERGY PREDICTED BY IDOCK:   -5.49 KCAL/MOL
REMARK 922        TOTAL FREE ENERGY PREDICTED BY IDOCK:   -6.65 KCAL/MOL
REMARK 923 INTER-LIGAND FREE ENERGY PREDICTED BY IDOCK:   -6.28 KCAL/MOL
REMARK 924 INTRA-LIGAND FREE ENERGY PREDICTED BY IDOCK:   -0.37 KCAL/MOL
REMARK 927      BINDING AFFINITY PREDICTED BY RF-SCORE:    0.00 PKD
ROOT
HETATM    1  O   UNL     1     -10.426  16.263  65.503  1.00  0.00    -0.392 OA 
HETATM    2  N   UNL     1     -11.044  15.149  65.420  1.00  0.00    -0.358 NA 
HETATM    3  C   UNL     1     -11.661  14.820  64.215  1.00  0.00    -0.258 A  
HETATM    4  C   UNL     1     -12.348  13.621  64.037  1.00  0.00    -0.382 A  
HETATM    5  C   UNL     1     -12.420  12.722  65.091  1.00  0.00    -0.565 A  
HETATM    6  C   UNL     1     -11.809  13.026  66.309  1.00  0.00    -0.466 A  
HETATM    7  C   UNL     1     -11.123  14.244  66.489  1.00  0.00    -0.323 A  
ENDROOT
BRANCH   7   8
HETATM    8  S   UNL     1     -10.301  14.608  68.043  1.00  0.00    -0.237 SA 
BRANCH   8   9
HETATM    9  S   UNL     1     -11.782  15.492  69.168  1.00  0.00    -0.360 SA 
BRANCH   9  10
HETATM   10  C   UNL     1     -12.401  14.162  70.201  1.00  0.00    -0.351 A  
HETATM   11  C   UNL     1     -12.052  12.825  69.927  1.00  0.00    -0.329 A  
HETATM   12  C   UNL     1     -12.452  11.793  70.775  1.00  0.00    -0.405 A  
HETATM   13  C   UNL     1     -13.200  12.077  71.909  1.00  0.00    -0.469 A  
HETATM   14  C   UNL     1     -13.546  13.400  72.177  1.00  0.00    -0.567 A  
HETATM   15  N   UNL     1     -13.159  14.449  71.346  1.00  0.00    -0.330 NA 
HETATM   16  O   UNL     1     -13.505  15.636  71.663  1.00  0.00    -0.490 OA 
ENDBRANCH   9  10
ENDBRANCH   8   9
ENDBRANCH   7   8
TORSDOF 3
ENDMDL
MODEL       24
REMARK 921   NORMALIZED FREE ENERGY PREDICTED BY IDOCK:   -5.48 KCAL/MOL
REMARK 922        TOTAL FREE ENERGY PREDICTED BY IDOCK:   -6.64 KCAL/MOL
REMARK 923 INTER-LIGAND FREE ENERGY PREDICTED BY IDOCK:   -6.30 KCAL/MOL
REMARK 924 INTRA-LIGAND FREE ENERGY PREDICTED BY IDOCK:   -0.34 KCAL/MOL
REMARK 927      BINDING AFFINITY PREDICTED BY RF-SCORE:    0.00 PKD
ROOT
HETATM    1  O   UNL     1      -7.374  17.940  68.818  1.00  0.00    -0.265 OA 
HETATM    2  N   UNL     1      -8.381  18.476  68.246  1.00  0.00    -0.312 NA 
HETATM    3  C   UNL     1      -8.289  19.808  67.850  1.00  0.00    -0.304 A  
HETATM    4  C   UNL     1      -9.336  20.466  67.211  1.00  0.00    -0.547 A  
HETATM    5  C   UNL     1     -10.512  19.775  66.957  1.00  0.00    -0.595 A  
HETATM    6  C   UNL     1     -10.631  18.439  67.341  1.00  0.00    -0.445 A  
HETATM    7  C   UNL     1      -9.573  17.778  67.996  1.00  0.00    -0.291 A  
ENDROOT
BRANCH   7   8
HETATM    8  S   UNL     1      -9.716  16.046  68.447  1.00  0.00    -0.217 SA 
BRANCH   8   9
HETATM    9  S   UNL     1      -8.903  15.066  66.827  1.00  0.00    -0.264 SA 
BRANCH   9  10
HETATM   10  C   UNL     1     -10.311  14.280  66.039  1.00  0.00    -0.309 A  
HETATM   11  C   UNL     1     -10.735  13.001  66.450  1.00  0.00    -0.295 A  
HETATM   12  C   UNL     1     -11.881  12.419  65.908  1.00  0.00    -0.467 A  
HETATM   13  C   UNL     1     -12.623  13.105  64.957  1.00  0.00    -0.499 A  
HETATM   14  C   UNL     1     -12.201  14.369  64.551  1.00  0.00    -0.463 A  
HETATM   15  N   UNL     1     -11.060  14.971  65.076  1.00  0.00    -0.391 NA 
HETATM   16  O   UNL     1     -10.743  16.137  64.663  1.00  0.00    -0.637 OA 
ENDBRANCH   9  10
ENDBRANCH   8   9
ENDBRANCH   7   8
TORSDOF 3
ENDMDL
MODEL       25
REMARK 921   NORMALIZED FREE ENERGY PREDICTED BY IDOCK:   -5.47 KCAL/MOL
REMARK 922        TOTAL FREE ENERGY PREDICTED BY IDOCK:   -6.62 KCAL/MOL
REMARK 923 INTER-LIGAND FREE ENERGY PREDICTED BY IDOCK:   -6.37 KCAL/MOL
REMARK 924 INTRA-LIGAND FREE ENERGY PREDICTED BY IDOCK:   -0.25 KCAL/MOL
REMARK 927      BINDING AFFINITY PREDICTED BY RF-SCORE:    0.00 PKD
ROOT
HETATM    1  O   UNL     1     -11.987  12.193  69.872  1.00  0.00    -0.319 OA 
HETATM    2  N   UNL     1     -12.397  13.241  70.472  1.00  0.00    -0.339 NA 
HETATM    3  C   UNL     1     -12.974  13.102  71.733  1.00  0.00    -0.338 A  
HETATM    4  C   UNL     1     -13.438  14.195  72.461  1.00  0.00    -0.634 A  
HETATM    5  C   UNL     1     -13.321  15.466  71.917  1.00  0.00    -0.554 A  
HETATM    6  C   UNL     1     -12.744  15.634  70.658  1.00  0.00    -0.443 A  
HETATM    7  C   UNL     1     -12.285  14.526  69.919  1.00  0.00    -0.328 A  
ENDROOT
BRANCH   7   8
HETATM    8  S   UNL     1     -11.503  14.754  68.319  1.00  0.00    -0.330 SA 
BRANCH   8   9
HETATM    9  S   UNL     1      -9.774  15.776  68.778  1.00  0.00    -0.226 SA 
BRANCH   9  10
HETATM   10  C   UNL     1     -10.002  17.386  68.019  1.00  0.00    -0.302 A  
HETATM   11  C   UNL     1     -10.122  18.540  68.819  1.00  0.00    -0.394 A  
HETATM   12  C   UNL     1     -10.209  19.806  68.240  1.00  0.00    -0.569 A  
HETATM   13  C   UNL     1     -10.171  19.940  66.859  1.00  0.00    -0.600 A  
HETATM   14  C   UNL     1     -10.054  18.798  66.070  1.00  0.00    -0.317 A  
HETATM   15  N   UNL     1      -9.967  17.523  66.624  1.00  0.00    -0.300 NA 
HETATM   16  O   UNL     1      -9.851  16.524  65.837  1.00  0.00    -0.378 OA 
ENDBRANCH   9  10
ENDBRANCH   8   9
ENDBRANCH   7   8
TORSDOF 3
ENDMDL
MODEL       26
REMARK 921   NORMALIZED FREE ENERGY PREDICTED BY IDOCK:   -5.46 KCAL/MOL
REMARK 922        TOTAL FREE ENERGY PREDICTED BY IDOCK:   -6.62 KCAL/MOL
REMARK 923 INTER-LIGAND FREE ENERGY PREDICTED BY IDOCK:   -6.26 KCAL/MOL
REMARK 924 INTRA-LIGAND FREE ENERGY PREDICTED BY IDOCK:   -0.35 KCAL/MOL
REMARK 927      BINDING AFFINITY PREDICTED BY RF-SCORE:    0.00 PKD
ROOT
HETATM    1  O   UNL     1      -9.166  11.853  65.980  1.00  0.00    -0.222 OA 
HETATM    2  N   UNL     1     -10.209  12.570  65.814  1.00  0.00    -0.266 NA 
HETATM    3  C   UNL     1     -10.795  12.607  64.550  1.00  0.00    -0.336 A  
HETATM    4  C   UNL     1     -11.940  13.354  64.286  1.00  0.00    -0.481 A  
HETATM    5  C   UNL     1     -12.520  14.086  65.312  1.00  0.00    -0.495 A  
HETATM    6  C   UNL     1     -11.955  14.064  66.588  1.00  0.00    -0.473 A  
HETATM    7  C   UNL     1     -10.791  13.315  66.850  1.00  0.00    -0.276 A  
ENDROOT
BRANCH   7   8
HETATM    8  S   UNL     1     -10.096  13.256  68.505  1.00  0.00    -0.162 SA 
BRANCH   8   9
HETATM    9  S   UNL     1     -11.473  12.143  69.558  1.00  0.00    -0.233 SA 
BRANCH   9  10
HETATM   10  C   UNL     1     -12.301  13.346  70.602  1.00  0.00    -0.348 A  
HETATM   11  C   UNL     1     -12.292  14.712  70.261  1.00  0.00    -0.406 A  
HETATM   12  C   UNL     1     -13.007  15.642  71.014  1.00  0.00    -0.518 A  
HETATM   13  C   UNL     1     -13.746  15.224  72.113  1.00  0.00    -0.598 A  
HETATM   14  C   UNL     1     -13.752  13.872  72.449  1.00  0.00    -0.576 A  
HETATM   15  N   UNL     1     -13.045  12.924  71.713  1.00  0.00    -0.394 NA 
HETATM   16  O   UNL     1     -13.109  11.701  72.077  1.00  0.00    -0.478 OA 
ENDBRANCH   9  10
ENDBRANCH   8   9
ENDBRANCH   7   8
TORSDOF 3
ENDMDL
MODEL       27
REMARK 921   NORMALIZED FREE ENERGY PREDICTED BY IDOCK:   -5.44 KCAL/MOL
REMARK 922        TOTAL FREE ENERGY PREDICTED BY IDOCK:   -6.59 KCAL/MOL
REMARK 923 INTER-LIGAND FREE ENERGY PREDICTED BY IDOCK:   -6.38 KCAL/MOL
REMARK 924 INTRA-LIGAND FREE ENERGY PREDICTED BY IDOCK:   -0.21 KCAL/MOL
REMARK 927      BINDING AFFINITY PREDICTED BY RF-SCORE:    0.00 PKD
ROOT
HETATM    1  O   UNL     1     -10.328   8.750  69.592  1.00  0.00    -0.203 OA 
HETATM    2  N   UNL     1     -11.194   9.418  70.250  1.00  0.00    -0.250 NA 
HETATM    3  C   UNL     1     -11.934   8.763  71.231  1.00  0.00    -0.301 A  
HETATM    4  C   UNL     1     -12.891   9.419  72.001  1.00  0.00    -0.496 A  
HETATM    5  C   UNL     1     -13.117  10.771  71.787  1.00  0.00    -0.573 A  
HETATM    6  C   UNL     1     -12.388  11.453  70.812  1.00  0.00    -0.483 A  
HETATM    7  C   UNL     1     -11.427  10.784  70.028  1.00  0.00    -0.331 A  
ENDROOT
BRANCH   7   8
HETATM    8  S   UNL     1     -10.461  11.678  68.806  1.00  0.00    -0.177 SA 
BRANCH   8   9
HETATM    9  S   UNL     1     -11.878  12.779  67.794  1.00  0.00    -0.280 SA 
BRANCH   9  10
HETATM   10  C   UNL     1     -11.576  12.399  66.067  1.00  0.00    -0.401 A  
HETATM   11  C   UNL     1     -10.660  11.392  65.708  1.00  0.00    -0.315 A  
HETATM   12  C   UNL     1     -10.485  11.026  64.374  1.00  0.00    -0.422 A  
HETATM   13  C   UNL     1     -11.223  11.653  63.380  1.00  0.00    -0.401 A  
HETATM   14  C   UNL     1     -12.128  12.651  63.737  1.00  0.00    -0.522 A  
HETATM   15  N   UNL     1     -12.320  13.034  65.062  1.00  0.00    -0.450 NA 
HETATM   16  O   UNL     1     -13.176  13.949  65.312  1.00  0.00    -0.774 OA 
ENDBRANCH   9  10
ENDBRANCH   8   9
ENDBRANCH   7   8
TORSDOF 3
ENDMDL
MODEL       28
REMARK 921   NORMALIZED FREE ENERGY PREDICTED BY IDOCK:   -5.41 KCAL/MOL
REMARK 922        TOTAL FREE ENERGY PREDICTED BY IDOCK:   -6.55 KCAL/MOL
REMARK 923 INTER-LIGAND FREE ENERGY PREDICTED BY IDOCK:   -6.19 KCAL/MOL
REMARK 924 INTRA-LIGAND FREE ENERGY PREDICTED BY IDOCK:   -0.36 KCAL/MOL
REMARK 927      BINDING AFFINITY PREDICTED BY RF-SCORE:    0.00 PKD
ROOT
HETATM    1  O   UNL     1     -10.424  16.104  64.747  1.00  0.00    -0.592 OA 
HETATM    2  N   UNL     1     -10.825  14.955  65.134  1.00  0.00    -0.384 NA 
HETATM    3  C   UNL     1     -11.915  14.379  64.485  1.00  0.00    -0.472 A  
HETATM    4  C   UNL     1     -12.410  13.126  64.836  1.00  0.00    -0.494 A  
HETATM    5  C   UNL     1     -11.799  12.424  65.865  1.00  0.00    -0.467 A  
HETATM    6  C   UNL     1     -10.703  12.976  66.530  1.00  0.00    -0.290 A  
HETATM    7  C   UNL     1     -10.211  14.249  66.179  1.00  0.00    -0.307 A  
ENDROOT
BRANCH   7   8
HETATM    8  S   UNL     1      -8.773  14.933  67.009  1.00  0.00    -0.246 SA 
BRANCH   8   9
HETATM    9  S   UNL     1      -9.590  15.996  68.573  1.00  0.00    -0.223 SA 
BRANCH   9  10
HETATM   10  C   UNL     1      -9.568  17.698  68.005  1.00  0.00    -0.289 A  
HETATM   11  C   UNL     1     -10.733  18.288  67.475  1.00  0.00    -0.381 A  
HETATM   12  C   UNL     1     -10.753  19.634  67.115  1.00  0.00    -0.587 A  
HETATM   13  C   UNL     1      -9.617  20.414  67.283  1.00  0.00    -0.592 A  
HETATM   14  C   UNL     1      -8.466  19.829  67.806  1.00  0.00    -0.317 A  
HETATM   15  N   UNL     1      -8.420  18.486  68.172  1.00  0.00    -0.288 NA 
HETATM   16  O   UNL     1      -7.332  18.023  68.655  1.00  0.00    -0.266 OA 
ENDBRANCH   9  10
ENDBRANCH   8   9
ENDBRANCH   7   8
TORSDOF 3
ENDMDL
MODEL       29
REMARK 921   NORMALIZED FREE ENERGY PREDICTED BY IDOCK:   -5.33 KCAL/MOL
REMARK 922        TOTAL FREE ENERGY PREDICTED BY IDOCK:   -6.46 KCAL/MOL
REMARK 923 INTER-LIGAND FREE ENERGY PREDICTED BY IDOCK:   -6.23 KCAL/MOL
REMARK 924 INTRA-LIGAND FREE ENERGY PREDICTED BY IDOCK:   -0.23 KCAL/MOL
REMARK 927      BINDING AFFINITY PREDICTED BY RF-SCORE:    0.00 PKD
ROOT
HETATM    1  O   UNL     1     -11.210  16.558  64.141  1.00  0.00    -1.004 OA 
HETATM    2  N   UNL     1     -11.356  15.488  64.821  1.00  0.00    -0.399 NA 
HETATM    3  C   UNL     1     -12.409  14.634  64.497  1.00  0.00    -0.398 A  
HETATM    4  C   UNL     1     -12.634  13.442  65.181  1.00  0.00    -0.495 A  
HETATM    5  C   UNL     1     -11.783  13.089  66.218  1.00  0.00    -0.440 A  
HETATM    6  C   UNL     1     -10.719  13.924  66.561  1.00  0.00    -0.277 A  
HETATM    7  C   UNL     1     -10.500  15.135  65.874  1.00  0.00    -0.336 A  
ENDROOT
BRANCH   7   8
HETATM    8  S   UNL     1      -9.102  16.182  66.291  1.00  0.00    -0.356 SA 
BRANCH   8   9
HETATM    9  S   UNL     1      -9.825  17.347  67.828  1.00  0.00    -0.295 SA 
BRANCH   9  10
HETATM   10  C   UNL     1      -8.590  18.635  68.020  1.00  0.00    -0.299 A  
HETATM   11  C   UNL     1      -7.440  18.409  68.801  1.00  0.00    -0.298 A  
HETATM   12  C   UNL     1      -6.431  19.369  68.884  1.00  0.00    -0.312 A  
HETATM   13  C   UNL     1      -6.550  20.562  68.185  1.00  0.00    -0.329 A  
HETATM   14  C   UNL     1      -7.690  20.784  67.415  1.00  0.00    -0.273 A  
HETATM   15  N   UNL     1      -8.711  19.842  67.317  1.00  0.00    -0.320 NA 
HETATM   16  O   UNL     1      -9.720  20.113  66.581  1.00  0.00    -0.400 OA 
ENDBRANCH   9  10
ENDBRANCH   8   9
ENDBRANCH   7   8
TORSDOF 3
ENDMDL
MODEL       30
REMARK 921   NORMALIZED FREE ENERGY PREDICTED BY IDOCK:   -5.32 KCAL/MOL
REMARK 922        TOTAL FREE ENERGY PREDICTED BY IDOCK:   -6.45 KCAL/MOL
REMARK 923 INTER-LIGAND FREE ENERGY PREDICTED BY IDOCK:   -6.21 KCAL/MOL
REMARK 924 INTRA-LIGAND FREE ENERGY PREDICTED BY IDOCK:   -0.24 KCAL/MOL
REMARK 927      BINDING AFFINITY PREDICTED BY RF-SCORE:    0.00 PKD
ROOT
HETATM    1  O   UNL     1     -11.664  12.445  69.603  1.00  0.00    -0.300 OA 
HETATM    2  N   UNL     1     -12.271  13.267  70.368  1.00  0.00    -0.353 NA 
HETATM    3  C   UNL     1     -12.842  12.784  71.543  1.00  0.00    -0.270 A  
HETATM    4  C   UNL     1     -13.512  13.613  72.438  1.00  0.00    -0.685 A  
HETATM    5  C   UNL     1     -13.617  14.967  72.154  1.00  0.00    -0.530 A  
HETATM    6  C   UNL     1     -13.052  15.479  70.985  1.00  0.00    -0.551 A  
HETATM    7  C   UNL     1     -12.383  14.635  70.076  1.00  0.00    -0.315 A  
ENDROOT
BRANCH   7   8
HETATM    8  S   UNL     1     -11.620  15.308  68.596  1.00  0.00    -0.349 SA 
BRANCH   8   9
HETATM    9  S   UNL     1      -9.733  15.834  69.233  1.00  0.00    -0.275 SA 
BRANCH   9  10
HETATM   10  C   UNL     1      -9.458  17.449  68.500  1.00  0.00    -0.297 A  
HETATM   11  C   UNL     1     -10.525  18.156  67.913  1.00  0.00    -0.408 A  
HETATM   12  C   UNL     1     -10.343  19.449  67.422  1.00  0.00    -0.559 A  
HETATM   13  C   UNL     1      -9.098  20.056  67.515  1.00  0.00    -0.457 A  
HETATM   14  C   UNL     1      -8.043  19.354  68.094  1.00  0.00    -0.319 A  
HETATM   15  N   UNL     1      -8.200  18.062  68.591  1.00  0.00    -0.300 NA 
HETATM   16  O   UNL     1      -7.189  17.487  69.118  1.00  0.00    -0.238 OA 
ENDBRANCH   9  10
ENDBRANCH   8   9
ENDBRANCH   7   8
TORSDOF 3
ENDMDL
MODEL       31
REMARK 921   NORMALIZED FREE ENERGY PREDICTED BY IDOCK:   -5.32 KCAL/MOL
REMARK 922        TOTAL FREE ENERGY PREDICTED BY IDOCK:   -6.45 KCAL/MOL
REMARK 923 INTER-LIGAND FREE ENERGY PREDICTED BY IDOCK:   -6.18 KCAL/MOL
REMARK 924 INTRA-LIGAND FREE ENERGY PREDICTED BY IDOCK:   -0.26 KCAL/MOL
REMARK 927      BINDING AFFINITY PREDICTED BY RF-SCORE:    0.00 PKD
ROOT
HETATM    1  O   UNL     1     -11.795  15.017  68.732  1.00  0.00    -0.324 OA 
HETATM    2  N   UNL     1     -11.635  13.859  68.220  1.00  0.00    -0.316 NA 
HETATM    3  C   UNL     1     -11.846  12.742  69.025  1.00  0.00    -0.297 A  
HETATM    4  C   UNL     1     -11.704  11.443  68.543  1.00  0.00    -0.386 A  
HETATM    5  C   UNL     1     -11.342  11.251  67.218  1.00  0.00    -0.329 A  
HETATM    6  C   UNL     1     -11.127  12.353  66.388  1.00  0.00    -0.343 A  
HETATM    7  C   UNL     1     -11.262  13.666  66.881  1.00  0.00    -0.312 A  
ENDROOT
BRANCH   7   8
HETATM    8  S   UNL     1     -11.028  15.078  65.797  1.00  0.00    -0.355 SA 
BRANCH   8   9
HETATM    9  S   UNL     1      -9.125  15.720  66.258  1.00  0.00    -0.348 SA 
BRANCH   9  10
HETATM   10  C   UNL     1      -9.311  17.485  66.522  1.00  0.00    -0.265 A  
HETATM   11  C   UNL     1     -10.434  17.989  67.207  1.00  0.00    -0.390 A  
HETATM   12  C   UNL     1     -10.544  19.349  67.497  1.00  0.00    -0.591 A  
HETATM   13  C   UNL     1      -9.535  20.223  67.115  1.00  0.00    -0.557 A  
HETATM   14  C   UNL     1      -8.426  19.722  66.437  1.00  0.00    -0.359 A  
HETATM   15  N   UNL     1      -8.294  18.369  66.134  1.00  0.00    -0.476 NA 
HETATM   16  O   UNL     1      -7.243  17.983  65.520  1.00  0.00    -0.532 OA 
ENDBRANCH   9  10
ENDBRANCH   8   9
ENDBRANCH   7   8
TORSDOF 3
ENDMDL
MODEL       32
REMARK 921   NORMALIZED FREE ENERGY PREDICTED BY IDOCK:   -5.31 KCAL/MOL
REMARK 922        TOTAL FREE ENERGY PREDICTED BY IDOCK:   -6.43 KCAL/MOL
REMARK 923 INTER-LIGAND FREE ENERGY PREDICTED BY IDOCK:   -6.26 KCAL/MOL
REMARK 924 INTRA-LIGAND FREE ENERGY PREDICTED BY IDOCK:   -0.17 KCAL/MOL
REMARK 927      BINDING AFFINITY PREDICTED BY RF-SCORE:    0.00 PKD
ROOT
HETATM    1  O   UNL     1     -10.237  10.527  66.358  1.00  0.00    -0.226 OA 
HETATM    2  N   UNL     1     -10.875  11.433  65.724  1.00  0.00    -0.260 NA 
HETATM    3  C   UNL     1     -10.870  11.399  64.332  1.00  0.00    -0.330 A  
HETATM    4  C   UNL     1     -11.550  12.342  63.564  1.00  0.00    -0.570 A  
HETATM    5  C   UNL     1     -12.257  13.349  64.204  1.00  0.00    -0.457 A  
HETATM    6  C   UNL     1     -12.282  13.405  65.598  1.00  0.00    -0.510 A  
HETATM    7  C   UNL     1     -11.585  12.455  66.372  1.00  0.00    -0.384 A  
ENDROOT
BRANCH   7   8
HETATM    8  S   UNL     1     -11.658  12.507  68.165  1.00  0.00    -0.355 SA 
BRANCH   8   9
HETATM    9  S   UNL     1     -11.647  14.525  68.582  1.00  0.00    -0.331 SA 
BRANCH   9  10
HETATM   10  C   UNL     1     -12.224  14.625  70.279  1.00  0.00    -0.331 A  
HETATM   11  C   UNL     1     -12.959  13.565  70.845  1.00  0.00    -0.224 A  
HETATM   12  C   UNL     1     -13.335  13.592  72.187  1.00  0.00    -0.587 A  
HETATM   13  C   UNL     1     -12.979  14.671  72.985  1.00  0.00    -0.610 A  
HETATM   14  C   UNL     1     -12.253  15.718  72.423  1.00  0.00    -0.472 A  
HETATM   15  N   UNL     1     -11.867  15.715  71.084  1.00  0.00    -0.367 NA 
HETATM   16  O   UNL     1     -11.194  16.707  70.643  1.00  0.00    -0.245 OA 
ENDBRANCH   9  10
ENDBRANCH   8   9
ENDBRANCH   7   8
TORSDOF 3
ENDMDL
MODEL       33
REMARK 921   NORMALIZED FREE ENERGY PREDICTED BY IDOCK:   -5.25 KCAL/MOL
REMARK 922        TOTAL FREE ENERGY PREDICTED BY IDOCK:   -6.37 KCAL/MOL
REMARK 923 INTER-LIGAND FREE ENERGY PREDICTED BY IDOCK:   -6.16 KCAL/MOL
REMARK 924 INTRA-LIGAND FREE ENERGY PREDICTED BY IDOCK:   -0.21 KCAL/MOL
REMARK 927      BINDING AFFINITY PREDICTED BY RF-SCORE:    0.00 PKD
ROOT
HETATM    1  O   UNL     1     -13.103  13.064  65.042  1.00  0.00    -0.761 OA 
HETATM    2  N   UNL     1     -12.046  12.363  64.897  1.00  0.00    -0.414 NA 
HETATM    3  C   UNL     1     -11.621  12.062  63.605  1.00  0.00    -0.486 A  
HETATM    4  C   UNL     1     -10.474  11.313  63.357  1.00  0.00    -0.424 A  
HETATM    5  C   UNL     1      -9.725  10.851  64.430  1.00  0.00    -0.342 A  
HETATM    6  C   UNL     1     -10.126  11.141  65.735  1.00  0.00    -0.299 A  
HETATM    7  C   UNL     1     -11.293  11.891  65.983  1.00  0.00    -0.316 A  
ENDROOT
BRANCH   7   8
HETATM    8  S   UNL     1     -11.779  12.299  67.663  1.00  0.00    -0.281 SA 
BRANCH   8   9
HETATM    9  S   UNL     1     -10.414  11.270  68.813  1.00  0.00    -0.208 SA 
BRANCH   9  10
HETATM   10  C   UNL     1     -11.407  10.528  70.111  1.00  0.00    -0.323 A  
HETATM   11  C   UNL     1     -12.383  11.288  70.785  1.00  0.00    -0.495 A  
HETATM   12  C   UNL     1     -13.221  10.699  71.731  1.00  0.00    -0.526 A  
HETATM   13  C   UNL     1     -13.103   9.345  72.015  1.00  0.00    -0.516 A  
HETATM   14  C   UNL     1     -12.136   8.596  71.348  1.00  0.00    -0.303 A  
HETATM   15  N   UNL     1     -11.286   9.161  70.400  1.00  0.00    -0.248 NA 
HETATM   16  O   UNL     1     -10.432   8.407  69.823  1.00  0.00    -0.214 OA 
ENDBRANCH   9  10
ENDBRANCH   8   9
ENDBRANCH   7   8
TORSDOF 3
ENDMDL
MODEL       34
REMARK 921   NORMALIZED FREE ENERGY PREDICTED BY IDOCK:   -5.24 KCAL/MOL
REMARK 922        TOTAL FREE ENERGY PREDICTED BY IDOCK:   -6.35 KCAL/MOL
REMARK 923 INTER-LIGAND FREE ENERGY PREDICTED BY IDOCK:   -6.24 KCAL/MOL
REMARK 924 INTRA-LIGAND FREE ENERGY PREDICTED BY IDOCK:   -0.11 KCAL/MOL
REMARK 927      BINDING AFFINITY PREDICTED BY RF-SCORE:    0.00 PKD
ROOT
HETATM    1  O   UNL     1      -9.754  10.184  69.551  1.00  0.00    -0.216 OA 
HETATM    2  N   UNL     1     -10.827  10.188  70.243  1.00  0.00    -0.300 NA 
HETATM    3  C   UNL     1     -11.085   9.101  71.075  1.00  0.00    -0.305 A  
HETATM    4  C   UNL     1     -12.226   9.031  71.871  1.00  0.00    -0.451 A  
HETATM    5  C   UNL     1     -13.137  10.077  71.838  1.00  0.00    -0.563 A  
HETATM    6  C   UNL     1     -12.901  11.179  71.015  1.00  0.00    -0.424 A  
HETATM    7  C   UNL     1     -11.751  11.243  70.204  1.00  0.00    -0.343 A  
ENDROOT
BRANCH   7   8
HETATM    8  S   UNL     1     -11.432  12.685  69.182  1.00  0.00    -0.304 SA 
BRANCH   8   9
HETATM    9  S   UNL     1     -11.496  11.932  67.266  1.00  0.00    -0.295 SA 
BRANCH   9  10
HETATM   10  C   UNL     1     -11.506  13.392  66.221  1.00  0.00    -0.325 A  
HETATM   11  C   UNL     1     -10.639  14.468  66.493  1.00  0.00    -0.297 A  
HETATM   12  C   UNL     1     -10.574  15.568  65.638  1.00  0.00    -0.389 A  
HETATM   13  C   UNL     1     -11.364  15.607  64.498  1.00  0.00    -0.327 A  
HETATM   14  C   UNL     1     -12.222  14.542  64.232  1.00  0.00    -0.415 A  
HETATM   15  N   UNL     1     -12.306  13.433  65.071  1.00  0.00    -0.431 NA 
HETATM   16  O   UNL     1     -13.108  12.491  64.755  1.00  0.00    -0.853 OA 
ENDBRANCH   9  10
ENDBRANCH   8   9
ENDBRANCH   7   8
TORSDOF 3
ENDMDL
MODEL       35
REMARK 921   NORMALIZED FREE ENERGY PREDICTED BY IDOCK:   -5.22 KCAL/MOL
REMARK 922        TOTAL FREE ENERGY PREDICTED BY IDOCK:   -6.33 KCAL/MOL
REMARK 923 INTER-LIGAND FREE ENERGY PREDICTED BY IDOCK:   -6.15 KCAL/MOL
REMARK 924 INTRA-LIGAND FREE ENERGY PREDICTED BY IDOCK:   -0.18 KCAL/MOL
REMARK 927      BINDING AFFINITY PREDICTED BY RF-SCORE:    0.00 PKD
ROOT
HETATM    1  O   UNL     1     -13.071  12.837  64.852  1.00  0.00    -0.833 OA 
HETATM    2  N   UNL     1     -12.167  13.654  65.230  1.00  0.00    -0.411 NA 
HETATM    3  C   UNL     1     -12.000  14.838  64.515  1.00  0.00    -0.440 A  
HETATM    4  C   UNL     1     -11.045  15.789  64.867  1.00  0.00    -0.411 A  
HETATM    5  C   UNL     1     -10.232  15.553  65.966  1.00  0.00    -0.349 A  
HETATM    6  C   UNL     1     -10.380  14.376  66.702  1.00  0.00    -0.275 A  
HETATM    7  C   UNL     1     -11.340  13.412  66.338  1.00  0.00    -0.313 A  
ENDROOT
BRANCH   7   8
HETATM    8  S   UNL     1     -11.555  11.922  67.316  1.00  0.00    -0.248 SA 
BRANCH   8   9
HETATM    9  S   UNL     1     -11.736  12.638  69.239  1.00  0.00    -0.313 SA 
BRANCH   9  10
HETATM   10  C   UNL     1     -12.030  11.170  70.228  1.00  0.00    -0.373 A  
HETATM   11  C   UNL     1     -11.409   9.950  69.895  1.00  0.00    -0.273 A  
HETATM   12  C   UNL     1     -11.557   8.826  70.707  1.00  0.00    -0.288 A  
HETATM   13  C   UNL     1     -12.320   8.903  71.863  1.00  0.00    -0.445 A  
HETATM   14  C   UNL     1     -12.935  10.110  72.190  1.00  0.00    -0.340 A  
HETATM   15  N   UNL     1     -12.803  11.246  71.395  1.00  0.00    -0.424 NA 
HETATM   16  O   UNL     1     -13.387  12.319  71.766  1.00  0.00    -0.410 OA 
ENDBRANCH   9  10
ENDBRANCH   8   9
ENDBRANCH   7   8
TORSDOF 3
ENDMDL
MODEL       36
REMARK 921   NORMALIZED FREE ENERGY PREDICTED BY IDOCK:   -5.21 KCAL/MOL
REMARK 922        TOTAL FREE ENERGY PREDICTED BY IDOCK:   -6.32 KCAL/MOL
REMARK 923 INTER-LIGAND FREE ENERGY PREDICTED BY IDOCK:   -6.08 KCAL/MOL
REMARK 924 INTRA-LIGAND FREE ENERGY PREDICTED BY IDOCK:   -0.24 KCAL/MOL
REMARK 927      BINDING AFFINITY PREDICTED BY RF-SCORE:    0.00 PKD
ROOT
HETATM    1  O   UNL     1      -7.446  17.869  65.709  1.00  0.00    -0.520 OA 
HETATM    2  N   UNL     1      -8.489  18.333  66.280  1.00  0.00    -0.440 NA 
HETATM    3  C   UNL     1      -8.708  19.708  66.247  1.00  0.00    -0.369 A  
HETATM    4  C   UNL     1      -9.825  20.296  66.835  1.00  0.00    -0.597 A  
HETATM    5  C   UNL     1     -10.754  19.488  67.475  1.00  0.00    -0.565 A  
HETATM    6  C   UNL     1     -10.560  18.106  67.521  1.00  0.00    -0.419 A  
HETATM    7  C   UNL     1      -9.424  17.516  66.933  1.00  0.00    -0.274 A  
ENDROOT
BRANCH   7   8
HETATM    8  S   UNL     1      -9.205  15.734  66.956  1.00  0.00    -0.227 SA 
BRANCH   8   9
HETATM    9  S   UNL     1     -11.128  15.017  66.780  1.00  0.00    -0.307 SA 
BRANCH   9  10
HETATM   10  C   UNL     1     -11.577  14.552  68.455  1.00  0.00    -0.326 A  
HETATM   11  C   UNL     1     -11.656  15.527  69.468  1.00  0.00    -0.361 A  
HETATM   12  C   UNL     1     -12.091  15.194  70.750  1.00  0.00    -0.387 A  
HETATM   13  C   UNL     1     -12.459  13.887  71.039  1.00  0.00    -0.452 A  
HETATM   14  C   UNL     1     -12.379  12.924  70.035  1.00  0.00    -0.129 A  
HETATM   15  N   UNL     1     -11.947  13.232  68.748  1.00  0.00    -0.328 NA 
HETATM   16  O   UNL     1     -11.911  12.297  67.878  1.00  0.00    -0.383 OA 
ENDBRANCH   9  10
ENDBRANCH   8   9
ENDBRANCH   7   8
TORSDOF 3
ENDMDL
MODEL       37
REMARK 921   NORMALIZED FREE ENERGY PREDICTED BY IDOCK:   -5.21 KCAL/MOL
REMARK 922        TOTAL FREE ENERGY PREDICTED BY IDOCK:   -6.32 KCAL/MOL
REMARK 923 INTER-LIGAND FREE ENERGY PREDICTED BY IDOCK:   -6.00 KCAL/MOL
REMARK 924 INTRA-LIGAND FREE ENERGY PREDICTED BY IDOCK:   -0.32 KCAL/MOL
REMARK 927      BINDING AFFINITY PREDICTED BY RF-SCORE:    0.00 PKD
ROOT
HETATM    1  O   UNL     1      -9.399  15.577  66.244  1.00  0.00    -0.268 OA 
HETATM    2  N   UNL     1     -10.371  14.783  66.009  1.00  0.00    -0.290 NA 
HETATM    3  C   UNL     1     -10.883  14.725  64.714  1.00  0.00    -0.376 A  
HETATM    4  C   UNL     1     -11.935  13.879  64.370  1.00  0.00    -0.480 A  
HETATM    5  C   UNL     1     -12.492  13.064  65.345  1.00  0.00    -0.531 A  
HETATM    6  C   UNL     1     -11.995  13.101  66.649  1.00  0.00    -0.451 A  
HETATM    7  C   UNL     1     -10.938  13.965  66.997  1.00  0.00    -0.295 A  
ENDROOT
BRANCH   7   8
HETATM    8  S   UNL     1     -10.275  13.973  68.666  1.00  0.00    -0.208 SA 
BRANCH   8   9
HETATM    9  S   UNL     1     -11.960  14.099  69.844  1.00  0.00    -0.355 SA 
BRANCH   9  10
HETATM   10  C   UNL     1     -12.240  12.412  70.390  1.00  0.00    -0.287 A  
HETATM   11  C   UNL     1     -11.597  11.338  69.744  1.00  0.00    -0.408 A  
HETATM   12  C   UNL     1     -11.736  10.033  70.215  1.00  0.00    -0.327 A  
HETATM   13  C   UNL     1     -12.511   9.780  71.338  1.00  0.00    -0.482 A  
HETATM   14  C   UNL     1     -13.148  10.844  71.974  1.00  0.00    -0.356 A  
HETATM   15  N   UNL     1     -13.026  12.156  71.523  1.00  0.00    -0.360 NA 
HETATM   16  O   UNL     1     -13.631  13.079  72.165  1.00  0.00    -0.523 OA 
ENDBRANCH   9  10
ENDBRANCH   8   9
ENDBRANCH   7   8
TORSDOF 3
ENDMDL
MODEL       38
REMARK 921   NORMALIZED FREE ENERGY PREDICTED BY IDOCK:   -5.19 KCAL/MOL
REMARK 922        TOTAL FREE ENERGY PREDICTED BY IDOCK:   -6.30 KCAL/MOL
REMARK 923 INTER-LIGAND FREE ENERGY PREDICTED BY IDOCK:   -6.12 KCAL/MOL
REMARK 924 INTRA-LIGAND FREE ENERGY PREDICTED BY IDOCK:   -0.18 KCAL/MOL
REMARK 927      BINDING AFFINITY PREDICTED BY RF-SCORE:    0.00 PKD
ROOT
HETATM    1  O   UNL     1     -11.548  13.888  69.103  1.00  0.00    -0.269 OA 
HETATM    2  N   UNL     1     -12.303  13.992  70.127  1.00  0.00    -0.345 NA 
HETATM    3  C   UNL     1     -12.797  15.250  70.464  1.00  0.00    -0.373 A  
HETATM    4  C   UNL     1     -13.634  15.449  71.558  1.00  0.00    -0.604 A  
HETATM    5  C   UNL     1     -13.993  14.360  72.340  1.00  0.00    -0.585 A  
HETATM    6  C   UNL     1     -13.514  13.088  72.023  1.00  0.00    -0.584 A  
HETATM    7  C   UNL     1     -12.659  12.891  70.921  1.00  0.00    -0.270 A  
ENDROOT
BRANCH   7   8
HETATM    8  S   UNL     1     -12.084  11.245  70.493  1.00  0.00    -0.384 SA 
BRANCH   8   9
HETATM    9  S   UNL     1     -13.156  10.024  71.759  1.00  0.00    -0.464 SA 
BRANCH   9  10
HETATM   10  C   UNL     1     -12.180   8.520  71.848  1.00  0.00    -0.352 A  
HETATM   11  C   UNL     1     -10.812   8.576  72.175  1.00  0.00    -0.427 A  
HETATM   12  C   UNL     1     -10.066   7.409  72.336  1.00  0.00    -0.228 A  
HETATM   13  C   UNL     1     -10.673   6.171  72.177  1.00  0.00    -0.277 A  
HETATM   14  C   UNL     1     -12.027   6.118  71.851  1.00  0.00    -0.218 A  
HETATM   15  N   UNL     1     -12.793   7.269  71.685  1.00  0.00    -0.368 NA 
HETATM   16  O   UNL     1     -14.030   7.140  71.398  1.00  0.00    -0.370 OA 
ENDBRANCH   9  10
ENDBRANCH   8   9
ENDBRANCH   7   8
TORSDOF 3
ENDMDL
MODEL       39
REMARK 921   NORMALIZED FREE ENERGY PREDICTED BY IDOCK:   -5.18 KCAL/MOL
REMARK 922        TOTAL FREE ENERGY PREDICTED BY IDOCK:   -6.28 KCAL/MOL
REMARK 923 INTER-LIGAND FREE ENERGY PREDICTED BY IDOCK:   -5.95 KCAL/MOL
REMARK 924 INTRA-LIGAND FREE ENERGY PREDICTED BY IDOCK:   -0.33 KCAL/MOL
REMARK 927      BINDING AFFINITY PREDICTED BY RF-SCORE:    0.00 PKD
ROOT
HETATM    1  O   UNL     1     -12.199  11.755  67.925  1.00  0.00    -0.538 OA 
HETATM    2  N   UNL     1     -11.460  11.262  67.009  1.00  0.00    -0.470 NA 
HETATM    3  C   UNL     1     -10.753  10.093  67.283  1.00  0.00    -0.254 A  
HETATM    4  C   UNL     1      -9.933   9.483  66.336  1.00  0.00    -0.339 A  
HETATM    5  C   UNL     1      -9.815  10.055  65.078  1.00  0.00    -0.374 A  
HETATM    6  C   UNL     1     -10.514  11.224  64.776  1.00  0.00    -0.384 A  
HETATM    7  C   UNL     1     -11.335  11.844  65.739  1.00  0.00    -0.299 A  
ENDROOT
BRANCH   7   8
HETATM    8  S   UNL     1     -12.266  13.324  65.328  1.00  0.00    -0.475 SA 
BRANCH   8   9
HETATM    9  S   UNL     1     -10.803  14.755  65.091  1.00  0.00    -0.432 SA 
BRANCH   9  10
HETATM   10  C   UNL     1     -10.759  15.602  66.672  1.00  0.00    -0.296 A  
HETATM   11  C   UNL     1     -11.542  15.143  67.749  1.00  0.00    -0.303 A  
HETATM   12  C   UNL     1     -11.447  15.738  69.007  1.00  0.00    -0.394 A  
HETATM   13  C   UNL     1     -10.568  16.792  69.211  1.00  0.00    -0.336 A  
HETATM   14  C   UNL     1      -9.795  17.245  68.144  1.00  0.00    -0.290 A  
HETATM   15  N   UNL     1      -9.872  16.669  66.878  1.00  0.00    -0.254 NA 
HETATM   16  O   UNL     1      -9.124  17.132  65.953  1.00  0.00    -0.513 OA 
ENDBRANCH   9  10
ENDBRANCH   8   9
ENDBRANCH   7   8
TORSDOF 3
ENDMDL
MODEL       40
REMARK 921   NORMALIZED FREE ENERGY PREDICTED BY IDOCK:   -5.17 KCAL/MOL
REMARK 922        TOTAL FREE ENERGY PREDICTED BY IDOCK:   -6.27 KCAL/MOL
REMARK 923 INTER-LIGAND FREE ENERGY PREDICTED BY IDOCK:   -6.18 KCAL/MOL
REMARK 924 INTRA-LIGAND FREE ENERGY PREDICTED BY IDOCK:   -0.09 KCAL/MOL
REMARK 927      BINDING AFFINITY PREDICTED BY RF-SCORE:    0.00 PKD
ROOT
HETATM    1  O   UNL     1     -13.311  15.766  70.843  1.00  0.00    -0.576 OA 
HETATM    2  N   UNL     1     -12.930  14.551  70.756  1.00  0.00    -0.359 NA 
HETATM    3  C   UNL     1     -13.323  13.658  71.751  1.00  0.00    -0.388 A  
HETATM    4  C   UNL     1     -12.961  12.314  71.726  1.00  0.00    -0.431 A  
HETATM    5  C   UNL     1     -12.185  11.843  70.677  1.00  0.00    -0.424 A  
HETATM    6  C   UNL     1     -11.780  12.715  69.665  1.00  0.00    -0.373 A  
HETATM    7  C   UNL     1     -12.140  14.077  69.698  1.00  0.00    -0.355 A  
ENDROOT
BRANCH   7   8
HETATM    8  S   UNL     1     -11.653  15.183  68.370  1.00  0.00    -0.324 SA 
BRANCH   8   9
HETATM    9  S   UNL     1     -10.458  16.567  69.319  1.00  0.00    -0.331 SA 
BRANCH   9  10
HETATM   10  C   UNL     1     -10.323  17.912  68.138  1.00  0.00    -0.389 A  
HETATM   11  C   UNL     1     -10.515  17.676  66.763  1.00  0.00    -0.289 A  
HETATM   12  C   UNL     1     -10.503  18.728  65.848  1.00  0.00    -0.424 A  
HETATM   13  C   UNL     1     -10.306  20.029  66.289  1.00  0.00    -0.570 A  
HETATM   14  C   UNL     1     -10.115  20.260  67.650  1.00  0.00    -0.375 A  
HETATM   15  N   UNL     1     -10.122  19.226  68.584  1.00  0.00    -0.426 NA 
HETATM   16  O   UNL     1      -9.951  19.518  69.815  1.00  0.00    -0.148 OA 
ENDBRANCH   9  10
ENDBRANCH   8   9
ENDBRANCH   7   8
TORSDOF 3
ENDMDL
MODEL       41
REMARK 921   NORMALIZED FREE ENERGY PREDICTED BY IDOCK:   -5.16 KCAL/MOL
REMARK 922        TOTAL FREE ENERGY PREDICTED BY IDOCK:   -6.26 KCAL/MOL
REMARK 923 INTER-LIGAND FREE ENERGY PREDICTED BY IDOCK:   -6.06 KCAL/MOL
REMARK 924 INTRA-LIGAND FREE ENERGY PREDICTED BY IDOCK:   -0.20 KCAL/MOL
REMARK 927      BINDING AFFINITY PREDICTED BY RF-SCORE:    0.00 PKD
ROOT
HETATM    1  O   UNL     1     -13.489  15.706  71.204  1.00  0.00    -0.552 OA 
HETATM    2  N   UNL     1     -13.082  14.517  70.981  1.00  0.00    -0.360 NA 
HETATM    3  C   UNL     1     -13.471  13.506  71.857  1.00  0.00    -0.442 A  
HETATM    4  C   UNL     1     -13.081  12.181  71.680  1.00  0.00    -0.413 A  
HETATM    5  C   UNL     1     -12.279  11.853  70.597  1.00  0.00    -0.424 A  
HETATM    6  C   UNL     1     -11.877  12.846  69.702  1.00  0.00    -0.387 A  
HETATM    7  C   UNL     1     -12.265  14.187  69.889  1.00  0.00    -0.359 A  
ENDROOT
BRANCH   7   8
HETATM    8  S   UNL     1     -11.781  15.451  68.709  1.00  0.00    -0.327 SA 
BRANCH   8   9
HETATM    9  S   UNL     1      -9.824  15.847  69.215  1.00  0.00    -0.270 SA 
BRANCH   9  10
HETATM   10  C   UNL     1      -9.522  17.485  68.546  1.00  0.00    -0.296 A  
HETATM   11  C   UNL     1     -10.574  18.227  67.974  1.00  0.00    -0.347 A  
HETATM   12  C   UNL     1     -10.371  19.534  67.534  1.00  0.00    -0.567 A  
HETATM   13  C   UNL     1      -9.120  20.123  67.663  1.00  0.00    -0.437 A  
HETATM   14  C   UNL     1      -8.081  19.387  68.228  1.00  0.00    -0.336 A  
HETATM   15  N   UNL     1      -8.258  18.080  68.674  1.00  0.00    -0.300 NA 
HETATM   16  O   UNL     1      -7.260  17.473  69.191  1.00  0.00    -0.238 OA 
ENDBRANCH   9  10
ENDBRANCH   8   9
ENDBRANCH   7   8
TORSDOF 3
ENDMDL
MODEL       42
REMARK 921   NORMALIZED FREE ENERGY PREDICTED BY IDOCK:   -5.13 KCAL/MOL
REMARK 922        TOTAL FREE ENERGY PREDICTED BY IDOCK:   -6.22 KCAL/MOL
REMARK 923 INTER-LIGAND FREE ENERGY PREDICTED BY IDOCK:   -6.00 KCAL/MOL
REMARK 924 INTRA-LIGAND FREE ENERGY PREDICTED BY IDOCK:   -0.22 KCAL/MOL
REMARK 927      BINDING AFFINITY PREDICTED BY RF-SCORE:    0.00 PKD
ROOT
HETATM    1  O   UNL     1     -10.331  10.594  64.438  1.00  0.00    -0.363 OA 
HETATM    2  N   UNL     1     -10.957  11.649  64.791  1.00  0.00    -0.303 NA 
HETATM    3  C   UNL     1     -11.271  12.594  63.816  1.00  0.00    -0.463 A  
HETATM    4  C   UNL     1     -11.961  13.766  64.114  1.00  0.00    -0.473 A  
HETATM    5  C   UNL     1     -12.353  14.004  65.424  1.00  0.00    -0.495 A  
HETATM    6  C   UNL     1     -12.054  13.072  66.420  1.00  0.00    -0.428 A  
HETATM    7  C   UNL     1     -11.347  11.892  66.117  1.00  0.00    -0.324 A  
ENDROOT
BRANCH   7   8
HETATM    8  S   UNL     1     -11.006  10.678  67.395  1.00  0.00    -0.269 SA 
BRANCH   8   9
HETATM    9  S   UNL     1     -11.069  11.785  69.131  1.00  0.00    -0.220 SA 
BRANCH   9  10
HETATM   10  C   UNL     1     -11.459  10.583  70.404  1.00  0.00    -0.341 A  
HETATM   11  C   UNL     1     -12.774  10.467  70.897  1.00  0.00    -0.495 A  
HETATM   12  C   UNL     1     -13.108   9.477  71.820  1.00  0.00    -0.504 A  
HETATM   13  C   UNL     1     -12.140   8.584  72.260  1.00  0.00    -0.455 A  
HETATM   14  C   UNL     1     -10.840   8.701  71.772  1.00  0.00    -0.325 A  
HETATM   15  N   UNL     1     -10.481   9.682  70.851  1.00  0.00    -0.306 NA 
HETATM   16  O   UNL     1      -9.272   9.719  70.441  1.00  0.00    -0.237 OA 
ENDBRANCH   9  10
ENDBRANCH   8   9
ENDBRANCH   7   8
TORSDOF 3
ENDMDL
MODEL       43
REMARK 921   NORMALIZED FREE ENERGY PREDICTED BY IDOCK:   -5.11 KCAL/MOL
REMARK 922        TOTAL FREE ENERGY PREDICTED BY IDOCK:   -6.20 KCAL/MOL
REMARK 923 INTER-LIGAND FREE ENERGY PREDICTED BY IDOCK:   -5.84 KCAL/MOL
REMARK 924 INTRA-LIGAND FREE ENERGY PREDICTED BY IDOCK:   -0.36 KCAL/MOL
REMARK 927      BINDING AFFINITY PREDICTED BY RF-SCORE:    0.00 PKD
ROOT
HETATM    1  O   UNL     1     -10.551   7.458  70.697  1.00  0.00    -0.217 OA 
HETATM    2  N   UNL     1     -11.353   8.386  71.052  1.00  0.00    -0.262 NA 
HETATM    3  C   UNL     1     -12.341   8.087  71.988  1.00  0.00    -0.326 A  
HETATM    4  C   UNL     1     -13.249   9.043  72.438  1.00  0.00    -0.507 A  
HETATM    5  C   UNL     1     -13.170  10.335  71.941  1.00  0.00    -0.550 A  
HETATM    6  C   UNL     1     -12.188  10.662  71.004  1.00  0.00    -0.498 A  
HETATM    7  C   UNL     1     -11.277   9.691  70.543  1.00  0.00    -0.297 A  
ENDROOT
BRANCH   7   8
HETATM    8  S   UNL     1      -9.988  10.130  69.372  1.00  0.00    -0.235 SA 
BRANCH   8   9
HETATM    9  S   UNL     1     -11.018  10.374  67.604  1.00  0.00    -0.285 SA 
BRANCH   9  10
HETATM   10  C   UNL     1     -11.328  12.139  67.518  1.00  0.00    -0.326 A  
HETATM   11  C   UNL     1     -10.865  12.995  68.537  1.00  0.00    -0.282 A  
HETATM   12  C   UNL     1     -11.021  14.377  68.436  1.00  0.00    -0.261 A  
HETATM   13  C   UNL     1     -11.632  14.926  67.318  1.00  0.00    -0.337 A  
HETATM   14  C   UNL     1     -12.090  14.078  66.312  1.00  0.00    -0.456 A  
HETATM   15  N   UNL     1     -11.948  12.695  66.389  1.00  0.00    -0.540 NA 
HETATM   16  O   UNL     1     -12.383  11.983  65.422  1.00  0.00    -0.457 OA 
ENDBRANCH   9  10
ENDBRANCH   8   9
ENDBRANCH   7   8
TORSDOF 3
ENDMDL
MODEL       44
REMARK 921   NORMALIZED FREE ENERGY PREDICTED BY IDOCK:   -5.10 KCAL/MOL
REMARK 922        TOTAL FREE ENERGY PREDICTED BY IDOCK:   -6.19 KCAL/MOL
REMARK 923 INTER-LIGAND FREE ENERGY PREDICTED BY IDOCK:   -5.93 KCAL/MOL
REMARK 924 INTRA-LIGAND FREE ENERGY PREDICTED BY IDOCK:   -0.25 KCAL/MOL
REMARK 927      BINDING AFFINITY PREDICTED BY RF-SCORE:    0.00 PKD
ROOT
HETATM    1  O   UNL     1     -10.538  17.180  68.731  1.00  0.00    -0.343 OA 
HETATM    2  N   UNL     1     -11.097  16.126  69.186  1.00  0.00    -0.309 NA 
HETATM    3  C   UNL     1     -11.398  16.068  70.545  1.00  0.00    -0.401 A  
HETATM    4  C   UNL     1     -12.016  14.962  71.121  1.00  0.00    -0.389 A  
HETATM    5  C   UNL     1     -12.346  13.879  70.319  1.00  0.00    -0.413 A  
HETATM    6  C   UNL     1     -12.059  13.912  68.953  1.00  0.00    -0.355 A  
HETATM    7  C   UNL     1     -11.424  15.029  68.375  1.00  0.00    -0.323 A  
ENDROOT
BRANCH   7   8
HETATM    8  S   UNL     1     -11.098  15.083  66.610  1.00  0.00    -0.303 SA 
BRANCH   8   9
HETATM    9  S   UNL     1     -12.449  13.733  65.837  1.00  0.00    -0.443 SA 
BRANCH   9  10
HETATM   10  C   UNL     1     -11.423  12.427  65.158  1.00  0.00    -0.334 A  
HETATM   11  C   UNL     1     -10.921  12.524  63.846  1.00  0.00    -0.471 A  
HETATM   12  C   UNL     1     -10.050  11.560  63.340  1.00  0.00    -0.454 A  
HETATM   13  C   UNL     1      -9.661  10.490  64.135  1.00  0.00    -0.388 A  
HETATM   14  C   UNL     1     -10.160  10.396  65.432  1.00  0.00    -0.284 A  
HETATM   15  N   UNL     1     -11.032  11.345  65.960  1.00  0.00    -0.264 NA 
HETATM   16  O   UNL     1     -11.438  11.196  67.162  1.00  0.00    -0.461 OA 
ENDBRANCH   9  10
ENDBRANCH   8   9
ENDBRANCH   7   8
TORSDOF 3
ENDMDL
MODEL       45
REMARK 921   NORMALIZED FREE ENERGY PREDICTED BY IDOCK:   -5.09 KCAL/MOL
REMARK 922        TOTAL FREE ENERGY PREDICTED BY IDOCK:   -6.18 KCAL/MOL
REMARK 923 INTER-LIGAND FREE ENERGY PREDICTED BY IDOCK:   -5.99 KCAL/MOL
REMARK 924 INTRA-LIGAND FREE ENERGY PREDICTED BY IDOCK:   -0.19 KCAL/MOL
REMARK 927      BINDING AFFINITY PREDICTED BY RF-SCORE:    0.00 PKD
ROOT
HETATM    1  O   UNL     1     -10.298  10.571  64.463  1.00  0.00    -0.348 OA 
HETATM    2  N   UNL     1     -10.954  11.596  64.850  1.00  0.00    -0.300 NA 
HETATM    3  C   UNL     1     -11.414  12.492  63.888  1.00  0.00    -0.437 A  
HETATM    4  C   UNL     1     -12.146  13.628  64.223  1.00  0.00    -0.480 A  
HETATM    5  C   UNL     1     -12.429  13.879  65.558  1.00  0.00    -0.541 A  
HETATM    6  C   UNL     1     -11.982  12.996  66.542  1.00  0.00    -0.457 A  
HETATM    7  C   UNL     1     -11.234  11.852  66.201  1.00  0.00    -0.333 A  
ENDROOT
BRANCH   7   8
HETATM    8  S   UNL     1     -10.701  10.697  67.468  1.00  0.00    -0.292 SA 
BRANCH   8   9
HETATM    9  S   UNL     1     -11.701  11.343  69.149  1.00  0.00    -0.368 SA 
BRANCH   9  10
HETATM   10  C   UNL     1     -11.403  10.052  70.360  1.00  0.00    -0.320 A  
HETATM   11  C   UNL     1     -10.099   9.567  70.579  1.00  0.00    -0.347 A  
HETATM   12  C   UNL     1      -9.843   8.629  71.578  1.00  0.00    -0.342 A  
HETATM   13  C   UNL     1     -10.879   8.167  72.377  1.00  0.00    -0.409 A  
HETATM   14  C   UNL     1     -12.169   8.646  72.158  1.00  0.00    -0.386 A  
HETATM   15  N   UNL     1     -12.450   9.582  71.165  1.00  0.00    -0.319 NA 
HETATM   16  O   UNL     1     -13.656   9.983  71.032  1.00  0.00    -0.317 OA 
ENDBRANCH   9  10
ENDBRANCH   8   9
ENDBRANCH   7   8
TORSDOF 3
ENDMDL
MODEL       46
REMARK 921   NORMALIZED FREE ENERGY PREDICTED BY IDOCK:   -5.07 KCAL/MOL
REMARK 922        TOTAL FREE ENERGY PREDICTED BY IDOCK:   -6.16 KCAL/MOL
REMARK 923 INTER-LIGAND FREE ENERGY PREDICTED BY IDOCK:   -5.82 KCAL/MOL
REMARK 924 INTRA-LIGAND FREE ENERGY PREDICTED BY IDOCK:   -0.34 KCAL/MOL
REMARK 927      BINDING AFFINITY PREDICTED BY RF-SCORE:    0.00 PKD
ROOT
HETATM    1  O   UNL     1     -11.562  12.555  68.302  1.00  0.00    -0.285 OA 
HETATM    2  N   UNL     1     -11.536  13.569  69.077  1.00  0.00    -0.282 NA 
HETATM    3  C   UNL     1     -12.346  13.560  70.211  1.00  0.00    -0.300 A  
HETATM    4  C   UNL     1     -12.370  14.620  71.114  1.00  0.00    -0.403 A  
HETATM    5  C   UNL     1     -11.561  15.722  70.882  1.00  0.00    -0.440 A  
HETATM    6  C   UNL     1     -10.737  15.756  69.755  1.00  0.00    -0.317 A  
HETATM    7  C   UNL     1     -10.722  14.687  68.838  1.00  0.00    -0.248 A  
ENDROOT
BRANCH   7   8
HETATM    8  S   UNL     1      -9.626  14.718  67.416  1.00  0.00    -0.213 SA 
BRANCH   8   9
HETATM    9  S   UNL     1     -10.829  15.439  65.907  1.00  0.00    -0.306 SA 
BRANCH   9  10
HETATM   10  C   UNL     1     -11.219  13.987  64.926  1.00  0.00    -0.362 A  
HETATM   11  C   UNL     1     -10.196  13.271  64.274  1.00  0.00    -0.221 A  
HETATM   12  C   UNL     1     -10.476  12.092  63.585  1.00  0.00    -0.494 A  
HETATM   13  C   UNL     1     -11.775  11.606  63.541  1.00  0.00    -0.384 A  
HETATM   14  C   UNL     1     -12.786  12.316  64.186  1.00  0.00    -0.330 A  
HETATM   15  N   UNL     1     -12.532  13.497  64.880  1.00  0.00    -0.559 NA 
HETATM   16  O   UNL     1     -13.509  14.086  65.454  1.00  0.00    -0.679 OA 
ENDBRANCH   9  10
ENDBRANCH   8   9
ENDBRANCH   7   8
TORSDOF 3
ENDMDL
MODEL       47
REMARK 921   NORMALIZED FREE ENERGY PREDICTED BY IDOCK:   -5.05 KCAL/MOL
REMARK 922        TOTAL FREE ENERGY PREDICTED BY IDOCK:   -6.13 KCAL/MOL
REMARK 923 INTER-LIGAND FREE ENERGY PREDICTED BY IDOCK:   -5.88 KCAL/MOL
REMARK 924 INTRA-LIGAND FREE ENERGY PREDICTED BY IDOCK:   -0.26 KCAL/MOL
REMARK 927      BINDING AFFINITY PREDICTED BY RF-SCORE:    0.00 PKD
ROOT
HETATM    1  O   UNL     1     -10.336   8.483  69.995  1.00  0.00    -0.200 OA 
HETATM    2  N   UNL     1     -11.182   9.320  70.456  1.00  0.00    -0.255 NA 
HETATM    3  C   UNL     1     -12.016   8.916  71.496  1.00  0.00    -0.333 A  
HETATM    4  C   UNL     1     -12.959   9.769  72.065  1.00  0.00    -0.515 A  
HETATM    5  C   UNL     1     -13.074  11.065  71.583  1.00  0.00    -0.543 A  
HETATM    6  C   UNL     1     -12.248  11.496  70.543  1.00  0.00    -0.469 A  
HETATM    7  C   UNL     1     -11.302  10.628  69.964  1.00  0.00    -0.324 A  
ENDROOT
BRANCH   7   8
HETATM    8  S   UNL     1     -10.213  11.204  68.657  1.00  0.00    -0.210 SA 
BRANCH   8   9
HETATM    9  S   UNL     1     -10.630  13.218  68.546  1.00  0.00    -0.247 SA 
BRANCH   9  10
HETATM   10  C   UNL     1     -11.140  13.466  66.843  1.00  0.00    -0.292 A  
HETATM   11  C   UNL     1     -11.774  12.430  66.131  1.00  0.00    -0.460 A  
HETATM   12  C   UNL     1     -12.256  12.640  64.839  1.00  0.00    -0.531 A  
HETATM   13  C   UNL     1     -12.119  13.885  64.242  1.00  0.00    -0.477 A  
HETATM   14  C   UNL     1     -11.490  14.909  64.948  1.00  0.00    -0.407 A  
HETATM   15  N   UNL     1     -11.000  14.724  66.239  1.00  0.00    -0.325 NA 
HETATM   16  O   UNL     1     -10.446  15.713  66.826  1.00  0.00    -0.286 OA 
ENDBRANCH   9  10
ENDBRANCH   8   9
ENDBRANCH   7   8
TORSDOF 3
ENDMDL
MODEL       48
REMARK 921   NORMALIZED FREE ENERGY PREDICTED BY IDOCK:   -5.01 KCAL/MOL
REMARK 922        TOTAL FREE ENERGY PREDICTED BY IDOCK:   -6.09 KCAL/MOL
REMARK 923 INTER-LIGAND FREE ENERGY PREDICTED BY IDOCK:   -5.90 KCAL/MOL
REMARK 924 INTRA-LIGAND FREE ENERGY PREDICTED BY IDOCK:   -0.19 KCAL/MOL
REMARK 927      BINDING AFFINITY PREDICTED BY RF-SCORE:    0.00 PKD
ROOT
HETATM    1  O   UNL     1     -13.394  10.035  71.095  1.00  0.00    -0.380 OA 
HETATM    2  N   UNL     1     -12.161   9.705  71.114  1.00  0.00    -0.330 NA 
HETATM    3  C   UNL     1     -11.737   8.774  72.060  1.00  0.00    -0.372 A  
HETATM    4  C   UNL     1     -10.413   8.352  72.142  1.00  0.00    -0.396 A  
HETATM    5  C   UNL     1      -9.482   8.872  71.254  1.00  0.00    -0.343 A  
HETATM    6  C   UNL     1      -9.881   9.804  70.295  1.00  0.00    -0.296 A  
HETATM    7  C   UNL     1     -11.219  10.237  70.220  1.00  0.00    -0.323 A  
ENDROOT
BRANCH   7   8
HETATM    8  S   UNL     1     -11.734  11.402  68.954  1.00  0.00    -0.354 SA 
BRANCH   8   9
HETATM    9  S   UNL     1     -10.392  11.066  67.427  1.00  0.00    -0.218 SA 
BRANCH   9  10
HETATM   10  C   UNL     1     -11.147  11.850  66.000  1.00  0.00    -0.322 A  
HETATM   11  C   UNL     1     -11.942  13.002  66.157  1.00  0.00    -0.488 A  
HETATM   12  C   UNL     1     -12.459  13.671  65.048  1.00  0.00    -0.454 A  
HETATM   13  C   UNL     1     -12.187  13.206  63.769  1.00  0.00    -0.528 A  
HETATM   14  C   UNL     1     -11.402  12.065  63.616  1.00  0.00    -0.452 A  
HETATM   15  N   UNL     1     -10.875  11.379  64.708  1.00  0.00    -0.297 NA 
HETATM   16  O   UNL     1     -10.155  10.347  64.488  1.00  0.00    -0.346 OA 
ENDBRANCH   9  10
ENDBRANCH   8   9
ENDBRANCH   7   8
TORSDOF 3
ENDMDL
MODEL       49
REMARK 921   NORMALIZED FREE ENERGY PREDICTED BY IDOCK:   -5.00 KCAL/MOL
REMARK 922        TOTAL FREE ENERGY PREDICTED BY IDOCK:   -6.08 KCAL/MOL
REMARK 923 INTER-LIGAND FREE ENERGY PREDICTED BY IDOCK:   -5.85 KCAL/MOL
REMARK 924 INTRA-LIGAND FREE ENERGY PREDICTED BY IDOCK:   -0.23 KCAL/MOL
REMARK 927      BINDING AFFINITY PREDICTED BY RF-SCORE:    0.00 PKD
ROOT
HETATM    1  O   UNL     1     -11.365  16.648  64.043  1.00  0.00    -1.120 OA 
HETATM    2  N   UNL     1     -10.976  15.986  65.063  1.00  0.00    -0.466 NA 
HETATM    3  C   UNL     1     -11.133  14.602  65.056  1.00  0.00    -0.394 A  
HETATM    4  C   UNL     1     -10.725  13.804  66.122  1.00  0.00    -0.283 A  
HETATM    5  C   UNL     1     -10.142  14.403  67.229  1.00  0.00    -0.251 A  
HETATM    6  C   UNL     1      -9.970  15.788  67.261  1.00  0.00    -0.238 A  
HETATM    7  C   UNL     1     -10.392  16.594  66.185  1.00  0.00    -0.330 A  
ENDROOT
BRANCH   7   8
HETATM    8  S   UNL     1     -10.126  18.370  66.214  1.00  0.00    -0.373 SA 
BRANCH   8   9
HETATM    9  S   UNL     1      -9.097  18.667  67.974  1.00  0.00    -0.313 SA 
BRANCH   9  10
HETATM   10  C   UNL     1      -7.665  19.632  67.486  1.00  0.00    -0.267 A  
HETATM   11  C   UNL     1      -7.507  20.048  66.150  1.00  0.00    -0.324 A  
HETATM   12  C   UNL     1      -6.447  20.874  65.778  1.00  0.00    -0.210 A  
HETATM   13  C   UNL     1      -5.534  21.301  66.732  1.00  0.00    -0.325 A  
HETATM   14  C   UNL     1      -5.691  20.888  68.053  1.00  0.00    -0.315 A  
HETATM   15  N   UNL     1      -6.741  20.063  68.449  1.00  0.00    -0.292 NA 
HETATM   16  O   UNL     1      -6.826  19.735  69.681  1.00  0.00    -0.348 OA 
ENDBRANCH   9  10
ENDBRANCH   8   9
ENDBRANCH   7   8
TORSDOF 3
ENDMDL
MODEL       50
REMARK 921   NORMALIZED FREE ENERGY PREDICTED BY IDOCK:   -4.97 KCAL/MOL
REMARK 922        TOTAL FREE ENERGY PREDICTED BY IDOCK:   -6.04 KCAL/MOL
REMARK 923 INTER-LIGAND FREE ENERGY PREDICTED BY IDOCK:   -5.66 KCAL/MOL
REMARK 924 INTRA-LIGAND FREE ENERGY PREDICTED BY IDOCK:   -0.38 KCAL/MOL
REMARK 927      BINDING AFFINITY PREDICTED BY RF-SCORE:    0.00 PKD
ROOT
HETATM    1  O   UNL     1     -11.645   8.358  70.579  1.00  0.00    -0.238 OA 
HETATM    2  N   UNL     1     -11.937   9.601  70.582  1.00  0.00    -0.258 NA 
HETATM    3  C   UNL     1     -12.700  10.102  71.634  1.00  0.00    -0.447 A  
HETATM    4  C   UNL     1     -13.053  11.446  71.720  1.00  0.00    -0.523 A  
HETATM    5  C   UNL     1     -12.631  12.319  70.728  1.00  0.00    -0.302 A  
HETATM    6  C   UNL     1     -11.863  11.844  69.664  1.00  0.00    -0.406 A  
HETATM    7  C   UNL     1     -11.516  10.482  69.575  1.00  0.00    -0.272 A  
ENDROOT
BRANCH   7   8
HETATM    8  S   UNL     1     -10.489   9.887  68.227  1.00  0.00    -0.222 SA 
BRANCH   8   9
HETATM    9  S   UNL     1      -9.727  11.619  67.411  1.00  0.00    -0.177 SA 
BRANCH   9  10
HETATM   10  C   UNL     1     -10.746  11.905  65.961  1.00  0.00    -0.285 A  
HETATM   11  C   UNL     1     -11.891  12.720  66.045  1.00  0.00    -0.495 A  
HETATM   12  C   UNL     1     -12.639  13.022  64.907  1.00  0.00    -0.490 A  
HETATM   13  C   UNL     1     -12.252  12.523  63.671  1.00  0.00    -0.642 A  
HETATM   14  C   UNL     1     -11.120  11.716  63.591  1.00  0.00    -0.425 A  
HETATM   15  N   UNL     1     -10.357  11.398  64.713  1.00  0.00    -0.275 NA 
HETATM   16  O   UNL     1      -9.326  10.661  64.558  1.00  0.00    -0.206 OA 
ENDBRANCH   9  10
ENDBRANCH   8   9
ENDBRANCH   7   8
TORSDOF 3
ENDMDL
MODEL       51
REMARK 921   NORMALIZED FREE ENERGY PREDICTED BY IDOCK:   -4.97 KCAL/MOL
REMARK 922        TOTAL FREE ENERGY PREDICTED BY IDOCK:   -6.03 KCAL/MOL
REMARK 923 INTER-LIGAND FREE ENERGY PREDICTED BY IDOCK:   -5.75 KCAL/MOL
REMARK 924 INTRA-LIGAND FREE ENERGY PREDICTED BY IDOCK:   -0.29 KCAL/MOL
REMARK 927      BINDING AFFINITY PREDICTED BY RF-SCORE:    0.00 PKD
ROOT
HETATM    1  O   UNL     1     -10.140  15.679  66.527  1.00  0.00    -0.261 OA 
HETATM    2  N   UNL     1     -10.878  14.735  66.088  1.00  0.00    -0.314 NA 
HETATM    3  C   UNL     1     -11.406  14.847  64.803  1.00  0.00    -0.397 A  
HETATM    4  C   UNL     1     -12.211  13.858  64.243  1.00  0.00    -0.447 A  
HETATM    5  C   UNL     1     -12.498  12.722  64.985  1.00  0.00    -0.572 A  
HETATM    6  C   UNL     1     -11.980  12.583  66.274  1.00  0.00    -0.410 A  
HETATM    7  C   UNL     1     -11.174  13.589  66.841  1.00  0.00    -0.311 A  
ENDROOT
BRANCH   7   8
HETATM    8  S   UNL     1     -10.474  13.382  68.482  1.00  0.00    -0.236 SA 
BRANCH   8   9
HETATM    9  S   UNL     1     -10.116  11.357  68.593  1.00  0.00    -0.193 SA 
BRANCH   9  10
HETATM   10  C   UNL     1     -11.165  10.799  69.939  1.00  0.00    -0.300 A  
HETATM   11  C   UNL     1     -12.119  11.667  70.504  1.00  0.00    -0.458 A  
HETATM   12  C   UNL     1     -13.001  11.218  71.487  1.00  0.00    -0.520 A  
HETATM   13  C   UNL     1     -12.948   9.899  71.916  1.00  0.00    -0.545 A  
HETATM   14  C   UNL     1     -12.001   9.043  71.356  1.00  0.00    -0.332 A  
HETATM   15  N   UNL     1     -11.110   9.468  70.374  1.00  0.00    -0.259 NA 
HETATM   16  O   UNL     1     -10.278   8.622  69.900  1.00  0.00    -0.193 OA 
ENDBRANCH   9  10
ENDBRANCH   8   9
ENDBRANCH   7   8
TORSDOF 3
ENDMDL
MODEL       52
REMARK 921   NORMALIZED FREE ENERGY PREDICTED BY IDOCK:   -4.97 KCAL/MOL
REMARK 922        TOTAL FREE ENERGY PREDICTED BY IDOCK:   -6.03 KCAL/MOL
REMARK 923 INTER-LIGAND FREE ENERGY PREDICTED BY IDOCK:   -5.84 KCAL/MOL
REMARK 924 INTRA-LIGAND FREE ENERGY PREDICTED BY IDOCK:   -0.19 KCAL/MOL
REMARK 927      BINDING AFFINITY PREDICTED BY RF-SCORE:    0.00 PKD
ROOT
HETATM    1  O   UNL     1     -10.588  15.872  70.533  1.00  0.00    -0.257 OA 
HETATM    2  N   UNL     1     -11.444  15.141  71.135  1.00  0.00    -0.336 NA 
HETATM    3  C   UNL     1     -11.666  15.359  72.493  1.00  0.00    -0.463 A  
HETATM    4  C   UNL     1     -12.589  14.614  73.222  1.00  0.00    -0.505 A  
HETATM    5  C   UNL     1     -13.316  13.623  72.578  1.00  0.00    -0.638 A  
HETATM    6  C   UNL     1     -13.116  13.386  71.217  1.00  0.00    -0.317 A  
HETATM    7  C   UNL     1     -12.174  14.135  70.484  1.00  0.00    -0.361 A  
ENDROOT
BRANCH   7   8
HETATM    8  S   UNL     1     -11.955  13.855  68.724  1.00  0.00    -0.324 SA 
BRANCH   8   9
HETATM    9  S   UNL     1     -11.486  11.852  68.617  1.00  0.00    -0.321 SA 
BRANCH   9  10
HETATM   10  C   UNL     1     -11.222  11.556  66.867  1.00  0.00    -0.298 A  
HETATM   11  C   UNL     1     -11.820  12.393  65.904  1.00  0.00    -0.467 A  
HETATM   12  C   UNL     1     -11.549  12.230  64.546  1.00  0.00    -0.418 A  
HETATM   13  C   UNL     1     -10.675  11.235  64.129  1.00  0.00    -0.436 A  
HETATM   14  C   UNL     1     -10.086  10.407  65.082  1.00  0.00    -0.308 A  
HETATM   15  N   UNL     1     -10.341  10.550  66.444  1.00  0.00    -0.234 NA 
HETATM   16  O   UNL     1      -9.755   9.760  67.259  1.00  0.00    -0.158 OA 
ENDBRANCH   9  10
ENDBRANCH   8   9
ENDBRANCH   7   8
TORSDOF 3
ENDMDL
MODEL       53
REMARK 921   NORMALIZED FREE ENERGY PREDICTED BY IDOCK:   -4.96 KCAL/MOL
REMARK 922        TOTAL FREE ENERGY PREDICTED BY IDOCK:   -6.02 KCAL/MOL
REMARK 923 INTER-LIGAND FREE ENERGY PREDICTED BY IDOCK:   -5.69 KCAL/MOL
REMARK 924 INTRA-LIGAND FREE ENERGY PREDICTED BY IDOCK:   -0.33 KCAL/MOL
REMARK 927      BINDING AFFINITY PREDICTED BY RF-SCORE:    0.00 PKD
ROOT
HETATM    1  O   UNL     1     -13.789  13.788  72.681  1.00  0.00    -0.691 OA 
HETATM    2  N   UNL     1     -13.148  13.076  71.838  1.00  0.00    -0.400 NA 
HETATM    3  C   UNL     1     -13.271  11.690  71.908  1.00  0.00    -0.369 A  
HETATM    4  C   UNL     1     -12.614  10.841  71.021  1.00  0.00    -0.520 A  
HETATM    5  C   UNL     1     -11.810  11.390  70.033  1.00  0.00    -0.440 A  
HETATM    6  C   UNL     1     -11.671  12.776  69.938  1.00  0.00    -0.321 A  
HETATM    7  C   UNL     1     -12.329  13.632  70.843  1.00  0.00    -0.371 A  
ENDROOT
BRANCH   7   8
HETATM    8  S   UNL     1     -12.181  15.414  70.687  1.00  0.00    -0.417 SA 
BRANCH   8   9
HETATM    9  S   UNL     1     -11.674  15.677  68.708  1.00  0.00    -0.323 SA 
BRANCH   9  10
HETATM   10  C   UNL     1      -9.978  16.262  68.764  1.00  0.00    -0.237 A  
HETATM   11  C   UNL     1      -8.992  15.525  69.447  1.00  0.00    -0.275 A  
HETATM   12  C   UNL     1      -7.655  15.922  69.421  1.00  0.00    -0.210 A  
HETATM   13  C   UNL     1      -7.282  17.055  68.710  1.00  0.00    -0.226 A  
HETATM   14  C   UNL     1      -8.260  17.783  68.036  1.00  0.00    -0.248 A  
HETATM   15  N   UNL     1      -9.601  17.407  68.048  1.00  0.00    -0.268 NA 
HETATM   16  O   UNL     1     -10.438  18.120  67.397  1.00  0.00    -0.375 OA 
ENDBRANCH   9  10
ENDBRANCH   8   9
ENDBRANCH   7   8
TORSDOF 3
ENDMDL
MODEL       54
REMARK 921   NORMALIZED FREE ENERGY PREDICTED BY IDOCK:   -4.95 KCAL/MOL
REMARK 922        TOTAL FREE ENERGY PREDICTED BY IDOCK:   -6.02 KCAL/MOL
REMARK 923 INTER-LIGAND FREE ENERGY PREDICTED BY IDOCK:   -5.82 KCAL/MOL
REMARK 924 INTRA-LIGAND FREE ENERGY PREDICTED BY IDOCK:   -0.20 KCAL/MOL
REMARK 927      BINDING AFFINITY PREDICTED BY RF-SCORE:    0.00 PKD
ROOT
HETATM    1  O   UNL     1      -7.546  17.922  65.468  1.00  0.00    -0.518 OA 
HETATM    2  N   UNL     1      -8.550  18.397  66.098  1.00  0.00    -0.490 NA 
HETATM    3  C   UNL     1      -8.516  19.733  66.492  1.00  0.00    -0.345 A  
HETATM    4  C   UNL     1      -9.572  20.332  67.173  1.00  0.00    -0.580 A  
HETATM    5  C   UNL     1     -10.698  19.578  67.469  1.00  0.00    -0.565 A  
HETATM    6  C   UNL     1     -10.760  18.238  67.084  1.00  0.00    -0.334 A  
HETATM    7  C   UNL     1      -9.686  17.632  66.403  1.00  0.00    -0.294 A  
ENDROOT
BRANCH   7   8
HETATM    8  S   UNL     1      -9.791  15.920  65.870  1.00  0.00    -0.359 SA 
BRANCH   8   9
HETATM    9  S   UNL     1     -11.036  15.064  67.270  1.00  0.00    -0.335 SA 
BRANCH   9  10
HETATM   10  C   UNL     1     -10.492  13.356  67.354  1.00  0.00    -0.243 A  
HETATM   11  C   UNL     1      -9.368  13.003  68.126  1.00  0.00    -0.217 A  
HETATM   12  C   UNL     1      -8.990  11.669  68.272  1.00  0.00    -0.185 A  
HETATM   13  C   UNL     1      -9.728  10.668  67.656  1.00  0.00    -0.186 A  
HETATM   14  C   UNL     1     -10.838  11.019  66.891  1.00  0.00    -0.269 A  
HETATM   15  N   UNL     1     -11.236  12.344  66.730  1.00  0.00    -0.292 NA 
HETATM   16  O   UNL     1     -12.271  12.587  66.022  1.00  0.00    -0.605 OA 
ENDBRANCH   9  10
ENDBRANCH   8   9
ENDBRANCH   7   8
TORSDOF 3
ENDMDL
MODEL       55
REMARK 921   NORMALIZED FREE ENERGY PREDICTED BY IDOCK:   -4.95 KCAL/MOL
REMARK 922        TOTAL FREE ENERGY PREDICTED BY IDOCK:   -6.01 KCAL/MOL
REMARK 923 INTER-LIGAND FREE ENERGY PREDICTED BY IDOCK:   -5.76 KCAL/MOL
REMARK 924 INTRA-LIGAND FREE ENERGY PREDICTED BY IDOCK:   -0.25 KCAL/MOL
REMARK 927      BINDING AFFINITY PREDICTED BY RF-SCORE:    0.00 PKD
ROOT
HETATM    1  O   UNL     1     -11.049  11.256  67.162  1.00  0.00    -0.279 OA 
HETATM    2  N   UNL     1     -10.764  11.332  65.920  1.00  0.00    -0.256 NA 
HETATM    3  C   UNL     1      -9.935  10.358  65.367  1.00  0.00    -0.295 A  
HETATM    4  C   UNL     1      -9.584  10.361  64.020  1.00  0.00    -0.376 A  
HETATM    5  C   UNL     1     -10.074  11.364  63.197  1.00  0.00    -0.390 A  
HETATM    6  C   UNL     1     -10.909  12.351  63.723  1.00  0.00    -0.500 A  
HETATM    7  C   UNL     1     -11.255  12.351  65.089  1.00  0.00    -0.315 A  
ENDROOT
BRANCH   7   8
HETATM    8  S   UNL     1     -12.365  13.598  65.750  1.00  0.00    -0.482 SA 
BRANCH   8   9
HETATM    9  S   UNL     1     -11.083  15.048  66.456  1.00  0.00    -0.304 SA 
BRANCH   9  10
HETATM   10  C   UNL     1     -11.394  15.084  68.224  1.00  0.00    -0.318 A  
HETATM   11  C   UNL     1     -11.900  13.946  68.882  1.00  0.00    -0.393 A  
HETATM   12  C   UNL     1     -12.060  13.932  70.267  1.00  0.00    -0.423 A  
HETATM   13  C   UNL     1     -11.712  15.048  71.016  1.00  0.00    -0.379 A  
HETATM   14  C   UNL     1     -11.212  16.173  70.363  1.00  0.00    -0.381 A  
HETATM   15  N   UNL     1     -11.045  16.211  68.981  1.00  0.00    -0.316 NA 
HETATM   16  O   UNL     1     -10.571  17.275  68.455  1.00  0.00    -0.354 OA 
ENDBRANCH   9  10
ENDBRANCH   8   9
ENDBRANCH   7   8
TORSDOF 3
ENDMDL
MODEL       56
REMARK 921   NORMALIZED FREE ENERGY PREDICTED BY IDOCK:   -4.93 KCAL/MOL
REMARK 922        TOTAL FREE ENERGY PREDICTED BY IDOCK:   -5.99 KCAL/MOL
REMARK 923 INTER-LIGAND FREE ENERGY PREDICTED BY IDOCK:   -5.72 KCAL/MOL
REMARK 924 INTRA-LIGAND FREE ENERGY PREDICTED BY IDOCK:   -0.27 KCAL/MOL
REMARK 927      BINDING AFFINITY PREDICTED BY RF-SCORE:    0.00 PKD
ROOT
HETATM    1  O   UNL     1     -10.028  17.036  65.577  1.00  0.00    -0.567 OA 
HETATM    2  N   UNL     1      -9.134  16.870  66.473  1.00  0.00    -0.258 NA 
HETATM    3  C   UNL     1      -7.806  17.133  66.142  1.00  0.00    -0.268 A  
HETATM    4  C   UNL     1      -6.771  16.988  67.063  1.00  0.00    -0.238 A  
HETATM    5  C   UNL     1      -7.067  16.571  68.352  1.00  0.00    -0.160 A  
HETATM    6  C   UNL     1      -8.390  16.304  68.710  1.00  0.00    -0.235 A  
HETATM    7  C   UNL     1      -9.434  16.442  67.775  1.00  0.00    -0.222 A  
ENDROOT
BRANCH   7   8
HETATM    8  S   UNL     1     -11.138  16.141  68.255  1.00  0.00    -0.331 SA 
BRANCH   8   9
HETATM    9  S   UNL     1     -11.047  14.312  69.200  1.00  0.00    -0.263 SA 
BRANCH   9  10
HETATM   10  C   UNL     1     -11.773  14.616  70.813  1.00  0.00    -0.279 A  
HETATM   11  C   UNL     1     -11.637  15.874  71.430  1.00  0.00    -0.529 A  
HETATM   12  C   UNL     1     -12.272  16.150  72.640  1.00  0.00    -0.625 A  
HETATM   13  C   UNL     1     -13.055  15.180  73.249  1.00  0.00    -0.622 A  
HETATM   14  C   UNL     1     -13.187  13.934  72.638  1.00  0.00    -0.494 A  
HETATM   15  N   UNL     1     -12.562  13.634  71.430  1.00  0.00    -0.349 NA 
HETATM   16  O   UNL     1     -12.739  12.474  70.925  1.00  0.00    -0.285 OA 
ENDBRANCH   9  10
ENDBRANCH   8   9
ENDBRANCH   7   8
TORSDOF 3
ENDMDL
MODEL       57
REMARK 921   NORMALIZED FREE ENERGY PREDICTED BY IDOCK:   -4.91 KCAL/MOL
REMARK 922        TOTAL FREE ENERGY PREDICTED BY IDOCK:   -5.96 KCAL/MOL
REMARK 923 INTER-LIGAND FREE ENERGY PREDICTED BY IDOCK:   -5.74 KCAL/MOL
REMARK 924 INTRA-LIGAND FREE ENERGY PREDICTED BY IDOCK:   -0.22 KCAL/MOL
REMARK 927      BINDING AFFINITY PREDICTED BY RF-SCORE:    0.00 PKD
ROOT
HETATM    1  O   UNL     1      -7.929  16.813  69.012  1.00  0.00    -0.238 OA 
HETATM    2  N   UNL     1      -8.832  17.492  68.418  1.00  0.00    -0.270 NA 
HETATM    3  C   UNL     1      -8.832  18.877  68.573  1.00  0.00    -0.352 A  
HETATM    4  C   UNL     1      -9.774  19.692  67.952  1.00  0.00    -0.482 A  
HETATM    5  C   UNL     1     -10.746  19.111  67.150  1.00  0.00    -0.567 A  
HETATM    6  C   UNL     1     -10.767  17.726  66.975  1.00  0.00    -0.192 A  
HETATM    7  C   UNL     1      -9.818  16.903  67.613  1.00  0.00    -0.259 A  
ENDROOT
BRANCH   7   8
HETATM    8  S   UNL     1      -9.823  15.127  67.347  1.00  0.00    -0.224 SA 
BRANCH   8   9
HETATM    9  S   UNL     1     -11.825  14.643  67.419  1.00  0.00    -0.275 SA 
BRANCH   9  10
HETATM   10  C   UNL     1     -11.900  13.258  68.558  1.00  0.00    -0.349 A  
HETATM   11  C   UNL     1     -12.093  13.479  69.935  1.00  0.00    -0.408 A  
HETATM   12  C   UNL     1     -12.243  12.408  70.817  1.00  0.00    -0.336 A  
HETATM   13  C   UNL     1     -12.210  11.106  70.338  1.00  0.00    -0.457 A  
HETATM   14  C   UNL     1     -12.017  10.891  68.975  1.00  0.00    -0.251 A  
HETATM   15  N   UNL     1     -11.864  11.942  68.075  1.00  0.00    -0.526 NA 
HETATM   16  O   UNL     1     -11.702  11.666  66.839  1.00  0.00    -0.552 OA 
ENDBRANCH   9  10
ENDBRANCH   8   9
ENDBRANCH   7   8
TORSDOF 3
ENDMDL
MODEL       58
REMARK 921   NORMALIZED FREE ENERGY PREDICTED BY IDOCK:   -4.90 KCAL/MOL
REMARK 922        TOTAL FREE ENERGY PREDICTED BY IDOCK:   -5.96 KCAL/MOL
REMARK 923 INTER-LIGAND FREE ENERGY PREDICTED BY IDOCK:   -5.27 KCAL/MOL
REMARK 924 INTRA-LIGAND FREE ENERGY PREDICTED BY IDOCK:   -0.69 KCAL/MOL
REMARK 927      BINDING AFFINITY PREDICTED BY RF-SCORE:    0.00 PKD
ROOT
HETATM    1  O   UNL     1      -5.922  18.781  69.589  1.00  0.00    -0.245 OA 
HETATM    2  N   UNL     1      -6.169  19.226  68.418  1.00  0.00    -0.226 NA 
HETATM    3  C   UNL     1      -6.140  20.603  68.210  1.00  0.00    -0.333 A  
HETATM    4  C   UNL     1      -6.386  21.170  66.963  1.00  0.00    -0.404 A  
HETATM    5  C   UNL     1      -6.668  20.339  65.888  1.00  0.00    -0.279 A  
HETATM    6  C   UNL     1      -6.700  18.955  66.068  1.00  0.00    -0.273 A  
HETATM    7  C   UNL     1      -6.460  18.385  67.333  1.00  0.00    -0.190 A  
ENDROOT
BRANCH   7   8
HETATM    8  S   UNL     1      -6.459  16.602  67.547  1.00  0.00    -0.173 SA 
BRANCH   8   9
HETATM    9  S   UNL     1      -8.298  16.225  68.396  1.00  0.00    -0.200 SA 
BRANCH   9  10
HETATM   10  C   UNL     1      -9.346  17.542  67.775  1.00  0.00    -0.257 A  
HETATM   11  C   UNL     1      -9.641  18.658  68.582  1.00  0.00    -0.407 A  
HETATM   12  C   UNL     1     -10.379  19.730  68.079  1.00  0.00    -0.567 A  
HETATM   13  C   UNL     1     -10.826  19.707  66.765  1.00  0.00    -0.489 A  
HETATM   14  C   UNL     1     -10.534  18.602  65.969  1.00  0.00    -0.414 A  
HETATM   15  N   UNL     1      -9.800  17.519  66.449  1.00  0.00    -0.302 NA 
HETATM   16  O   UNL     1      -9.563  16.547  65.655  1.00  0.00    -0.511 OA 
ENDBRANCH   9  10
ENDBRANCH   8   9
ENDBRANCH   7   8
TORSDOF 3
ENDMDL
MODEL       59
REMARK 921   NORMALIZED FREE ENERGY PREDICTED BY IDOCK:   -4.87 KCAL/MOL
REMARK 922        TOTAL FREE ENERGY PREDICTED BY IDOCK:   -5.92 KCAL/MOL
REMARK 923 INTER-LIGAND FREE ENERGY PREDICTED BY IDOCK:   -5.54 KCAL/MOL
REMARK 924 INTRA-LIGAND FREE ENERGY PREDICTED BY IDOCK:   -0.38 KCAL/MOL
REMARK 927      BINDING AFFINITY PREDICTED BY RF-SCORE:    0.00 PKD
ROOT
HETATM    1  O   UNL     1     -11.689  16.389  63.840  1.00  0.00    -1.085 OA 
HETATM    2  N   UNL     1     -11.528  15.433  64.671  1.00  0.00    -0.387 NA 
HETATM    3  C   UNL     1     -11.997  14.167  64.327  1.00  0.00    -0.435 A  
HETATM    4  C   UNL     1     -11.852  13.069  65.171  1.00  0.00    -0.404 A  
HETATM    5  C   UNL     1     -11.220  13.236  66.394  1.00  0.00    -0.325 A  
HETATM    6  C   UNL     1     -10.739  14.493  66.763  1.00  0.00    -0.291 A  
HETATM    7  C   UNL     1     -10.895  15.605  65.912  1.00  0.00    -0.293 A  
ENDROOT
BRANCH   7   8
HETATM    8  S   UNL     1     -10.233  17.209  66.373  1.00  0.00    -0.316 SA 
BRANCH   8   9
HETATM    9  S   UNL     1     -10.292  17.172  68.432  1.00  0.00    -0.384 SA 
BRANCH   9  10
HETATM   10  C   UNL     1      -8.588  16.881  68.914  1.00  0.00    -0.206 A  
HETATM   11  C   UNL     1      -8.155  15.584  69.252  1.00  0.00    -0.248 A  
HETATM   12  C   UNL     1      -6.814  15.330  69.540  1.00  0.00    -0.180 A  
HETATM   13  C   UNL     1      -5.887  16.362  69.489  1.00  0.00    -0.170 A  
HETATM   14  C   UNL     1      -6.318  17.644  69.157  1.00  0.00    -0.232 A  
HETATM   15  N   UNL     1      -7.651  17.923  68.866  1.00  0.00    -0.256 NA 
HETATM   16  O   UNL     1      -7.969  19.122  68.558  1.00  0.00    -0.324 OA 
ENDBRANCH   9  10
ENDBRANCH   8   9
ENDBRANCH   7   8
TORSDOF 3
ENDMDL
MODEL       60
REMARK 921   NORMALIZED FREE ENERGY PREDICTED BY IDOCK:   -4.86 KCAL/MOL
REMARK 922        TOTAL FREE ENERGY PREDICTED BY IDOCK:   -5.90 KCAL/MOL
REMARK 923 INTER-LIGAND FREE ENERGY PREDICTED BY IDOCK:   -5.68 KCAL/MOL
REMARK 924 INTRA-LIGAND FREE ENERGY PREDICTED BY IDOCK:   -0.22 KCAL/MOL
REMARK 927      BINDING AFFINITY PREDICTED BY RF-SCORE:    0.00 PKD
ROOT
HETATM    1  O   UNL     1     -13.786  12.871  72.816  1.00  0.00    -0.508 OA 
HETATM    2  N   UNL     1     -13.133  13.062  71.736  1.00  0.00    -0.400 NA 
HETATM    3  C   UNL     1     -12.951  14.370  71.293  1.00  0.00    -0.344 A  
HETATM    4  C   UNL     1     -12.243  14.668  70.131  1.00  0.00    -0.391 A  
HETATM    5  C   UNL     1     -11.698  13.630  69.389  1.00  0.00    -0.379 A  
HETATM    6  C   UNL     1     -11.863  12.310  69.812  1.00  0.00    -0.388 A  
HETATM    7  C   UNL     1     -12.588  12.012  70.982  1.00  0.00    -0.273 A  
ENDROOT
BRANCH   7   8
HETATM    8  S   UNL     1     -12.758  10.315  71.544  1.00  0.00    -0.483 SA 
BRANCH   8   9
HETATM    9  S   UNL     1     -11.000   9.434  70.929  1.00  0.00    -0.350 SA 
BRANCH   9  10
HETATM   10  C   UNL     1     -10.891   7.938  71.916  1.00  0.00    -0.243 A  
HETATM   11  C   UNL     1     -10.219   7.949  73.154  1.00  0.00    -0.358 A  
HETATM   12  C   UNL     1     -10.206   6.818  73.970  1.00  0.00    -0.399 A  
HETATM   13  C   UNL     1     -10.865   5.665  73.568  1.00  0.00    -0.295 A  
HETATM   14  C   UNL     1     -11.527   5.656  72.342  1.00  0.00    -0.251 A  
HETATM   15  N   UNL     1     -11.555   6.772  71.509  1.00  0.00    -0.283 NA 
HETATM   16  O   UNL     1     -12.192   6.691  70.405  1.00  0.00    -0.332 OA 
ENDBRANCH   9  10
ENDBRANCH   8   9
ENDBRANCH   7   8
TORSDOF 3
ENDMDL
MODEL       61
REMARK 921   NORMALIZED FREE ENERGY PREDICTED BY IDOCK:   -4.86 KCAL/MOL
REMARK 922        TOTAL FREE ENERGY PREDICTED BY IDOCK:   -5.90 KCAL/MOL
REMARK 923 INTER-LIGAND FREE ENERGY PREDICTED BY IDOCK:   -5.59 KCAL/MOL
REMARK 924 INTRA-LIGAND FREE ENERGY PREDICTED BY IDOCK:   -0.31 KCAL/MOL
REMARK 927      BINDING AFFINITY PREDICTED BY RF-SCORE:    0.00 PKD
ROOT
HETATM    1  O   UNL     1     -11.159  16.116  70.424  1.00  0.00    -0.353 OA 
HETATM    2  N   UNL     1     -12.002  15.334  70.979  1.00  0.00    -0.310 NA 
HETATM    3  C   UNL     1     -12.795  15.835  72.009  1.00  0.00    -0.442 A  
HETATM    4  C   UNL     1     -13.745  15.053  72.660  1.00  0.00    -0.558 A  
HETATM    5  C   UNL     1     -13.912  13.731  72.273  1.00  0.00    -0.672 A  
HETATM    6  C   UNL     1     -13.132  13.204  71.243  1.00  0.00    -0.275 A  
HETATM    7  C   UNL     1     -12.164  13.995  70.592  1.00  0.00    -0.372 A  
ENDROOT
BRANCH   7   8
HETATM    8  S   UNL     1     -11.197  13.323  69.237  1.00  0.00    -0.165 SA 
BRANCH   8   9
HETATM    9  S   UNL     1     -12.007  11.450  68.958  1.00  0.00    -0.262 SA 
BRANCH   9  10
HETATM   10  C   UNL     1     -10.923  10.362  69.887  1.00  0.00    -0.305 A  
HETATM   11  C   UNL     1      -9.584  10.181  69.490  1.00  0.00    -0.243 A  
HETATM   12  C   UNL     1      -8.709   9.410  70.254  1.00  0.00    -0.261 A  
HETATM   13  C   UNL     1      -9.153   8.814  71.426  1.00  0.00    -0.313 A  
HETATM   14  C   UNL     1     -10.478   8.993  71.816  1.00  0.00    -0.348 A  
HETATM   15  N   UNL     1     -11.372   9.758  71.070  1.00  0.00    -0.359 NA 
HETATM   16  O   UNL     1     -12.569   9.885  71.498  1.00  0.00    -0.353 OA 
ENDBRANCH   9  10
ENDBRANCH   8   9
ENDBRANCH   7   8
TORSDOF 3
ENDMDL
MODEL       62
REMARK 921   NORMALIZED FREE ENERGY PREDICTED BY IDOCK:   -4.85 KCAL/MOL
REMARK 922        TOTAL FREE ENERGY PREDICTED BY IDOCK:   -5.90 KCAL/MOL
REMARK 923 INTER-LIGAND FREE ENERGY PREDICTED BY IDOCK:   -5.41 KCAL/MOL
REMARK 924 INTRA-LIGAND FREE ENERGY PREDICTED BY IDOCK:   -0.49 KCAL/MOL
REMARK 927      BINDING AFFINITY PREDICTED BY RF-SCORE:    0.00 PKD
ROOT
HETATM    1  O   UNL     1     -10.934  15.986  68.457  1.00  0.00    -0.290 OA 
HETATM    2  N   UNL     1     -10.797  14.971  67.695  1.00  0.00    -0.283 NA 
HETATM    3  C   UNL     1     -11.942  14.373  67.173  1.00  0.00    -0.389 A  
HETATM    4  C   UNL     1     -11.881  13.269  66.326  1.00  0.00    -0.444 A  
HETATM    5  C   UNL     1     -10.641  12.746  65.987  1.00  0.00    -0.289 A  
HETATM    6  C   UNL     1      -9.478  13.328  66.494  1.00  0.00    -0.251 A  
HETATM    7  C   UNL     1      -9.543  14.438  67.359  1.00  0.00    -0.216 A  
ENDROOT
BRANCH   7   8
HETATM    8  S   UNL     1      -8.041  15.210  67.971  1.00  0.00    -0.142 SA 
BRANCH   8   9
HETATM    9  S   UNL     1      -7.475  16.441  66.419  1.00  0.00     0.043 SA 
BRANCH   9  10
HETATM   10  C   UNL     1      -8.483  17.910  66.636  1.00  0.00    -0.258 A  
HETATM   11  C   UNL     1      -8.005  18.998  67.391  1.00  0.00    -0.272 A  
HETATM   12  C   UNL     1      -8.740  20.179  67.491  1.00  0.00    -0.415 A  
HETATM   13  C   UNL     1      -9.958  20.294  66.836  1.00  0.00    -0.592 A  
HETATM   14  C   UNL     1     -10.430  19.216  66.090  1.00  0.00    -0.477 A  
HETATM   15  N   UNL     1      -9.715  18.026  65.976  1.00  0.00    -0.535 NA 
HETATM   16  O   UNL     1     -10.208  17.086  65.266  1.00  0.00    -0.601 OA 
ENDBRANCH   9  10
ENDBRANCH   8   9
ENDBRANCH   7   8
TORSDOF 3
ENDMDL
MODEL       63
REMARK 921   NORMALIZED FREE ENERGY PREDICTED BY IDOCK:   -4.82 KCAL/MOL
REMARK 922        TOTAL FREE ENERGY PREDICTED BY IDOCK:   -5.85 KCAL/MOL
REMARK 923 INTER-LIGAND FREE ENERGY PREDICTED BY IDOCK:   -5.62 KCAL/MOL
REMARK 924 INTRA-LIGAND FREE ENERGY PREDICTED BY IDOCK:   -0.24 KCAL/MOL
REMARK 927      BINDING AFFINITY PREDICTED BY RF-SCORE:    0.00 PKD
ROOT
HETATM    1  O   UNL     1      -9.361  11.973  66.293  1.00  0.00    -0.224 OA 
HETATM    2  N   UNL     1     -10.265  12.535  65.589  1.00  0.00    -0.265 NA 
HETATM    3  C   UNL     1     -11.195  11.730  64.935  1.00  0.00    -0.266 A  
HETATM    4  C   UNL     1     -12.220  12.263  64.156  1.00  0.00    -0.539 A  
HETATM    5  C   UNL     1     -12.321  13.640  64.026  1.00  0.00    -0.382 A  
HETATM    6  C   UNL     1     -11.404  14.470  64.672  1.00  0.00    -0.372 A  
HETATM    7  C   UNL     1     -10.363  13.928  65.452  1.00  0.00    -0.348 A  
ENDROOT
BRANCH   7   8
HETATM    8  S   UNL     1      -9.215  15.004  66.317  1.00  0.00    -0.256 SA 
BRANCH   8   9
HETATM    9  S   UNL     1     -10.437  16.102  67.559  1.00  0.00    -0.305 SA 
BRANCH   9  10
HETATM   10  C   UNL     1      -9.820  17.781  67.409  1.00  0.00    -0.311 A  
HETATM   11  C   UNL     1     -10.458  18.702  66.556  1.00  0.00    -0.465 A  
HETATM   12  C   UNL     1     -10.043  20.032  66.499  1.00  0.00    -0.606 A  
HETATM   13  C   UNL     1      -8.992  20.464  67.295  1.00  0.00    -0.460 A  
HETATM   14  C   UNL     1      -8.361  19.551  68.137  1.00  0.00    -0.324 A  
HETATM   15  N   UNL     1      -8.756  18.217  68.211  1.00  0.00    -0.282 NA 
HETATM   16  O   UNL     1      -8.136  17.443  69.015  1.00  0.00    -0.212 OA 
ENDBRANCH   9  10
ENDBRANCH   8   9
ENDBRANCH   7   8
TORSDOF 3
ENDMDL
MODEL       64
REMARK 921   NORMALIZED FREE ENERGY PREDICTED BY IDOCK:   -4.80 KCAL/MOL
REMARK 922        TOTAL FREE ENERGY PREDICTED BY IDOCK:   -5.84 KCAL/MOL
REMARK 923 INTER-LIGAND FREE ENERGY PREDICTED BY IDOCK:   -5.56 KCAL/MOL
REMARK 924 INTRA-LIGAND FREE ENERGY PREDICTED BY IDOCK:   -0.28 KCAL/MOL
REMARK 927      BINDING AFFINITY PREDICTED BY RF-SCORE:    0.00 PKD
ROOT
HETATM    1  O   UNL     1     -11.072  12.242  63.214  1.00  0.00    -0.427 OA 
HETATM    2  N   UNL     1     -10.922  11.659  64.340  1.00  0.00    -0.333 NA 
HETATM    3  C   UNL     1     -10.140  10.507  64.393  1.00  0.00    -0.325 A  
HETATM    4  C   UNL     1      -9.917   9.816  65.581  1.00  0.00    -0.352 A  
HETATM    5  C   UNL     1     -10.489  10.288  66.754  1.00  0.00    -0.279 A  
HETATM    6  C   UNL     1     -11.274  11.441  66.730  1.00  0.00    -0.319 A  
HETATM    7  C   UNL     1     -11.507  12.133  65.524  1.00  0.00    -0.343 A  
ENDROOT
BRANCH   7   8
HETATM    8  S   UNL     1     -12.481  13.641  65.509  1.00  0.00    -0.499 SA 
BRANCH   8   9
HETATM    9  S   UNL     1     -11.082  15.106  65.134  1.00  0.00    -0.410 SA 
BRANCH   9  10
HETATM   10  C   UNL     1     -10.897  15.947  66.708  1.00  0.00    -0.228 A  
HETATM   11  C   UNL     1     -11.504  15.430  67.869  1.00  0.00    -0.306 A  
HETATM   12  C   UNL     1     -11.293  16.025  69.112  1.00  0.00    -0.352 A  
HETATM   13  C   UNL     1     -10.469  17.137  69.218  1.00  0.00    -0.267 A  
HETATM   14  C   UNL     1      -9.871  17.648  68.068  1.00  0.00    -0.310 A  
HETATM   15  N   UNL     1     -10.067  17.073  66.815  1.00  0.00    -0.290 NA 
HETATM   16  O   UNL     1      -9.475  17.591  65.809  1.00  0.00    -0.519 OA 
ENDBRANCH   9  10
ENDBRANCH   8   9
ENDBRANCH   7   8
TORSDOF 3
ENDMDL
MODEL       65
REMARK 921   NORMALIZED FREE ENERGY PREDICTED BY IDOCK:   -4.80 KCAL/MOL
REMARK 922        TOTAL FREE ENERGY PREDICTED BY IDOCK:   -5.83 KCAL/MOL
REMARK 923 INTER-LIGAND FREE ENERGY PREDICTED BY IDOCK:   -5.69 KCAL/MOL
REMARK 924 INTRA-LIGAND FREE ENERGY PREDICTED BY IDOCK:   -0.14 KCAL/MOL
REMARK 927      BINDING AFFINITY PREDICTED BY RF-SCORE:    0.00 PKD
ROOT
HETATM    1  O   UNL     1      -7.704   9.416  71.046  1.00  0.00    -0.284 OA 
HETATM    2  N   UNL     1      -8.969   9.255  71.098  1.00  0.00    -0.284 NA 
HETATM    3  C   UNL     1      -9.511   8.599  72.201  1.00  0.00    -0.303 A  
HETATM    4  C   UNL     1     -10.881   8.391  72.341  1.00  0.00    -0.416 A  
HETATM    5  C   UNL     1     -11.738   8.854  71.353  1.00  0.00    -0.385 A  
HETATM    6  C   UNL     1     -11.222   9.518  70.239  1.00  0.00    -0.307 A  
HETATM    7  C   UNL     1      -9.835   9.718  70.095  1.00  0.00    -0.255 A  
ENDROOT
BRANCH   7   8
HETATM    8  S   UNL     1      -9.182  10.613  68.682  1.00  0.00    -0.187 SA 
BRANCH   8   9
HETATM    9  S   UNL     1     -10.032   9.645  67.074  1.00  0.00    -0.220 SA 
BRANCH   9  10
HETATM   10  C   UNL     1     -10.645  10.974  66.036  1.00  0.00    -0.213 A  
HETATM   11  C   UNL     1     -10.173  11.125  64.718  1.00  0.00    -0.365 A  
HETATM   12  C   UNL     1     -10.708  12.098  63.873  1.00  0.00    -0.456 A  
HETATM   13  C   UNL     1     -11.723  12.928  64.327  1.00  0.00    -0.445 A  
HETATM   14  C   UNL     1     -12.188  12.777  65.632  1.00  0.00    -0.444 A  
HETATM   15  N   UNL     1     -11.669  11.815  66.495  1.00  0.00    -0.528 NA 
HETATM   16  O   UNL     1     -12.154  11.730  67.674  1.00  0.00    -0.598 OA 
ENDBRANCH   9  10
ENDBRANCH   8   9
ENDBRANCH   7   8
TORSDOF 3
ENDMDL
MODEL       66
REMARK 921   NORMALIZED FREE ENERGY PREDICTED BY IDOCK:   -4.79 KCAL/MOL
REMARK 922        TOTAL FREE ENERGY PREDICTED BY IDOCK:   -5.83 KCAL/MOL
REMARK 923 INTER-LIGAND FREE ENERGY PREDICTED BY IDOCK:   -5.60 KCAL/MOL
REMARK 924 INTRA-LIGAND FREE ENERGY PREDICTED BY IDOCK:   -0.23 KCAL/MOL
REMARK 927      BINDING AFFINITY PREDICTED BY RF-SCORE:    0.00 PKD
ROOT
HETATM    1  O   UNL     1     -11.847   6.512  69.844  1.00  0.00    -0.381 OA 
HETATM    2  N   UNL     1     -11.293   6.533  70.994  1.00  0.00    -0.306 NA 
HETATM    3  C   UNL     1     -10.360   5.545  71.301  1.00  0.00    -0.233 A  
HETATM    4  C   UNL     1      -9.702   5.500  72.527  1.00  0.00    -0.173 A  
HETATM    5  C   UNL     1      -9.981   6.472  73.478  1.00  0.00    -0.232 A  
HETATM    6  C   UNL     1     -10.909   7.476  73.196  1.00  0.00    -0.448 A  
HETATM    7  C   UNL     1     -11.580   7.512  71.957  1.00  0.00    -0.287 A  
ENDROOT
BRANCH   7   8
HETATM    8  S   UNL     1     -12.739   8.832  71.585  1.00  0.00    -0.361 SA 
BRANCH   8   9
HETATM    9  S   UNL     1     -11.612  10.154  70.477  1.00  0.00    -0.350 SA 
BRANCH   9  10
HETATM   10  C   UNL     1     -12.354  11.753  70.816  1.00  0.00    -0.337 A  
HETATM   11  C   UNL     1     -13.229  11.916  71.907  1.00  0.00    -0.467 A  
HETATM   12  C   UNL     1     -13.740  13.172  72.233  1.00  0.00    -0.647 A  
HETATM   13  C   UNL     1     -13.382  14.282  71.482  1.00  0.00    -0.429 A  
HETATM   14  C   UNL     1     -12.518  14.118  70.401  1.00  0.00    -0.357 A  
HETATM   15  N   UNL     1     -11.995  12.875  70.055  1.00  0.00    -0.340 NA 
HETATM   16  O   UNL     1     -11.200  12.805  69.057  1.00  0.00    -0.254 OA 
ENDBRANCH   9  10
ENDBRANCH   8   9
ENDBRANCH   7   8
TORSDOF 3
ENDMDL
MODEL       67
REMARK 921   NORMALIZED FREE ENERGY PREDICTED BY IDOCK:   -4.76 KCAL/MOL
REMARK 922        TOTAL FREE ENERGY PREDICTED BY IDOCK:   -5.79 KCAL/MOL
REMARK 923 INTER-LIGAND FREE ENERGY PREDICTED BY IDOCK:   -5.46 KCAL/MOL
REMARK 924 INTRA-LIGAND FREE ENERGY PREDICTED BY IDOCK:   -0.33 KCAL/MOL
REMARK 927      BINDING AFFINITY PREDICTED BY RF-SCORE:    0.00 PKD
ROOT
HETATM    1  O   UNL     1     -12.879  15.310  63.951  1.00  0.00    -0.637 OA 
HETATM    2  N   UNL     1     -12.171  14.254  64.062  1.00  0.00    -0.625 NA 
HETATM    3  C   UNL     1     -12.588  13.101  63.400  1.00  0.00    -0.079 A  
HETATM    4  C   UNL     1     -11.868  11.911  63.459  1.00  0.00    -0.560 A  
HETATM    5  C   UNL     1     -10.696  11.867  64.200  1.00  0.00    -0.402 A  
HETATM    6  C   UNL     1     -10.254  13.008  64.871  1.00  0.00    -0.304 A  
HETATM    7  C   UNL     1     -10.989  14.209  64.817  1.00  0.00    -0.400 A  
ENDROOT
BRANCH   7   8
HETATM    8  S   UNL     1     -10.391  15.685  65.646  1.00  0.00    -0.409 SA 
BRANCH   8   9
HETATM    9  S   UNL     1     -11.119  15.481  67.562  1.00  0.00    -0.270 SA 
BRANCH   9  10
HETATM   10  C   UNL     1     -10.810  13.760  67.967  1.00  0.00    -0.249 A  
HETATM   11  C   UNL     1     -11.877  12.845  68.050  1.00  0.00    -0.390 A  
HETATM   12  C   UNL     1     -11.641  11.489  68.274  1.00  0.00    -0.378 A  
HETATM   13  C   UNL     1     -10.340  11.026  68.414  1.00  0.00    -0.200 A  
HETATM   14  C   UNL     1      -9.286  11.933  68.334  1.00  0.00    -0.184 A  
HETATM   15  N   UNL     1      -9.496  13.292  68.111  1.00  0.00    -0.218 NA 
HETATM   16  O   UNL     1      -8.479  14.061  68.039  1.00  0.00    -0.150 OA 
ENDBRANCH   9  10
ENDBRANCH   8   9
ENDBRANCH   7   8
TORSDOF 3
ENDMDL
MODEL       68
REMARK 921   NORMALIZED FREE ENERGY PREDICTED BY IDOCK:   -4.71 KCAL/MOL
REMARK 922        TOTAL FREE ENERGY PREDICTED BY IDOCK:   -5.73 KCAL/MOL
REMARK 923 INTER-LIGAND FREE ENERGY PREDICTED BY IDOCK:   -5.51 KCAL/MOL
REMARK 924 INTRA-LIGAND FREE ENERGY PREDICTED BY IDOCK:   -0.22 KCAL/MOL
REMARK 927      BINDING AFFINITY PREDICTED BY RF-SCORE:    0.00 PKD
ROOT
HETATM    1  O   UNL     1     -11.977   6.650  70.299  1.00  0.00    -0.387 OA 
HETATM    2  N   UNL     1     -11.422   6.725  71.445  1.00  0.00    -0.276 NA 
HETATM    3  C   UNL     1     -11.432   5.598  72.264  1.00  0.00    -0.217 A  
HETATM    4  C   UNL     1     -10.840   5.591  73.524  1.00  0.00    -0.321 A  
HETATM    5  C   UNL     1     -10.217   6.743  73.983  1.00  0.00    -0.399 A  
HETATM    6  C   UNL     1     -10.190   7.886  73.182  1.00  0.00    -0.358 A  
HETATM    7  C   UNL     1     -10.798   7.892  71.911  1.00  0.00    -0.243 A  
ENDROOT
BRANCH   7   8
HETATM    8  S   UNL     1     -10.720   9.352  70.868  1.00  0.00    -0.348 SA 
BRANCH   8   9
HETATM    9  S   UNL     1     -12.599  10.174  71.062  1.00  0.00    -0.401 SA 
BRANCH   9  10
HETATM   10  C   UNL     1     -12.382  11.884  70.560  1.00  0.00    -0.284 A  
HETATM   11  C   UNL     1     -11.728  12.195  69.353  1.00  0.00    -0.391 A  
HETATM   12  C   UNL     1     -11.634  13.514  68.909  1.00  0.00    -0.364 A  
HETATM   13  C   UNL     1     -12.195  14.539  69.658  1.00  0.00    -0.336 A  
HETATM   14  C   UNL     1     -12.840  14.229  70.853  1.00  0.00    -0.347 A  
HETATM   15  N   UNL     1     -12.947  12.920  71.318  1.00  0.00    -0.286 NA 
HETATM   16  O   UNL     1     -13.563  12.713  72.417  1.00  0.00    -0.550 OA 
ENDBRANCH   9  10
ENDBRANCH   8   9
ENDBRANCH   7   8
TORSDOF 3
ENDMDL
MODEL       69
REMARK 921   NORMALIZED FREE ENERGY PREDICTED BY IDOCK:   -4.69 KCAL/MOL
REMARK 922        TOTAL FREE ENERGY PREDICTED BY IDOCK:   -5.70 KCAL/MOL
REMARK 923 INTER-LIGAND FREE ENERGY PREDICTED BY IDOCK:   -5.43 KCAL/MOL
REMARK 924 INTRA-LIGAND FREE ENERGY PREDICTED BY IDOCK:   -0.28 KCAL/MOL
REMARK 927      BINDING AFFINITY PREDICTED BY RF-SCORE:    0.00 PKD
ROOT
HETATM    1  O   UNL     1      -6.624  16.066  68.304  1.00  0.00    -0.111 OA 
HETATM    2  N   UNL     1      -6.548  17.288  68.663  1.00  0.00    -0.178 NA 
HETATM    3  C   UNL     1      -5.879  17.593  69.846  1.00  0.00    -0.247 A  
HETATM    4  C   UNL     1      -5.741  18.901  70.305  1.00  0.00    -0.241 A  
HETATM    5  C   UNL     1      -6.285  19.938  69.560  1.00  0.00    -0.370 A  
HETATM    6  C   UNL     1      -6.958  19.661  68.369  1.00  0.00    -0.337 A  
HETATM    7  C   UNL     1      -7.104  18.336  67.913  1.00  0.00    -0.223 A  
ENDROOT
BRANCH   7   8
HETATM    8  S   UNL     1      -7.932  17.991  66.357  1.00  0.00    -0.247 SA 
BRANCH   8   9
HETATM    9  S   UNL     1      -9.893  17.703  66.916  1.00  0.00    -0.321 SA 
BRANCH   9  10
HETATM   10  C   UNL     1     -10.301  16.082  66.264  1.00  0.00    -0.321 A  
HETATM   11  C   UNL     1     -10.080  14.926  67.037  1.00  0.00    -0.244 A  
HETATM   12  C   UNL     1     -10.477  13.670  66.577  1.00  0.00    -0.281 A  
HETATM   13  C   UNL     1     -11.104  13.550  65.345  1.00  0.00    -0.302 A  
HETATM   14  C   UNL     1     -11.320  14.695  64.580  1.00  0.00    -0.369 A  
HETATM   15  N   UNL     1     -10.932  15.959  65.017  1.00  0.00    -0.432 NA 
HETATM   16  O   UNL     1     -11.174  16.963  64.266  1.00  0.00    -1.204 OA 
ENDBRANCH   9  10
ENDBRANCH   8   9
ENDBRANCH   7   8
TORSDOF 3
ENDMDL
MODEL       70
REMARK 921   NORMALIZED FREE ENERGY PREDICTED BY IDOCK:   -4.59 KCAL/MOL
REMARK 922        TOTAL FREE ENERGY PREDICTED BY IDOCK:   -5.59 KCAL/MOL
REMARK 923 INTER-LIGAND FREE ENERGY PREDICTED BY IDOCK:   -5.26 KCAL/MOL
REMARK 924 INTRA-LIGAND FREE ENERGY PREDICTED BY IDOCK:   -0.32 KCAL/MOL
REMARK 927      BINDING AFFINITY PREDICTED BY RF-SCORE:    0.00 PKD
ROOT
HETATM    1  O   UNL     1     -10.249  11.251  64.895  1.00  0.00    -0.251 OA 
HETATM    2  N   UNL     1     -10.341  10.544  65.953  1.00  0.00    -0.235 NA 
HETATM    3  C   UNL     1      -9.787   9.266  65.949  1.00  0.00    -0.265 A  
HETATM    4  C   UNL     1      -9.833   8.434  67.064  1.00  0.00    -0.296 A  
HETATM    5  C   UNL     1     -10.449   8.889  68.221  1.00  0.00    -0.243 A  
HETATM    6  C   UNL     1     -11.010  10.167  68.254  1.00  0.00    -0.299 A  
HETATM    7  C   UNL     1     -10.970  11.003  67.120  1.00  0.00    -0.283 A  
ENDROOT
BRANCH   7   8
HETATM    8  S   UNL     1     -11.654  12.662  67.184  1.00  0.00    -0.377 SA 
BRANCH   8   9
HETATM    9  S   UNL     1     -10.701  13.506  68.804  1.00  0.00    -0.209 SA 
BRANCH   9  10
HETATM   10  C   UNL     1     -12.014  13.757  70.002  1.00  0.00    -0.338 A  
HETATM   11  C   UNL     1     -12.471  12.686  70.794  1.00  0.00    -0.357 A  
HETATM   12  C   UNL     1     -13.426  12.889  71.790  1.00  0.00    -0.369 A  
HETATM   13  C   UNL     1     -13.934  14.161  72.015  1.00  0.00    -0.604 A  
HETATM   14  C   UNL     1     -13.481  15.219  71.229  1.00  0.00    -0.514 A  
HETATM   15  N   UNL     1     -12.529  15.042  70.228  1.00  0.00    -0.341 NA 
HETATM   16  O   UNL     1     -12.156  16.062  69.556  1.00  0.00    -0.284 OA 
ENDBRANCH   9  10
ENDBRANCH   8   9
ENDBRANCH   7   8
TORSDOF 3
ENDMDL
MODEL       71
REMARK 921   NORMALIZED FREE ENERGY PREDICTED BY IDOCK:   -4.58 KCAL/MOL
REMARK 922        TOTAL FREE ENERGY PREDICTED BY IDOCK:   -5.58 KCAL/MOL
REMARK 923 INTER-LIGAND FREE ENERGY PREDICTED BY IDOCK:   -5.25 KCAL/MOL
REMARK 924 INTRA-LIGAND FREE ENERGY PREDICTED BY IDOCK:   -0.33 KCAL/MOL
REMARK 927      BINDING AFFINITY PREDICTED BY RF-SCORE:    0.00 PKD
ROOT
HETATM    1  O   UNL     1     -12.913  11.324  71.606  1.00  0.00    -0.448 OA 
HETATM    2  N   UNL     1     -13.027  12.587  71.464  1.00  0.00    -0.343 NA 
HETATM    3  C   UNL     1     -13.771  13.297  72.404  1.00  0.00    -0.578 A  
HETATM    4  C   UNL     1     -13.935  14.678  72.330  1.00  0.00    -0.589 A  
HETATM    5  C   UNL     1     -13.339  15.373  71.288  1.00  0.00    -0.598 A  
HETATM    6  C   UNL     1     -12.586  14.687  70.334  1.00  0.00    -0.399 A  
HETATM    7  C   UNL     1     -12.430  13.289  70.406  1.00  0.00    -0.225 A  
ENDROOT
BRANCH   7   8
HETATM    8  S   UNL     1     -11.422  12.419  69.201  1.00  0.00    -0.308 SA 
BRANCH   8   9
HETATM    9  S   UNL     1     -11.352  13.725  67.609  1.00  0.00    -0.322 SA 
BRANCH   9  10
HETATM   10  C   UNL     1      -9.827  14.638  67.859  1.00  0.00    -0.217 A  
HETATM   11  C   UNL     1      -8.599  13.958  67.972  1.00  0.00    -0.178 A  
HETATM   12  C   UNL     1      -7.399  14.660  68.075  1.00  0.00    -0.142 A  
HETATM   13  C   UNL     1      -7.404  16.047  68.061  1.00  0.00    -0.139 A  
HETATM   14  C   UNL     1      -8.620  16.719  67.950  1.00  0.00    -0.202 A  
HETATM   15  N   UNL     1      -9.832  16.040  67.847  1.00  0.00    -0.225 NA 
HETATM   16  O   UNL     1     -10.905  16.725  67.738  1.00  0.00    -0.341 OA 
ENDBRANCH   9  10
ENDBRANCH   8   9
ENDBRANCH   7   8
TORSDOF 3
ENDMDL
MODEL       72
REMARK 921   NORMALIZED FREE ENERGY PREDICTED BY IDOCK:   -4.57 KCAL/MOL
REMARK 922        TOTAL FREE ENERGY PREDICTED BY IDOCK:   -5.56 KCAL/MOL
REMARK 923 INTER-LIGAND FREE ENERGY PREDICTED BY IDOCK:   -5.25 KCAL/MOL
REMARK 924 INTRA-LIGAND FREE ENERGY PREDICTED BY IDOCK:   -0.32 KCAL/MOL
REMARK 927      BINDING AFFINITY PREDICTED BY RF-SCORE:    0.00 PKD
ROOT
HETATM    1  O   UNL     1     -11.155  11.230  67.474  1.00  0.00    -0.249 OA 
HETATM    2  N   UNL     1     -10.912  11.576  66.270  1.00  0.00    -0.289 NA 
HETATM    3  C   UNL     1     -10.286  10.660  65.428  1.00  0.00    -0.273 A  
HETATM    4  C   UNL     1      -9.994  10.953  64.099  1.00  0.00    -0.403 A  
HETATM    5  C   UNL     1     -10.338  12.197  63.591  1.00  0.00    -0.482 A  
HETATM    6  C   UNL     1     -10.968  13.134  64.412  1.00  0.00    -0.412 A  
HETATM    7  C   UNL     1     -11.254  12.838  65.759  1.00  0.00    -0.307 A  
ENDROOT
BRANCH   7   8
HETATM    8  S   UNL     1     -12.106  14.031  66.796  1.00  0.00    -0.414 SA 
BRANCH   8   9
HETATM    9  S   UNL     1     -10.598  14.803  67.968  1.00  0.00    -0.248 SA 
BRANCH   9  10
HETATM   10  C   UNL     1     -10.475  16.517  67.451  1.00  0.00    -0.310 A  
HETATM   11  C   UNL     1     -10.467  16.850  66.083  1.00  0.00    -0.276 A  
HETATM   12  C   UNL     1     -10.464  18.182  65.670  1.00  0.00    -0.103 A  
HETATM   13  C   UNL     1     -10.473  19.200  66.614  1.00  0.00    -0.529 A  
HETATM   14  C   UNL     1     -10.478  18.868  67.967  1.00  0.00    -0.358 A  
HETATM   15  N   UNL     1     -10.482  17.545  68.404  1.00  0.00    -0.375 NA 
HETATM   16  O   UNL     1     -10.498  17.320  69.661  1.00  0.00    -0.219 OA 
ENDBRANCH   9  10
ENDBRANCH   8   9
ENDBRANCH   7   8
TORSDOF 3
ENDMDL
MODEL       73
REMARK 921   NORMALIZED FREE ENERGY PREDICTED BY IDOCK:   -4.52 KCAL/MOL
REMARK 922        TOTAL FREE ENERGY PREDICTED BY IDOCK:   -5.51 KCAL/MOL
REMARK 923 INTER-LIGAND FREE ENERGY PREDICTED BY IDOCK:   -5.18 KCAL/MOL
REMARK 924 INTRA-LIGAND FREE ENERGY PREDICTED BY IDOCK:   -0.34 KCAL/MOL
REMARK 927      BINDING AFFINITY PREDICTED BY RF-SCORE:    0.00 PKD
ROOT
HETATM    1  O   UNL     1     -13.517  12.503  72.423  1.00  0.00    -0.529 OA 
HETATM    2  N   UNL     1     -12.868  12.343  71.335  1.00  0.00    -0.330 NA 
HETATM    3  C   UNL     1     -12.379  13.472  70.681  1.00  0.00    -0.358 A  
HETATM    4  C   UNL     1     -11.652  13.386  69.497  1.00  0.00    -0.352 A  
HETATM    5  C   UNL     1     -11.403  12.136  68.947  1.00  0.00    -0.335 A  
HETATM    6  C   UNL     1     -11.880  10.989  69.583  1.00  0.00    -0.414 A  
HETATM    7  C   UNL     1     -12.623  11.080  70.776  1.00  0.00    -0.369 A  
ENDROOT
BRANCH   7   8
HETATM    8  S   UNL     1     -13.194   9.597  71.612  1.00  0.00    -0.424 SA 
BRANCH   8   9
HETATM    9  S   UNL     1     -11.447   8.709  72.248  1.00  0.00    -0.301 SA 
BRANCH   9  10
HETATM   10  C   UNL     1     -10.832   7.860  70.792  1.00  0.00    -0.232 A  
HETATM   11  C   UNL     1     -11.555   6.789  70.232  1.00  0.00    -0.417 A  
HETATM   12  C   UNL     1     -11.134   6.182  69.049  1.00  0.00    -0.437 A  
HETATM   13  C   UNL     1      -9.991   6.636  68.406  1.00  0.00    -0.146 A  
HETATM   14  C   UNL     1      -9.276   7.694  68.962  1.00  0.00    -0.140 A  
HETATM   15  N   UNL     1      -9.676   8.316  70.143  1.00  0.00    -0.175 NA 
HETATM   16  O   UNL     1      -8.975   9.288  70.585  1.00  0.00    -0.218 OA 
ENDBRANCH   9  10
ENDBRANCH   8   9
ENDBRANCH   7   8
TORSDOF 3
ENDMDL
MODEL       74
REMARK 921   NORMALIZED FREE ENERGY PREDICTED BY IDOCK:   -4.51 KCAL/MOL
REMARK 922        TOTAL FREE ENERGY PREDICTED BY IDOCK:   -5.50 KCAL/MOL
REMARK 923 INTER-LIGAND FREE ENERGY PREDICTED BY IDOCK:   -5.15 KCAL/MOL
REMARK 924 INTRA-LIGAND FREE ENERGY PREDICTED BY IDOCK:   -0.35 KCAL/MOL
REMARK 927      BINDING AFFINITY PREDICTED BY RF-SCORE:    0.00 PKD
ROOT
HETATM    1  O   UNL     1     -12.454  13.677  70.979  1.00  0.00    -0.354 OA 
HETATM    2  N   UNL     1     -12.133  13.448  69.766  1.00  0.00    -0.325 NA 
HETATM    3  C   UNL     1     -11.890  14.533  68.926  1.00  0.00    -0.324 A  
HETATM    4  C   UNL     1     -11.524  14.371  67.592  1.00  0.00    -0.369 A  
HETATM    5  C   UNL     1     -11.395  13.089  67.079  1.00  0.00    -0.343 A  
HETATM    6  C   UNL     1     -11.630  11.984  67.899  1.00  0.00    -0.405 A  
HETATM    7  C   UNL     1     -12.009  12.151  69.245  1.00  0.00    -0.262 A  
ENDROOT
BRANCH   7   8
HETATM    8  S   UNL     1     -12.266  10.725  70.306  1.00  0.00    -0.360 SA 
BRANCH   8   9
HETATM    9  S   UNL     1     -10.426   9.798  70.307  1.00  0.00    -0.301 SA 
BRANCH   9  10
HETATM   10  C   UNL     1     -10.657   8.365  69.251  1.00  0.00    -0.182 A  
HETATM   11  C   UNL     1     -10.495   8.473  67.856  1.00  0.00    -0.262 A  
HETATM   12  C   UNL     1     -10.583   7.349  67.036  1.00  0.00    -0.414 A  
HETATM   13  C   UNL     1     -10.827   6.102  67.593  1.00  0.00    -0.421 A  
HETATM   14  C   UNL     1     -10.988   5.997  68.973  1.00  0.00    -0.339 A  
HETATM   15  N   UNL     1     -10.906   7.104  69.813  1.00  0.00    -0.239 NA 
HETATM   16  O   UNL     1     -11.054   6.927  71.069  1.00  0.00    -0.246 OA 
ENDBRANCH   9  10
ENDBRANCH   8   9
ENDBRANCH   7   8
TORSDOF 3
ENDMDL
MODEL       75
REMARK 921   NORMALIZED FREE ENERGY PREDICTED BY IDOCK:   -4.49 KCAL/MOL
REMARK 922        TOTAL FREE ENERGY PREDICTED BY IDOCK:   -5.47 KCAL/MOL
REMARK 923 INTER-LIGAND FREE ENERGY PREDICTED BY IDOCK:   -5.14 KCAL/MOL
REMARK 924 INTRA-LIGAND FREE ENERGY PREDICTED BY IDOCK:   -0.33 KCAL/MOL
REMARK 927      BINDING AFFINITY PREDICTED BY RF-SCORE:    0.00 PKD
ROOT
HETATM    1  O   UNL     1     -10.150   7.544  70.256  1.00  0.00    -0.192 OA 
HETATM    2  N   UNL     1     -11.283   7.940  70.690  1.00  0.00    -0.264 NA 
HETATM    3  C   UNL     1     -12.130   7.007  71.283  1.00  0.00    -0.361 A  
HETATM    4  C   UNL     1     -13.379   7.356  71.792  1.00  0.00    -0.373 A  
HETATM    5  C   UNL     1     -13.795   8.677  71.709  1.00  0.00    -0.472 A  
HETATM    6  C   UNL     1     -12.965   9.633  71.122  1.00  0.00    -0.389 A  
HETATM    7  C   UNL     1     -11.707   9.274  70.599  1.00  0.00    -0.222 A  
ENDROOT
BRANCH   7   8
HETATM    8  S   UNL     1     -10.625  10.518  69.886  1.00  0.00    -0.146 SA 
BRANCH   8   9
HETATM    9  S   UNL     1     -11.909  11.678  68.768  1.00  0.00    -0.284 SA 
BRANCH   9  10
HETATM   10  C   UNL     1     -11.967  13.241  69.649  1.00  0.00    -0.314 A  
HETATM   11  C   UNL     1     -12.311  13.278  71.014  1.00  0.00    -0.379 A  
HETATM   12  C   UNL     1     -12.271  14.473  71.731  1.00  0.00    -0.385 A  
HETATM   13  C   UNL     1     -11.882  15.647  71.100  1.00  0.00    -0.454 A  
HETATM   14  C   UNL     1     -11.544  15.609  69.748  1.00  0.00    -0.352 A  
HETATM   15  N   UNL     1     -11.577  14.427  69.011  1.00  0.00    -0.278 NA 
HETATM   16  O   UNL     1     -11.242  14.470  67.779  1.00  0.00    -0.275 OA 
ENDBRANCH   9  10
ENDBRANCH   8   9
ENDBRANCH   7   8
TORSDOF 3
ENDMDL
MODEL       76
REMARK 921   NORMALIZED FREE ENERGY PREDICTED BY IDOCK:   -4.49 KCAL/MOL
REMARK 922        TOTAL FREE ENERGY PREDICTED BY IDOCK:   -5.47 KCAL/MOL
REMARK 923 INTER-LIGAND FREE ENERGY PREDICTED BY IDOCK:   -5.25 KCAL/MOL
REMARK 924 INTRA-LIGAND FREE ENERGY PREDICTED BY IDOCK:   -0.22 KCAL/MOL
REMARK 927      BINDING AFFINITY PREDICTED BY RF-SCORE:    0.00 PKD
ROOT
HETATM    1  O   UNL     1      -8.389  13.276  67.295  1.00  0.00    -0.181 OA 
HETATM    2  N   UNL     1      -9.474  12.819  67.789  1.00  0.00    -0.198 NA 
HETATM    3  C   UNL     1      -9.440  11.590  68.443  1.00  0.00    -0.195 A  
HETATM    4  C   UNL     1     -10.575  11.025  69.020  1.00  0.00    -0.258 A  
HETATM    5  C   UNL     1     -11.780  11.706  68.943  1.00  0.00    -0.397 A  
HETATM    6  C   UNL     1     -11.842  12.941  68.296  1.00  0.00    -0.372 A  
HETATM    7  C   UNL     1     -10.694  13.506  67.705  1.00  0.00    -0.252 A  
ENDROOT
BRANCH   7   8
HETATM    8  S   UNL     1     -10.772  15.116  66.914  1.00  0.00    -0.311 SA 
BRANCH   8   9
HETATM    9  S   UNL     1     -10.927  16.418  68.502  1.00  0.00    -0.348 SA 
BRANCH   9  10
HETATM   10  C   UNL     1     -10.049  17.884  67.954  1.00  0.00    -0.349 A  
HETATM   11  C   UNL     1     -10.742  18.937  67.325  1.00  0.00    -0.523 A  
HETATM   12  C   UNL     1     -10.087  20.118  66.977  1.00  0.00    -0.599 A  
HETATM   13  C   UNL     1      -8.736  20.269  67.256  1.00  0.00    -0.441 A  
HETATM   14  C   UNL     1      -8.052  19.226  67.876  1.00  0.00    -0.290 A  
HETATM   15  N   UNL     1      -8.683  18.036  68.233  1.00  0.00    -0.277 NA 
HETATM   16  O   UNL     1      -7.992  17.130  68.809  1.00  0.00    -0.260 OA 
ENDBRANCH   9  10
ENDBRANCH   8   9
ENDBRANCH   7   8
TORSDOF 3
ENDMDL
MODEL       77
REMARK 921   NORMALIZED FREE ENERGY PREDICTED BY IDOCK:   -4.48 KCAL/MOL
REMARK 922        TOTAL FREE ENERGY PREDICTED BY IDOCK:   -5.45 KCAL/MOL
REMARK 923 INTER-LIGAND FREE ENERGY PREDICTED BY IDOCK:   -5.08 KCAL/MOL
REMARK 924 INTRA-LIGAND FREE ENERGY PREDICTED BY IDOCK:   -0.38 KCAL/MOL
REMARK 927      BINDING AFFINITY PREDICTED BY RF-SCORE:    0.00 PKD
ROOT
HETATM    1  O   UNL     1      -7.910  19.310  69.060  1.00  0.00    -0.342 OA 
HETATM    2  N   UNL     1      -8.716  19.085  68.097  1.00  0.00    -0.305 NA 
HETATM    3  C   UNL     1      -9.568  20.110  67.690  1.00  0.00    -0.402 A  
HETATM    4  C   UNL     1     -10.470  19.952  66.641  1.00  0.00    -0.580 A  
HETATM    5  C   UNL     1     -10.524  18.736  65.975  1.00  0.00    -0.483 A  
HETATM    6  C   UNL     1      -9.679  17.694  66.359  1.00  0.00    -0.303 A  
HETATM    7  C   UNL     1      -8.775  17.853  67.428  1.00  0.00    -0.237 A  
ENDROOT
BRANCH   7   8
HETATM    8  S   UNL     1      -7.660  16.523  67.887  1.00  0.00    -0.156 SA 
BRANCH   8   9
HETATM    9  S   UNL     1      -8.806  15.354  69.138  1.00  0.00    -0.258 SA 
BRANCH   9  10
HETATM   10  C   UNL     1      -9.932  14.501  68.031  1.00  0.00    -0.222 A  
HETATM   11  C   UNL     1      -9.490  14.054  66.770  1.00  0.00    -0.292 A  
HETATM   12  C   UNL     1     -10.329  13.312  65.940  1.00  0.00    -0.293 A  
HETATM   13  C   UNL     1     -11.616  13.000  66.355  1.00  0.00    -0.413 A  
HETATM   14  C   UNL     1     -12.052  13.445  67.601  1.00  0.00    -0.269 A  
HETATM   15  N   UNL     1     -11.233  14.188  68.448  1.00  0.00    -0.253 NA 
HETATM   16  O   UNL     1     -11.700  14.551  69.581  1.00  0.00    -0.271 OA 
ENDBRANCH   9  10
ENDBRANCH   8   9
ENDBRANCH   7   8
TORSDOF 3
ENDMDL
MODEL       78
REMARK 921   NORMALIZED FREE ENERGY PREDICTED BY IDOCK:   -4.47 KCAL/MOL
REMARK 922        TOTAL FREE ENERGY PREDICTED BY IDOCK:   -5.44 KCAL/MOL
REMARK 923 INTER-LIGAND FREE ENERGY PREDICTED BY IDOCK:   -4.81 KCAL/MOL
REMARK 924 INTRA-LIGAND FREE ENERGY PREDICTED BY IDOCK:   -0.63 KCAL/MOL
REMARK 927      BINDING AFFINITY PREDICTED BY RF-SCORE:    0.00 PKD
ROOT
HETATM    1  O   UNL     1      -9.309   9.272  71.069  1.00  0.00    -0.259 OA 
HETATM    2  N   UNL     1     -10.568   9.384  71.246  1.00  0.00    -0.333 NA 
HETATM    3  C   UNL     1     -11.269  10.306  70.472  1.00  0.00    -0.330 A  
HETATM    4  C   UNL     1     -12.645  10.483  70.594  1.00  0.00    -0.457 A  
HETATM    5  C   UNL     1     -13.345   9.717  71.515  1.00  0.00    -0.468 A  
HETATM    6  C   UNL     1     -12.667   8.784  72.302  1.00  0.00    -0.466 A  
HETATM    7  C   UNL     1     -11.274   8.614  72.183  1.00  0.00    -0.367 A  
ENDROOT
BRANCH   7   8
HETATM    8  S   UNL     1     -10.417   7.380  73.167  1.00  0.00    -0.379 SA 
BRANCH   8   9
HETATM    9  S   UNL     1     -10.767   5.628  72.141  1.00  0.00    -0.241 SA 
BRANCH   9  10
HETATM   10  C   UNL     1     -10.225   5.984  70.468  1.00  0.00    -0.206 A  
HETATM   11  C   UNL     1     -11.164   6.292  69.464  1.00  0.00    -0.500 A  
HETATM   12  C   UNL     1     -10.749   6.658  68.184  1.00  0.00    -0.320 A  
HETATM   13  C   UNL     1      -9.395   6.730  67.888  1.00  0.00    -0.113 A  
HETATM   14  C   UNL     1      -8.468   6.423  68.882  1.00  0.00    -0.121 A  
HETATM   15  N   UNL     1      -8.857   6.054  70.168  1.00  0.00    -0.142 NA 
HETATM   16  O   UNL     1      -7.948   5.799  71.028  1.00  0.00    -0.110 OA 
ENDBRANCH   9  10
ENDBRANCH   8   9
ENDBRANCH   7   8
TORSDOF 3
ENDMDL
MODEL       79
REMARK 921   NORMALIZED FREE ENERGY PREDICTED BY IDOCK:   -4.46 KCAL/MOL
REMARK 922        TOTAL FREE ENERGY PREDICTED BY IDOCK:   -5.44 KCAL/MOL
REMARK 923 INTER-LIGAND FREE ENERGY PREDICTED BY IDOCK:   -5.22 KCAL/MOL
REMARK 924 INTRA-LIGAND FREE ENERGY PREDICTED BY IDOCK:   -0.22 KCAL/MOL
REMARK 927      BINDING AFFINITY PREDICTED BY RF-SCORE:    0.00 PKD
ROOT
HETATM    1  O   UNL     1     -12.867  15.266  63.880  1.00  0.00    -0.637 OA 
HETATM    2  N   UNL     1     -12.189  14.193  64.012  1.00  0.00    -0.610 NA 
HETATM    3  C   UNL     1     -12.735  13.000  63.545  1.00  0.00     0.002 A  
HETATM    4  C   UNL     1     -12.058  11.787  63.640  1.00  0.00    -0.486 A  
HETATM    5  C   UNL     1     -10.797  11.762  64.218  1.00  0.00    -0.404 A  
HETATM    6  C   UNL     1     -10.225  12.943  64.693  1.00  0.00    -0.321 A  
HETATM    7  C   UNL     1     -10.916  14.168  64.603  1.00  0.00    -0.382 A  
ENDROOT
BRANCH   7   8
HETATM    8  S   UNL     1     -10.156  15.691  65.175  1.00  0.00    -0.056 SA 
BRANCH   8   9
HETATM    9  S   UNL     1     -10.855  15.876  67.103  1.00  0.00    -0.214 SA 
BRANCH   9  10
HETATM   10  C   UNL     1     -10.290  17.499  67.621  1.00  0.00    -0.360 A  
HETATM   11  C   UNL     1      -9.964  18.479  66.663  1.00  0.00    -0.394 A  
HETATM   12  C   UNL     1      -9.611  19.770  67.052  1.00  0.00    -0.490 A  
HETATM   13  C   UNL     1      -9.583  20.105  68.399  1.00  0.00    -0.258 A  
HETATM   14  C   UNL     1      -9.904  19.134  69.345  1.00  0.00    -0.077 A  
HETATM   15  N   UNL     1     -10.259  17.837  68.981  1.00  0.00    -0.352 NA 
HETATM   16  O   UNL     1     -10.551  17.004  69.905  1.00  0.00    -0.182 OA 
ENDBRANCH   9  10
ENDBRANCH   8   9
ENDBRANCH   7   8
TORSDOF 3
ENDMDL
MODEL       80
REMARK 921   NORMALIZED FREE ENERGY PREDICTED BY IDOCK:   -4.46 KCAL/MOL
REMARK 922        TOTAL FREE ENERGY PREDICTED BY IDOCK:   -5.44 KCAL/MOL
REMARK 923 INTER-LIGAND FREE ENERGY PREDICTED BY IDOCK:   -5.16 KCAL/MOL
REMARK 924 INTRA-LIGAND FREE ENERGY PREDICTED BY IDOCK:   -0.28 KCAL/MOL
REMARK 927      BINDING AFFINITY PREDICTED BY RF-SCORE:    0.00 PKD
ROOT
HETATM    1  O   UNL     1     -13.495  13.894  65.335  1.00  0.00    -0.672 OA 
HETATM    2  N   UNL     1     -12.541  13.106  65.025  1.00  0.00    -0.615 NA 
HETATM    3  C   UNL     1     -12.362  12.773  63.684  1.00  0.00    -0.463 A  
HETATM    4  C   UNL     1     -11.340  11.929  63.258  1.00  0.00    -0.373 A  
HETATM    5  C   UNL     1     -10.467  11.400  64.198  1.00  0.00    -0.421 A  
HETATM    6  C   UNL     1     -10.621  11.719  65.548  1.00  0.00    -0.323 A  
HETATM    7  C   UNL     1     -11.662  12.566  65.977  1.00  0.00    -0.417 A  
ENDROOT
BRANCH   7   8
HETATM    8  S   UNL     1     -11.826  13.008  67.709  1.00  0.00    -0.313 SA 
BRANCH   8   9
HETATM    9  S   UNL     1     -11.438  15.031  67.722  1.00  0.00    -0.315 SA 
BRANCH   9  10
HETATM   10  C   UNL     1      -9.669  15.136  68.002  1.00  0.00    -0.209 A  
HETATM   11  C   UNL     1      -8.926  13.980  68.313  1.00  0.00    -0.190 A  
HETATM   12  C   UNL     1      -7.539  14.034  68.443  1.00  0.00    -0.129 A  
HETATM   13  C   UNL     1      -6.872  15.237  68.260  1.00  0.00    -0.122 A  
HETATM   14  C   UNL     1      -7.608  16.379  67.954  1.00  0.00    -0.148 A  
HETATM   15  N   UNL     1      -8.994  16.351  67.820  1.00  0.00    -0.197 NA 
HETATM   16  O   UNL     1      -9.599  17.438  67.527  1.00  0.00    -0.251 OA 
ENDBRANCH   9  10
ENDBRANCH   8   9
ENDBRANCH   7   8
TORSDOF 3
ENDMDL
MODEL       81
REMARK 921   NORMALIZED FREE ENERGY PREDICTED BY IDOCK:   -4.45 KCAL/MOL
REMARK 922        TOTAL FREE ENERGY PREDICTED BY IDOCK:   -5.43 KCAL/MOL
REMARK 923 INTER-LIGAND FREE ENERGY PREDICTED BY IDOCK:   -5.10 KCAL/MOL
REMARK 924 INTRA-LIGAND FREE ENERGY PREDICTED BY IDOCK:   -0.33 KCAL/MOL
REMARK 927      BINDING AFFINITY PREDICTED BY RF-SCORE:    0.00 PKD
ROOT
HETATM    1  O   UNL     1     -10.523   7.646  70.660  1.00  0.00    -0.212 OA 
HETATM    2  N   UNL     1     -11.314   8.633  70.830  1.00  0.00    -0.268 NA 
HETATM    3  C   UNL     1     -12.409   8.469  71.676  1.00  0.00    -0.326 A  
HETATM    4  C   UNL     1     -13.314   9.498  71.925  1.00  0.00    -0.518 A  
HETATM    5  C   UNL     1     -13.122  10.728  71.314  1.00  0.00    -0.427 A  
HETATM    6  C   UNL     1     -12.032  10.921  70.464  1.00  0.00    -0.466 A  
HETATM    7  C   UNL     1     -11.123   9.875  70.206  1.00  0.00    -0.308 A  
ENDROOT
BRANCH   7   8
HETATM    8  S   UNL     1      -9.698  10.144  69.147  1.00  0.00    -0.226 SA 
BRANCH   8   9
HETATM    9  S   UNL     1     -10.520  10.245  67.261  1.00  0.00    -0.262 SA 
BRANCH   9  10
HETATM   10  C   UNL     1     -10.664  12.004  66.940  1.00  0.00    -0.244 A  
HETATM   11  C   UNL     1     -11.928  12.626  66.928  1.00  0.00    -0.345 A  
HETATM   12  C   UNL     1     -12.046  14.006  66.769  1.00  0.00    -0.480 A  
HETATM   13  C   UNL     1     -10.907  14.787  66.626  1.00  0.00    -0.319 A  
HETATM   14  C   UNL     1      -9.658  14.170  66.636  1.00  0.00    -0.289 A  
HETATM   15  N   UNL     1      -9.514  12.793  66.792  1.00  0.00    -0.237 NA 
HETATM   16  O   UNL     1      -8.336  12.302  66.802  1.00  0.00    -0.168 OA 
ENDBRANCH   9  10
ENDBRANCH   8   9
ENDBRANCH   7   8
TORSDOF 3
ENDMDL
MODEL       82
REMARK 921   NORMALIZED FREE ENERGY PREDICTED BY IDOCK:   -4.44 KCAL/MOL
REMARK 922        TOTAL FREE ENERGY PREDICTED BY IDOCK:   -5.41 KCAL/MOL
REMARK 923 INTER-LIGAND FREE ENERGY PREDICTED BY IDOCK:   -5.05 KCAL/MOL
REMARK 924 INTRA-LIGAND FREE ENERGY PREDICTED BY IDOCK:   -0.37 KCAL/MOL
REMARK 927      BINDING AFFINITY PREDICTED BY RF-SCORE:    0.00 PKD
ROOT
HETATM    1  O   UNL     1     -11.094   7.532  71.425  1.00  0.00    -0.235 OA 
HETATM    2  N   UNL     1     -10.945   7.465  70.159  1.00  0.00    -0.256 NA 
HETATM    3  C   UNL     1     -11.218   6.258  69.521  1.00  0.00    -0.430 A  
HETATM    4  C   UNL     1     -11.090   6.102  68.143  1.00  0.00    -0.328 A  
HETATM    5  C   UNL     1     -10.680   7.183  67.377  1.00  0.00    -0.368 A  
HETATM    6  C   UNL     1     -10.403   8.406  67.990  1.00  0.00    -0.270 A  
HETATM    7  C   UNL     1     -10.523   8.558  69.386  1.00  0.00    -0.218 A  
ENDROOT
BRANCH   7   8
HETATM    8  S   UNL     1     -10.208  10.146  70.163  1.00  0.00    -0.088 SA 
BRANCH   8   9
HETATM    9  S   UNL     1     -12.048  11.071  70.112  1.00  0.00    -0.373 SA 
BRANCH   9  10
HETATM   10  C   UNL     1     -11.888  12.290  68.804  1.00  0.00    -0.306 A  
HETATM   11  C   UNL     1     -11.735  11.883  67.465  1.00  0.00    -0.335 A  
HETATM   12  C   UNL     1     -11.701  12.819  66.431  1.00  0.00    -0.464 A  
HETATM   13  C   UNL     1     -11.826  14.171  66.717  1.00  0.00    -0.449 A  
HETATM   14  C   UNL     1     -11.976  14.572  68.042  1.00  0.00    -0.270 A  
HETATM   15  N   UNL     1     -12.011  13.657  69.092  1.00  0.00    -0.347 NA 
HETATM   16  O   UNL     1     -12.163  14.100  70.280  1.00  0.00    -0.307 OA 
ENDBRANCH   9  10
ENDBRANCH   8   9
ENDBRANCH   7   8
TORSDOF 3
ENDMDL
MODEL       83
REMARK 921   NORMALIZED FREE ENERGY PREDICTED BY IDOCK:   -4.44 KCAL/MOL
REMARK 922        TOTAL FREE ENERGY PREDICTED BY IDOCK:   -5.41 KCAL/MOL
REMARK 923 INTER-LIGAND FREE ENERGY PREDICTED BY IDOCK:   -5.20 KCAL/MOL
REMARK 924 INTRA-LIGAND FREE ENERGY PREDICTED BY IDOCK:   -0.21 KCAL/MOL
REMARK 927      BINDING AFFINITY PREDICTED BY RF-SCORE:    0.00 PKD
ROOT
HETATM    1  O   UNL     1      -8.048   9.349  71.467  1.00  0.00    -0.285 OA 
HETATM    2  N   UNL     1      -9.237   8.928  71.664  1.00  0.00    -0.293 NA 
HETATM    3  C   UNL     1      -9.463   8.044  72.717  1.00  0.00    -0.269 A  
HETATM    4  C   UNL     1     -10.730   7.545  73.008  1.00  0.00    -0.438 A  
HETATM    5  C   UNL     1     -11.806   7.940  72.227  1.00  0.00    -0.404 A  
HETATM    6  C   UNL     1     -11.609   8.827  71.167  1.00  0.00    -0.344 A  
HETATM    7  C   UNL     1     -10.324   9.323  70.869  1.00  0.00    -0.296 A  
ENDROOT
BRANCH   7   8
HETATM    8  S   UNL     1     -10.085  10.499  69.533  1.00  0.00    -0.128 SA 
BRANCH   8   9
HETATM    9  S   UNL     1     -11.995  11.158  69.135  1.00  0.00    -0.285 SA 
BRANCH   9  10
HETATM   10  C   UNL     1     -11.763  12.473  67.936  1.00  0.00    -0.359 A  
HETATM   11  C   UNL     1     -11.708  12.180  66.559  1.00  0.00    -0.392 A  
HETATM   12  C   UNL     1     -11.619  13.201  65.613  1.00  0.00    -0.371 A  
HETATM   13  C   UNL     1     -11.590  14.527  66.025  1.00  0.00    -0.356 A  
HETATM   14  C   UNL     1     -11.644  14.814  67.387  1.00  0.00    -0.360 A  
HETATM   15  N   UNL     1     -11.732  13.812  68.351  1.00  0.00    -0.338 NA 
HETATM   16  O   UNL     1     -11.788  14.154  69.580  1.00  0.00    -0.280 OA 
ENDBRANCH   9  10
ENDBRANCH   8   9
ENDBRANCH   7   8
TORSDOF 3
ENDMDL
MODEL       84
REMARK 921   NORMALIZED FREE ENERGY PREDICTED BY IDOCK:   -4.43 KCAL/MOL
REMARK 922        TOTAL FREE ENERGY PREDICTED BY IDOCK:   -5.40 KCAL/MOL
REMARK 923 INTER-LIGAND FREE ENERGY PREDICTED BY IDOCK:   -5.19 KCAL/MOL
REMARK 924 INTRA-LIGAND FREE ENERGY PREDICTED BY IDOCK:   -0.22 KCAL/MOL
REMARK 927      BINDING AFFINITY PREDICTED BY RF-SCORE:    0.00 PKD
ROOT
HETATM    1  O   UNL     1     -10.643  11.113  63.532  1.00  0.00    -0.375 OA 
HETATM    2  N   UNL     1     -11.125  11.918  64.396  1.00  0.00    -0.320 NA 
HETATM    3  C   UNL     1     -11.867  13.009  63.947  1.00  0.00    -0.477 A  
HETATM    4  C   UNL     1     -12.437  13.929  64.823  1.00  0.00    -0.386 A  
HETATM    5  C   UNL     1     -12.264  13.757  66.189  1.00  0.00    -0.499 A  
HETATM    6  C   UNL     1     -11.528  12.671  66.666  1.00  0.00    -0.409 A  
HETATM    7  C   UNL     1     -10.944  11.748  65.777  1.00  0.00    -0.301 A  
ENDROOT
BRANCH   7   8
HETATM    8  S   UNL     1     -10.036  10.329  66.399  1.00  0.00    -0.239 SA 
BRANCH   8   9
HETATM    9  S   UNL     1     -10.001  10.644  68.435  1.00  0.00    -0.171 SA 
BRANCH   9  10
HETATM   10  C   UNL     1     -10.664   9.126  69.125  1.00  0.00    -0.172 A  
HETATM   11  C   UNL     1     -10.524   7.907  68.433  1.00  0.00    -0.207 A  
HETATM   12  C   UNL     1     -10.955   6.709  69.000  1.00  0.00    -0.332 A  
HETATM   13  C   UNL     1     -11.525   6.706  70.265  1.00  0.00    -0.449 A  
HETATM   14  C   UNL     1     -11.664   7.913  70.948  1.00  0.00    -0.257 A  
HETATM   15  N   UNL     1     -11.242   9.123  70.402  1.00  0.00    -0.247 NA 
HETATM   16  O   UNL     1     -11.393  10.187  71.093  1.00  0.00    -0.346 OA 
ENDBRANCH   9  10
ENDBRANCH   8   9
ENDBRANCH   7   8
TORSDOF 3
ENDMDL
MODEL       85
REMARK 921   NORMALIZED FREE ENERGY PREDICTED BY IDOCK:   -4.41 KCAL/MOL
REMARK 922        TOTAL FREE ENERGY PREDICTED BY IDOCK:   -5.38 KCAL/MOL
REMARK 923 INTER-LIGAND FREE ENERGY PREDICTED BY IDOCK:   -5.12 KCAL/MOL
REMARK 924 INTRA-LIGAND FREE ENERGY PREDICTED BY IDOCK:   -0.26 KCAL/MOL
REMARK 927      BINDING AFFINITY PREDICTED BY RF-SCORE:    0.00 PKD
ROOT
HETATM    1  O   UNL     1      -7.199  17.352  67.663  1.00  0.00    -0.160 OA 
HETATM    2  N   UNL     1      -8.257  18.024  67.420  1.00  0.00    -0.222 NA 
HETATM    3  C   UNL     1      -8.319  19.346  67.857  1.00  0.00    -0.308 A  
HETATM    4  C   UNL     1      -9.430  20.152  67.625  1.00  0.00    -0.514 A  
HETATM    5  C   UNL     1     -10.513  19.627  66.934  1.00  0.00    -0.606 A  
HETATM    6  C   UNL     1     -10.475  18.306  66.482  1.00  0.00    -0.378 A  
HETATM    7  C   UNL     1      -9.354  17.490  66.727  1.00  0.00    -0.265 A  
ENDROOT
BRANCH   7   8
HETATM    8  S   UNL     1      -9.295  15.807  66.104  1.00  0.00    -0.354 SA 
BRANCH   8   9
HETATM    9  S   UNL     1     -11.278  15.252  66.049  1.00  0.00    -0.162 SA 
BRANCH   9  10
HETATM   10  C   UNL     1     -11.429  14.038  67.363  1.00  0.00    -0.348 A  
HETATM   11  C   UNL     1     -11.596  12.674  67.057  1.00  0.00    -0.431 A  
HETATM   12  C   UNL     1     -11.624  11.712  68.066  1.00  0.00    -0.383 A  
HETATM   13  C   UNL     1     -11.481  12.095  69.393  1.00  0.00    -0.355 A  
HETATM   14  C   UNL     1     -11.318  13.446  69.693  1.00  0.00    -0.137 A  
HETATM   15  N   UNL     1     -11.287  14.425  68.703  1.00  0.00    -0.258 NA 
HETATM   16  O   UNL     1     -11.123  15.642  69.055  1.00  0.00    -0.243 OA 
ENDBRANCH   9  10
ENDBRANCH   8   9
ENDBRANCH   7   8
TORSDOF 3
ENDMDL
MODEL       86
REMARK 921   NORMALIZED FREE ENERGY PREDICTED BY IDOCK:   -4.41 KCAL/MOL
REMARK 922        TOTAL FREE ENERGY PREDICTED BY IDOCK:   -5.38 KCAL/MOL
REMARK 923 INTER-LIGAND FREE ENERGY PREDICTED BY IDOCK:   -5.04 KCAL/MOL
REMARK 924 INTRA-LIGAND FREE ENERGY PREDICTED BY IDOCK:   -0.34 KCAL/MOL
REMARK 927      BINDING AFFINITY PREDICTED BY RF-SCORE:    0.00 PKD
ROOT
HETATM    1  O   UNL     1      -8.016   8.865  72.459  1.00  0.00    -0.374 OA 
HETATM    2  N   UNL     1      -9.171   8.358  72.263  1.00  0.00    -0.238 NA 
HETATM    3  C   UNL     1      -9.626   7.379  73.143  1.00  0.00    -0.210 A  
HETATM    4  C   UNL     1     -10.878   6.783  73.007  1.00  0.00    -0.314 A  
HETATM    5  C   UNL     1     -11.702   7.175  71.963  1.00  0.00    -0.326 A  
HETATM    6  C   UNL     1     -11.272   8.156  71.067  1.00  0.00    -0.284 A  
HETATM    7  C   UNL     1     -10.001   8.750  71.201  1.00  0.00    -0.248 A  
ENDROOT
BRANCH   7   8
HETATM    8  S   UNL     1      -9.473  10.043  70.073  1.00  0.00    -0.040 SA 
BRANCH   8   9
HETATM    9  S   UNL     1     -11.190  10.487  69.024  1.00  0.00    -0.257 SA 
BRANCH   9  10
HETATM   10  C   UNL     1     -12.014  11.720  70.034  1.00  0.00    -0.344 A  
HETATM   11  C   UNL     1     -12.705  11.339  71.201  1.00  0.00    -0.492 A  
HETATM   12  C   UNL     1     -13.272  12.296  72.042  1.00  0.00    -0.508 A  
HETATM   13  C   UNL     1     -13.153  13.645  71.736  1.00  0.00    -0.468 A  
HETATM   14  C   UNL     1     -12.471  14.019  70.580  1.00  0.00    -0.365 A  
HETATM   15  N   UNL     1     -11.897  13.082  69.724  1.00  0.00    -0.321 NA 
HETATM   16  O   UNL     1     -11.277  13.503  68.690  1.00  0.00    -0.249 OA 
ENDBRANCH   9  10
ENDBRANCH   8   9
ENDBRANCH   7   8
TORSDOF 3
ENDMDL
MODEL       87
REMARK 921   NORMALIZED FREE ENERGY PREDICTED BY IDOCK:   -4.41 KCAL/MOL
REMARK 922        TOTAL FREE ENERGY PREDICTED BY IDOCK:   -5.37 KCAL/MOL
REMARK 923 INTER-LIGAND FREE ENERGY PREDICTED BY IDOCK:   -5.43 KCAL/MOL
REMARK 924 INTRA-LIGAND FREE ENERGY PREDICTED BY IDOCK:    0.06 KCAL/MOL
REMARK 927      BINDING AFFINITY PREDICTED BY RF-SCORE:    0.00 PKD
ROOT
HETATM    1  O   UNL     1     -12.907  11.397  71.576  1.00  0.00    -0.419 OA 
HETATM    2  N   UNL     1     -12.922  12.664  71.421  1.00  0.00    -0.325 NA 
HETATM    3  C   UNL     1     -13.695  13.431  72.289  1.00  0.00    -0.607 A  
HETATM    4  C   UNL     1     -13.759  14.819  72.196  1.00  0.00    -0.543 A  
HETATM    5  C   UNL     1     -13.029  15.463  71.208  1.00  0.00    -0.541 A  
HETATM    6  C   UNL     1     -12.243  14.719  70.326  1.00  0.00    -0.394 A  
HETATM    7  C   UNL     1     -12.188  13.314  70.417  1.00  0.00    -0.332 A  
ENDROOT
BRANCH   7   8
HETATM    8  S   UNL     1     -11.140  12.367  69.308  1.00  0.00    -0.089 SA 
BRANCH   8   9
HETATM    9  S   UNL     1     -11.817  12.907  67.439  1.00  0.00    -0.318 SA 
BRANCH   9  10
HETATM   10  C   UNL     1     -10.661  14.171  66.903  1.00  0.00    -0.286 A  
HETATM   11  C   UNL     1     -11.131  15.407  66.420  1.00  0.00    -0.230 A  
HETATM   12  C   UNL     1     -10.243  16.429  66.086  1.00  0.00    -0.363 A  
HETATM   13  C   UNL     1      -8.876  16.236  66.234  1.00  0.00    -0.367 A  
HETATM   14  C   UNL     1      -8.414  15.011  66.710  1.00  0.00    -0.204 A  
HETATM   15  N   UNL     1      -9.280  13.975  67.049  1.00  0.00    -0.244 NA 
HETATM   16  O   UNL     1      -8.782  12.884  67.490  1.00  0.00    -0.169 OA 
ENDBRANCH   9  10
ENDBRANCH   8   9
ENDBRANCH   7   8
TORSDOF 3
ENDMDL
MODEL       88
REMARK 921   NORMALIZED FREE ENERGY PREDICTED BY IDOCK:   -4.40 KCAL/MOL
REMARK 922        TOTAL FREE ENERGY PREDICTED BY IDOCK:   -5.37 KCAL/MOL
REMARK 923 INTER-LIGAND FREE ENERGY PREDICTED BY IDOCK:   -5.18 KCAL/MOL
REMARK 924 INTRA-LIGAND FREE ENERGY PREDICTED BY IDOCK:   -0.18 KCAL/MOL
REMARK 927      BINDING AFFINITY PREDICTED BY RF-SCORE:    0.00 PKD
ROOT
HETATM    1  O   UNL     1     -11.153   7.422  71.116  1.00  0.00    -0.244 OA 
HETATM    2  N   UNL     1     -10.955   7.390  69.856  1.00  0.00    -0.245 NA 
HETATM    3  C   UNL     1     -11.049   6.165  69.199  1.00  0.00    -0.378 A  
HETATM    4  C   UNL     1     -10.858   6.044  67.825  1.00  0.00    -0.380 A  
HETATM    5  C   UNL     1     -10.565   7.179  67.082  1.00  0.00    -0.417 A  
HETATM    6  C   UNL     1     -10.467   8.419  67.715  1.00  0.00    -0.284 A  
HETATM    7  C   UNL     1     -10.651   8.537  69.107  1.00  0.00    -0.173 A  
ENDROOT
BRANCH   7   8
HETATM    8  S   UNL     1     -10.568  10.142  69.907  1.00  0.00    -0.288 SA 
BRANCH   8   9
HETATM    9  S   UNL     1     -11.203  11.438  68.437  1.00  0.00    -0.293 SA 
BRANCH   9  10
HETATM   10  C   UNL     1     -11.795  12.871  69.342  1.00  0.00    -0.312 A  
HETATM   11  C   UNL     1     -12.261  12.736  70.664  1.00  0.00    -0.374 A  
HETATM   12  C   UNL     1     -12.638  13.854  71.407  1.00  0.00    -0.444 A  
HETATM   13  C   UNL     1     -12.550  15.121  70.847  1.00  0.00    -0.441 A  
HETATM   14  C   UNL     1     -12.090  15.252  69.539  1.00  0.00    -0.290 A  
HETATM   15  N   UNL     1     -11.708  14.151  68.776  1.00  0.00    -0.324 NA 
HETATM   16  O   UNL     1     -11.286  14.351  67.587  1.00  0.00    -0.298 OA 
ENDBRANCH   9  10
ENDBRANCH   8   9
ENDBRANCH   7   8
TORSDOF 3
ENDMDL
MODEL       89
REMARK 921   NORMALIZED FREE ENERGY PREDICTED BY IDOCK:   -4.40 KCAL/MOL
REMARK 922        TOTAL FREE ENERGY PREDICTED BY IDOCK:   -5.36 KCAL/MOL
REMARK 923 INTER-LIGAND FREE ENERGY PREDICTED BY IDOCK:   -5.13 KCAL/MOL
REMARK 924 INTRA-LIGAND FREE ENERGY PREDICTED BY IDOCK:   -0.23 KCAL/MOL
REMARK 927      BINDING AFFINITY PREDICTED BY RF-SCORE:    0.00 PKD
ROOT
HETATM    1  O   UNL     1     -12.659  12.822  65.793  1.00  0.00    -0.562 OA 
HETATM    2  N   UNL     1     -11.641  12.205  65.331  1.00  0.00    -0.349 NA 
HETATM    3  C   UNL     1     -11.278  12.422  64.004  1.00  0.00    -0.396 A  
HETATM    4  C   UNL     1     -10.177  11.798  63.424  1.00  0.00    -0.482 A  
HETATM    5  C   UNL     1      -9.412  10.931  64.191  1.00  0.00    -0.295 A  
HETATM    6  C   UNL     1      -9.752  10.697  65.525  1.00  0.00    -0.291 A  
HETATM    7  C   UNL     1     -10.872  11.323  66.105  1.00  0.00    -0.222 A  
ENDROOT
BRANCH   7   8
HETATM    8  S   UNL     1     -11.277  11.052  67.834  1.00  0.00    -0.311 SA 
BRANCH   8   9
HETATM    9  S   UNL     1      -9.743   9.846  68.496  1.00  0.00    -0.159 SA 
BRANCH   9  10
HETATM   10  C   UNL     1     -10.569   8.572  69.453  1.00  0.00    -0.195 A  
HETATM   11  C   UNL     1     -10.668   7.259  68.955  1.00  0.00    -0.183 A  
HETATM   12  C   UNL     1     -11.227   6.241  69.728  1.00  0.00    -0.499 A  
HETATM   13  C   UNL     1     -11.689   6.516  71.008  1.00  0.00    -0.402 A  
HETATM   14  C   UNL     1     -11.591   7.817  71.498  1.00  0.00    -0.270 A  
HETATM   15  N   UNL     1     -11.038   8.850  70.745  1.00  0.00    -0.251 NA 
HETATM   16  O   UNL     1     -10.972  10.014  71.267  1.00  0.00    -0.264 OA 
ENDBRANCH   9  10
ENDBRANCH   8   9
ENDBRANCH   7   8
TORSDOF 3
ENDMDL
MODEL       90
REMARK 921   NORMALIZED FREE ENERGY PREDICTED BY IDOCK:   -4.38 KCAL/MOL
REMARK 922        TOTAL FREE ENERGY PREDICTED BY IDOCK:   -5.35 KCAL/MOL
REMARK 923 INTER-LIGAND FREE ENERGY PREDICTED BY IDOCK:   -5.08 KCAL/MOL
REMARK 924 INTRA-LIGAND FREE ENERGY PREDICTED BY IDOCK:   -0.26 KCAL/MOL
REMARK 927      BINDING AFFINITY PREDICTED BY RF-SCORE:    0.00 PKD
ROOT
HETATM    1  O   UNL     1     -10.231  16.481  65.263  1.00  0.00    -0.588 OA 
HETATM    2  N   UNL     1      -9.384  16.088  66.133  1.00  0.00    -0.316 NA 
HETATM    3  C   UNL     1      -8.046  16.438  65.963  1.00  0.00     0.039 A  
HETATM    4  C   UNL     1      -7.059  16.061  66.871  1.00  0.00    -0.182 A  
HETATM    5  C   UNL     1      -7.417  15.312  67.983  1.00  0.00    -0.129 A  
HETATM    6  C   UNL     1      -8.751  14.950  68.179  1.00  0.00    -0.164 A  
HETATM    7  C   UNL     1      -9.745  15.325  67.254  1.00  0.00    -0.212 A  
ENDROOT
BRANCH   7   8
HETATM    8  S   UNL     1     -11.465  14.894  67.536  1.00  0.00    -0.329 SA 
BRANCH   8   9
HETATM    9  S   UNL     1     -11.873  15.747  69.366  1.00  0.00    -0.293 SA 
BRANCH   9  10
HETATM   10  C   UNL     1     -12.507  14.387  70.351  1.00  0.00    -0.357 A  
HETATM   11  C   UNL     1     -11.929  13.106  70.253  1.00  0.00    -0.366 A  
HETATM   12  C   UNL     1     -12.353  12.065  71.078  1.00  0.00    -0.340 A  
HETATM   13  C   UNL     1     -13.352  12.286  72.016  1.00  0.00    -0.491 A  
HETATM   14  C   UNL     1     -13.923  13.554  72.110  1.00  0.00    -0.481 A  
HETATM   15  N   UNL     1     -13.518  14.609  71.297  1.00  0.00    -0.376 NA 
HETATM   16  O   UNL     1     -14.081  15.746  71.450  1.00  0.00    -0.498 OA 
ENDBRANCH   9  10
ENDBRANCH   8   9
ENDBRANCH   7   8
TORSDOF 3
ENDMDL
MODEL       91
REMARK 921   NORMALIZED FREE ENERGY PREDICTED BY IDOCK:   -4.37 KCAL/MOL
REMARK 922        TOTAL FREE ENERGY PREDICTED BY IDOCK:   -5.33 KCAL/MOL
REMARK 923 INTER-LIGAND FREE ENERGY PREDICTED BY IDOCK:   -4.96 KCAL/MOL
REMARK 924 INTRA-LIGAND FREE ENERGY PREDICTED BY IDOCK:   -0.37 KCAL/MOL
REMARK 927      BINDING AFFINITY PREDICTED BY RF-SCORE:    0.00 PKD
ROOT
HETATM    1  O   UNL     1     -10.924  13.080  68.917  1.00  0.00    -0.244 OA 
HETATM    2  N   UNL     1     -11.656  12.647  69.868  1.00  0.00    -0.229 NA 
HETATM    3  C   UNL     1     -12.369  13.570  70.631  1.00  0.00    -0.358 A  
HETATM    4  C   UNL     1     -13.199  13.181  71.680  1.00  0.00    -0.435 A  
HETATM    5  C   UNL     1     -13.323  11.832  71.978  1.00  0.00    -0.417 A  
HETATM    6  C   UNL     1     -12.623  10.886  71.228  1.00  0.00    -0.526 A  
HETATM    7  C   UNL     1     -11.776  11.283  70.174  1.00  0.00    -0.343 A  
ENDROOT
BRANCH   7   8
HETATM    8  S   UNL     1     -10.913  10.057  69.185  1.00  0.00    -0.197 SA 
BRANCH   8   9
HETATM    9  S   UNL     1      -9.364   9.467  70.407  1.00  0.00    -0.220 SA 
BRANCH   9  10
HETATM   10  C   UNL     1     -10.093   8.213  71.464  1.00  0.00    -0.188 A  
HETATM   11  C   UNL     1     -11.114   7.376  70.976  1.00  0.00    -0.277 A  
HETATM   12  C   UNL     1     -11.625   6.340  71.757  1.00  0.00    -0.358 A  
HETATM   13  C   UNL     1     -11.121   6.120  73.032  1.00  0.00    -0.250 A  
HETATM   14  C   UNL     1     -10.111   6.950  73.513  1.00  0.00    -0.292 A  
HETATM   15  N   UNL     1      -9.586   7.992  72.752  1.00  0.00    -0.249 NA 
HETATM   16  O   UNL     1      -8.654   8.704  73.258  1.00  0.00    -0.375 OA 
ENDBRANCH   9  10
ENDBRANCH   8   9
ENDBRANCH   7   8
TORSDOF 3
ENDMDL
MODEL       92
REMARK 921   NORMALIZED FREE ENERGY PREDICTED BY IDOCK:   -4.36 KCAL/MOL
REMARK 922        TOTAL FREE ENERGY PREDICTED BY IDOCK:   -5.32 KCAL/MOL
REMARK 923 INTER-LIGAND FREE ENERGY PREDICTED BY IDOCK:   -5.11 KCAL/MOL
REMARK 924 INTRA-LIGAND FREE ENERGY PREDICTED BY IDOCK:   -0.21 KCAL/MOL
REMARK 927      BINDING AFFINITY PREDICTED BY RF-SCORE:    0.00 PKD
ROOT
HETATM    1  O   UNL     1     -13.370  11.719  71.905  1.00  0.00    -0.448 OA 
HETATM    2  N   UNL     1     -13.271  12.947  71.571  1.00  0.00    -0.314 NA 
HETATM    3  C   UNL     1     -13.945  13.899  72.333  1.00  0.00    -0.531 A  
HETATM    4  C   UNL     1     -13.881  15.260  72.044  1.00  0.00    -0.626 A  
HETATM    5  C   UNL     1     -13.123  15.685  70.964  1.00  0.00    -0.487 A  
HETATM    6  C   UNL     1     -12.435  14.753  70.185  1.00  0.00    -0.359 A  
HETATM    7  C   UNL     1     -12.509  13.376  70.474  1.00  0.00    -0.279 A  
ENDROOT
BRANCH   7   8
HETATM    8  S   UNL     1     -11.586  12.186  69.495  1.00  0.00    -0.299 SA 
BRANCH   8   9
HETATM    9  S   UNL     1     -11.455  13.091  67.649  1.00  0.00    -0.345 SA 
BRANCH   9  10
HETATM   10  C   UNL     1     -10.350  12.027  66.718  1.00  0.00    -0.207 A  
HETATM   11  C   UNL     1     -10.851  11.201  65.693  1.00  0.00    -0.206 A  
HETATM   12  C   UNL     1      -9.991  10.438  64.903  1.00  0.00    -0.409 A  
HETATM   13  C   UNL     1      -8.621  10.493  65.118  1.00  0.00    -0.187 A  
HETATM   14  C   UNL     1      -8.127  11.310  66.134  1.00  0.00    -0.065 A  
HETATM   15  N   UNL     1      -8.966  12.080  66.936  1.00  0.00    -0.194 NA 
HETATM   16  O   UNL     1      -8.438  12.813  67.840  1.00  0.00    -0.152 OA 
ENDBRANCH   9  10
ENDBRANCH   8   9
ENDBRANCH   7   8
TORSDOF 3
ENDMDL
MODEL       93
REMARK 921   NORMALIZED FREE ENERGY PREDICTED BY IDOCK:   -4.35 KCAL/MOL
REMARK 922        TOTAL FREE ENERGY PREDICTED BY IDOCK:   -5.31 KCAL/MOL
REMARK 923 INTER-LIGAND FREE ENERGY PREDICTED BY IDOCK:   -5.12 KCAL/MOL
REMARK 924 INTRA-LIGAND FREE ENERGY PREDICTED BY IDOCK:   -0.19 KCAL/MOL
REMARK 927      BINDING AFFINITY PREDICTED BY RF-SCORE:    0.00 PKD
ROOT
HETATM    1  O   UNL     1     -12.374  13.406  70.675  1.00  0.00    -0.350 OA 
HETATM    2  N   UNL     1     -12.066  12.822  69.583  1.00  0.00    -0.264 NA 
HETATM    3  C   UNL     1     -11.910  13.597  68.436  1.00  0.00    -0.372 A  
HETATM    4  C   UNL     1     -11.565  13.041  67.206  1.00  0.00    -0.409 A  
HETATM    5  C   UNL     1     -11.368  11.671  67.117  1.00  0.00    -0.373 A  
HETATM    6  C   UNL     1     -11.515  10.871  68.251  1.00  0.00    -0.376 A  
HETATM    7  C   UNL     1     -11.874  11.435  69.492  1.00  0.00    -0.357 A  
ENDROOT
BRANCH   7   8
HETATM    8  S   UNL     1     -12.017  10.406  70.956  1.00  0.00    -0.377 SA 
BRANCH   8   9
HETATM    9  S   UNL     1     -10.198   9.442  71.039  1.00  0.00    -0.270 SA 
BRANCH   9  10
HETATM   10  C   UNL     1     -10.509   8.007  72.071  1.00  0.00    -0.246 A  
HETATM   11  C   UNL     1     -11.475   7.054  71.694  1.00  0.00    -0.299 A  
HETATM   12  C   UNL     1     -11.661   5.891  72.440  1.00  0.00    -0.307 A  
HETATM   13  C   UNL     1     -10.885   5.658  73.567  1.00  0.00    -0.295 A  
HETATM   14  C   UNL     1      -9.930   6.603  73.938  1.00  0.00    -0.292 A  
HETATM   15  N   UNL     1      -9.726   7.773  73.211  1.00  0.00    -0.280 NA 
HETATM   16  O   UNL     1      -8.825   8.586  73.607  1.00  0.00    -0.249 OA 
ENDBRANCH   9  10
ENDBRANCH   8   9
ENDBRANCH   7   8
TORSDOF 3
ENDMDL
MODEL       94
REMARK 921   NORMALIZED FREE ENERGY PREDICTED BY IDOCK:   -4.35 KCAL/MOL
REMARK 922        TOTAL FREE ENERGY PREDICTED BY IDOCK:   -5.30 KCAL/MOL
REMARK 923 INTER-LIGAND FREE ENERGY PREDICTED BY IDOCK:   -5.08 KCAL/MOL
REMARK 924 INTRA-LIGAND FREE ENERGY PREDICTED BY IDOCK:   -0.22 KCAL/MOL
REMARK 927      BINDING AFFINITY PREDICTED BY RF-SCORE:    0.00 PKD
ROOT
HETATM    1  O   UNL     1     -11.250   7.416  71.594  1.00  0.00    -0.241 OA 
HETATM    2  N   UNL     1     -11.044   7.425  70.335  1.00  0.00    -0.262 NA 
HETATM    3  C   UNL     1     -11.191   6.233  69.629  1.00  0.00    -0.437 A  
HETATM    4  C   UNL     1     -10.996   6.157  68.252  1.00  0.00    -0.397 A  
HETATM    5  C   UNL     1     -10.645   7.305  67.556  1.00  0.00    -0.344 A  
HETATM    6  C   UNL     1     -10.494   8.513  68.238  1.00  0.00    -0.222 A  
HETATM    7  C   UNL     1     -10.682   8.585  69.633  1.00  0.00    -0.197 A  
ENDROOT
BRANCH   7   8
HETATM    8  S   UNL     1     -10.530  10.152  70.496  1.00  0.00     0.036 SA 
BRANCH   8   9
HETATM    9  S   UNL     1     -12.482  10.781  70.684  1.00  0.00    -0.380 SA 
BRANCH   9  10
HETATM   10  C   UNL     1     -12.367  12.572  70.678  1.00  0.00    -0.282 A  
HETATM   11  C   UNL     1     -11.761  13.244  69.598  1.00  0.00    -0.369 A  
HETATM   12  C   UNL     1     -11.747  14.637  69.539  1.00  0.00    -0.366 A  
HETATM   13  C   UNL     1     -12.340  15.380  70.550  1.00  0.00    -0.452 A  
HETATM   14  C   UNL     1     -12.938  14.714  71.618  1.00  0.00    -0.335 A  
HETATM   15  N   UNL     1     -12.965  13.323  71.700  1.00  0.00    -0.371 NA 
HETATM   16  O   UNL     1     -13.541  12.784  72.704  1.00  0.00    -0.462 OA 
ENDBRANCH   9  10
ENDBRANCH   8   9
ENDBRANCH   7   8
TORSDOF 3
ENDMDL
MODEL       95
REMARK 921   NORMALIZED FREE ENERGY PREDICTED BY IDOCK:   -4.34 KCAL/MOL
REMARK 922        TOTAL FREE ENERGY PREDICTED BY IDOCK:   -5.30 KCAL/MOL
REMARK 923 INTER-LIGAND FREE ENERGY PREDICTED BY IDOCK:   -5.11 KCAL/MOL
REMARK 924 INTRA-LIGAND FREE ENERGY PREDICTED BY IDOCK:   -0.19 KCAL/MOL
REMARK 927      BINDING AFFINITY PREDICTED BY RF-SCORE:    0.00 PKD
ROOT
HETATM    1  O   UNL     1     -11.929  16.131  63.776  1.00  0.00    -0.926 OA 
HETATM    2  N   UNL     1     -11.640  15.155  64.546  1.00  0.00    -0.374 NA 
HETATM    3  C   UNL     1     -12.254  13.925  64.318  1.00  0.00    -0.408 A  
HETATM    4  C   UNL     1     -11.988  12.807  65.104  1.00  0.00    -0.466 A  
HETATM    5  C   UNL     1     -11.081  12.916  66.148  1.00  0.00    -0.314 A  
HETATM    6  C   UNL     1     -10.449  14.136  66.396  1.00  0.00    -0.283 A  
HETATM    7  C   UNL     1     -10.728  15.268  65.606  1.00  0.00    -0.365 A  
ENDROOT
BRANCH   7   8
HETATM    8  S   UNL     1      -9.878  16.822  65.903  1.00  0.00    -0.198 SA 
BRANCH   8   9
HETATM    9  S   UNL     1      -8.283  16.271  67.085  1.00  0.00    -0.209 SA 
BRANCH   9  10
HETATM   10  C   UNL     1      -7.314  17.773  67.241  1.00  0.00    -0.187 A  
HETATM   11  C   UNL     1      -7.944  19.002  67.519  1.00  0.00    -0.276 A  
HETATM   12  C   UNL     1      -7.194  20.158  67.732  1.00  0.00    -0.329 A  
HETATM   13  C   UNL     1      -5.808  20.106  67.677  1.00  0.00    -0.218 A  
HETATM   14  C   UNL     1      -5.187  18.890  67.400  1.00  0.00    -0.159 A  
HETATM   15  N   UNL     1      -5.914  17.721  67.183  1.00  0.00    -0.131 NA 
HETATM   16  O   UNL     1      -5.273  16.642  66.946  1.00  0.00    -0.268 OA 
ENDBRANCH   9  10
ENDBRANCH   8   9
ENDBRANCH   7   8
TORSDOF 3
ENDMDL
MODEL       96
REMARK 921   NORMALIZED FREE ENERGY PREDICTED BY IDOCK:   -4.34 KCAL/MOL
REMARK 922        TOTAL FREE ENERGY PREDICTED BY IDOCK:   -5.30 KCAL/MOL
REMARK 923 INTER-LIGAND FREE ENERGY PREDICTED BY IDOCK:   -5.38 KCAL/MOL
REMARK 924 INTRA-LIGAND FREE ENERGY PREDICTED BY IDOCK:    0.08 KCAL/MOL
REMARK 927      BINDING AFFINITY PREDICTED BY RF-SCORE:    0.00 PKD
ROOT
HETATM    1  O   UNL     1     -10.679  16.797  68.767  1.00  0.00    -0.316 OA 
HETATM    2  N   UNL     1     -10.398  17.835  68.079  1.00  0.00    -0.375 NA 
HETATM    3  C   UNL     1     -10.070  19.010  68.752  1.00  0.00    -0.363 A  
HETATM    4  C   UNL     1      -9.741  20.183  68.078  1.00  0.00    -0.464 A  
HETATM    5  C   UNL     1      -9.735  20.186  66.691  1.00  0.00    -0.568 A  
HETATM    6  C   UNL     1     -10.057  19.021  65.991  1.00  0.00    -0.401 A  
HETATM    7  C   UNL     1     -10.399  17.838  66.676  1.00  0.00    -0.345 A  
ENDROOT
BRANCH   7   8
HETATM    8  S   UNL     1     -10.767  16.332  65.769  1.00  0.00    -0.202 SA 
BRANCH   8   9
HETATM    9  S   UNL     1      -9.437  14.970  66.554  1.00  0.00    -0.299 SA 
BRANCH   9  10
HETATM   10  C   UNL     1      -9.810  13.444  65.686  1.00  0.00    -0.163 A  
HETATM   11  C   UNL     1     -10.641  13.455  64.549  1.00  0.00    -0.441 A  
HETATM   12  C   UNL     1     -10.865  12.291  63.815  1.00  0.00    -0.495 A  
HETATM   13  C   UNL     1     -10.260  11.102  64.198  1.00  0.00    -0.405 A  
HETATM   14  C   UNL     1      -9.440  11.093  65.324  1.00  0.00    -0.226 A  
HETATM   15  N   UNL     1      -9.201  12.242  66.075  1.00  0.00    -0.147 NA 
HETATM   16  O   UNL     1      -8.429  12.157  67.088  1.00  0.00    -0.170 OA 
ENDBRANCH   9  10
ENDBRANCH   8   9
ENDBRANCH   7   8
TORSDOF 3
ENDMDL
MODEL       97
REMARK 921   NORMALIZED FREE ENERGY PREDICTED BY IDOCK:   -4.32 KCAL/MOL
REMARK 922        TOTAL FREE ENERGY PREDICTED BY IDOCK:   -5.28 KCAL/MOL
REMARK 923 INTER-LIGAND FREE ENERGY PREDICTED BY IDOCK:   -4.91 KCAL/MOL
REMARK 924 INTRA-LIGAND FREE ENERGY PREDICTED BY IDOCK:   -0.36 KCAL/MOL
REMARK 927      BINDING AFFINITY PREDICTED BY RF-SCORE:    0.00 PKD
ROOT
HETATM    1  O   UNL     1      -7.259  17.394  68.382  1.00  0.00    -0.204 OA 
HETATM    2  N   UNL     1      -6.738  18.537  68.606  1.00  0.00    -0.250 NA 
HETATM    3  C   UNL     1      -6.138  18.762  69.843  1.00  0.00    -0.210 A  
HETATM    4  C   UNL     1      -5.538  19.977  70.166  1.00  0.00    -0.310 A  
HETATM    5  C   UNL     1      -5.533  20.998  69.227  1.00  0.00    -0.374 A  
HETATM    6  C   UNL     1      -6.125  20.798  67.979  1.00  0.00    -0.364 A  
HETATM    7  C   UNL     1      -6.741  19.572  67.659  1.00  0.00    -0.219 A  
ENDROOT
BRANCH   7   8
HETATM    8  S   UNL     1      -7.460  19.307  66.035  1.00  0.00    -0.256 SA 
BRANCH   8   9
HETATM    9  S   UNL     1      -9.466  19.663  66.341  1.00  0.00    -0.410 SA 
BRANCH   9  10
HETATM   10  C   UNL     1     -10.137  18.052  66.760  1.00  0.00    -0.356 A  
HETATM   11  C   UNL     1     -10.299  17.067  65.766  1.00  0.00    -0.275 A  
HETATM   12  C   UNL     1     -10.734  15.783  66.095  1.00  0.00    -0.293 A  
HETATM   13  C   UNL     1     -11.008  15.462  67.417  1.00  0.00    -0.312 A  
HETATM   14  C   UNL     1     -10.850  16.439  68.398  1.00  0.00    -0.342 A  
HETATM   15  N   UNL     1     -10.417  17.728  68.095  1.00  0.00    -0.382 NA 
HETATM   16  O   UNL     1     -10.285  18.565  69.050  1.00  0.00    -0.356 OA 
ENDBRANCH   9  10
ENDBRANCH   8   9
ENDBRANCH   7   8
TORSDOF 3
ENDMDL
MODEL       98
REMARK 921   NORMALIZED FREE ENERGY PREDICTED BY IDOCK:   -4.32 KCAL/MOL
REMARK 922        TOTAL FREE ENERGY PREDICTED BY IDOCK:   -5.27 KCAL/MOL
REMARK 923 INTER-LIGAND FREE ENERGY PREDICTED BY IDOCK:   -4.96 KCAL/MOL
REMARK 924 INTRA-LIGAND FREE ENERGY PREDICTED BY IDOCK:   -0.31 KCAL/MOL
REMARK 927      BINDING AFFINITY PREDICTED BY RF-SCORE:    0.00 PKD
ROOT
HETATM    1  O   UNL     1     -12.336  13.713  69.110  1.00  0.00    -0.285 OA 
HETATM    2  N   UNL     1     -11.586  14.620  68.617  1.00  0.00    -0.298 NA 
HETATM    3  C   UNL     1     -10.840  15.412  69.487  1.00  0.00    -0.267 A  
HETATM    4  C   UNL     1      -9.989  16.416  69.031  1.00  0.00    -0.267 A  
HETATM    5  C   UNL     1      -9.876  16.636  67.666  1.00  0.00    -0.256 A  
HETATM    6  C   UNL     1     -10.609  15.855  66.772  1.00  0.00    -0.309 A  
HETATM    7  C   UNL     1     -11.477  14.847  67.236  1.00  0.00    -0.340 A  
ENDROOT
BRANCH   7   8
HETATM    8  S   UNL     1     -12.382  13.815  66.078  1.00  0.00    -0.442 SA 
BRANCH   8   9
HETATM    9  S   UNL     1     -11.004  13.449  64.591  1.00  0.00    -0.396 SA 
BRANCH   9  10
HETATM   10  C   UNL     1     -10.344  11.830  64.995  1.00  0.00    -0.281 A  
HETATM   11  C   UNL     1     -10.582  11.258  66.260  1.00  0.00    -0.315 A  
HETATM   12  C   UNL     1     -10.152   9.965  66.554  1.00  0.00    -0.298 A  
HETATM   13  C   UNL     1      -9.485   9.221  65.590  1.00  0.00    -0.324 A  
HETATM   14  C   UNL     1      -9.249   9.789  64.340  1.00  0.00    -0.245 A  
HETATM   15  N   UNL     1      -9.668  11.079  64.023  1.00  0.00    -0.262 NA 
HETATM   16  O   UNL     1      -9.424  11.527  62.852  1.00  0.00    -0.381 OA 
ENDBRANCH   9  10
ENDBRANCH   8   9
ENDBRANCH   7   8
TORSDOF 3
ENDMDL
MODEL       99
REMARK 921   NORMALIZED FREE ENERGY PREDICTED BY IDOCK:   -4.32 KCAL/MOL
REMARK 922        TOTAL FREE ENERGY PREDICTED BY IDOCK:   -5.27 KCAL/MOL
REMARK 923 INTER-LIGAND FREE ENERGY PREDICTED BY IDOCK:   -5.03 KCAL/MOL
REMARK 924 INTRA-LIGAND FREE ENERGY PREDICTED BY IDOCK:   -0.24 KCAL/MOL
REMARK 927      BINDING AFFINITY PREDICTED BY RF-SCORE:    0.00 PKD
ROOT
HETATM    1  O   UNL     1     -10.275  15.643  68.825  1.00  0.00    -0.204 OA 
HETATM    2  N   UNL     1     -10.625  15.364  67.630  1.00  0.00    -0.274 NA 
HETATM    3  C   UNL     1     -11.805  14.650  67.433  1.00  0.00    -0.348 A  
HETATM    4  C   UNL     1     -12.264  14.313  66.162  1.00  0.00    -0.430 A  
HETATM    5  C   UNL     1     -11.526  14.700  65.053  1.00  0.00    -0.386 A  
HETATM    6  C   UNL     1     -10.341  15.418  65.222  1.00  0.00    -0.420 A  
HETATM    7  C   UNL     1      -9.873  15.749  66.509  1.00  0.00    -0.269 A  
ENDROOT
BRANCH   7   8
HETATM    8  S   UNL     1      -8.372  16.712  66.717  1.00  0.00    -0.265 SA 
BRANCH   8   9
HETATM    9  S   UNL     1      -9.040  18.659  66.620  1.00  0.00    -0.310 SA 
BRANCH   9  10
HETATM   10  C   UNL     1      -7.550  19.642  66.807  1.00  0.00    -0.253 A  
HETATM   11  C   UNL     1      -6.858  20.110  65.672  1.00  0.00    -0.314 A  
HETATM   12  C   UNL     1      -5.753  20.950  65.805  1.00  0.00    -0.270 A  
HETATM   13  C   UNL     1      -5.326  21.340  67.066  1.00  0.00    -0.322 A  
HETATM   14  C   UNL     1      -6.011  20.875  68.187  1.00  0.00    -0.343 A  
HETATM   15  N   UNL     1      -7.117  20.035  68.081  1.00  0.00    -0.287 NA 
HETATM   16  O   UNL     1      -7.699  19.659  69.153  1.00  0.00    -0.339 OA 
ENDBRANCH   9  10
ENDBRANCH   8   9
ENDBRANCH   7   8
TORSDOF 3
ENDMDL
MODEL      100
REMARK 921   NORMALIZED FREE ENERGY PREDICTED BY IDOCK:   -4.31 KCAL/MOL
REMARK 922        TOTAL FREE ENERGY PREDICTED BY IDOCK:   -5.26 KCAL/MOL
REMARK 923 INTER-LIGAND FREE ENERGY PREDICTED BY IDOCK:   -5.25 KCAL/MOL
REMARK 924 INTRA-LIGAND FREE ENERGY PREDICTED BY IDOCK:   -0.01 KCAL/MOL
REMARK 927      BINDING AFFINITY PREDICTED BY RF-SCORE:    0.00 PKD
ROOT
HETATM    1  O   UNL     1     -10.226   9.212  66.479  1.00  0.00    -0.278 OA 
HETATM    2  N   UNL     1     -10.446   8.334  67.379  1.00  0.00    -0.280 NA 
HETATM    3  C   UNL     1     -10.755   7.036  66.979  1.00  0.00    -0.353 A  
HETATM    4  C   UNL     1     -10.998   6.016  67.896  1.00  0.00    -0.334 A  
HETATM    5  C   UNL     1     -10.929   6.297  69.253  1.00  0.00    -0.435 A  
HETATM    6  C   UNL     1     -10.618   7.589  69.680  1.00  0.00    -0.243 A  
HETATM    7  C   UNL     1     -10.382   8.621  68.751  1.00  0.00    -0.208 A  
ENDROOT
BRANCH   7   8
HETATM    8  S   UNL     1      -9.939  10.269  69.308  1.00  0.00    -0.233 SA 
BRANCH   8   9
HETATM    9  S   UNL     1     -11.727  11.041  69.977  1.00  0.00    -0.382 SA 
BRANCH   9  10
HETATM   10  C   UNL     1     -11.909  12.578  69.068  1.00  0.00    -0.296 A  
HETATM   11  C   UNL     1     -11.881  13.813  69.743  1.00  0.00    -0.394 A  
HETATM   12  C   UNL     1     -11.930  15.015  69.037  1.00  0.00    -0.298 A  
HETATM   13  C   UNL     1     -12.003  15.003  67.651  1.00  0.00    -0.093 A  
HETATM   14  C   UNL     1     -12.032  13.780  66.986  1.00  0.00    -0.413 A  
HETATM   15  N   UNL     1     -11.985  12.566  67.667  1.00  0.00    -0.452 NA 
HETATM   16  O   UNL     1     -12.005  11.485  66.987  1.00  0.00    -0.556 OA 
ENDBRANCH   9  10
ENDBRANCH   8   9
ENDBRANCH   7   8
TORSDOF 3
ENDMDL
MODEL      101
REMARK 921   NORMALIZED FREE ENERGY PREDICTED BY IDOCK:   -4.30 KCAL/MOL
REMARK 922        TOTAL FREE ENERGY PREDICTED BY IDOCK:   -5.25 KCAL/MOL
REMARK 923 INTER-LIGAND FREE ENERGY PREDICTED BY IDOCK:   -5.09 KCAL/MOL
REMARK 924 INTRA-LIGAND FREE ENERGY PREDICTED BY IDOCK:   -0.16 KCAL/MOL
REMARK 927      BINDING AFFINITY PREDICTED BY RF-SCORE:    0.00 PKD
ROOT
HETATM    1  O   UNL     1     -11.933  10.887  68.207  1.00  0.00    -0.561 OA 
HETATM    2  N   UNL     1     -12.133  11.767  69.110  1.00  0.00    -0.274 NA 
HETATM    3  C   UNL     1     -12.513  11.341  70.381  1.00  0.00    -0.271 A  
HETATM    4  C   UNL     1     -12.741  12.234  71.425  1.00  0.00    -0.351 A  
HETATM    5  C   UNL     1     -12.583  13.593  71.197  1.00  0.00    -0.452 A  
HETATM    6  C   UNL     1     -12.200  14.047  69.934  1.00  0.00    -0.399 A  
HETATM    7  C   UNL     1     -11.980  13.142  68.877  1.00  0.00    -0.277 A  
ENDROOT
BRANCH   7   8
HETATM    8  S   UNL     1     -11.444  13.730  67.267  1.00  0.00    -0.361 SA 
BRANCH   8   9
HETATM    9  S   UNL     1      -9.548  12.947  67.083  1.00  0.00    -0.232 SA 
BRANCH   9  10
HETATM   10  C   UNL     1      -9.633  11.935  65.603  1.00  0.00    -0.204 A  
HETATM   11  C   UNL     1     -10.511  12.276  64.556  1.00  0.00    -0.339 A  
HETATM   12  C   UNL     1     -10.521  11.551  63.365  1.00  0.00    -0.466 A  
HETATM   13  C   UNL     1      -9.654  10.481  63.198  1.00  0.00    -0.375 A  
HETATM   14  C   UNL     1      -8.787  10.144  64.236  1.00  0.00    -0.222 A  
HETATM   15  N   UNL     1      -8.759  10.852  65.435  1.00  0.00    -0.181 NA 
HETATM   16  O   UNL     1      -7.929  10.490  66.336  1.00  0.00    -0.125 OA 
ENDBRANCH   9  10
ENDBRANCH   8   9
ENDBRANCH   7   8
TORSDOF 3
ENDMDL
MODEL      102
REMARK 921   NORMALIZED FREE ENERGY PREDICTED BY IDOCK:   -4.29 KCAL/MOL
REMARK 922        TOTAL FREE ENERGY PREDICTED BY IDOCK:   -5.24 KCAL/MOL
REMARK 923 INTER-LIGAND FREE ENERGY PREDICTED BY IDOCK:   -4.87 KCAL/MOL
REMARK 924 INTRA-LIGAND FREE ENERGY PREDICTED BY IDOCK:   -0.37 KCAL/MOL
REMARK 927      BINDING AFFINITY PREDICTED BY RF-SCORE:    0.00 PKD
ROOT
HETATM    1  O   UNL     1      -9.719   9.805  69.739  1.00  0.00    -0.202 OA 
HETATM    2  N   UNL     1     -10.045   8.726  69.140  1.00  0.00    -0.192 NA 
HETATM    3  C   UNL     1     -10.717   7.743  69.862  1.00  0.00    -0.245 A  
HETATM    4  C   UNL     1     -11.119   6.542  69.283  1.00  0.00    -0.393 A  
HETATM    5  C   UNL     1     -10.844   6.314  67.942  1.00  0.00    -0.417 A  
HETATM    6  C   UNL     1     -10.175   7.284  67.195  1.00  0.00    -0.339 A  
HETATM    7  C   UNL     1      -9.761   8.494  67.786  1.00  0.00    -0.162 A  
ENDROOT
BRANCH   7   8
HETATM    8  S   UNL     1      -8.941   9.756  66.807  1.00  0.00    -0.139 SA 
BRANCH   8   9
HETATM    9  S   UNL     1     -10.459  10.512  65.638  1.00  0.00    -0.080 SA 
BRANCH   9  10
HETATM   10  C   UNL     1     -10.799  12.124  66.350  1.00  0.00    -0.271 A  
HETATM   11  C   UNL     1     -10.245  13.286  65.779  1.00  0.00    -0.296 A  
HETATM   12  C   UNL     1     -10.574  14.550  66.268  1.00  0.00    -0.304 A  
HETATM   13  C   UNL     1     -11.464  14.674  67.326  1.00  0.00    -0.386 A  
HETATM   14  C   UNL     1     -12.010  13.523  67.890  1.00  0.00    -0.337 A  
HETATM   15  N   UNL     1     -11.696  12.250  67.420  1.00  0.00    -0.482 NA 
HETATM   16  O   UNL     1     -12.246  11.242  67.981  1.00  0.00    -0.621 OA 
ENDBRANCH   9  10
ENDBRANCH   8   9
ENDBRANCH   7   8
TORSDOF 3
ENDMDL
MODEL      103
REMARK 921   NORMALIZED FREE ENERGY PREDICTED BY IDOCK:   -4.28 KCAL/MOL
REMARK 922        TOTAL FREE ENERGY PREDICTED BY IDOCK:   -5.23 KCAL/MOL
REMARK 923 INTER-LIGAND FREE ENERGY PREDICTED BY IDOCK:   -4.90 KCAL/MOL
REMARK 924 INTRA-LIGAND FREE ENERGY PREDICTED BY IDOCK:   -0.33 KCAL/MOL
REMARK 927      BINDING AFFINITY PREDICTED BY RF-SCORE:    0.00 PKD
ROOT
HETATM    1  O   UNL     1     -11.589   6.301  69.785  1.00  0.00    -0.436 OA 
HETATM    2  N   UNL     1     -10.673   5.445  70.020  1.00  0.00    -0.287 NA 
HETATM    3  C   UNL     1      -9.933   4.951  68.947  1.00  0.00    -0.149 A  
HETATM    4  C   UNL     1      -8.909   4.023  69.117  1.00  0.00    -0.147 A  
HETATM    5  C   UNL     1      -8.610   3.574  70.395  1.00  0.00    -0.107 A  
HETATM    6  C   UNL     1      -9.334   4.054  71.488  1.00  0.00    -0.207 A  
HETATM    7  C   UNL     1     -10.376   4.986  71.312  1.00  0.00    -0.185 A  
ENDROOT
BRANCH   7   8
HETATM    8  S   UNL     1     -11.272   5.633  72.728  1.00  0.00    -0.291 SA 
BRANCH   8   9
HETATM    9  S   UNL     1     -10.326   7.423  73.110  1.00  0.00    -0.365 SA 
BRANCH   9  10
HETATM   10  C   UNL     1     -11.268   8.626  72.169  1.00  0.00    -0.367 A  
HETATM   11  C   UNL     1     -12.632   8.841  72.451  1.00  0.00    -0.430 A  
HETATM   12  C   UNL     1     -13.350   9.836  71.789  1.00  0.00    -0.506 A  
HETATM   13  C   UNL     1     -12.721  10.633  70.843  1.00  0.00    -0.498 A  
HETATM   14  C   UNL     1     -11.373  10.417  70.564  1.00  0.00    -0.341 A  
HETATM   15  N   UNL     1     -10.634   9.430  71.211  1.00  0.00    -0.333 NA 
HETATM   16  O   UNL     1      -9.399   9.299  70.911  1.00  0.00    -0.251 OA 
ENDBRANCH   9  10
ENDBRANCH   8   9
ENDBRANCH   7   8
TORSDOF 3
ENDMDL
MODEL      104
REMARK 921   NORMALIZED FREE ENERGY PREDICTED BY IDOCK:   -4.28 KCAL/MOL
REMARK 922        TOTAL FREE ENERGY PREDICTED BY IDOCK:   -5.23 KCAL/MOL
REMARK 923 INTER-LIGAND FREE ENERGY PREDICTED BY IDOCK:   -5.00 KCAL/MOL
REMARK 924 INTRA-LIGAND FREE ENERGY PREDICTED BY IDOCK:   -0.23 KCAL/MOL
REMARK 927      BINDING AFFINITY PREDICTED BY RF-SCORE:    0.00 PKD
ROOT
HETATM    1  O   UNL     1     -10.166  10.380  64.533  1.00  0.00    -0.342 OA 
HETATM    2  N   UNL     1     -10.834  11.458  64.673  1.00  0.00    -0.313 NA 
HETATM    3  C   UNL     1     -11.351  12.072  63.535  1.00  0.00    -0.442 A  
HETATM    4  C   UNL     1     -12.100  13.244  63.599  1.00  0.00    -0.551 A  
HETATM    5  C   UNL     1     -12.344  13.822  64.837  1.00  0.00    -0.435 A  
HETATM    6  C   UNL     1     -11.840  13.226  65.994  1.00  0.00    -0.440 A  
HETATM    7  C   UNL     1     -11.074  12.045  65.925  1.00  0.00    -0.324 A  
ENDROOT
BRANCH   7   8
HETATM    8  S   UNL     1     -10.469  11.260  67.422  1.00  0.00    -0.224 SA 
BRANCH   8   9
HETATM    9  S   UNL     1     -11.458  12.268  68.921  1.00  0.00    -0.327 SA 
BRANCH   9  10
HETATM   10  C   UNL     1     -10.588  13.833  69.045  1.00  0.00    -0.139 A  
HETATM   11  C   UNL     1      -9.273  13.957  68.556  1.00  0.00    -0.154 A  
HETATM   12  C   UNL     1      -8.620  15.190  68.565  1.00  0.00    -0.163 A  
HETATM   13  C   UNL     1      -9.270  16.315  69.054  1.00  0.00    -0.253 A  
HETATM   14  C   UNL     1     -10.570  16.189  69.538  1.00  0.00    -0.306 A  
HETATM   15  N   UNL     1     -11.243  14.969  69.541  1.00  0.00    -0.261 NA 
HETATM   16  O   UNL     1     -12.437  14.935  69.991  1.00  0.00    -0.320 OA 
ENDBRANCH   9  10
ENDBRANCH   8   9
ENDBRANCH   7   8
TORSDOF 3
ENDMDL
MODEL      105
REMARK 921   NORMALIZED FREE ENERGY PREDICTED BY IDOCK:   -4.27 KCAL/MOL
REMARK 922        TOTAL FREE ENERGY PREDICTED BY IDOCK:   -5.22 KCAL/MOL
REMARK 923 INTER-LIGAND FREE ENERGY PREDICTED BY IDOCK:   -4.98 KCAL/MOL
REMARK 924 INTRA-LIGAND FREE ENERGY PREDICTED BY IDOCK:   -0.24 KCAL/MOL
REMARK 927      BINDING AFFINITY PREDICTED BY RF-SCORE:    0.00 PKD
ROOT
HETATM    1  O   UNL     1     -10.364  17.059  66.305  1.00  0.00    -0.318 OA 
HETATM    2  N   UNL     1      -9.487  16.827  67.203  1.00  0.00    -0.228 NA 
HETATM    3  C   UNL     1      -8.185  17.276  66.992  1.00  0.00    -0.208 A  
HETATM    4  C   UNL     1      -7.171  17.074  67.924  1.00  0.00    -0.162 A  
HETATM    5  C   UNL     1      -7.463  16.405  69.104  1.00  0.00    -0.228 A  
HETATM    6  C   UNL     1      -8.759  15.947  69.342  1.00  0.00    -0.198 A  
HETATM    7  C   UNL     1      -9.781  16.144  68.393  1.00  0.00    -0.219 A  
ENDROOT
BRANCH   7   8
HETATM    8  S   UNL     1     -11.457  15.592  68.726  1.00  0.00    -0.390 SA 
BRANCH   8   9
HETATM    9  S   UNL     1     -11.425  13.612  68.159  1.00  0.00    -0.335 SA 
BRANCH   9  10
HETATM   10  C   UNL     1     -12.022  12.733  69.605  1.00  0.00    -0.288 A  
HETATM   11  C   UNL     1     -12.519  13.442  70.716  1.00  0.00    -0.418 A  
HETATM   12  C   UNL     1     -13.068  12.770  71.807  1.00  0.00    -0.455 A  
HETATM   13  C   UNL     1     -13.137  11.383  71.804  1.00  0.00    -0.523 A  
HETATM   14  C   UNL     1     -12.644  10.684  70.705  1.00  0.00    -0.365 A  
HETATM   15  N   UNL     1     -12.090  11.332  69.604  1.00  0.00    -0.326 NA 
HETATM   16  O   UNL     1     -11.669  10.623  68.629  1.00  0.00    -0.314 OA 
ENDBRANCH   9  10
ENDBRANCH   8   9
ENDBRANCH   7   8
TORSDOF 3
ENDMDL
MODEL      106
REMARK 921   NORMALIZED FREE ENERGY PREDICTED BY IDOCK:   -4.27 KCAL/MOL
REMARK 922        TOTAL FREE ENERGY PREDICTED BY IDOCK:   -5.22 KCAL/MOL
REMARK 923 INTER-LIGAND FREE ENERGY PREDICTED BY IDOCK:   -4.55 KCAL/MOL
REMARK 924 INTRA-LIGAND FREE ENERGY PREDICTED BY IDOCK:   -0.67 KCAL/MOL
REMARK 927      BINDING AFFINITY PREDICTED BY RF-SCORE:    0.00 PKD
ROOT
HETATM    1  O   UNL     1      -9.606   8.589  72.342  1.00  0.00    -0.283 OA 
HETATM    2  N   UNL     1     -10.004   9.217  71.305  1.00  0.00    -0.302 NA 
HETATM    3  C   UNL     1      -9.062   9.577  70.344  1.00  0.00    -0.246 A  
HETATM    4  C   UNL     1      -9.412  10.254  69.178  1.00  0.00    -0.225 A  
HETATM    5  C   UNL     1     -10.743  10.580  68.963  1.00  0.00    -0.259 A  
HETATM    6  C   UNL     1     -11.708  10.229  69.908  1.00  0.00    -0.298 A  
HETATM    7  C   UNL     1     -11.349   9.553  71.091  1.00  0.00    -0.370 A  
ENDROOT
BRANCH   7   8
HETATM    8  S   UNL     1     -12.602   9.064  72.280  1.00  0.00    -0.347 SA 
BRANCH   8   9
HETATM    9  S   UNL     1     -13.392   7.348  71.459  1.00  0.00    -0.319 SA 
BRANCH   9  10
HETATM   10  C   UNL     1     -11.954   6.407  70.944  1.00  0.00    -0.193 A  
HETATM   11  C   UNL     1     -11.534   6.425  69.599  1.00  0.00    -0.446 A  
HETATM   12  C   UNL     1     -10.368   5.771  69.205  1.00  0.00    -0.326 A  
HETATM   13  C   UNL     1      -9.600   5.096  70.144  1.00  0.00    -0.247 A  
HETATM   14  C   UNL     1     -10.018   5.078  71.473  1.00  0.00    -0.190 A  
HETATM   15  N   UNL     1     -11.180   5.722  71.891  1.00  0.00    -0.254 NA 
HETATM   16  O   UNL     1     -11.492   5.670  73.129  1.00  0.00    -0.240 OA 
ENDBRANCH   9  10
ENDBRANCH   8   9
ENDBRANCH   7   8
TORSDOF 3
ENDMDL
MODEL      107
REMARK 921   NORMALIZED FREE ENERGY PREDICTED BY IDOCK:   -4.27 KCAL/MOL
REMARK 922        TOTAL FREE ENERGY PREDICTED BY IDOCK:   -5.21 KCAL/MOL
REMARK 923 INTER-LIGAND FREE ENERGY PREDICTED BY IDOCK:   -5.04 KCAL/MOL
REMARK 924 INTRA-LIGAND FREE ENERGY PREDICTED BY IDOCK:   -0.18 KCAL/MOL
REMARK 927      BINDING AFFINITY PREDICTED BY RF-SCORE:    0.00 PKD
ROOT
HETATM    1  O   UNL     1      -9.018  10.189  69.591  1.00  0.00    -0.202 OA 
HETATM    2  N   UNL     1     -10.212  10.306  70.026  1.00  0.00    -0.220 NA 
HETATM    3  C   UNL     1     -10.688   9.354  70.925  1.00  0.00    -0.323 A  
HETATM    4  C   UNL     1     -11.974   9.414  71.456  1.00  0.00    -0.456 A  
HETATM    5  C   UNL     1     -12.811  10.454  71.081  1.00  0.00    -0.511 A  
HETATM    6  C   UNL     1     -12.359  11.423  70.184  1.00  0.00    -0.344 A  
HETATM    7  C   UNL     1     -11.061  11.355  69.641  1.00  0.00    -0.174 A  
ENDROOT
BRANCH   7   8
HETATM    8  S   UNL     1     -10.470  12.630  68.523  1.00  0.00    -0.211 SA 
BRANCH   8   9
HETATM    9  S   UNL     1     -12.033  13.971  68.464  1.00  0.00    -0.306 SA 
BRANCH   9  10
HETATM   10  C   UNL     1     -11.297  15.474  67.817  1.00  0.00    -0.286 A  
HETATM   11  C   UNL     1     -11.090  16.585  68.657  1.00  0.00    -0.329 A  
HETATM   12  C   UNL     1     -10.437  17.725  68.189  1.00  0.00    -0.382 A  
HETATM   13  C   UNL     1      -9.976  17.771  66.880  1.00  0.00    -0.332 A  
HETATM   14  C   UNL     1     -10.183  16.671  66.050  1.00  0.00    -0.351 A  
HETATM   15  N   UNL     1     -10.833  15.522  66.494  1.00  0.00    -0.308 NA 
HETATM   16  O   UNL     1     -10.976  14.550  65.678  1.00  0.00    -0.303 OA 
ENDBRANCH   9  10
ENDBRANCH   8   9
ENDBRANCH   7   8
TORSDOF 3
ENDMDL
MODEL      108
REMARK 921   NORMALIZED FREE ENERGY PREDICTED BY IDOCK:   -4.27 KCAL/MOL
REMARK 922        TOTAL FREE ENERGY PREDICTED BY IDOCK:   -5.21 KCAL/MOL
REMARK 923 INTER-LIGAND FREE ENERGY PREDICTED BY IDOCK:   -4.85 KCAL/MOL
REMARK 924 INTRA-LIGAND FREE ENERGY PREDICTED BY IDOCK:   -0.36 KCAL/MOL
REMARK 927      BINDING AFFINITY PREDICTED BY RF-SCORE:    0.00 PKD
ROOT
HETATM    1  O   UNL     1      -7.214   7.413  68.729  1.00  0.00    -0.084 OA 
HETATM    2  N   UNL     1      -8.323   7.122  68.166  1.00  0.00    -0.123 NA 
HETATM    3  C   UNL     1      -8.833   5.836  68.327  1.00  0.00    -0.109 A  
HETATM    4  C   UNL     1     -10.040   5.440  67.757  1.00  0.00    -0.215 A  
HETATM    5  C   UNL     1     -10.762   6.354  67.004  1.00  0.00    -0.434 A  
HETATM    6  C   UNL     1     -10.275   7.651  66.828  1.00  0.00    -0.333 A  
HETATM    7  C   UNL     1      -9.049   8.045  67.399  1.00  0.00    -0.134 A  
ENDROOT
BRANCH   7   8
HETATM    8  S   UNL     1      -8.451   9.728  67.207  1.00  0.00    -0.125 SA 
BRANCH   8   9
HETATM    9  S   UNL     1     -10.090  10.873  67.705  1.00  0.00    -0.182 SA 
BRANCH   9  10
HETATM   10  C   UNL     1     -10.719  11.448  66.126  1.00  0.00    -0.267 A  
HETATM   11  C   UNL     1     -10.195  10.939  64.922  1.00  0.00    -0.381 A  
HETATM   12  C   UNL     1     -10.737  11.310  63.692  1.00  0.00    -0.438 A  
HETATM   13  C   UNL     1     -11.811  12.189  63.645  1.00  0.00    -0.608 A  
HETATM   14  C   UNL     1     -12.326  12.693  64.837  1.00  0.00    -0.498 A  
HETATM   15  N   UNL     1     -11.802  12.338  66.078  1.00  0.00    -0.562 NA 
HETATM   16  O   UNL     1     -12.335  12.833  67.127  1.00  0.00    -0.357 OA 
ENDBRANCH   9  10
ENDBRANCH   8   9
ENDBRANCH   7   8
TORSDOF 3
ENDMDL
MODEL      109
REMARK 921   NORMALIZED FREE ENERGY PREDICTED BY IDOCK:   -4.25 KCAL/MOL
REMARK 922        TOTAL FREE ENERGY PREDICTED BY IDOCK:   -5.19 KCAL/MOL
REMARK 923 INTER-LIGAND FREE ENERGY PREDICTED BY IDOCK:   -5.00 KCAL/MOL
REMARK 924 INTRA-LIGAND FREE ENERGY PREDICTED BY IDOCK:   -0.19 KCAL/MOL
REMARK 927      BINDING AFFINITY PREDICTED BY RF-SCORE:    0.00 PKD
ROOT
HETATM    1  O   UNL     1     -10.423   7.934  70.529  1.00  0.00    -0.208 OA 
HETATM    2  N   UNL     1     -11.266   8.802  70.936  1.00  0.00    -0.261 NA 
HETATM    3  C   UNL     1     -12.174   8.434  71.926  1.00  0.00    -0.343 A  
HETATM    4  C   UNL     1     -13.119   9.322  72.433  1.00  0.00    -0.481 A  
HETATM    5  C   UNL     1     -13.159  10.618  71.941  1.00  0.00    -0.563 A  
HETATM    6  C   UNL     1     -12.259  11.015  70.950  1.00  0.00    -0.471 A  
HETATM    7  C   UNL     1     -11.311  10.111  70.432  1.00  0.00    -0.326 A  
ENDROOT
BRANCH   7   8
HETATM    8  S   UNL     1     -10.126  10.641  69.191  1.00  0.00    -0.199 SA 
BRANCH   8   9
HETATM    9  S   UNL     1     -11.315  11.146  67.586  1.00  0.00    -0.246 SA 
BRANCH   9  10
HETATM   10  C   UNL     1     -10.333  10.694  66.154  1.00  0.00    -0.227 A  
HETATM   11  C   UNL     1      -9.539   9.530  66.172  1.00  0.00    -0.302 A  
HETATM   12  C   UNL     1      -8.843   9.120  65.035  1.00  0.00    -0.230 A  
HETATM   13  C   UNL     1      -8.933   9.859  63.864  1.00  0.00    -0.280 A  
HETATM   14  C   UNL     1      -9.717  11.011  63.848  1.00  0.00    -0.292 A  
HETATM   15  N   UNL     1     -10.421  11.441  64.971  1.00  0.00    -0.290 NA 
HETATM   16  O   UNL     1     -11.127  12.501  64.876  1.00  0.00    -0.284 OA 
ENDBRANCH   9  10
ENDBRANCH   8   9
ENDBRANCH   7   8
TORSDOF 3
ENDMDL
MODEL      110
REMARK 921   NORMALIZED FREE ENERGY PREDICTED BY IDOCK:   -4.25 KCAL/MOL
REMARK 922        TOTAL FREE ENERGY PREDICTED BY IDOCK:   -5.19 KCAL/MOL
REMARK 923 INTER-LIGAND FREE ENERGY PREDICTED BY IDOCK:   -4.98 KCAL/MOL
REMARK 924 INTRA-LIGAND FREE ENERGY PREDICTED BY IDOCK:   -0.21 KCAL/MOL
REMARK 927      BINDING AFFINITY PREDICTED BY RF-SCORE:    0.00 PKD
ROOT
HETATM    1  O   UNL     1      -8.358  12.164  67.955  1.00  0.00    -0.150 OA 
HETATM    2  N   UNL     1      -9.353  12.918  68.219  1.00  0.00    -0.210 NA 
HETATM    3  C   UNL     1      -9.111  14.252  68.535  1.00  0.00    -0.191 A  
HETATM    4  C   UNL     1     -10.140  15.145  68.825  1.00  0.00    -0.226 A  
HETATM    5  C   UNL     1     -11.452  14.694  68.797  1.00  0.00    -0.322 A  
HETATM    6  C   UNL     1     -11.723  13.362  68.481  1.00  0.00    -0.392 A  
HETATM    7  C   UNL     1     -10.679  12.459  68.198  1.00  0.00    -0.221 A  
ENDROOT
BRANCH   7   8
HETATM    8  S   UNL     1     -11.039  10.758  67.747  1.00  0.00    -0.318 SA 
BRANCH   8   9
HETATM    9  S   UNL     1     -10.112   9.669  69.229  1.00  0.00    -0.207 SA 
BRANCH   9  10
HETATM   10  C   UNL     1     -11.377   9.473  70.487  1.00  0.00    -0.283 A  
HETATM   11  C   UNL     1     -12.111  10.588  70.938  1.00  0.00    -0.487 A  
HETATM   12  C   UNL     1     -13.157  10.434  71.848  1.00  0.00    -0.563 A  
HETATM   13  C   UNL     1     -13.491   9.171  72.314  1.00  0.00    -0.546 A  
HETATM   14  C   UNL     1     -12.763   8.070  71.867  1.00  0.00    -0.327 A  
HETATM   15  N   UNL     1     -11.713   8.197  70.960  1.00  0.00    -0.285 NA 
HETATM   16  O   UNL     1     -11.099   7.140  70.588  1.00  0.00    -0.249 OA 
ENDBRANCH   9  10
ENDBRANCH   8   9
ENDBRANCH   7   8
TORSDOF 3
ENDMDL
MODEL      111
REMARK 921   NORMALIZED FREE ENERGY PREDICTED BY IDOCK:   -4.25 KCAL/MOL
REMARK 922        TOTAL FREE ENERGY PREDICTED BY IDOCK:   -5.19 KCAL/MOL
REMARK 923 INTER-LIGAND FREE ENERGY PREDICTED BY IDOCK:   -4.98 KCAL/MOL
REMARK 924 INTRA-LIGAND FREE ENERGY PREDICTED BY IDOCK:   -0.21 KCAL/MOL
REMARK 927      BINDING AFFINITY PREDICTED BY RF-SCORE:    0.00 PKD
ROOT
HETATM    1  O   UNL     1     -10.200  10.537  64.840  1.00  0.00    -0.328 OA 
HETATM    2  N   UNL     1     -10.777  11.672  64.752  1.00  0.00    -0.296 NA 
HETATM    3  C   UNL     1     -11.595  11.919  63.651  1.00  0.00    -0.464 A  
HETATM    4  C   UNL     1     -12.269  13.126  63.484  1.00  0.00    -0.552 A  
HETATM    5  C   UNL     1     -12.125  14.118  64.443  1.00  0.00    -0.486 A  
HETATM    6  C   UNL     1     -11.313  13.896  65.556  1.00  0.00    -0.310 A  
HETATM    7  C   UNL     1     -10.625  12.678  65.718  1.00  0.00    -0.272 A  
ENDROOT
BRANCH   7   8
HETATM    8  S   UNL     1      -9.619  12.384  67.176  1.00  0.00    -0.211 SA 
BRANCH   8   9
HETATM    9  S   UNL     1     -10.230  13.857  68.480  1.00  0.00    -0.228 SA 
BRANCH   9  10
HETATM   10  C   UNL     1      -9.441  15.345  67.860  1.00  0.00    -0.197 A  
HETATM   11  C   UNL     1      -8.264  15.260  67.091  1.00  0.00    -0.250 A  
HETATM   12  C   UNL     1      -7.693  16.401  66.528  1.00  0.00    -0.295 A  
HETATM   13  C   UNL     1      -8.288  17.641  66.719  1.00  0.00    -0.276 A  
HETATM   14  C   UNL     1      -9.451  17.722  67.481  1.00  0.00    -0.257 A  
HETATM   15  N   UNL     1     -10.041  16.598  68.054  1.00  0.00    -0.253 NA 
HETATM   16  O   UNL     1     -11.113  16.751  68.731  1.00  0.00    -0.306 OA 
ENDBRANCH   9  10
ENDBRANCH   8   9
ENDBRANCH   7   8
TORSDOF 3
ENDMDL
MODEL      112
REMARK 921   NORMALIZED FREE ENERGY PREDICTED BY IDOCK:   -4.25 KCAL/MOL
REMARK 922        TOTAL FREE ENERGY PREDICTED BY IDOCK:   -5.19 KCAL/MOL
REMARK 923 INTER-LIGAND FREE ENERGY PREDICTED BY IDOCK:   -4.99 KCAL/MOL
REMARK 924 INTRA-LIGAND FREE ENERGY PREDICTED BY IDOCK:   -0.19 KCAL/MOL
REMARK 927      BINDING AFFINITY PREDICTED BY RF-SCORE:    0.00 PKD
ROOT
HETATM    1  O   UNL     1     -12.832  10.984  69.011  1.00  0.00    -0.086 OA 
HETATM    2  N   UNL     1     -11.963  10.394  69.737  1.00  0.00    -0.211 NA 
HETATM    3  C   UNL     1     -12.285  10.113  71.063  1.00  0.00    -0.374 A  
HETATM    4  C   UNL     1     -11.399   9.463  71.919  1.00  0.00    -0.276 A  
HETATM    5  C   UNL     1     -10.155   9.080  71.439  1.00  0.00    -0.399 A  
HETATM    6  C   UNL     1      -9.808   9.347  70.114  1.00  0.00    -0.272 A  
HETATM    7  C   UNL     1     -10.702  10.013  69.253  1.00  0.00    -0.224 A  
ENDROOT
BRANCH   7   8
HETATM    8  S   UNL     1     -10.266  10.312  67.536  1.00  0.00    -0.225 SA 
BRANCH   8   9
HETATM    9  S   UNL     1     -10.049  12.359  67.453  1.00  0.00    -0.202 SA 
BRANCH   9  10
HETATM   10  C   UNL     1     -10.784  12.814  65.880  1.00  0.00    -0.270 A  
HETATM   11  C   UNL     1     -11.046  11.831  64.905  1.00  0.00    -0.345 A  
HETATM   12  C   UNL     1     -11.699  12.158  63.717  1.00  0.00    -0.576 A  
HETATM   13  C   UNL     1     -12.104  13.465  63.486  1.00  0.00    -0.497 A  
HETATM   14  C   UNL     1     -11.842  14.436  64.451  1.00  0.00    -0.415 A  
HETATM   15  N   UNL     1     -11.191  14.134  65.644  1.00  0.00    -0.303 NA 
HETATM   16  O   UNL     1     -10.996  15.076  66.485  1.00  0.00    -0.321 OA 
ENDBRANCH   9  10
ENDBRANCH   8   9
ENDBRANCH   7   8
TORSDOF 3
ENDMDL
MODEL      113
REMARK 921   NORMALIZED FREE ENERGY PREDICTED BY IDOCK:   -4.23 KCAL/MOL
REMARK 922        TOTAL FREE ENERGY PREDICTED BY IDOCK:   -5.16 KCAL/MOL
REMARK 923 INTER-LIGAND FREE ENERGY PREDICTED BY IDOCK:   -4.95 KCAL/MOL
REMARK 924 INTRA-LIGAND FREE ENERGY PREDICTED BY IDOCK:   -0.21 KCAL/MOL
REMARK 927      BINDING AFFINITY PREDICTED BY RF-SCORE:    0.00 PKD
ROOT
HETATM    1  O   UNL     1     -10.720   7.077  67.730  1.00  0.00    -0.223 OA 
HETATM    2  N   UNL     1     -10.791   7.659  68.864  1.00  0.00    -0.089 NA 
HETATM    3  C   UNL     1     -11.326   6.954  69.940  1.00  0.00    -0.271 A  
HETATM    4  C   UNL     1     -11.430   7.509  71.213  1.00  0.00    -0.298 A  
HETATM    5  C   UNL     1     -10.986   8.807  71.421  1.00  0.00    -0.360 A  
HETATM    6  C   UNL     1     -10.443   9.535  70.361  1.00  0.00    -0.336 A  
HETATM    7  C   UNL     1     -10.348   8.974  69.072  1.00  0.00    -0.219 A  
ENDROOT
BRANCH   7   8
HETATM    8  S   UNL     1      -9.607   9.900  67.724  1.00  0.00    -0.143 SA 
BRANCH   8   9
HETATM    9  S   UNL     1     -10.402  11.787  67.952  1.00  0.00    -0.199 SA 
BRANCH   9  10
HETATM   10  C   UNL     1     -11.049  12.189  66.327  1.00  0.00    -0.310 A  
HETATM   11  C   UNL     1     -10.610  11.482  65.190  1.00  0.00    -0.350 A  
HETATM   12  C   UNL     1     -11.172  11.724  63.937  1.00  0.00    -0.493 A  
HETATM   13  C   UNL     1     -12.180  12.667  63.799  1.00  0.00    -0.600 A  
HETATM   14  C   UNL     1     -12.612  13.366  64.925  1.00  0.00    -0.360 A  
HETATM   15  N   UNL     1     -12.066  13.143  66.187  1.00  0.00    -0.421 NA 
HETATM   16  O   UNL     1     -12.521  13.815  67.173  1.00  0.00    -0.280 OA 
ENDBRANCH   9  10
ENDBRANCH   8   9
ENDBRANCH   7   8
TORSDOF 3
ENDMDL
MODEL      114
REMARK 921   NORMALIZED FREE ENERGY PREDICTED BY IDOCK:   -4.23 KCAL/MOL
REMARK 922        TOTAL FREE ENERGY PREDICTED BY IDOCK:   -5.16 KCAL/MOL
REMARK 923 INTER-LIGAND FREE ENERGY PREDICTED BY IDOCK:   -4.70 KCAL/MOL
REMARK 924 INTRA-LIGAND FREE ENERGY PREDICTED BY IDOCK:   -0.46 KCAL/MOL
REMARK 927      BINDING AFFINITY PREDICTED BY RF-SCORE:    0.00 PKD
ROOT
HETATM    1  O   UNL     1     -11.660   6.360  69.214  1.00  0.00    -0.354 OA 
HETATM    2  N   UNL     1     -10.572   5.811  69.593  1.00  0.00    -0.297 NA 
HETATM    3  C   UNL     1      -9.608   5.513  68.633  1.00  0.00    -0.135 A  
HETATM    4  C   UNL     1      -8.390   4.924  68.962  1.00  0.00    -0.082 A  
HETATM    5  C   UNL     1      -8.123   4.624  70.290  1.00  0.00    -0.067 A  
HETATM    6  C   UNL     1      -9.070   4.915  71.274  1.00  0.00    -0.179 A  
HETATM    7  C   UNL     1     -10.306   5.501  70.936  1.00  0.00    -0.242 A  
ENDROOT
BRANCH   7   8
HETATM    8  S   UNL     1     -11.501   5.913  72.211  1.00  0.00    -0.267 SA 
BRANCH   8   9
HETATM    9  S   UNL     1     -10.742   7.644  73.031  1.00  0.00    -0.383 SA 
BRANCH   9  10
HETATM   10  C   UNL     1     -11.217   8.925  71.867  1.00  0.00    -0.377 A  
HETATM   11  C   UNL     1     -10.343   9.307  70.831  1.00  0.00    -0.367 A  
HETATM   12  C   UNL     1     -10.736  10.235  69.868  1.00  0.00    -0.344 A  
HETATM   13  C   UNL     1     -12.007  10.791  69.920  1.00  0.00    -0.418 A  
HETATM   14  C   UNL     1     -12.870  10.413  70.946  1.00  0.00    -0.392 A  
HETATM   15  N   UNL     1     -12.500   9.489  71.920  1.00  0.00    -0.384 NA 
HETATM   16  O   UNL     1     -13.350   9.184  72.824  1.00  0.00    -0.410 OA 
ENDBRANCH   9  10
ENDBRANCH   8   9
ENDBRANCH   7   8
TORSDOF 3
ENDMDL
MODEL      115
REMARK 921   NORMALIZED FREE ENERGY PREDICTED BY IDOCK:   -4.22 KCAL/MOL
REMARK 922        TOTAL FREE ENERGY PREDICTED BY IDOCK:   -5.16 KCAL/MOL
REMARK 923 INTER-LIGAND FREE ENERGY PREDICTED BY IDOCK:   -4.86 KCAL/MOL
REMARK 924 INTRA-LIGAND FREE ENERGY PREDICTED BY IDOCK:   -0.30 KCAL/MOL
REMARK 927      BINDING AFFINITY PREDICTED BY RF-SCORE:    0.00 PKD
ROOT
HETATM    1  O   UNL     1     -13.254  12.774  64.755  1.00  0.00    -0.812 OA 
HETATM    2  N   UNL     1     -12.089  12.270  64.622  1.00  0.00    -0.391 NA 
HETATM    3  C   UNL     1     -11.589  12.082  63.336  1.00  0.00    -0.403 A  
HETATM    4  C   UNL     1     -10.323  11.549  63.103  1.00  0.00    -0.376 A  
HETATM    5  C   UNL     1      -9.531  11.194  64.185  1.00  0.00    -0.237 A  
HETATM    6  C   UNL     1     -10.007  11.374  65.485  1.00  0.00    -0.282 A  
HETATM    7  C   UNL     1     -11.291  11.905  65.717  1.00  0.00    -0.299 A  
ENDROOT
BRANCH   7   8
HETATM    8  S   UNL     1     -11.878  12.177  67.392  1.00  0.00    -0.117 SA 
BRANCH   8   9
HETATM    9  S   UNL     1     -10.173  11.976  68.531  1.00  0.00    -0.186 SA 
BRANCH   9  10
HETATM   10  C   UNL     1     -10.419  10.438  69.422  1.00  0.00    -0.238 A  
HETATM   11  C   UNL     1     -11.397  10.348  70.431  1.00  0.00    -0.417 A  
HETATM   12  C   UNL     1     -11.660   9.135  71.067  1.00  0.00    -0.370 A  
HETATM   13  C   UNL     1     -10.957   7.995  70.703  1.00  0.00    -0.250 A  
HETATM   14  C   UNL     1      -9.989   8.087  69.705  1.00  0.00    -0.191 A  
HETATM   15  N   UNL     1      -9.708   9.287  69.056  1.00  0.00    -0.159 NA 
HETATM   16  O   UNL     1      -8.814   9.290  68.143  1.00  0.00    -0.128 OA 
ENDBRANCH   9  10
ENDBRANCH   8   9
ENDBRANCH   7   8
TORSDOF 3
ENDMDL
MODEL      116
REMARK 921   NORMALIZED FREE ENERGY PREDICTED BY IDOCK:   -4.22 KCAL/MOL
REMARK 922        TOTAL FREE ENERGY PREDICTED BY IDOCK:   -5.16 KCAL/MOL
REMARK 923 INTER-LIGAND FREE ENERGY PREDICTED BY IDOCK:   -4.50 KCAL/MOL
REMARK 924 INTRA-LIGAND FREE ENERGY PREDICTED BY IDOCK:   -0.65 KCAL/MOL
REMARK 927      BINDING AFFINITY PREDICTED BY RF-SCORE:    0.00 PKD
ROOT
HETATM    1  O   UNL     1      -7.938  16.440  66.352  1.00  0.00    -0.287 OA 
HETATM    2  N   UNL     1      -8.776  16.316  67.306  1.00  0.00    -0.178 NA 
HETATM    3  C   UNL     1      -8.422  15.538  68.406  1.00  0.00    -0.163 A  
HETATM    4  C   UNL     1      -9.273  15.360  69.494  1.00  0.00    -0.240 A  
HETATM    5  C   UNL     1     -10.515  15.977  69.487  1.00  0.00    -0.286 A  
HETATM    6  C   UNL     1     -10.895  16.764  68.398  1.00  0.00    -0.355 A  
HETATM    7  C   UNL     1     -10.036  16.935  67.295  1.00  0.00    -0.277 A  
ENDROOT
BRANCH   7   8
HETATM    8  S   UNL     1     -10.513  17.985  65.919  1.00  0.00    -0.127 SA 
BRANCH   8   9
HETATM    9  S   UNL     1     -10.120  19.884  66.613  1.00  0.00    -0.502 SA 
BRANCH   9  10
HETATM   10  C   UNL     1      -8.474  19.761  67.318  1.00  0.00    -0.317 A  
HETATM   11  C   UNL     1      -8.304  19.547  68.700  1.00  0.00    -0.364 A  
HETATM   12  C   UNL     1      -7.034  19.360  69.244  1.00  0.00    -0.371 A  
HETATM   13  C   UNL     1      -5.917  19.376  68.421  1.00  0.00    -0.248 A  
HETATM   14  C   UNL     1      -6.087  19.589  67.054  1.00  0.00    -0.180 A  
HETATM   15  N   UNL     1      -7.345  19.780  66.487  1.00  0.00    -0.247 NA 
HETATM   16  O   UNL     1      -7.421  19.959  65.224  1.00  0.00    -0.360 OA 
ENDBRANCH   9  10
ENDBRANCH   8   9
ENDBRANCH   7   8
TORSDOF 3
ENDMDL
MODEL      117
REMARK 921   NORMALIZED FREE ENERGY PREDICTED BY IDOCK:   -4.22 KCAL/MOL
REMARK 922        TOTAL FREE ENERGY PREDICTED BY IDOCK:   -5.15 KCAL/MOL
REMARK 923 INTER-LIGAND FREE ENERGY PREDICTED BY IDOCK:   -4.94 KCAL/MOL
REMARK 924 INTRA-LIGAND FREE ENERGY PREDICTED BY IDOCK:   -0.21 KCAL/MOL
REMARK 927      BINDING AFFINITY PREDICTED BY RF-SCORE:    0.00 PKD
ROOT
HETATM    1  O   UNL     1      -9.626  14.183  68.659  1.00  0.00    -0.215 OA 
HETATM    2  N   UNL     1     -10.231  13.723  67.634  1.00  0.00    -0.240 NA 
HETATM    3  C   UNL     1      -9.985  14.313  66.397  1.00  0.00    -0.292 A  
HETATM    4  C   UNL     1     -10.595  13.866  65.227  1.00  0.00    -0.372 A  
HETATM    5  C   UNL     1     -11.475  12.796  65.292  1.00  0.00    -0.360 A  
HETATM    6  C   UNL     1     -11.737  12.184  66.519  1.00  0.00    -0.392 A  
HETATM    7  C   UNL     1     -11.127  12.645  67.701  1.00  0.00    -0.263 A  
ENDROOT
BRANCH   7   8
HETATM    8  S   UNL     1     -11.434  11.823  69.268  1.00  0.00    -0.325 SA 
BRANCH   8   9
HETATM    9  S   UNL     1     -10.675   9.932  68.969  1.00  0.00    -0.218 SA 
BRANCH   9  10
HETATM   10  C   UNL     1     -10.733   9.174  70.595  1.00  0.00    -0.254 A  
HETATM   11  C   UNL     1     -11.942   8.655  71.097  1.00  0.00    -0.320 A  
HETATM   12  C   UNL     1     -11.981   7.984  72.318  1.00  0.00    -0.412 A  
HETATM   13  C   UNL     1     -10.816   7.815  73.054  1.00  0.00    -0.451 A  
HETATM   14  C   UNL     1      -9.621   8.331  72.557  1.00  0.00    -0.295 A  
HETATM   15  N   UNL     1      -9.557   9.006  71.340  1.00  0.00    -0.290 NA 
HETATM   16  O   UNL     1      -8.423   9.441  70.944  1.00  0.00    -0.246 OA 
ENDBRANCH   9  10
ENDBRANCH   8   9
ENDBRANCH   7   8
TORSDOF 3
ENDMDL
MODEL      118
REMARK 921   NORMALIZED FREE ENERGY PREDICTED BY IDOCK:   -4.21 KCAL/MOL
REMARK 922        TOTAL FREE ENERGY PREDICTED BY IDOCK:   -5.15 KCAL/MOL
REMARK 923 INTER-LIGAND FREE ENERGY PREDICTED BY IDOCK:   -4.84 KCAL/MOL
REMARK 924 INTRA-LIGAND FREE ENERGY PREDICTED BY IDOCK:   -0.30 KCAL/MOL
REMARK 927      BINDING AFFINITY PREDICTED BY RF-SCORE:    0.00 PKD
ROOT
HETATM    1  O   UNL     1     -11.629   6.354  68.911  1.00  0.00    -0.230 OA 
HETATM    2  N   UNL     1     -11.258   5.940  70.060  1.00  0.00    -0.346 NA 
HETATM    3  C   UNL     1     -10.197   5.040  70.132  1.00  0.00    -0.259 A  
HETATM    4  C   UNL     1      -9.723   4.549  71.346  1.00  0.00    -0.248 A  
HETATM    5  C   UNL     1     -10.322   4.968  72.525  1.00  0.00    -0.255 A  
HETATM    6  C   UNL     1     -11.385   5.872  72.481  1.00  0.00    -0.352 A  
HETATM    7  C   UNL     1     -11.870   6.360  71.252  1.00  0.00    -0.273 A  
ENDROOT
BRANCH   7   8
HETATM    8  S   UNL     1     -13.208   7.556  71.206  1.00  0.00    -0.192 SA 
BRANCH   8   9
HETATM    9  S   UNL     1     -12.467   9.137  72.301  1.00  0.00    -0.289 SA 
BRANCH   9  10
HETATM   10  C   UNL     1     -11.998  10.347  71.060  1.00  0.00    -0.382 A  
HETATM   11  C   UNL     1     -11.149   9.985  69.997  1.00  0.00    -0.350 A  
HETATM   12  C   UNL     1     -10.851  10.890  68.979  1.00  0.00    -0.275 A  
HETATM   13  C   UNL     1     -11.399  12.165  69.003  1.00  0.00    -0.329 A  
HETATM   14  C   UNL     1     -12.238  12.522  70.057  1.00  0.00    -0.192 A  
HETATM   15  N   UNL     1     -12.550  11.636  71.085  1.00  0.00    -0.378 NA 
HETATM   16  O   UNL     1     -13.336  12.031  72.011  1.00  0.00    -0.495 OA 
ENDBRANCH   9  10
ENDBRANCH   8   9
ENDBRANCH   7   8
TORSDOF 3
ENDMDL
MODEL      119
REMARK 921   NORMALIZED FREE ENERGY PREDICTED BY IDOCK:   -4.21 KCAL/MOL
REMARK 922        TOTAL FREE ENERGY PREDICTED BY IDOCK:   -5.14 KCAL/MOL
REMARK 923 INTER-LIGAND FREE ENERGY PREDICTED BY IDOCK:   -4.88 KCAL/MOL
REMARK 924 INTRA-LIGAND FREE ENERGY PREDICTED BY IDOCK:   -0.27 KCAL/MOL
REMARK 927      BINDING AFFINITY PREDICTED BY RF-SCORE:    0.00 PKD
ROOT
HETATM    1  O   UNL     1      -9.386  15.563  69.552  1.00  0.00    -0.270 OA 
HETATM    2  N   UNL     1     -10.095  14.907  68.717  1.00  0.00    -0.234 NA 
HETATM    3  C   UNL     1     -11.132  14.115  69.204  1.00  0.00    -0.262 A  
HETATM    4  C   UNL     1     -11.959  13.376  68.362  1.00  0.00    -0.359 A  
HETATM    5  C   UNL     1     -11.748  13.430  66.992  1.00  0.00    -0.426 A  
HETATM    6  C   UNL     1     -10.717  14.218  66.477  1.00  0.00    -0.297 A  
HETATM    7  C   UNL     1      -9.876  14.957  67.332  1.00  0.00    -0.221 A  
ENDROOT
BRANCH   7   8
HETATM    8  S   UNL     1      -8.581  16.004  66.659  1.00  0.00    -0.309 SA 
BRANCH   8   9
HETATM    9  S   UNL     1      -9.467  17.862  66.582  1.00  0.00    -0.305 SA 
BRANCH   9  10
HETATM   10  C   UNL     1      -8.265  18.952  67.351  1.00  0.00    -0.270 A  
HETATM   11  C   UNL     1      -8.006  18.865  68.733  1.00  0.00    -0.352 A  
HETATM   12  C   UNL     1      -7.011  19.642  69.324  1.00  0.00    -0.375 A  
HETATM   13  C   UNL     1      -6.258  20.512  68.548  1.00  0.00    -0.357 A  
HETATM   14  C   UNL     1      -6.517  20.598  67.182  1.00  0.00    -0.269 A  
HETATM   15  N   UNL     1      -7.506  19.832  66.568  1.00  0.00    -0.254 NA 
HETATM   16  O   UNL     1      -7.678  19.958  65.309  1.00  0.00    -0.315 OA 
ENDBRANCH   9  10
ENDBRANCH   8   9
ENDBRANCH   7   8
TORSDOF 3
ENDMDL
MODEL      120
REMARK 921   NORMALIZED FREE ENERGY PREDICTED BY IDOCK:   -4.20 KCAL/MOL
REMARK 922        TOTAL FREE ENERGY PREDICTED BY IDOCK:   -5.13 KCAL/MOL
REMARK 923 INTER-LIGAND FREE ENERGY PREDICTED BY IDOCK:   -4.92 KCAL/MOL
REMARK 924 INTRA-LIGAND FREE ENERGY PREDICTED BY IDOCK:   -0.22 KCAL/MOL
REMARK 927      BINDING AFFINITY PREDICTED BY RF-SCORE:    0.00 PKD
ROOT
HETATM    1  O   UNL     1     -11.021  14.266  66.066  1.00  0.00    -0.303 OA 
HETATM    2  N   UNL     1     -11.300  13.919  67.262  1.00  0.00    -0.309 NA 
HETATM    3  C   UNL     1     -11.683  12.601  67.499  1.00  0.00    -0.368 A  
HETATM    4  C   UNL     1     -11.994  12.137  68.775  1.00  0.00    -0.292 A  
HETATM    5  C   UNL     1     -11.920  13.013  69.848  1.00  0.00    -0.381 A  
HETATM    6  C   UNL     1     -11.536  14.339  69.639  1.00  0.00    -0.351 A  
HETATM    7  C   UNL     1     -11.232  14.808  68.346  1.00  0.00    -0.284 A  
ENDROOT
BRANCH   7   8
HETATM    8  S   UNL     1     -10.695  16.502  68.092  1.00  0.00    -0.348 SA 
BRANCH   8   9
HETATM    9  S   UNL     1      -8.658  16.403  68.379  1.00  0.00    -0.218 SA 
BRANCH   9  10
HETATM   10  C   UNL     1      -8.085  18.068  68.032  1.00  0.00    -0.257 A  
HETATM   11  C   UNL     1      -8.732  18.857  67.061  1.00  0.00    -0.305 A  
HETATM   12  C   UNL     1      -8.353  20.181  66.847  1.00  0.00    -0.370 A  
HETATM   13  C   UNL     1      -7.331  20.741  67.600  1.00  0.00    -0.304 A  
HETATM   14  C   UNL     1      -6.691  19.959  68.560  1.00  0.00    -0.303 A  
HETATM   15  N   UNL     1      -7.050  18.633  68.792  1.00  0.00    -0.295 NA 
HETATM   16  O   UNL     1      -6.425  17.983  69.696  1.00  0.00    -0.231 OA 
ENDBRANCH   9  10
ENDBRANCH   8   9
ENDBRANCH   7   8
TORSDOF 3
ENDMDL
MODEL      121
REMARK 921   NORMALIZED FREE ENERGY PREDICTED BY IDOCK:   -4.18 KCAL/MOL
REMARK 922        TOTAL FREE ENERGY PREDICTED BY IDOCK:   -5.11 KCAL/MOL
REMARK 923 INTER-LIGAND FREE ENERGY PREDICTED BY IDOCK:   -4.96 KCAL/MOL
REMARK 924 INTRA-LIGAND FREE ENERGY PREDICTED BY IDOCK:   -0.15 KCAL/MOL
REMARK 927      BINDING AFFINITY PREDICTED BY RF-SCORE:    0.00 PKD
ROOT
HETATM    1  O   UNL     1     -11.686  13.054  67.426  1.00  0.00    -0.339 OA 
HETATM    2  N   UNL     1     -11.516  12.580  66.253  1.00  0.00    -0.348 NA 
HETATM    3  C   UNL     1     -12.447  12.897  65.266  1.00  0.00    -0.493 A  
HETATM    4  C   UNL     1     -12.330  12.431  63.959  1.00  0.00    -0.579 A  
HETATM    5  C   UNL     1     -11.252  11.625  63.624  1.00  0.00    -0.497 A  
HETATM    6  C   UNL     1     -10.303  11.294  64.592  1.00  0.00    -0.373 A  
HETATM    7  C   UNL     1     -10.429  11.760  65.916  1.00  0.00    -0.255 A  
ENDROOT
BRANCH   7   8
HETATM    8  S   UNL     1      -9.179  11.367  67.145  1.00  0.00    -0.169 SA 
BRANCH   8   9
HETATM    9  S   UNL     1      -8.540   9.490  66.589  1.00  0.00    -0.135 SA 
BRANCH   9  10
HETATM   10  C   UNL     1      -9.554   8.375  67.563  1.00  0.00    -0.154 A  
HETATM   11  C   UNL     1     -10.363   7.410  66.931  1.00  0.00    -0.367 A  
HETATM   12  C   UNL     1     -11.084   6.481  67.679  1.00  0.00    -0.380 A  
HETATM   13  C   UNL     1     -11.006   6.494  69.065  1.00  0.00    -0.378 A  
HETATM   14  C   UNL     1     -10.206   7.450  69.688  1.00  0.00    -0.210 A  
HETATM   15  N   UNL     1      -9.477   8.390  68.963  1.00  0.00    -0.150 NA 
HETATM   16  O   UNL     1      -8.757   9.228  69.605  1.00  0.00    -0.132 OA 
ENDBRANCH   9  10
ENDBRANCH   8   9
ENDBRANCH   7   8
TORSDOF 3
ENDMDL
MODEL      122
REMARK 921   NORMALIZED FREE ENERGY PREDICTED BY IDOCK:   -4.17 KCAL/MOL
REMARK 922        TOTAL FREE ENERGY PREDICTED BY IDOCK:   -5.10 KCAL/MOL
REMARK 923 INTER-LIGAND FREE ENERGY PREDICTED BY IDOCK:   -4.89 KCAL/MOL
REMARK 924 INTRA-LIGAND FREE ENERGY PREDICTED BY IDOCK:   -0.21 KCAL/MOL
REMARK 927      BINDING AFFINITY PREDICTED BY RF-SCORE:    0.00 PKD
ROOT
HETATM    1  O   UNL     1      -9.398   9.100  70.731  1.00  0.00    -0.223 OA 
HETATM    2  N   UNL     1     -10.600   9.396  71.041  1.00  0.00    -0.308 NA 
HETATM    3  C   UNL     1     -11.236   8.645  72.027  1.00  0.00    -0.364 A  
HETATM    4  C   UNL     1     -12.542   8.907  72.433  1.00  0.00    -0.423 A  
HETATM    5  C   UNL     1     -13.236   9.952  71.839  1.00  0.00    -0.558 A  
HETATM    6  C   UNL     1     -12.621  10.723  70.851  1.00  0.00    -0.498 A  
HETATM    7  C   UNL     1     -11.303  10.448  70.435  1.00  0.00    -0.337 A  
ENDROOT
BRANCH   7   8
HETATM    8  S   UNL     1     -10.504  11.472  69.195  1.00  0.00    -0.030 SA 
BRANCH   8   9
HETATM    9  S   UNL     1     -11.897  12.944  68.826  1.00  0.00    -0.279 SA 
BRANCH   9  10
HETATM   10  C   UNL     1     -10.948  14.466  68.864  1.00  0.00    -0.255 A  
HETATM   11  C   UNL     1      -9.679  14.530  68.256  1.00  0.00    -0.218 A  
HETATM   12  C   UNL     1      -8.971  15.730  68.201  1.00  0.00    -0.180 A  
HETATM   13  C   UNL     1      -9.520  16.884  68.744  1.00  0.00    -0.264 A  
HETATM   14  C   UNL     1     -10.775  16.818  69.346  1.00  0.00    -0.300 A  
HETATM   15  N   UNL     1     -11.500  15.631  69.415  1.00  0.00    -0.323 NA 
HETATM   16  O   UNL     1     -12.649  15.652  69.973  1.00  0.00    -0.334 OA 
ENDBRANCH   9  10
ENDBRANCH   8   9
ENDBRANCH   7   8
TORSDOF 3
ENDMDL
MODEL      123
REMARK 921   NORMALIZED FREE ENERGY PREDICTED BY IDOCK:   -4.17 KCAL/MOL
REMARK 922        TOTAL FREE ENERGY PREDICTED BY IDOCK:   -5.09 KCAL/MOL
REMARK 923 INTER-LIGAND FREE ENERGY PREDICTED BY IDOCK:   -4.87 KCAL/MOL
REMARK 924 INTRA-LIGAND FREE ENERGY PREDICTED BY IDOCK:   -0.22 KCAL/MOL
REMARK 927      BINDING AFFINITY PREDICTED BY RF-SCORE:    0.00 PKD
ROOT
HETATM    1  O   UNL     1      -8.829  17.394  69.234  1.00  0.00    -0.007 OA 
HETATM    2  N   UNL     1      -8.378  18.414  68.614  1.00  0.00    -0.320 NA 
HETATM    3  C   UNL     1      -7.142  18.931  68.995  1.00  0.00    -0.306 A  
HETATM    4  C   UNL     1      -6.573  20.035  68.364  1.00  0.00    -0.331 A  
HETATM    5  C   UNL     1      -7.256  20.641  67.320  1.00  0.00    -0.388 A  
HETATM    6  C   UNL     1      -8.495  20.142  66.916  1.00  0.00    -0.376 A  
HETATM    7  C   UNL     1      -9.073  19.031  67.562  1.00  0.00    -0.288 A  
ENDROOT
BRANCH   7   8
HETATM    8  S   UNL     1     -10.646  18.367  67.007  1.00  0.00    -0.316 SA 
BRANCH   8   9
HETATM    9  S   UNL     1     -10.098  16.936  65.631  1.00  0.00    -0.069 SA 
BRANCH   9  10
HETATM   10  C   UNL     1     -10.742  15.405  66.310  1.00  0.00    -0.312 A  
HETATM   11  C   UNL     1     -10.458  15.040  67.641  1.00  0.00    -0.247 A  
HETATM   12  C   UNL     1     -11.026  13.900  68.207  1.00  0.00    -0.274 A  
HETATM   13  C   UNL     1     -11.890  13.111  67.460  1.00  0.00    -0.409 A  
HETATM   14  C   UNL     1     -12.168  13.473  66.143  1.00  0.00    -0.433 A  
HETATM   15  N   UNL     1     -11.612  14.607  65.555  1.00  0.00    -0.346 NA 
HETATM   16  O   UNL     1     -11.924  14.879  64.347  1.00  0.00    -0.451 OA 
ENDBRANCH   9  10
ENDBRANCH   8   9
ENDBRANCH   7   8
TORSDOF 3
ENDMDL
MODEL      124
REMARK 921   NORMALIZED FREE ENERGY PREDICTED BY IDOCK:   -4.17 KCAL/MOL
REMARK 922        TOTAL FREE ENERGY PREDICTED BY IDOCK:   -5.09 KCAL/MOL
REMARK 923 INTER-LIGAND FREE ENERGY PREDICTED BY IDOCK:   -4.71 KCAL/MOL
REMARK 924 INTRA-LIGAND FREE ENERGY PREDICTED BY IDOCK:   -0.38 KCAL/MOL
REMARK 927      BINDING AFFINITY PREDICTED BY RF-SCORE:    0.00 PKD
ROOT
HETATM    1  O   UNL     1     -10.253   7.448  70.593  1.00  0.00    -0.198 OA 
HETATM    2  N   UNL     1     -11.083   8.383  70.848  1.00  0.00    -0.249 NA 
HETATM    3  C   UNL     1     -12.112   8.130  71.753  1.00  0.00    -0.315 A  
HETATM    4  C   UNL     1     -13.053   9.098  72.095  1.00  0.00    -0.516 A  
HETATM    5  C   UNL     1     -12.967  10.357  71.519  1.00  0.00    -0.562 A  
HETATM    6  C   UNL     1     -11.944  10.638  70.611  1.00  0.00    -0.466 A  
HETATM    7  C   UNL     1     -10.999   9.654  70.260  1.00  0.00    -0.285 A  
ENDROOT
BRANCH   7   8
HETATM    8  S   UNL     1      -9.660  10.037  69.126  1.00  0.00    -0.221 SA 
BRANCH   8   9
HETATM    9  S   UNL     1     -10.490   9.680  67.275  1.00  0.00    -0.246 SA 
BRANCH   9  10
HETATM   10  C   UNL     1     -10.012   7.992  66.898  1.00  0.00    -0.268 A  
HETATM   11  C   UNL     1     -10.892   6.925  67.166  1.00  0.00    -0.447 A  
HETATM   12  C   UNL     1     -10.568   5.620  66.795  1.00  0.00    -0.372 A  
HETATM   13  C   UNL     1      -9.368   5.361  66.148  1.00  0.00    -0.167 A  
HETATM   14  C   UNL     1      -8.499   6.417  65.885  1.00  0.00    -0.147 A  
HETATM   15  N   UNL     1      -8.799   7.729  66.247  1.00  0.00    -0.153 NA 
HETATM   16  O   UNL     1      -7.956   8.645  65.962  1.00  0.00    -0.101 OA 
ENDBRANCH   9  10
ENDBRANCH   8   9
ENDBRANCH   7   8
TORSDOF 3
ENDMDL
MODEL      125
REMARK 921   NORMALIZED FREE ENERGY PREDICTED BY IDOCK:   -4.16 KCAL/MOL
REMARK 922        TOTAL FREE ENERGY PREDICTED BY IDOCK:   -5.08 KCAL/MOL
REMARK 923 INTER-LIGAND FREE ENERGY PREDICTED BY IDOCK:   -4.91 KCAL/MOL
REMARK 924 INTRA-LIGAND FREE ENERGY PREDICTED BY IDOCK:   -0.17 KCAL/MOL
REMARK 927      BINDING AFFINITY PREDICTED BY RF-SCORE:    0.00 PKD
ROOT
HETATM    1  O   UNL     1      -9.432  17.044  65.692  1.00  0.00    -0.526 OA 
HETATM    2  N   UNL     1      -9.923  15.870  65.786  1.00  0.00    -0.341 NA 
HETATM    3  C   UNL     1     -11.088  15.578  65.079  1.00  0.00    -0.401 A  
HETATM    4  C   UNL     1     -11.683  14.320  65.118  1.00  0.00    -0.368 A  
HETATM    5  C   UNL     1     -11.099  13.320  65.883  1.00  0.00    -0.301 A  
HETATM    6  C   UNL     1      -9.930  13.585  66.598  1.00  0.00    -0.282 A  
HETATM    7  C   UNL     1      -9.336  14.862  66.565  1.00  0.00    -0.282 A  
ENDROOT
BRANCH   7   8
HETATM    8  S   UNL     1      -7.807  15.182  67.452  1.00  0.00    -0.211 SA 
BRANCH   8   9
HETATM    9  S   UNL     1      -8.417  16.337  69.045  1.00  0.00    -0.219 SA 
BRANCH   9  10
HETATM   10  C   UNL     1      -7.599  17.913  68.781  1.00  0.00    -0.268 A  
HETATM   11  C   UNL     1      -8.194  18.897  67.968  1.00  0.00    -0.323 A  
HETATM   12  C   UNL     1      -7.614  20.157  67.829  1.00  0.00    -0.324 A  
HETATM   13  C   UNL     1      -6.437  20.457  68.502  1.00  0.00    -0.330 A  
HETATM   14  C   UNL     1      -5.850  19.481  69.305  1.00  0.00    -0.249 A  
HETATM   15  N   UNL     1      -6.410  18.215  69.459  1.00  0.00    -0.246 NA 
HETATM   16  O   UNL     1      -5.819  17.378  70.221  1.00  0.00    -0.237 OA 
ENDBRANCH   9  10
ENDBRANCH   8   9
ENDBRANCH   7   8
TORSDOF 3
ENDMDL
MODEL      126
REMARK 921   NORMALIZED FREE ENERGY PREDICTED BY IDOCK:   -4.15 KCAL/MOL
REMARK 922        TOTAL FREE ENERGY PREDICTED BY IDOCK:   -5.08 KCAL/MOL
REMARK 923 INTER-LIGAND FREE ENERGY PREDICTED BY IDOCK:   -4.74 KCAL/MOL
REMARK 924 INTRA-LIGAND FREE ENERGY PREDICTED BY IDOCK:   -0.34 KCAL/MOL
REMARK 927      BINDING AFFINITY PREDICTED BY RF-SCORE:    0.00 PKD
ROOT
HETATM    1  O   UNL     1      -9.457   9.598  70.658  1.00  0.00    -0.244 OA 
HETATM    2  N   UNL     1     -10.679   9.710  71.010  1.00  0.00    -0.331 NA 
HETATM    3  C   UNL     1     -11.486  10.618  70.328  1.00  0.00    -0.337 A  
HETATM    4  C   UNL     1     -12.832  10.794  70.641  1.00  0.00    -0.377 A  
HETATM    5  C   UNL     1     -13.391  10.042  71.663  1.00  0.00    -0.468 A  
HETATM    6  C   UNL     1     -12.606   9.122  72.360  1.00  0.00    -0.381 A  
HETATM    7  C   UNL     1     -11.243   8.953  72.048  1.00  0.00    -0.352 A  
ENDROOT
BRANCH   7   8
HETATM    8  S   UNL     1     -10.250   7.736  72.919  1.00  0.00    -0.339 SA 
BRANCH   8   9
HETATM    9  S   UNL     1     -11.283   5.979  72.619  1.00  0.00    -0.274 SA 
BRANCH   9  10
HETATM   10  C   UNL     1     -10.390   5.167  71.291  1.00  0.00    -0.205 A  
HETATM   11  C   UNL     1      -9.461   4.148  71.575  1.00  0.00    -0.221 A  
HETATM   12  C   UNL     1      -8.828   3.448  70.548  1.00  0.00    -0.145 A  
HETATM   13  C   UNL     1      -9.116   3.751  69.224  1.00  0.00    -0.200 A  
HETATM   14  C   UNL     1     -10.034   4.761  68.945  1.00  0.00    -0.126 A  
HETATM   15  N   UNL     1     -10.678   5.474  69.953  1.00  0.00    -0.323 NA 
HETATM   16  O   UNL     1     -11.516   6.379  69.619  1.00  0.00    -0.416 OA 
ENDBRANCH   9  10
ENDBRANCH   8   9
ENDBRANCH   7   8
TORSDOF 3
ENDMDL
MODEL      127
REMARK 921   NORMALIZED FREE ENERGY PREDICTED BY IDOCK:   -4.15 KCAL/MOL
REMARK 922        TOTAL FREE ENERGY PREDICTED BY IDOCK:   -5.07 KCAL/MOL
REMARK 923 INTER-LIGAND FREE ENERGY PREDICTED BY IDOCK:   -4.76 KCAL/MOL
REMARK 924 INTRA-LIGAND FREE ENERGY PREDICTED BY IDOCK:   -0.31 KCAL/MOL
REMARK 927      BINDING AFFINITY PREDICTED BY RF-SCORE:    0.00 PKD
ROOT
HETATM    1  O   UNL     1     -11.252  17.673  64.395  1.00  0.00    -0.702 OA 
HETATM    2  N   UNL     1     -10.794  17.579  65.583  1.00  0.00    -0.333 NA 
HETATM    3  C   UNL     1     -10.958  18.659  66.446  1.00  0.00     0.148 A  
HETATM    4  C   UNL     1     -10.499  18.635  67.761  1.00  0.00    -0.457 A  
HETATM    5  C   UNL     1      -9.856  17.499  68.230  1.00  0.00    -0.319 A  
HETATM    6  C   UNL     1      -9.680  16.400  67.386  1.00  0.00    -0.238 A  
HETATM    7  C   UNL     1     -10.138  16.432  66.054  1.00  0.00    -0.353 A  
ENDROOT
BRANCH   7   8
HETATM    8  S   UNL     1      -9.948  14.998  64.989  1.00  0.00     0.013 SA 
BRANCH   8   9
HETATM    9  S   UNL     1     -11.740  14.005  65.206  1.00  0.00    -0.364 SA 
BRANCH   9  10
HETATM   10  C   UNL     1     -11.302  12.496  66.073  1.00  0.00    -0.344 A  
HETATM   11  C   UNL     1     -11.581  12.357  67.447  1.00  0.00    -0.433 A  
HETATM   12  C   UNL     1     -11.328  11.157  68.110  1.00  0.00    -0.377 A  
HETATM   13  C   UNL     1     -10.801  10.078  67.414  1.00  0.00    -0.313 A  
HETATM   14  C   UNL     1     -10.524  10.218  66.056  1.00  0.00    -0.111 A  
HETATM   15  N   UNL     1     -10.767  11.407  65.371  1.00  0.00    -0.272 NA 
HETATM   16  O   UNL     1     -10.497  11.456  64.124  1.00  0.00    -0.306 OA 
ENDBRANCH   9  10
ENDBRANCH   8   9
ENDBRANCH   7   8
TORSDOF 3
ENDMDL
MODEL      128
REMARK 921   NORMALIZED FREE ENERGY PREDICTED BY IDOCK:   -4.13 KCAL/MOL
REMARK 922        TOTAL FREE ENERGY PREDICTED BY IDOCK:   -5.05 KCAL/MOL
REMARK 923 INTER-LIGAND FREE ENERGY PREDICTED BY IDOCK:   -4.99 KCAL/MOL
REMARK 924 INTRA-LIGAND FREE ENERGY PREDICTED BY IDOCK:   -0.07 KCAL/MOL
REMARK 927      BINDING AFFINITY PREDICTED BY RF-SCORE:    0.00 PKD
ROOT
HETATM    1  O   UNL     1     -10.884  16.896  69.634  1.00  0.00    -0.302 OA 
HETATM    2  N   UNL     1     -11.278  15.695  69.808  1.00  0.00    -0.292 NA 
HETATM    3  C   UNL     1     -12.465  15.479  70.504  1.00  0.00    -0.427 A  
HETATM    4  C   UNL     1     -12.972  14.201  70.729  1.00  0.00    -0.337 A  
HETATM    5  C   UNL     1     -12.275  13.104  70.243  1.00  0.00    -0.376 A  
HETATM    6  C   UNL     1     -11.084  13.292  69.540  1.00  0.00    -0.086 A  
HETATM    7  C   UNL     1     -10.569  14.585  69.323  1.00  0.00    -0.212 A  
ENDROOT
BRANCH   7   8
HETATM    8  S   UNL     1      -9.060  14.821  68.379  1.00  0.00    -0.193 SA 
BRANCH   8   9
HETATM    9  S   UNL     1      -8.973  13.138  67.194  1.00  0.00    -0.231 SA 
BRANCH   9  10
HETATM   10  C   UNL     1     -10.313  13.359  66.021  1.00  0.00    -0.297 A  
HETATM   11  C   UNL     1     -11.298  12.363  65.867  1.00  0.00    -0.399 A  
HETATM   12  C   UNL     1     -12.392  12.563  65.026  1.00  0.00    -0.522 A  
HETATM   13  C   UNL     1     -12.524  13.757  64.332  1.00  0.00    -0.317 A  
HETATM   14  C   UNL     1     -11.549  14.740  64.484  1.00  0.00    -0.361 A  
HETATM   15  N   UNL     1     -10.446  14.565  65.317  1.00  0.00    -0.363 NA 
HETATM   16  O   UNL     1      -9.599  15.516  65.414  1.00  0.00    -0.271 OA 
ENDBRANCH   9  10
ENDBRANCH   8   9
ENDBRANCH   7   8
TORSDOF 3
ENDMDL
MODEL      129
REMARK 921   NORMALIZED FREE ENERGY PREDICTED BY IDOCK:   -4.13 KCAL/MOL
REMARK 922        TOTAL FREE ENERGY PREDICTED BY IDOCK:   -5.05 KCAL/MOL
REMARK 923 INTER-LIGAND FREE ENERGY PREDICTED BY IDOCK:   -4.75 KCAL/MOL
REMARK 924 INTRA-LIGAND FREE ENERGY PREDICTED BY IDOCK:   -0.30 KCAL/MOL
REMARK 927      BINDING AFFINITY PREDICTED BY RF-SCORE:    0.00 PKD
ROOT
HETATM    1  O   UNL     1     -12.581  12.231  70.884  1.00  0.00    -0.335 OA 
HETATM    2  N   UNL     1     -11.978  13.155  70.242  1.00  0.00    -0.325 NA 
HETATM    3  C   UNL     1     -11.918  14.427  70.807  1.00  0.00    -0.323 A  
HETATM    4  C   UNL     1     -11.272  15.488  70.178  1.00  0.00    -0.331 A  
HETATM    5  C   UNL     1     -10.664  15.275  68.949  1.00  0.00    -0.245 A  
HETATM    6  C   UNL     1     -10.706  14.009  68.362  1.00  0.00    -0.261 A  
HETATM    7  C   UNL     1     -11.369  12.940  68.996  1.00  0.00    -0.290 A  
ENDROOT
BRANCH   7   8
HETATM    8  S   UNL     1     -11.380  11.304  68.256  1.00  0.00    -0.308 SA 
BRANCH   8   9
HETATM    9  S   UNL     1      -9.778  10.368  69.151  1.00  0.00    -0.215 SA 
BRANCH   9  10
HETATM   10  C   UNL     1     -10.506   8.958  69.989  1.00  0.00    -0.213 A  
HETATM   11  C   UNL     1     -11.140   9.119  71.236  1.00  0.00    -0.405 A  
HETATM   12  C   UNL     1     -11.787   8.049  71.853  1.00  0.00    -0.353 A  
HETATM   13  C   UNL     1     -11.818   6.807  71.234  1.00  0.00    -0.396 A  
HETATM   14  C   UNL     1     -11.188   6.650  70.001  1.00  0.00    -0.369 A  
HETATM   15  N   UNL     1     -10.534   7.702  69.365  1.00  0.00    -0.218 NA 
HETATM   16  O   UNL     1      -9.990   7.483  68.231  1.00  0.00    -0.162 OA 
ENDBRANCH   9  10
ENDBRANCH   8   9
ENDBRANCH   7   8
TORSDOF 3
ENDMDL
MODEL      130
REMARK 921   NORMALIZED FREE ENERGY PREDICTED BY IDOCK:   -4.13 KCAL/MOL
REMARK 922        TOTAL FREE ENERGY PREDICTED BY IDOCK:   -5.04 KCAL/MOL
REMARK 923 INTER-LIGAND FREE ENERGY PREDICTED BY IDOCK:   -4.74 KCAL/MOL
REMARK 924 INTRA-LIGAND FREE ENERGY PREDICTED BY IDOCK:   -0.31 KCAL/MOL
REMARK 927      BINDING AFFINITY PREDICTED BY RF-SCORE:    0.00 PKD
ROOT
HETATM    1  O   UNL     1     -10.356  15.882  70.404  1.00  0.00    -0.198 OA 
HETATM    2  N   UNL     1     -11.452  15.270  70.630  1.00  0.00    -0.292 NA 
HETATM    3  C   UNL     1     -12.410  15.894  71.426  1.00  0.00    -0.430 A  
HETATM    4  C   UNL     1     -13.637  15.300  71.713  1.00  0.00    -0.581 A  
HETATM    5  C   UNL     1     -13.919  14.047  71.190  1.00  0.00    -0.012 A  
HETATM    6  C   UNL     1     -12.978  13.400  70.386  1.00  0.00     0.106 A  
HETATM    7  C   UNL     1     -11.734  13.999  70.106  1.00  0.00    -0.261 A  
ENDROOT
BRANCH   7   8
HETATM    8  S   UNL     1     -10.547  13.181  69.035  1.00  0.00     0.027 SA 
BRANCH   8   9
HETATM    9  S   UNL     1     -11.693  12.570  67.436  1.00  0.00    -0.324 SA 
BRANCH   9  10
HETATM   10  C   UNL     1     -11.563  13.922  66.262  1.00  0.00    -0.365 A  
HETATM   11  C   UNL     1     -10.613  14.943  66.454  1.00  0.00    -0.307 A  
HETATM   12  C   UNL     1     -10.441  15.949  65.503  1.00  0.00    -0.425 A  
HETATM   13  C   UNL     1     -11.208  15.947  64.346  1.00  0.00    -0.242 A  
HETATM   14  C   UNL     1     -12.149  14.937  64.159  1.00  0.00    -0.267 A  
HETATM   15  N   UNL     1     -12.340  13.922  65.094  1.00  0.00    -0.430 NA 
HETATM   16  O   UNL     1     -13.214  13.024  64.848  1.00  0.00    -0.735 OA 
ENDBRANCH   9  10
ENDBRANCH   8   9
ENDBRANCH   7   8
TORSDOF 3
ENDMDL
MODEL      131
REMARK 921   NORMALIZED FREE ENERGY PREDICTED BY IDOCK:   -4.12 KCAL/MOL
REMARK 922        TOTAL FREE ENERGY PREDICTED BY IDOCK:   -5.04 KCAL/MOL
REMARK 923 INTER-LIGAND FREE ENERGY PREDICTED BY IDOCK:   -4.60 KCAL/MOL
REMARK 924 INTRA-LIGAND FREE ENERGY PREDICTED BY IDOCK:   -0.44 KCAL/MOL
REMARK 927      BINDING AFFINITY PREDICTED BY RF-SCORE:    0.00 PKD
ROOT
HETATM    1  O   UNL     1     -12.340  11.251  68.207  1.00  0.00    -0.542 OA 
HETATM    2  N   UNL     1     -11.454  11.067  67.307  1.00  0.00    -0.481 NA 
HETATM    3  C   UNL     1     -10.619   9.957  67.414  1.00  0.00    -0.277 A  
HETATM    4  C   UNL     1      -9.633   9.677  66.471  1.00  0.00    -0.252 A  
HETATM    5  C   UNL     1      -9.475  10.528  65.387  1.00  0.00    -0.273 A  
HETATM    6  C   UNL     1     -10.300  11.646  65.254  1.00  0.00    -0.316 A  
HETATM    7  C   UNL     1     -11.290  11.932  66.215  1.00  0.00    -0.334 A  
ENDROOT
BRANCH   7   8
HETATM    8  S   UNL     1     -12.378  13.347  66.014  1.00  0.00    -0.380 SA 
BRANCH   8   9
HETATM    9  S   UNL     1     -11.972  14.497  67.674  1.00  0.00    -0.244 SA 
BRANCH   9  10
HETATM   10  C   UNL     1     -10.184  14.652  67.673  1.00  0.00    -0.232 A  
HETATM   11  C   UNL     1      -9.396  13.818  68.490  1.00  0.00    -0.144 A  
HETATM   12  C   UNL     1      -8.004  13.867  68.431  1.00  0.00    -0.144 A  
HETATM   13  C   UNL     1      -7.377  14.742  67.554  1.00  0.00    -0.225 A  
HETATM   14  C   UNL     1      -8.159  15.568  66.748  1.00  0.00    -0.212 A  
HETATM   15  N   UNL     1      -9.551  15.538  66.790  1.00  0.00    -0.226 NA 
HETATM   16  O   UNL     1     -10.199  16.317  66.012  1.00  0.00    -0.321 OA 
ENDBRANCH   9  10
ENDBRANCH   8   9
ENDBRANCH   7   8
TORSDOF 3
ENDMDL
MODEL      132
REMARK 921   NORMALIZED FREE ENERGY PREDICTED BY IDOCK:   -4.11 KCAL/MOL
REMARK 922        TOTAL FREE ENERGY PREDICTED BY IDOCK:   -5.02 KCAL/MOL
REMARK 923 INTER-LIGAND FREE ENERGY PREDICTED BY IDOCK:   -4.94 KCAL/MOL
REMARK 924 INTRA-LIGAND FREE ENERGY PREDICTED BY IDOCK:   -0.08 KCAL/MOL
REMARK 927      BINDING AFFINITY PREDICTED BY RF-SCORE:    0.00 PKD
ROOT
HETATM    1  O   UNL     1     -11.276  14.251  69.051  1.00  0.00    -0.243 OA 
HETATM    2  N   UNL     1     -10.641  14.646  68.017  1.00  0.00    -0.238 NA 
HETATM    3  C   UNL     1     -11.070  15.807  67.377  1.00  0.00    -0.235 A  
HETATM    4  C   UNL     1     -10.428  16.313  66.250  1.00  0.00    -0.314 A  
HETATM    5  C   UNL     1      -9.323  15.643  65.745  1.00  0.00    -0.303 A  
HETATM    6  C   UNL     1      -8.871  14.479  66.368  1.00  0.00    -0.068 A  
HETATM    7  C   UNL     1      -9.529  13.964  67.502  1.00  0.00    -0.216 A  
ENDROOT
BRANCH   7   8
HETATM    8  S   UNL     1      -8.914  12.491  68.325  1.00  0.00    -0.144 SA 
BRANCH   8   9
HETATM    9  S   UNL     1      -9.393  10.978  67.011  1.00  0.00    -0.174 SA 
BRANCH   9  10
HETATM   10  C   UNL     1     -10.487  11.761  65.823  1.00  0.00    -0.260 A  
HETATM   11  C   UNL     1     -10.061  11.979  64.498  1.00  0.00    -0.293 A  
HETATM   12  C   UNL     1     -10.932  12.503  63.544  1.00  0.00    -0.472 A  
HETATM   13  C   UNL     1     -12.240  12.811  63.893  1.00  0.00    -0.543 A  
HETATM   14  C   UNL     1     -12.658  12.596  65.204  1.00  0.00    -0.386 A  
HETATM   15  N   UNL     1     -11.807  12.074  66.176  1.00  0.00    -0.555 NA 
HETATM   16  O   UNL     1     -12.267  11.895  67.354  1.00  0.00    -0.502 OA 
ENDBRANCH   9  10
ENDBRANCH   8   9
ENDBRANCH   7   8
TORSDOF 3
ENDMDL
MODEL      133
REMARK 921   NORMALIZED FREE ENERGY PREDICTED BY IDOCK:   -4.10 KCAL/MOL
REMARK 922        TOTAL FREE ENERGY PREDICTED BY IDOCK:   -5.01 KCAL/MOL
REMARK 923 INTER-LIGAND FREE ENERGY PREDICTED BY IDOCK:   -4.75 KCAL/MOL
REMARK 924 INTRA-LIGAND FREE ENERGY PREDICTED BY IDOCK:   -0.26 KCAL/MOL
REMARK 927      BINDING AFFINITY PREDICTED BY RF-SCORE:    0.00 PKD
ROOT
HETATM    1  O   UNL     1     -10.647   7.673  70.833  1.00  0.00    -0.211 OA 
HETATM    2  N   UNL     1     -11.518   8.562  71.122  1.00  0.00    -0.269 NA 
HETATM    3  C   UNL     1     -12.546   8.224  71.998  1.00  0.00    -0.349 A  
HETATM    4  C   UNL     1     -13.530   9.135  72.374  1.00  0.00    -0.535 A  
HETATM    5  C   UNL     1     -13.486  10.424  71.862  1.00  0.00    -0.384 A  
HETATM    6  C   UNL     1     -12.465  10.790  70.983  1.00  0.00    -0.522 A  
HETATM    7  C   UNL     1     -11.477   9.862  70.598  1.00  0.00    -0.334 A  
ENDROOT
BRANCH   7   8
HETATM    8  S   UNL     1     -10.141  10.353  69.503  1.00  0.00    -0.185 SA 
BRANCH   8   9
HETATM    9  S   UNL     1     -11.116  11.319  67.967  1.00  0.00    -0.291 SA 
BRANCH   9  10
HETATM   10  C   UNL     1     -10.351  12.942  67.914  1.00  0.00    -0.231 A  
HETATM   11  C   UNL     1      -9.302  13.206  67.013  1.00  0.00    -0.238 A  
HETATM   12  C   UNL     1      -8.761  14.487  66.900  1.00  0.00    -0.237 A  
HETATM   13  C   UNL     1      -9.262  15.522  67.677  1.00  0.00    -0.190 A  
HETATM   14  C   UNL     1     -10.299  15.258  68.569  1.00  0.00    -0.231 A  
HETATM   15  N   UNL     1     -10.855  13.988  68.701  1.00  0.00    -0.251 NA 
HETATM   16  O   UNL     1     -11.811  13.826  69.532  1.00  0.00    -0.296 OA 
ENDBRANCH   9  10
ENDBRANCH   8   9
ENDBRANCH   7   8
TORSDOF 3
ENDMDL
MODEL      134
REMARK 921   NORMALIZED FREE ENERGY PREDICTED BY IDOCK:   -4.08 KCAL/MOL
REMARK 922        TOTAL FREE ENERGY PREDICTED BY IDOCK:   -4.99 KCAL/MOL
REMARK 923 INTER-LIGAND FREE ENERGY PREDICTED BY IDOCK:   -5.06 KCAL/MOL
REMARK 924 INTRA-LIGAND FREE ENERGY PREDICTED BY IDOCK:    0.07 KCAL/MOL
REMARK 927      BINDING AFFINITY PREDICTED BY RF-SCORE:    0.00 PKD
ROOT
HETATM    1  O   UNL     1      -8.668  12.471  67.726  1.00  0.00    -0.159 OA 
HETATM    2  N   UNL     1      -9.235  13.498  67.224  1.00  0.00    -0.223 NA 
HETATM    3  C   UNL     1      -8.439  14.574  66.836  1.00  0.00    -0.150 A  
HETATM    4  C   UNL     1      -8.976  15.728  66.270  1.00  0.00    -0.381 A  
HETATM    5  C   UNL     1     -10.349  15.812  66.083  1.00  0.00    -0.333 A  
HETATM    6  C   UNL     1     -11.169  14.747  66.460  1.00  0.00    -0.342 A  
HETATM    7  C   UNL     1     -10.624  13.586  67.041  1.00  0.00    -0.269 A  
ENDROOT
BRANCH   7   8
HETATM    8  S   UNL     1     -11.680  12.202  67.483  1.00  0.00    -0.253 SA 
BRANCH   8   9
HETATM    9  S   UNL     1     -11.275  11.915  69.482  1.00  0.00    -0.111 SA 
BRANCH   9  10
HETATM   10  C   UNL     1     -12.147  13.252  70.302  1.00  0.00    -0.335 A  
HETATM   11  C   UNL     1     -12.021  14.576  69.838  1.00  0.00    -0.382 A  
HETATM   12  C   UNL     1     -12.763  15.608  70.410  1.00  0.00    -0.325 A  
HETATM   13  C   UNL     1     -13.645  15.336  71.447  1.00  0.00    -0.598 A  
HETATM   14  C   UNL     1     -13.767  14.026  71.905  1.00  0.00    -0.444 A  
HETATM   15  N   UNL     1     -13.036  12.978  71.351  1.00  0.00    -0.299 NA 
HETATM   16  O   UNL     1     -13.211  11.802  71.818  1.00  0.00    -0.457 OA 
ENDBRANCH   9  10
ENDBRANCH   8   9
ENDBRANCH   7   8
TORSDOF 3
ENDMDL
MODEL      135
REMARK 921   NORMALIZED FREE ENERGY PREDICTED BY IDOCK:   -4.08 KCAL/MOL
REMARK 922        TOTAL FREE ENERGY PREDICTED BY IDOCK:   -4.99 KCAL/MOL
REMARK 923 INTER-LIGAND FREE ENERGY PREDICTED BY IDOCK:   -4.70 KCAL/MOL
REMARK 924 INTRA-LIGAND FREE ENERGY PREDICTED BY IDOCK:   -0.29 KCAL/MOL
REMARK 927      BINDING AFFINITY PREDICTED BY RF-SCORE:    0.00 PKD
ROOT
HETATM    1  O   UNL     1     -13.403  11.662  72.094  1.00  0.00    -0.491 OA 
HETATM    2  N   UNL     1     -12.631  11.535  71.086  1.00  0.00    -0.390 NA 
HETATM    3  C   UNL     1     -12.260  12.680  70.384  1.00  0.00    -0.288 A  
HETATM    4  C   UNL     1     -11.412  12.631  69.280  1.00  0.00    -0.354 A  
HETATM    5  C   UNL     1     -10.918  11.404  68.863  1.00  0.00    -0.276 A  
HETATM    6  C   UNL     1     -11.271  10.241  69.549  1.00  0.00    -0.314 A  
HETATM    7  C   UNL     1     -12.137  10.293  70.660  1.00  0.00    -0.338 A  
ENDROOT
BRANCH   7   8
HETATM    8  S   UNL     1     -12.551   8.798  71.566  1.00  0.00    -0.322 SA 
BRANCH   8   9
HETATM    9  S   UNL     1     -10.747   8.219  72.375  1.00  0.00    -0.332 SA 
BRANCH   9  10
HETATM   10  C   UNL     1     -10.464   6.585  71.690  1.00  0.00    -0.213 A  
HETATM   11  C   UNL     1     -10.258   6.418  70.307  1.00  0.00    -0.236 A  
HETATM   12  C   UNL     1      -9.947   5.167  69.776  1.00  0.00    -0.313 A  
HETATM   13  C   UNL     1      -9.831   4.067  70.614  1.00  0.00    -0.229 A  
HETATM   14  C   UNL     1     -10.037   4.234  71.982  1.00  0.00    -0.174 A  
HETATM   15  N   UNL     1     -10.349   5.473  72.537  1.00  0.00    -0.196 NA 
HETATM   16  O   UNL     1     -10.512   5.550  73.801  1.00  0.00    -0.232 OA 
ENDBRANCH   9  10
ENDBRANCH   8   9
ENDBRANCH   7   8
TORSDOF 3
ENDMDL
MODEL      136
REMARK 921   NORMALIZED FREE ENERGY PREDICTED BY IDOCK:   -4.06 KCAL/MOL
REMARK 922        TOTAL FREE ENERGY PREDICTED BY IDOCK:   -4.96 KCAL/MOL
REMARK 923 INTER-LIGAND FREE ENERGY PREDICTED BY IDOCK:   -4.59 KCAL/MOL
REMARK 924 INTRA-LIGAND FREE ENERGY PREDICTED BY IDOCK:   -0.38 KCAL/MOL
REMARK 927      BINDING AFFINITY PREDICTED BY RF-SCORE:    0.00 PKD
ROOT
HETATM    1  O   UNL     1      -6.923  15.773  68.685  1.00  0.00    -0.116 OA 
HETATM    2  N   UNL     1      -6.977  17.040  68.539  1.00  0.00    -0.187 NA 
HETATM    3  C   UNL     1      -6.246  17.842  69.413  1.00  0.00    -0.244 A  
HETATM    4  C   UNL     1      -6.241  19.231  69.316  1.00  0.00    -0.312 A  
HETATM    5  C   UNL     1      -6.986  19.840  68.317  1.00  0.00    -0.333 A  
HETATM    6  C   UNL     1      -7.726  19.061  67.427  1.00  0.00    -0.254 A  
HETATM    7  C   UNL     1      -7.737  17.656  67.533  1.00  0.00    -0.201 A  
ENDROOT
BRANCH   7   8
HETATM    8  S   UNL     1      -8.655  16.658  66.356  1.00  0.00    -0.324 SA 
BRANCH   8   9
HETATM    9  S   UNL     1     -10.620  17.076  66.811  1.00  0.00    -0.123 SA 
BRANCH   9  10
HETATM   10  C   UNL     1     -10.983  16.010  68.209  1.00  0.00    -0.335 A  
HETATM   11  C   UNL     1     -10.692  16.432  69.521  1.00  0.00    -0.325 A  
HETATM   12  C   UNL     1     -11.051  15.653  70.620  1.00  0.00    -0.382 A  
HETATM   13  C   UNL     1     -11.710  14.446  70.428  1.00  0.00    -0.346 A  
HETATM   14  C   UNL     1     -11.996  14.030  69.129  1.00  0.00    -0.360 A  
HETATM   15  N   UNL     1     -11.646  14.790  68.016  1.00  0.00    -0.333 NA 
HETATM   16  O   UNL     1     -11.952  14.348  66.857  1.00  0.00    -0.410 OA 
ENDBRANCH   9  10
ENDBRANCH   8   9
ENDBRANCH   7   8
TORSDOF 3
ENDMDL
MODEL      137
REMARK 921   NORMALIZED FREE ENERGY PREDICTED BY IDOCK:   -4.06 KCAL/MOL
REMARK 922        TOTAL FREE ENERGY PREDICTED BY IDOCK:   -4.96 KCAL/MOL
REMARK 923 INTER-LIGAND FREE ENERGY PREDICTED BY IDOCK:   -4.66 KCAL/MOL
REMARK 924 INTRA-LIGAND FREE ENERGY PREDICTED BY IDOCK:   -0.30 KCAL/MOL
REMARK 927      BINDING AFFINITY PREDICTED BY RF-SCORE:    0.00 PKD
ROOT
HETATM    1  O   UNL     1      -7.548  16.144  69.533  1.00  0.00    -0.207 OA 
HETATM    2  N   UNL     1      -7.274  16.856  68.510  1.00  0.00    -0.188 NA 
HETATM    3  C   UNL     1      -6.542  18.027  68.692  1.00  0.00    -0.228 A  
HETATM    4  C   UNL     1      -6.191  18.856  67.629  1.00  0.00    -0.206 A  
HETATM    5  C   UNL     1      -6.580  18.505  66.344  1.00  0.00    -0.233 A  
HETATM    6  C   UNL     1      -7.312  17.335  66.133  1.00  0.00    -0.316 A  
HETATM    7  C   UNL     1      -7.674  16.505  67.212  1.00  0.00    -0.164 A  
ENDROOT
BRANCH   7   8
HETATM    8  S   UNL     1      -8.576  14.978  66.927  1.00  0.00    -0.238 SA 
BRANCH   8   9
HETATM    9  S   UNL     1     -10.546  15.580  66.954  1.00  0.00    -0.307 SA 
BRANCH   9  10
HETATM   10  C   UNL     1     -10.456  17.371  67.021  1.00  0.00    -0.284 A  
HETATM   11  C   UNL     1     -10.461  18.130  65.835  1.00  0.00    -0.292 A  
HETATM   12  C   UNL     1     -10.483  19.524  65.877  1.00  0.00    -0.585 A  
HETATM   13  C   UNL     1     -10.507  20.180  67.100  1.00  0.00    -0.429 A  
HETATM   14  C   UNL     1     -10.500  19.427  68.272  1.00  0.00    -0.315 A  
HETATM   15  N   UNL     1     -10.478  18.035  68.257  1.00  0.00    -0.369 NA 
HETATM   16  O   UNL     1     -10.484  17.414  69.373  1.00  0.00    -0.303 OA 
ENDBRANCH   9  10
ENDBRANCH   8   9
ENDBRANCH   7   8
TORSDOF 3
ENDMDL
MODEL      138
REMARK 921   NORMALIZED FREE ENERGY PREDICTED BY IDOCK:   -4.05 KCAL/MOL
REMARK 922        TOTAL FREE ENERGY PREDICTED BY IDOCK:   -4.96 KCAL/MOL
REMARK 923 INTER-LIGAND FREE ENERGY PREDICTED BY IDOCK:   -4.78 KCAL/MOL
REMARK 924 INTRA-LIGAND FREE ENERGY PREDICTED BY IDOCK:   -0.18 KCAL/MOL
REMARK 927      BINDING AFFINITY PREDICTED BY RF-SCORE:    0.00 PKD
ROOT
HETATM    1  O   UNL     1      -9.419   9.770  69.997  1.00  0.00    -0.225 OA 
HETATM    2  N   UNL     1     -10.564   9.693  70.556  1.00  0.00    -0.284 NA 
HETATM    3  C   UNL     1     -10.680   8.955  71.732  1.00  0.00    -0.362 A  
HETATM    4  C   UNL     1     -11.889   8.829  72.412  1.00  0.00    -0.356 A  
HETATM    5  C   UNL     1     -13.016   9.459  71.906  1.00  0.00    -0.502 A  
HETATM    6  C   UNL     1     -12.927  10.207  70.731  1.00  0.00    -0.380 A  
HETATM    7  C   UNL     1     -11.705  10.325  70.040  1.00  0.00    -0.254 A  
ENDROOT
BRANCH   7   8
HETATM    8  S   UNL     1     -11.588  11.325  68.554  1.00  0.00    -0.313 SA 
BRANCH   8   9
HETATM    9  S   UNL     1     -11.524  13.251  69.283  1.00  0.00    -0.278 SA 
BRANCH   9  10
HETATM   10  C   UNL     1     -10.620  14.164  68.029  1.00  0.00    -0.239 A  
HETATM   11  C   UNL     1     -11.249  15.196  67.306  1.00  0.00    -0.324 A  
HETATM   12  C   UNL     1     -10.533  15.971  66.395  1.00  0.00    -0.313 A  
HETATM   13  C   UNL     1      -9.180  15.734  66.197  1.00  0.00    -0.385 A  
HETATM   14  C   UNL     1      -8.560  14.712  66.912  1.00  0.00    -0.204 A  
HETATM   15  N   UNL     1      -9.254  13.923  67.826  1.00  0.00    -0.189 NA 
HETATM   16  O   UNL     1      -8.614  13.012  68.452  1.00  0.00    -0.168 OA 
ENDBRANCH   9  10
ENDBRANCH   8   9
ENDBRANCH   7   8
TORSDOF 3
ENDMDL
MODEL      139
REMARK 921   NORMALIZED FREE ENERGY PREDICTED BY IDOCK:   -4.05 KCAL/MOL
REMARK 922        TOTAL FREE ENERGY PREDICTED BY IDOCK:   -4.96 KCAL/MOL
REMARK 923 INTER-LIGAND FREE ENERGY PREDICTED BY IDOCK:   -4.66 KCAL/MOL
REMARK 924 INTRA-LIGAND FREE ENERGY PREDICTED BY IDOCK:   -0.30 KCAL/MOL
REMARK 927      BINDING AFFINITY PREDICTED BY RF-SCORE:    0.00 PKD
ROOT
HETATM    1  O   UNL     1     -12.182  12.164  70.343  1.00  0.00    -0.341 OA 
HETATM    2  N   UNL     1     -12.189  10.988  70.839  1.00  0.00    -0.362 NA 
HETATM    3  C   UNL     1     -13.199  10.653  71.738  1.00  0.00    -0.421 A  
HETATM    4  C   UNL     1     -13.287   9.390  72.318  1.00  0.00    -0.539 A  
HETATM    5  C   UNL     1     -12.341   8.430  71.989  1.00  0.00    -0.413 A  
HETATM    6  C   UNL     1     -11.320   8.738  71.089  1.00  0.00    -0.345 A  
HETATM    7  C   UNL     1     -11.228  10.020  70.512  1.00  0.00    -0.336 A  
ENDROOT
BRANCH   7   8
HETATM    8  S   UNL     1      -9.939  10.395  69.320  1.00  0.00    -0.219 SA 
BRANCH   8   9
HETATM    9  S   UNL     1     -10.909  10.244  67.509  1.00  0.00    -0.275 SA 
BRANCH   9  10
HETATM   10  C   UNL     1      -9.946   9.037  66.595  1.00  0.00    -0.278 A  
HETATM   11  C   UNL     1      -9.096   9.447  65.549  1.00  0.00    -0.270 A  
HETATM   12  C   UNL     1      -8.276   8.530  64.893  1.00  0.00    -0.166 A  
HETATM   13  C   UNL     1      -8.286   7.195  65.272  1.00  0.00    -0.128 A  
HETATM   14  C   UNL     1      -9.128   6.791  66.305  1.00  0.00    -0.139 A  
HETATM   15  N   UNL     1      -9.958   7.687  66.976  1.00  0.00    -0.215 NA 
HETATM   16  O   UNL     1     -10.694   7.244  67.920  1.00  0.00    -0.213 OA 
ENDBRANCH   9  10
ENDBRANCH   8   9
ENDBRANCH   7   8
TORSDOF 3
ENDMDL
MODEL      140
REMARK 921   NORMALIZED FREE ENERGY PREDICTED BY IDOCK:   -4.04 KCAL/MOL
REMARK 922        TOTAL FREE ENERGY PREDICTED BY IDOCK:   -4.94 KCAL/MOL
REMARK 923 INTER-LIGAND FREE ENERGY PREDICTED BY IDOCK:   -4.72 KCAL/MOL
REMARK 924 INTRA-LIGAND FREE ENERGY PREDICTED BY IDOCK:   -0.23 KCAL/MOL
REMARK 927      BINDING AFFINITY PREDICTED BY RF-SCORE:    0.00 PKD
ROOT
HETATM    1  O   UNL     1     -11.895  14.203  70.104  1.00  0.00    -0.284 OA 
HETATM    2  N   UNL     1     -11.658  13.226  69.318  1.00  0.00    -0.297 NA 
HETATM    3  C   UNL     1     -11.917  11.933  69.768  1.00  0.00    -0.307 A  
HETATM    4  C   UNL     1     -11.697  10.812  68.972  1.00  0.00    -0.357 A  
HETATM    5  C   UNL     1     -11.205  10.984  67.686  1.00  0.00    -0.373 A  
HETATM    6  C   UNL     1     -10.940  12.269  67.208  1.00  0.00    -0.301 A  
HETATM    7  C   UNL     1     -11.154  13.400  68.020  1.00  0.00    -0.255 A  
ENDROOT
BRANCH   7   8
HETATM    8  S   UNL     1     -10.853  15.052  67.383  1.00  0.00    -0.312 SA 
BRANCH   8   9
HETATM    9  S   UNL     1      -8.995  15.520  68.139  1.00  0.00    -0.181 SA 
BRANCH   9  10
HETATM   10  C   UNL     1      -8.744  17.231  67.656  1.00  0.00    -0.219 A  
HETATM   11  C   UNL     1      -7.872  17.552  66.598  1.00  0.00    -0.285 A  
HETATM   12  C   UNL     1      -7.738  18.868  66.155  1.00  0.00    -0.281 A  
HETATM   13  C   UNL     1      -8.475  19.879  66.755  1.00  0.00    -0.377 A  
HETATM   14  C   UNL     1      -9.336  19.559  67.803  1.00  0.00    -0.324 A  
HETATM   15  N   UNL     1      -9.486  18.254  68.264  1.00  0.00    -0.297 NA 
HETATM   16  O   UNL     1     -10.303  18.037  69.222  1.00  0.00    -0.265 OA 
ENDBRANCH   9  10
ENDBRANCH   8   9
ENDBRANCH   7   8
TORSDOF 3
ENDMDL
MODEL      141
REMARK 921   NORMALIZED FREE ENERGY PREDICTED BY IDOCK:   -4.03 KCAL/MOL
REMARK 922        TOTAL FREE ENERGY PREDICTED BY IDOCK:   -4.93 KCAL/MOL
REMARK 923 INTER-LIGAND FREE ENERGY PREDICTED BY IDOCK:   -4.59 KCAL/MOL
REMARK 924 INTRA-LIGAND FREE ENERGY PREDICTED BY IDOCK:   -0.34 KCAL/MOL
REMARK 927      BINDING AFFINITY PREDICTED BY RF-SCORE:    0.00 PKD
ROOT
HETATM    1  O   UNL     1     -12.159  11.480  67.602  1.00  0.00    -0.623 OA 
HETATM    2  N   UNL     1     -11.330  12.434  67.777  1.00  0.00    -0.277 NA 
HETATM    3  C   UNL     1     -11.829  13.709  68.034  1.00  0.00    -0.362 A  
HETATM    4  C   UNL     1     -10.994  14.803  68.248  1.00  0.00    -0.264 A  
HETATM    5  C   UNL     1      -9.620  14.621  68.205  1.00  0.00    -0.208 A  
HETATM    6  C   UNL     1      -9.093  13.354  67.952  1.00  0.00    -0.208 A  
HETATM    7  C   UNL     1      -9.940  12.251  67.727  1.00  0.00    -0.200 A  
ENDROOT
BRANCH   7   8
HETATM    8  S   UNL     1      -9.255  10.615  67.447  1.00  0.00    -0.142 SA 
BRANCH   8   9
HETATM    9  S   UNL     1      -8.006  10.341  69.062  1.00  0.00    -0.136 SA 
BRANCH   9  10
HETATM   10  C   UNL     1      -9.078   9.668  70.335  1.00  0.00    -0.191 A  
HETATM   11  C   UNL     1     -10.461   9.532  70.105  1.00  0.00    -0.299 A  
HETATM   12  C   UNL     1     -11.288   8.928  71.051  1.00  0.00    -0.350 A  
HETATM   13  C   UNL     1     -10.749   8.445  72.235  1.00  0.00    -0.417 A  
HETATM   14  C   UNL     1      -9.382   8.582  72.462  1.00  0.00    -0.246 A  
HETATM   15  N   UNL     1      -8.535   9.182  71.534  1.00  0.00    -0.330 NA 
HETATM   16  O   UNL     1      -7.290   9.261  71.808  1.00  0.00    -0.337 OA 
ENDBRANCH   9  10
ENDBRANCH   8   9
ENDBRANCH   7   8
TORSDOF 3
ENDMDL
MODEL      142
REMARK 921   NORMALIZED FREE ENERGY PREDICTED BY IDOCK:   -4.03 KCAL/MOL
REMARK 922        TOTAL FREE ENERGY PREDICTED BY IDOCK:   -4.93 KCAL/MOL
REMARK 923 INTER-LIGAND FREE ENERGY PREDICTED BY IDOCK:   -4.69 KCAL/MOL
REMARK 924 INTRA-LIGAND FREE ENERGY PREDICTED BY IDOCK:   -0.24 KCAL/MOL
REMARK 927      BINDING AFFINITY PREDICTED BY RF-SCORE:    0.00 PKD
ROOT
HETATM    1  O   UNL     1      -8.336  11.742  67.223  1.00  0.00    -0.147 OA 
HETATM    2  N   UNL     1      -8.528  11.097  66.139  1.00  0.00    -0.170 NA 
HETATM    3  C   UNL     1      -7.482  10.334  65.625  1.00  0.00    -0.149 A  
HETATM    4  C   UNL     1      -7.611   9.593  64.453  1.00  0.00    -0.128 A  
HETATM    5  C   UNL     1      -8.820   9.611  63.773  1.00  0.00    -0.257 A  
HETATM    6  C   UNL     1      -9.886  10.365  64.267  1.00  0.00    -0.388 A  
HETATM    7  C   UNL     1      -9.749  11.122  65.447  1.00  0.00    -0.231 A  
ENDROOT
BRANCH   7   8
HETATM    8  S   UNL     1     -11.138  12.054  66.101  1.00  0.00    -0.332 SA 
BRANCH   8   9
HETATM    9  S   UNL     1     -10.889  13.922  65.270  1.00  0.00    -0.354 SA 
BRANCH   9  10
HETATM   10  C   UNL     1     -10.984  15.040  66.670  1.00  0.00    -0.325 A  
HETATM   11  C   UNL     1     -11.627  14.643  67.858  1.00  0.00    -0.373 A  
HETATM   12  C   UNL     1     -11.628  15.468  68.982  1.00  0.00    -0.377 A  
HETATM   13  C   UNL     1     -10.983  16.696  68.941  1.00  0.00    -0.294 A  
HETATM   14  C   UNL     1     -10.348  17.088  67.764  1.00  0.00    -0.335 A  
HETATM   15  N   UNL     1     -10.334  16.283  66.628  1.00  0.00    -0.298 NA 
HETATM   16  O   UNL     1      -9.722  16.706  65.590  1.00  0.00    -0.530 OA 
ENDBRANCH   9  10
ENDBRANCH   8   9
ENDBRANCH   7   8
TORSDOF 3
ENDMDL
MODEL      143
REMARK 921   NORMALIZED FREE ENERGY PREDICTED BY IDOCK:   -4.02 KCAL/MOL
REMARK 922        TOTAL FREE ENERGY PREDICTED BY IDOCK:   -4.92 KCAL/MOL
REMARK 923 INTER-LIGAND FREE ENERGY PREDICTED BY IDOCK:   -4.89 KCAL/MOL
REMARK 924 INTRA-LIGAND FREE ENERGY PREDICTED BY IDOCK:   -0.02 KCAL/MOL
REMARK 927      BINDING AFFINITY PREDICTED BY RF-SCORE:    0.00 PKD
ROOT
HETATM    1  O   UNL     1     -10.491   8.339  66.929  1.00  0.00    -0.319 OA 
HETATM    2  N   UNL     1     -10.128   8.667  68.108  1.00  0.00    -0.189 NA 
HETATM    3  C   UNL     1      -9.319   7.786  68.822  1.00  0.00    -0.146 A  
HETATM    4  C   UNL     1      -8.869   8.071  70.109  1.00  0.00    -0.143 A  
HETATM    5  C   UNL     1      -9.237   9.269  70.703  1.00  0.00    -0.321 A  
HETATM    6  C   UNL     1     -10.045  10.171  70.008  1.00  0.00    -0.241 A  
HETATM    7  C   UNL     1     -10.506   9.876  68.710  1.00  0.00    -0.213 A  
ENDROOT
BRANCH   7   8
HETATM    8  S   UNL     1     -11.508  11.061  67.805  1.00  0.00    -0.190 SA 
BRANCH   8   9
HETATM    9  S   UNL     1     -10.382  11.449  66.125  1.00  0.00    -0.256 SA 
BRANCH   9  10
HETATM   10  C   UNL     1     -10.857  13.114  65.654  1.00  0.00    -0.278 A  
HETATM   11  C   UNL     1      -9.967  14.190  65.844  1.00  0.00    -0.331 A  
HETATM   12  C   UNL     1     -10.289  15.472  65.400  1.00  0.00    -0.422 A  
HETATM   13  C   UNL     1     -11.497  15.699  64.756  1.00  0.00    -0.284 A  
HETATM   14  C   UNL     1     -12.377  14.634  64.571  1.00  0.00    -0.398 A  
HETATM   15  N   UNL     1     -12.079  13.345  65.006  1.00  0.00    -0.379 NA 
HETATM   16  O   UNL     1     -12.930  12.418  64.790  1.00  0.00    -0.786 OA 
ENDBRANCH   9  10
ENDBRANCH   8   9
ENDBRANCH   7   8
TORSDOF 3
ENDMDL
MODEL      144
REMARK 921   NORMALIZED FREE ENERGY PREDICTED BY IDOCK:   -4.01 KCAL/MOL
REMARK 922        TOTAL FREE ENERGY PREDICTED BY IDOCK:   -4.91 KCAL/MOL
REMARK 923 INTER-LIGAND FREE ENERGY PREDICTED BY IDOCK:   -4.69 KCAL/MOL
REMARK 924 INTRA-LIGAND FREE ENERGY PREDICTED BY IDOCK:   -0.22 KCAL/MOL
REMARK 927      BINDING AFFINITY PREDICTED BY RF-SCORE:    0.00 PKD
ROOT
HETATM    1  O   UNL     1     -11.833  16.620  72.155  1.00  0.00    -0.437 OA 
HETATM    2  N   UNL     1     -12.315  15.463  71.915  1.00  0.00    -0.337 NA 
HETATM    3  C   UNL     1     -13.429  15.044  72.639  1.00  0.00    -0.460 A  
HETATM    4  C   UNL     1     -14.024  13.801  72.432  1.00  0.00    -0.651 A  
HETATM    5  C   UNL     1     -13.492  12.950  71.475  1.00  0.00    -0.137 A  
HETATM    6  C   UNL     1     -12.377  13.346  70.734  1.00  0.00    -0.433 A  
HETATM    7  C   UNL     1     -11.772  14.599  70.952  1.00  0.00    -0.280 A  
ENDROOT
BRANCH   7   8
HETATM    8  S   UNL     1     -10.366  15.119  69.963  1.00  0.00    -0.090 SA 
BRANCH   8   9
HETATM    9  S   UNL     1     -10.930  14.632  68.043  1.00  0.00    -0.277 SA 
BRANCH   9  10
HETATM   10  C   UNL     1     -10.808  16.181  67.144  1.00  0.00    -0.216 A  
HETATM   11  C   UNL     1     -10.632  17.395  67.837  1.00  0.00    -0.383 A  
HETATM   12  C   UNL     1     -10.445  18.592  67.146  1.00  0.00    -0.461 A  
HETATM   13  C   UNL     1     -10.425  18.596  65.759  1.00  0.00    -0.294 A  
HETATM   14  C   UNL     1     -10.601  17.395  65.076  1.00  0.00     0.397 A  
HETATM   15  N   UNL     1     -10.790  16.186  65.742  1.00  0.00    -0.253 NA 
HETATM   16  O   UNL     1     -10.933  15.124  65.047  1.00  0.00    -0.381 OA 
ENDBRANCH   9  10
ENDBRANCH   8   9
ENDBRANCH   7   8
TORSDOF 3
ENDMDL
MODEL      145
REMARK 921   NORMALIZED FREE ENERGY PREDICTED BY IDOCK:   -4.01 KCAL/MOL
REMARK 922        TOTAL FREE ENERGY PREDICTED BY IDOCK:   -4.91 KCAL/MOL
REMARK 923 INTER-LIGAND FREE ENERGY PREDICTED BY IDOCK:   -4.39 KCAL/MOL
REMARK 924 INTRA-LIGAND FREE ENERGY PREDICTED BY IDOCK:   -0.52 KCAL/MOL
REMARK 927      BINDING AFFINITY PREDICTED BY RF-SCORE:    0.00 PKD
ROOT
HETATM    1  O   UNL     1      -7.324   7.335  67.857  1.00  0.00    -0.091 OA 
HETATM    2  N   UNL     1      -8.448   6.847  68.214  1.00  0.00    -0.125 NA 
HETATM    3  C   UNL     1      -8.453   5.731  69.048  1.00  0.00    -0.104 A  
HETATM    4  C   UNL     1      -9.634   5.142  69.492  1.00  0.00    -0.226 A  
HETATM    5  C   UNL     1     -10.848   5.683  69.094  1.00  0.00    -0.281 A  
HETATM    6  C   UNL     1     -10.872   6.803  68.262  1.00  0.00    -0.290 A  
HETATM    7  C   UNL     1      -9.676   7.390  67.806  1.00  0.00    -0.143 A  
ENDROOT
BRANCH   7   8
HETATM    8  S   UNL     1      -9.714   8.857  66.772  1.00  0.00    -0.242 SA 
BRANCH   8   9
HETATM    9  S   UNL     1      -9.303  10.381  68.095  1.00  0.00    -0.148 SA 
BRANCH   9  10
HETATM   10  C   UNL     1     -10.468  10.123  69.436  1.00  0.00    -0.233 A  
HETATM   11  C   UNL     1     -10.064   9.467  70.615  1.00  0.00    -0.356 A  
HETATM   12  C   UNL     1     -10.933   9.341  71.697  1.00  0.00    -0.433 A  
HETATM   13  C   UNL     1     -12.213   9.872  71.624  1.00  0.00    -0.482 A  
HETATM   14  C   UNL     1     -12.611  10.520  70.456  1.00  0.00    -0.339 A  
HETATM   15  N   UNL     1     -11.762  10.658  69.361  1.00  0.00    -0.281 NA 
HETATM   16  O   UNL     1     -12.195  11.274  68.330  1.00  0.00    -0.611 OA 
ENDBRANCH   9  10
ENDBRANCH   8   9
ENDBRANCH   7   8
TORSDOF 3
ENDMDL
MODEL      146
REMARK 921   NORMALIZED FREE ENERGY PREDICTED BY IDOCK:   -4.00 KCAL/MOL
REMARK 922        TOTAL FREE ENERGY PREDICTED BY IDOCK:   -4.90 KCAL/MOL
REMARK 923 INTER-LIGAND FREE ENERGY PREDICTED BY IDOCK:   -4.73 KCAL/MOL
REMARK 924 INTRA-LIGAND FREE ENERGY PREDICTED BY IDOCK:   -0.17 KCAL/MOL
REMARK 927      BINDING AFFINITY PREDICTED BY RF-SCORE:    0.00 PKD
ROOT
HETATM    1  O   UNL     1     -10.298  11.927  67.084  1.00  0.00    -0.206 OA 
HETATM    2  N   UNL     1     -10.913  12.644  66.227  1.00  0.00    -0.275 NA 
HETATM    3  C   UNL     1     -11.630  12.006  65.217  1.00  0.00    -0.279 A  
HETATM    4  C   UNL     1     -12.338  12.713  64.249  1.00  0.00    -0.517 A  
HETATM    5  C   UNL     1     -12.333  14.100  64.288  1.00  0.00    -0.398 A  
HETATM    6  C   UNL     1     -11.625  14.765  65.290  1.00  0.00    -0.338 A  
HETATM    7  C   UNL     1     -10.902  14.047  66.263  1.00  0.00    -0.291 A  
ENDROOT
BRANCH   7   8
HETATM    8  S   UNL     1     -10.031  14.909  67.576  1.00  0.00    -0.218 SA 
BRANCH   8   9
HETATM    9  S   UNL     1      -9.876  16.834  66.858  1.00  0.00    -0.277 SA 
BRANCH   9  10
HETATM   10  C   UNL     1      -8.653  17.601  67.924  1.00  0.00    -0.238 A  
HETATM   11  C   UNL     1      -7.594  16.841  68.457  1.00  0.00    -0.217 A  
HETATM   12  C   UNL     1      -6.589  17.445  69.211  1.00  0.00    -0.240 A  
HETATM   13  C   UNL     1      -6.621  18.813  69.440  1.00  0.00    -0.271 A  
HETATM   14  C   UNL     1      -7.670  19.563  68.913  1.00  0.00    -0.334 A  
HETATM   15  N   UNL     1      -8.686  18.984  68.157  1.00  0.00    -0.305 NA 
HETATM   16  O   UNL     1      -9.609  19.738  67.699  1.00  0.00    -0.324 OA 
ENDBRANCH   9  10
ENDBRANCH   8   9
ENDBRANCH   7   8
TORSDOF 3
ENDMDL
MODEL      147
REMARK 921   NORMALIZED FREE ENERGY PREDICTED BY IDOCK:   -4.00 KCAL/MOL
REMARK 922        TOTAL FREE ENERGY PREDICTED BY IDOCK:   -4.89 KCAL/MOL
REMARK 923 INTER-LIGAND FREE ENERGY PREDICTED BY IDOCK:   -4.56 KCAL/MOL
REMARK 924 INTRA-LIGAND FREE ENERGY PREDICTED BY IDOCK:   -0.33 KCAL/MOL
REMARK 927      BINDING AFFINITY PREDICTED BY RF-SCORE:    0.00 PKD
ROOT
HETATM    1  O   UNL     1     -12.049  11.432  68.271  1.00  0.00    -0.606 OA 
HETATM    2  N   UNL     1     -12.034  12.624  68.729  1.00  0.00    -0.289 NA 
HETATM    3  C   UNL     1     -12.128  12.807  70.107  1.00  0.00    -0.298 A  
HETATM    4  C   UNL     1     -12.109  14.072  70.689  1.00  0.00    -0.424 A  
HETATM    5  C   UNL     1     -11.990  15.188  69.874  1.00  0.00    -0.372 A  
HETATM    6  C   UNL     1     -11.890  15.033  68.491  1.00  0.00    -0.319 A  
HETATM    7  C   UNL     1     -11.920  13.753  67.903  1.00  0.00    -0.356 A  
ENDROOT
BRANCH   7   8
HETATM    8  S   UNL     1     -11.747  13.558  66.127  1.00  0.00    -0.386 SA 
BRANCH   8   9
HETATM    9  S   UNL     1     -10.075  14.679  65.688  1.00  0.00    -0.374 SA 
BRANCH   9  10
HETATM   10  C   UNL     1      -8.922  14.279  67.005  1.00  0.00    -0.236 A  
HETATM   11  C   UNL     1      -8.508  12.949  67.210  1.00  0.00    -0.197 A  
HETATM   12  C   UNL     1      -7.544  12.639  68.170  1.00  0.00    -0.132 A  
HETATM   13  C   UNL     1      -6.977  13.650  68.933  1.00  0.00    -0.110 A  
HETATM   14  C   UNL     1      -7.389  14.965  68.730  1.00  0.00    -0.127 A  
HETATM   15  N   UNL     1      -8.350  15.299  67.778  1.00  0.00    -0.147 NA 
HETATM   16  O   UNL     1      -8.669  16.529  67.642  1.00  0.00    -0.188 OA 
ENDBRANCH   9  10
ENDBRANCH   8   9
ENDBRANCH   7   8
TORSDOF 3
ENDMDL
MODEL      148
REMARK 921   NORMALIZED FREE ENERGY PREDICTED BY IDOCK:   -4.00 KCAL/MOL
REMARK 922        TOTAL FREE ENERGY PREDICTED BY IDOCK:   -4.89 KCAL/MOL
REMARK 923 INTER-LIGAND FREE ENERGY PREDICTED BY IDOCK:   -4.49 KCAL/MOL
REMARK 924 INTRA-LIGAND FREE ENERGY PREDICTED BY IDOCK:   -0.40 KCAL/MOL
REMARK 927      BINDING AFFINITY PREDICTED BY RF-SCORE:    0.00 PKD
ROOT
HETATM    1  O   UNL     1      -9.984   9.828  70.313  1.00  0.00    -0.248 OA 
HETATM    2  N   UNL     1     -11.080   9.551  70.906  1.00  0.00    -0.306 NA 
HETATM    3  C   UNL     1     -11.977  10.586  71.160  1.00  0.00    -0.336 A  
HETATM    4  C   UNL     1     -13.199  10.370  71.792  1.00  0.00    -0.529 A  
HETATM    5  C   UNL     1     -13.539   9.082  72.181  1.00  0.00    -0.523 A  
HETATM    6  C   UNL     1     -12.659   8.026  71.936  1.00  0.00    -0.359 A  
HETATM    7  C   UNL     1     -11.420   8.250  71.305  1.00  0.00    -0.274 A  
ENDROOT
BRANCH   7   8
HETATM    8  S   UNL     1     -10.313   6.880  70.953  1.00  0.00    -0.199 SA 
BRANCH   8   9
HETATM    9  S   UNL     1     -11.027   6.142  69.167  1.00  0.00    -0.373 SA 
BRANCH   9  10
HETATM   10  C   UNL     1     -10.051   6.989  67.921  1.00  0.00    -0.169 A  
HETATM   11  C   UNL     1     -10.574   8.108  67.245  1.00  0.00    -0.344 A  
HETATM   12  C   UNL     1      -9.793   8.828  66.342  1.00  0.00    -0.352 A  
HETATM   13  C   UNL     1      -8.479   8.448  66.105  1.00  0.00    -0.139 A  
HETATM   14  C   UNL     1      -7.964   7.339  66.774  1.00  0.00    -0.118 A  
HETATM   15  N   UNL     1      -8.724   6.604  67.680  1.00  0.00    -0.119 NA 
HETATM   16  O   UNL     1      -8.179   5.607  68.263  1.00  0.00    -0.102 OA 
ENDBRANCH   9  10
ENDBRANCH   8   9
ENDBRANCH   7   8
TORSDOF 3
ENDMDL
MODEL      149
REMARK 921   NORMALIZED FREE ENERGY PREDICTED BY IDOCK:   -3.99 KCAL/MOL
REMARK 922        TOTAL FREE ENERGY PREDICTED BY IDOCK:   -4.88 KCAL/MOL
REMARK 923 INTER-LIGAND FREE ENERGY PREDICTED BY IDOCK:   -4.51 KCAL/MOL
REMARK 924 INTRA-LIGAND FREE ENERGY PREDICTED BY IDOCK:   -0.37 KCAL/MOL
REMARK 927      BINDING AFFINITY PREDICTED BY RF-SCORE:    0.00 PKD
ROOT
HETATM    1  O   UNL     1      -9.775   9.814  70.542  1.00  0.00    -0.249 OA 
HETATM    2  N   UNL     1     -10.517   8.809  70.802  1.00  0.00    -0.208 NA 
HETATM    3  C   UNL     1     -11.444   8.917  71.837  1.00  0.00    -0.372 A  
HETATM    4  C   UNL     1     -12.299   7.872  72.178  1.00  0.00    -0.331 A  
HETATM    5  C   UNL     1     -12.230   6.683  71.466  1.00  0.00    -0.391 A  
HETATM    6  C   UNL     1     -11.312   6.549  70.423  1.00  0.00    -0.443 A  
HETATM    7  C   UNL     1     -10.442   7.605  70.085  1.00  0.00    -0.227 A  
ENDROOT
BRANCH   7   8
HETATM    8  S   UNL     1      -9.296   7.441  68.713  1.00  0.00    -0.143 SA 
BRANCH   8   9
HETATM    9  S   UNL     1     -10.509   7.626  67.058  1.00  0.00    -0.321 SA 
BRANCH   9  10
HETATM   10  C   UNL     1     -10.141   9.266  66.426  1.00  0.00    -0.267 A  
HETATM   11  C   UNL     1      -9.255   9.430  65.344  1.00  0.00    -0.305 A  
HETATM   12  C   UNL     1      -9.032  10.689  64.787  1.00  0.00    -0.218 A  
HETATM   13  C   UNL     1      -9.692  11.799  65.295  1.00  0.00    -0.236 A  
HETATM   14  C   UNL     1     -10.567  11.634  66.367  1.00  0.00    -0.258 A  
HETATM   15  N   UNL     1     -10.807  10.388  66.941  1.00  0.00    -0.206 NA 
HETATM   16  O   UNL     1     -11.631  10.314  67.913  1.00  0.00    -0.338 OA 
ENDBRANCH   9  10
ENDBRANCH   8   9
ENDBRANCH   7   8
TORSDOF 3
ENDMDL
MODEL      150
REMARK 921   NORMALIZED FREE ENERGY PREDICTED BY IDOCK:   -3.99 KCAL/MOL
REMARK 922        TOTAL FREE ENERGY PREDICTED BY IDOCK:   -4.88 KCAL/MOL
REMARK 923 INTER-LIGAND FREE ENERGY PREDICTED BY IDOCK:   -4.64 KCAL/MOL
REMARK 924 INTRA-LIGAND FREE ENERGY PREDICTED BY IDOCK:   -0.24 KCAL/MOL
REMARK 927      BINDING AFFINITY PREDICTED BY RF-SCORE:    0.00 PKD
ROOT
HETATM    1  O   UNL     1     -10.907  10.785  64.655  1.00  0.00    -0.216 OA 
HETATM    2  N   UNL     1      -9.939  10.877  65.481  1.00  0.00    -0.246 NA 
HETATM    3  C   UNL     1      -8.657  10.556  65.040  1.00  0.00    -0.176 A  
HETATM    4  C   UNL     1      -7.544  10.639  65.873  1.00  0.00    -0.138 A  
HETATM    5  C   UNL     1      -7.712  11.058  67.185  1.00  0.00    -0.131 A  
HETATM    6  C   UNL     1      -8.986  11.389  67.651  1.00  0.00    -0.140 A  
HETATM    7  C   UNL     1     -10.111  11.294  66.809  1.00  0.00    -0.219 A  
ENDROOT
BRANCH   7   8
HETATM    8  S   UNL     1     -11.739  11.765  67.403  1.00  0.00    -0.149 SA 
BRANCH   8   9
HETATM    9  S   UNL     1     -11.818  10.928  69.284  1.00  0.00    -0.305 SA 
BRANCH   9  10
HETATM   10  C   UNL     1     -12.320  12.285  70.346  1.00  0.00    -0.228 A  
HETATM   11  C   UNL     1     -12.118  13.619  69.943  1.00  0.00    -0.406 A  
HETATM   12  C   UNL     1     -12.585  14.680  70.718  1.00  0.00    -0.415 A  
HETATM   13  C   UNL     1     -13.265  14.427  71.901  1.00  0.00    -0.444 A  
HETATM   14  C   UNL     1     -13.462  13.107  72.299  1.00  0.00    -0.568 A  
HETATM   15  N   UNL     1     -13.005  12.030  71.543  1.00  0.00    -0.369 NA 
HETATM   16  O   UNL     1     -13.234  10.848  71.968  1.00  0.00    -0.492 OA 
ENDBRANCH   9  10
ENDBRANCH   8   9
ENDBRANCH   7   8
TORSDOF 3
ENDMDL
MODEL      151
REMARK 921   NORMALIZED FREE ENERGY PREDICTED BY IDOCK:   -3.97 KCAL/MOL
REMARK 922        TOTAL FREE ENERGY PREDICTED BY IDOCK:   -4.87 KCAL/MOL
REMARK 923 INTER-LIGAND FREE ENERGY PREDICTED BY IDOCK:   -4.55 KCAL/MOL
REMARK 924 INTRA-LIGAND FREE ENERGY PREDICTED BY IDOCK:   -0.31 KCAL/MOL
REMARK 927      BINDING AFFINITY PREDICTED BY RF-SCORE:    0.00 PKD
ROOT
HETATM    1  O   UNL     1      -9.120   9.970  68.626  1.00  0.00    -0.130 OA 
HETATM    2  N   UNL     1      -8.778  11.179  68.402  1.00  0.00    -0.151 NA 
HETATM    3  C   UNL     1      -7.423  11.501  68.420  1.00  0.00    -0.109 A  
HETATM    4  C   UNL     1      -6.964  12.793  68.175  1.00  0.00    -0.096 A  
HETATM    5  C   UNL     1      -7.884  13.795  67.901  1.00  0.00    -0.159 A  
HETATM    6  C   UNL     1      -9.248  13.500  67.874  1.00  0.00    -0.211 A  
HETATM    7  C   UNL     1      -9.710  12.194  68.132  1.00  0.00    -0.208 A  
ENDROOT
BRANCH   7   8
HETATM    8  S   UNL     1     -11.462  11.811  68.050  1.00  0.00    -0.324 SA 
BRANCH   8   9
HETATM    9  S   UNL     1     -11.947  11.386  70.007  1.00  0.00    -0.371 SA 
BRANCH   9  10
HETATM   10  C   UNL     1     -12.477  12.964  70.679  1.00  0.00    -0.252 A  
HETATM   11  C   UNL     1     -12.159  14.165  70.016  1.00  0.00    -0.409 A  
HETATM   12  C   UNL     1     -12.642  15.388  70.479  1.00  0.00    -0.471 A  
HETATM   13  C   UNL     1     -13.453  15.431  71.605  1.00  0.00    -0.593 A  
HETATM   14  C   UNL     1     -13.765  14.242  72.261  1.00  0.00    -0.495 A  
HETATM   15  N   UNL     1     -13.294  13.008  71.818  1.00  0.00    -0.411 NA 
HETATM   16  O   UNL     1     -13.632  11.961  72.465  1.00  0.00    -0.161 OA 
ENDBRANCH   9  10
ENDBRANCH   8   9
ENDBRANCH   7   8
TORSDOF 3
ENDMDL
MODEL      152
REMARK 921   NORMALIZED FREE ENERGY PREDICTED BY IDOCK:   -3.97 KCAL/MOL
REMARK 922        TOTAL FREE ENERGY PREDICTED BY IDOCK:   -4.86 KCAL/MOL
REMARK 923 INTER-LIGAND FREE ENERGY PREDICTED BY IDOCK:   -4.45 KCAL/MOL
REMARK 924 INTRA-LIGAND FREE ENERGY PREDICTED BY IDOCK:   -0.41 KCAL/MOL
REMARK 927      BINDING AFFINITY PREDICTED BY RF-SCORE:    0.00 PKD
ROOT
HETATM    1  O   UNL     1      -9.676   8.004  67.482  1.00  0.00    -0.147 OA 
HETATM    2  N   UNL     1      -9.785   7.845  68.743  1.00  0.00    -0.156 NA 
HETATM    3  C   UNL     1     -10.001   6.560  69.235  1.00  0.00    -0.153 A  
HETATM    4  C   UNL     1     -10.121   6.297  70.597  1.00  0.00    -0.230 A  
HETATM    5  C   UNL     1     -10.020   7.348  71.498  1.00  0.00    -0.193 A  
HETATM    6  C   UNL     1      -9.800   8.645  71.033  1.00  0.00    -0.267 A  
HETATM    7  C   UNL     1      -9.689   8.909  69.653  1.00  0.00    -0.174 A  
ENDROOT
BRANCH   7   8
HETATM    8  S   UNL     1      -9.362  10.574  69.065  1.00  0.00    -0.182 SA 
BRANCH   8   9
HETATM    9  S   UNL     1     -11.174  11.166  68.285  1.00  0.00    -0.306 SA 
BRANCH   9  10
HETATM   10  C   UNL     1     -12.061  11.833  69.695  1.00  0.00    -0.258 A  
HETATM   11  C   UNL     1     -12.636  10.970  70.648  1.00  0.00    -0.427 A  
HETATM   12  C   UNL     1     -13.249  11.476  71.794  1.00  0.00    -0.456 A  
HETATM   13  C   UNL     1     -13.292  12.847  72.010  1.00  0.00    -0.579 A  
HETATM   14  C   UNL     1     -12.723  13.698  71.065  1.00  0.00    -0.332 A  
HETATM   15  N   UNL     1     -12.107  13.217  69.912  1.00  0.00    -0.324 NA 
HETATM   16  O   UNL     1     -11.599  14.060  69.098  1.00  0.00    -0.269 OA 
ENDBRANCH   9  10
ENDBRANCH   8   9
ENDBRANCH   7   8
TORSDOF 3
ENDMDL
MODEL      153
REMARK 921   NORMALIZED FREE ENERGY PREDICTED BY IDOCK:   -3.97 KCAL/MOL
REMARK 922        TOTAL FREE ENERGY PREDICTED BY IDOCK:   -4.86 KCAL/MOL
REMARK 923 INTER-LIGAND FREE ENERGY PREDICTED BY IDOCK:   -4.51 KCAL/MOL
REMARK 924 INTRA-LIGAND FREE ENERGY PREDICTED BY IDOCK:   -0.35 KCAL/MOL
REMARK 927      BINDING AFFINITY PREDICTED BY RF-SCORE:    0.00 PKD
ROOT
HETATM    1  O   UNL     1      -8.969   9.168  69.286  1.00  0.00    -0.138 OA 
HETATM    2  N   UNL     1      -9.144   9.331  68.032  1.00  0.00    -0.128 NA 
HETATM    3  C   UNL     1      -9.036   8.222  67.196  1.00  0.00    -0.139 A  
HETATM    4  C   UNL     1      -9.224   8.310  65.819  1.00  0.00    -0.142 A  
HETATM    5  C   UNL     1      -9.529   9.541  65.257  1.00  0.00    -0.326 A  
HETATM    6  C   UNL     1      -9.646  10.668  66.072  1.00  0.00    -0.244 A  
HETATM    7  C   UNL     1      -9.446  10.578  67.464  1.00  0.00    -0.149 A  
ENDROOT
BRANCH   7   8
HETATM    8  S   UNL     1      -9.643  12.024  68.511  1.00  0.00    -0.089 SA 
BRANCH   8   9
HETATM    9  S   UNL     1     -11.612  12.555  68.221  1.00  0.00    -0.344 SA 
BRANCH   9  10
HETATM   10  C   UNL     1     -11.548  13.776  66.908  1.00  0.00    -0.370 A  
HETATM   11  C   UNL     1     -10.859  14.990  67.097  1.00  0.00    -0.314 A  
HETATM   12  C   UNL     1     -10.726  15.906  66.054  1.00  0.00    -0.289 A  
HETATM   13  C   UNL     1     -11.270  15.624  64.809  1.00  0.00    -0.391 A  
HETATM   14  C   UNL     1     -11.953  14.424  64.625  1.00  0.00    -0.464 A  
HETATM   15  N   UNL     1     -12.100  13.493  65.651  1.00  0.00    -0.402 NA 
HETATM   16  O   UNL     1     -12.730  12.409  65.403  1.00  0.00    -0.582 OA 
ENDBRANCH   9  10
ENDBRANCH   8   9
ENDBRANCH   7   8
TORSDOF 3
ENDMDL
MODEL      154
REMARK 921   NORMALIZED FREE ENERGY PREDICTED BY IDOCK:   -3.96 KCAL/MOL
REMARK 922        TOTAL FREE ENERGY PREDICTED BY IDOCK:   -4.85 KCAL/MOL
REMARK 923 INTER-LIGAND FREE ENERGY PREDICTED BY IDOCK:   -4.49 KCAL/MOL
REMARK 924 INTRA-LIGAND FREE ENERGY PREDICTED BY IDOCK:   -0.37 KCAL/MOL
REMARK 927      BINDING AFFINITY PREDICTED BY RF-SCORE:    0.00 PKD
ROOT
HETATM    1  O   UNL     1     -11.191   5.893  70.690  1.00  0.00    -0.294 OA 
HETATM    2  N   UNL     1     -11.490   7.113  70.913  1.00  0.00    -0.285 NA 
HETATM    3  C   UNL     1     -12.520   7.392  71.809  1.00  0.00    -0.336 A  
HETATM    4  C   UNL     1     -12.902   8.695  72.117  1.00  0.00    -0.442 A  
HETATM    5  C   UNL     1     -12.238   9.754  71.515  1.00  0.00    -0.493 A  
HETATM    6  C   UNL     1     -11.200   9.503  70.615  1.00  0.00    -0.364 A  
HETATM    7  C   UNL     1     -10.822   8.183  70.298  1.00  0.00    -0.244 A  
ENDROOT
BRANCH   7   8
HETATM    8  S   UNL     1      -9.457   7.869  69.175  1.00  0.00    -0.155 SA 
BRANCH   8   9
HETATM    9  S   UNL     1     -10.391   7.599  67.358  1.00  0.00    -0.299 SA 
BRANCH   9  10
HETATM   10  C   UNL     1     -10.057   9.120  66.464  1.00  0.00    -0.287 A  
HETATM   11  C   UNL     1     -10.672  10.325  66.855  1.00  0.00    -0.252 A  
HETATM   12  C   UNL     1     -10.352  11.528  66.226  1.00  0.00    -0.280 A  
HETATM   13  C   UNL     1      -9.412  11.548  65.205  1.00  0.00    -0.206 A  
HETATM   14  C   UNL     1      -8.806  10.354  64.820  1.00  0.00    -0.193 A  
HETATM   15  N   UNL     1      -9.109   9.140  65.432  1.00  0.00    -0.218 NA 
HETATM   16  O   UNL     1      -8.504   8.089  65.031  1.00  0.00    -0.143 OA 
ENDBRANCH   9  10
ENDBRANCH   8   9
ENDBRANCH   7   8
TORSDOF 3
ENDMDL
MODEL      155
REMARK 921   NORMALIZED FREE ENERGY PREDICTED BY IDOCK:   -3.93 KCAL/MOL
REMARK 922        TOTAL FREE ENERGY PREDICTED BY IDOCK:   -4.82 KCAL/MOL
REMARK 923 INTER-LIGAND FREE ENERGY PREDICTED BY IDOCK:   -4.43 KCAL/MOL
REMARK 924 INTRA-LIGAND FREE ENERGY PREDICTED BY IDOCK:   -0.39 KCAL/MOL
REMARK 927      BINDING AFFINITY PREDICTED BY RF-SCORE:    0.00 PKD
ROOT
HETATM    1  O   UNL     1      -6.225  18.752  69.690  1.00  0.00    -0.264 OA 
HETATM    2  N   UNL     1      -6.489  19.115  68.496  1.00  0.00    -0.239 NA 
HETATM    3  C   UNL     1      -6.448  20.474  68.189  1.00  0.00    -0.304 A  
HETATM    4  C   UNL     1      -6.712  20.954  66.909  1.00  0.00    -0.385 A  
HETATM    5  C   UNL     1      -7.026  20.052  65.902  1.00  0.00    -0.305 A  
HETATM    6  C   UNL     1      -7.072  18.685  66.181  1.00  0.00    -0.294 A  
HETATM    7  C   UNL     1      -6.814  18.204  67.479  1.00  0.00    -0.196 A  
ENDROOT
BRANCH   7   8
HETATM    8  S   UNL     1      -6.830  16.441  67.820  1.00  0.00    -0.145 SA 
BRANCH   8   9
HETATM    9  S   UNL     1      -8.739  16.111  68.521  1.00  0.00    -0.210 SA 
BRANCH   9  10
HETATM   10  C   UNL     1      -9.628  15.487  67.092  1.00  0.00    -0.222 A  
HETATM   11  C   UNL     1     -10.369  16.364  66.275  1.00  0.00    -0.337 A  
HETATM   12  C   UNL     1     -10.989  15.907  65.113  1.00  0.00    -0.389 A  
HETATM   13  C   UNL     1     -10.875  14.573  64.745  1.00  0.00    -0.410 A  
HETATM   14  C   UNL     1     -10.143  13.708  65.555  1.00  0.00    -0.275 A  
HETATM   15  N   UNL     1      -9.516  14.140  66.721  1.00  0.00    -0.269 NA 
HETATM   16  O   UNL     1      -8.853  13.290  67.407  1.00  0.00    -0.184 OA 
ENDBRANCH   9  10
ENDBRANCH   8   9
ENDBRANCH   7   8
TORSDOF 3
ENDMDL
MODEL      156
REMARK 921   NORMALIZED FREE ENERGY PREDICTED BY IDOCK:   -3.93 KCAL/MOL
REMARK 922        TOTAL FREE ENERGY PREDICTED BY IDOCK:   -4.82 KCAL/MOL
REMARK 923 INTER-LIGAND FREE ENERGY PREDICTED BY IDOCK:   -4.62 KCAL/MOL
REMARK 924 INTRA-LIGAND FREE ENERGY PREDICTED BY IDOCK:   -0.19 KCAL/MOL
REMARK 927      BINDING AFFINITY PREDICTED BY RF-SCORE:    0.00 PKD
ROOT
HETATM    1  O   UNL     1     -10.798  12.162  66.688  1.00  0.00    -0.248 OA 
HETATM    2  N   UNL     1      -9.717  12.201  67.365  1.00  0.00    -0.178 NA 
HETATM    3  C   UNL     1      -9.001  11.019  67.544  1.00  0.00    -0.137 A  
HETATM    4  C   UNL     1      -7.807  10.975  68.259  1.00  0.00    -0.121 A  
HETATM    5  C   UNL     1      -7.309  12.146  68.812  1.00  0.00    -0.090 A  
HETATM    6  C   UNL     1      -8.004  13.345  68.646  1.00  0.00    -0.056 A  
HETATM    7  C   UNL     1      -9.217  13.384  67.930  1.00  0.00    -0.216 A  
ENDROOT
BRANCH   7   8
HETATM    8  S   UNL     1     -10.082  14.938  67.682  1.00  0.00    -0.227 SA 
BRANCH   8   9
HETATM    9  S   UNL     1      -8.822  15.989  66.437  1.00  0.00    -0.349 SA 
BRANCH   9  10
HETATM   10  C   UNL     1      -9.205  17.709  66.776  1.00  0.00    -0.271 A  
HETATM   11  C   UNL     1     -10.217  18.046  67.696  1.00  0.00    -0.376 A  
HETATM   12  C   UNL     1     -10.462  19.376  68.035  1.00  0.00    -0.512 A  
HETATM   13  C   UNL     1      -9.699  20.388  67.468  1.00  0.00    -0.571 A  
HETATM   14  C   UNL     1      -8.699  20.053  66.558  1.00  0.00    -0.317 A  
HETATM   15  N   UNL     1      -8.436  18.732  66.202  1.00  0.00    -0.469 NA 
HETATM   16  O   UNL     1      -7.496  18.502  65.369  1.00  0.00    -0.484 OA 
ENDBRANCH   9  10
ENDBRANCH   8   9
ENDBRANCH   7   8
TORSDOF 3
ENDMDL
MODEL      157
REMARK 921   NORMALIZED FREE ENERGY PREDICTED BY IDOCK:   -3.92 KCAL/MOL
REMARK 922        TOTAL FREE ENERGY PREDICTED BY IDOCK:   -4.81 KCAL/MOL
REMARK 923 INTER-LIGAND FREE ENERGY PREDICTED BY IDOCK:   -4.48 KCAL/MOL
REMARK 924 INTRA-LIGAND FREE ENERGY PREDICTED BY IDOCK:   -0.33 KCAL/MOL
REMARK 927      BINDING AFFINITY PREDICTED BY RF-SCORE:    0.00 PKD
ROOT
HETATM    1  O   UNL     1     -10.265  16.730  65.212  1.00  0.00    -0.607 OA 
HETATM    2  N   UNL     1      -9.476  16.411  66.163  1.00  0.00    -0.315 NA 
HETATM    3  C   UNL     1      -8.221  17.014  66.216  1.00  0.00    -0.287 A  
HETATM    4  C   UNL     1      -7.304  16.731  67.225  1.00  0.00    -0.206 A  
HETATM    5  C   UNL     1      -7.648  15.820  68.213  1.00  0.00    -0.127 A  
HETATM    6  C   UNL     1      -8.900  15.203  68.185  1.00  0.00    -0.169 A  
HETATM    7  C   UNL     1      -9.822  15.484  67.158  1.00  0.00    -0.235 A  
ENDROOT
BRANCH   7   8
HETATM    8  S   UNL     1     -11.447  14.721  67.155  1.00  0.00    -0.344 SA 
BRANCH   8   9
HETATM    9  S   UNL     1     -11.197  13.068  68.359  1.00  0.00    -0.290 SA 
BRANCH   9  10
HETATM   10  C   UNL     1     -10.741  11.760  67.217  1.00  0.00    -0.237 A  
HETATM   11  C   UNL     1     -10.790  11.978  65.827  1.00  0.00    -0.329 A  
HETATM   12  C   UNL     1     -10.352  11.001  64.933  1.00  0.00    -0.378 A  
HETATM   13  C   UNL     1      -9.855   9.797  65.412  1.00  0.00    -0.365 A  
HETATM   14  C   UNL     1      -9.809   9.583  66.788  1.00  0.00    -0.216 A  
HETATM   15  N   UNL     1     -10.241  10.543  67.700  1.00  0.00    -0.188 NA 
HETATM   16  O   UNL     1     -10.157  10.277  68.947  1.00  0.00    -0.184 OA 
ENDBRANCH   9  10
ENDBRANCH   8   9
ENDBRANCH   7   8
TORSDOF 3
ENDMDL
MODEL      158
REMARK 921   NORMALIZED FREE ENERGY PREDICTED BY IDOCK:   -3.92 KCAL/MOL
REMARK 922        TOTAL FREE ENERGY PREDICTED BY IDOCK:   -4.80 KCAL/MOL
REMARK 923 INTER-LIGAND FREE ENERGY PREDICTED BY IDOCK:   -4.47 KCAL/MOL
REMARK 924 INTRA-LIGAND FREE ENERGY PREDICTED BY IDOCK:   -0.33 KCAL/MOL
REMARK 927      BINDING AFFINITY PREDICTED BY RF-SCORE:    0.00 PKD
ROOT
HETATM    1  O   UNL     1      -9.714   9.505  68.239  1.00  0.00    -0.143 OA 
HETATM    2  N   UNL     1     -10.546  10.012  69.064  1.00  0.00    -0.204 NA 
HETATM    3  C   UNL     1     -11.307  11.104  68.653  1.00  0.00    -0.277 A  
HETATM    4  C   UNL     1     -12.244  11.710  69.486  1.00  0.00    -0.257 A  
HETATM    5  C   UNL     1     -12.430  11.211  70.768  1.00  0.00    -0.479 A  
HETATM    6  C   UNL     1     -11.683  10.116  71.204  1.00  0.00    -0.453 A  
HETATM    7  C   UNL     1     -10.728   9.512  70.362  1.00  0.00    -0.284 A  
ENDROOT
BRANCH   7   8
HETATM    8  S   UNL     1      -9.803   8.075  70.914  1.00  0.00    -0.176 SA 
BRANCH   8   9
HETATM    9  S   UNL     1     -11.163   6.538  70.736  1.00  0.00    -0.343 SA 
BRANCH   9  10
HETATM   10  C   UNL     1     -10.700   5.717  69.209  1.00  0.00    -0.316 A  
HETATM   11  C   UNL     1     -11.022   6.292  67.964  1.00  0.00    -0.418 A  
HETATM   12  C   UNL     1     -10.589   5.711  66.773  1.00  0.00    -0.372 A  
HETATM   13  C   UNL     1      -9.824   4.553  66.805  1.00  0.00    -0.242 A  
HETATM   14  C   UNL     1      -9.508   3.984  68.038  1.00  0.00    -0.165 A  
HETATM   15  N   UNL     1      -9.929   4.546  69.241  1.00  0.00    -0.172 NA 
HETATM   16  O   UNL     1      -9.590   3.973  70.331  1.00  0.00    -0.167 OA 
ENDBRANCH   9  10
ENDBRANCH   8   9
ENDBRANCH   7   8
TORSDOF 3
ENDMDL
MODEL      159
REMARK 921   NORMALIZED FREE ENERGY PREDICTED BY IDOCK:   -3.92 KCAL/MOL
REMARK 922        TOTAL FREE ENERGY PREDICTED BY IDOCK:   -4.80 KCAL/MOL
REMARK 923 INTER-LIGAND FREE ENERGY PREDICTED BY IDOCK:   -4.58 KCAL/MOL
REMARK 924 INTRA-LIGAND FREE ENERGY PREDICTED BY IDOCK:   -0.22 KCAL/MOL
REMARK 927      BINDING AFFINITY PREDICTED BY RF-SCORE:    0.00 PKD
ROOT
HETATM    1  O   UNL     1      -8.958  12.835  67.583  1.00  0.00    -0.172 OA 
HETATM    2  N   UNL     1     -10.071  13.089  67.014  1.00  0.00    -0.240 NA 
HETATM    3  C   UNL     1     -10.736  12.053  66.362  1.00  0.00    -0.259 A  
HETATM    4  C   UNL     1     -11.961  12.242  65.726  1.00  0.00    -0.362 A  
HETATM    5  C   UNL     1     -12.541  13.502  65.741  1.00  0.00    -0.490 A  
HETATM    6  C   UNL     1     -11.898  14.558  66.389  1.00  0.00    -0.361 A  
HETATM    7  C   UNL     1     -10.655  14.365  67.024  1.00  0.00    -0.274 A  
ENDROOT
BRANCH   7   8
HETATM    8  S   UNL     1      -9.855  15.717  67.895  1.00  0.00    -0.217 SA 
BRANCH   8   9
HETATM    9  S   UNL     1      -8.324  16.258  66.627  1.00  0.00    -0.309 SA 
BRANCH   9  10
HETATM   10  C   UNL     1      -8.158  18.028  66.872  1.00  0.00    -0.236 A  
HETATM   11  C   UNL     1      -8.653  18.636  68.043  1.00  0.00    -0.321 A  
HETATM   12  C   UNL     1      -8.450  19.994  68.285  1.00  0.00    -0.173 A  
HETATM   13  C   UNL     1      -7.746  20.764  67.370  1.00  0.00    -0.323 A  
HETATM   14  C   UNL     1      -7.259  20.161  66.212  1.00  0.00    -0.281 A  
HETATM   15  N   UNL     1      -7.449  18.807  65.946  1.00  0.00    -0.448 NA 
HETATM   16  O   UNL     1      -6.963  18.325  64.868  1.00  0.00    -0.115 OA 
ENDBRANCH   9  10
ENDBRANCH   8   9
ENDBRANCH   7   8
TORSDOF 3
ENDMDL
MODEL      160
REMARK 921   NORMALIZED FREE ENERGY PREDICTED BY IDOCK:   -3.92 KCAL/MOL
REMARK 922        TOTAL FREE ENERGY PREDICTED BY IDOCK:   -4.80 KCAL/MOL
REMARK 923 INTER-LIGAND FREE ENERGY PREDICTED BY IDOCK:   -4.42 KCAL/MOL
REMARK 924 INTRA-LIGAND FREE ENERGY PREDICTED BY IDOCK:   -0.38 KCAL/MOL
REMARK 927      BINDING AFFINITY PREDICTED BY RF-SCORE:    0.00 PKD
ROOT
HETATM    1  O   UNL     1     -11.450  13.326  67.970  1.00  0.00    -0.271 OA 
HETATM    2  N   UNL     1     -11.285  13.938  66.862  1.00  0.00    -0.304 NA 
HETATM    3  C   UNL     1     -12.225  13.749  65.852  1.00  0.00    -0.466 A  
HETATM    4  C   UNL     1     -12.126  14.386  64.618  1.00  0.00    -0.485 A  
HETATM    5  C   UNL     1     -11.059  15.241  64.383  1.00  0.00    -0.134 A  
HETATM    6  C   UNL     1     -10.104  15.451  65.380  1.00  0.00    -0.394 A  
HETATM    7  C   UNL     1     -10.201  14.797  66.624  1.00  0.00    -0.269 A  
ENDROOT
BRANCH   7   8
HETATM    8  S   UNL     1      -8.994  15.107  67.916  1.00  0.00    -0.177 SA 
BRANCH   8   9
HETATM    9  S   UNL     1      -7.365  15.827  66.880  1.00  0.00    -0.041 SA 
BRANCH   9  10
HETATM   10  C   UNL     1      -7.483  17.608  67.062  1.00  0.00    -0.199 A  
HETATM   11  C   UNL     1      -7.929  18.406  65.990  1.00  0.00    -0.146 A  
HETATM   12  C   UNL     1      -8.110  19.780  66.148  1.00  0.00    -0.357 A  
HETATM   13  C   UNL     1      -7.857  20.376  67.375  1.00  0.00    -0.360 A  
HETATM   14  C   UNL     1      -7.414  19.585  68.433  1.00  0.00    -0.324 A  
HETATM   15  N   UNL     1      -7.224  18.212  68.301  1.00  0.00    -0.245 NA 
HETATM   16  O   UNL     1      -6.827  17.552  69.320  1.00  0.00    -0.248 OA 
ENDBRANCH   9  10
ENDBRANCH   8   9
ENDBRANCH   7   8
TORSDOF 3
ENDMDL
MODEL      161
REMARK 921   NORMALIZED FREE ENERGY PREDICTED BY IDOCK:   -3.91 KCAL/MOL
REMARK 922        TOTAL FREE ENERGY PREDICTED BY IDOCK:   -4.79 KCAL/MOL
REMARK 923 INTER-LIGAND FREE ENERGY PREDICTED BY IDOCK:   -4.60 KCAL/MOL
REMARK 924 INTRA-LIGAND FREE ENERGY PREDICTED BY IDOCK:   -0.18 KCAL/MOL
REMARK 927      BINDING AFFINITY PREDICTED BY RF-SCORE:    0.00 PKD
ROOT
HETATM    1  O   UNL     1      -8.842   8.894  72.594  1.00  0.00    -0.358 OA 
HETATM    2  N   UNL     1      -9.892   8.195  72.396  1.00  0.00    -0.246 NA 
HETATM    3  C   UNL     1     -10.018   6.980  73.067  1.00  0.00    -0.196 A  
HETATM    4  C   UNL     1     -11.135   6.163  72.916  1.00  0.00    -0.281 A  
HETATM    5  C   UNL     1     -12.159   6.568  72.072  1.00  0.00    -0.358 A  
HETATM    6  C   UNL     1     -12.059   7.781  71.390  1.00  0.00    -0.335 A  
HETATM    7  C   UNL     1     -10.924   8.602  71.537  1.00  0.00    -0.290 A  
ENDROOT
BRANCH   7   8
HETATM    8  S   UNL     1     -10.823  10.183  70.691  1.00  0.00    -0.126 SA 
BRANCH   8   9
HETATM    9  S   UNL     1     -10.643   9.650  68.709  1.00  0.00    -0.203 SA 
BRANCH   9  10
HETATM   10  C   UNL     1     -11.206  11.099  67.813  1.00  0.00    -0.294 A  
HETATM   11  C   UNL     1     -11.762  12.193  68.504  1.00  0.00    -0.382 A  
HETATM   12  C   UNL     1     -12.119  13.360  67.829  1.00  0.00    -0.299 A  
HETATM   13  C   UNL     1     -11.922  13.455  66.458  1.00  0.00    -0.452 A  
HETATM   14  C   UNL     1     -11.374  12.371  65.776  1.00  0.00    -0.352 A  
HETATM   15  N   UNL     1     -11.010  11.195  66.428  1.00  0.00    -0.233 NA 
HETATM   16  O   UNL     1     -10.503  10.249  65.737  1.00  0.00    -0.196 OA 
ENDBRANCH   9  10
ENDBRANCH   8   9
ENDBRANCH   7   8
TORSDOF 3
ENDMDL
MODEL      162
REMARK 921   NORMALIZED FREE ENERGY PREDICTED BY IDOCK:   -3.90 KCAL/MOL
REMARK 922        TOTAL FREE ENERGY PREDICTED BY IDOCK:   -4.78 KCAL/MOL
REMARK 923 INTER-LIGAND FREE ENERGY PREDICTED BY IDOCK:   -4.27 KCAL/MOL
REMARK 924 INTRA-LIGAND FREE ENERGY PREDICTED BY IDOCK:   -0.51 KCAL/MOL
REMARK 927      BINDING AFFINITY PREDICTED BY RF-SCORE:    0.00 PKD
ROOT
HETATM    1  O   UNL     1     -13.028  13.731  65.122  1.00  0.00    -0.738 OA 
HETATM    2  N   UNL     1     -12.072  13.098  64.560  1.00  0.00    -0.384 NA 
HETATM    3  C   UNL     1     -12.386  12.051  63.696  1.00  0.00    -0.539 A  
HETATM    4  C   UNL     1     -11.406  11.316  63.034  1.00  0.00     0.347 A  
HETATM    5  C   UNL     1     -10.071  11.636  63.237  1.00  0.00    -0.454 A  
HETATM    6  C   UNL     1      -9.729  12.682  64.095  1.00  0.00     0.087 A  
HETATM    7  C   UNL     1     -10.723  13.417  64.771  1.00  0.00    -0.390 A  
ENDROOT
BRANCH   7   8
HETATM    8  S   UNL     1     -10.276  14.791  65.837  1.00  0.00    -0.334 SA 
BRANCH   8   9
HETATM    9  S   UNL     1      -9.175  13.894  67.330  1.00  0.00    -0.235 SA 
BRANCH   9  10
HETATM   10  C   UNL     1     -10.067  12.377  67.681  1.00  0.00    -0.198 A  
HETATM   11  C   UNL     1      -9.506  11.128  67.350  1.00  0.00    -0.176 A  
HETATM   12  C   UNL     1     -10.148   9.940  67.699  1.00  0.00    -0.241 A  
HETATM   13  C   UNL     1     -11.354   9.980  68.387  1.00  0.00    -0.117 A  
HETATM   14  C   UNL     1     -11.907  11.217  68.711  1.00  0.00    -0.320 A  
HETATM   15  N   UNL     1     -11.286  12.416  68.373  1.00  0.00    -0.261 NA 
HETATM   16  O   UNL     1     -11.850  13.511  68.714  1.00  0.00    -0.319 OA 
ENDBRANCH   9  10
ENDBRANCH   8   9
ENDBRANCH   7   8
TORSDOF 3
ENDMDL
MODEL      163
REMARK 921   NORMALIZED FREE ENERGY PREDICTED BY IDOCK:   -3.89 KCAL/MOL
REMARK 922        TOTAL FREE ENERGY PREDICTED BY IDOCK:   -4.76 KCAL/MOL
REMARK 923 INTER-LIGAND FREE ENERGY PREDICTED BY IDOCK:   -4.25 KCAL/MOL
REMARK 924 INTRA-LIGAND FREE ENERGY PREDICTED BY IDOCK:   -0.51 KCAL/MOL
REMARK 927      BINDING AFFINITY PREDICTED BY RF-SCORE:    0.00 PKD
ROOT
HETATM    1  O   UNL     1      -9.330  15.001  65.635  1.00  0.00    -0.247 OA 
HETATM    2  N   UNL     1     -10.305  14.244  65.308  1.00  0.00    -0.371 NA 
HETATM    3  C   UNL     1     -11.474  14.834  64.833  1.00  0.00    -0.412 A  
HETATM    4  C   UNL     1     -12.580  14.081  64.445  1.00  0.00    -0.204 A  
HETATM    5  C   UNL     1     -12.518  12.698  64.530  1.00  0.00    -0.525 A  
HETATM    6  C   UNL     1     -11.357  12.081  65.000  1.00  0.00    -0.365 A  
HETATM    7  C   UNL     1     -10.244  12.846  65.401  1.00  0.00    -0.287 A  
ENDROOT
BRANCH   7   8
HETATM    8  S   UNL     1      -8.738  12.043  65.961  1.00  0.00     0.228 SA 
BRANCH   8   9
HETATM    9  S   UNL     1      -9.165  11.541  67.912  1.00  0.00    -0.174 SA 
BRANCH   9  10
HETATM   10  C   UNL     1     -10.113  12.936  68.526  1.00  0.00    -0.189 A  
HETATM   11  C   UNL     1      -9.479  14.164  68.799  1.00  0.00    -0.102 A  
HETATM   12  C   UNL     1     -10.219  15.280  69.189  1.00  0.00    -0.242 A  
HETATM   13  C   UNL     1     -11.599  15.191  69.307  1.00  0.00    -0.344 A  
HETATM   14  C   UNL     1     -12.224  13.975  69.038  1.00  0.00    -0.245 A  
HETATM   15  N   UNL     1     -11.507  12.846  68.647  1.00  0.00    -0.285 NA 
HETATM   16  O   UNL     1     -12.152  11.769  68.407  1.00  0.00    -0.490 OA 
ENDBRANCH   9  10
ENDBRANCH   8   9
ENDBRANCH   7   8
TORSDOF 3
ENDMDL
MODEL      164
REMARK 921   NORMALIZED FREE ENERGY PREDICTED BY IDOCK:   -3.89 KCAL/MOL
REMARK 922        TOTAL FREE ENERGY PREDICTED BY IDOCK:   -4.76 KCAL/MOL
REMARK 923 INTER-LIGAND FREE ENERGY PREDICTED BY IDOCK:   -4.35 KCAL/MOL
REMARK 924 INTRA-LIGAND FREE ENERGY PREDICTED BY IDOCK:   -0.41 KCAL/MOL
REMARK 927      BINDING AFFINITY PREDICTED BY RF-SCORE:    0.00 PKD
ROOT
HETATM    1  O   UNL     1      -9.295  15.033  65.714  1.00  0.00    -0.293 OA 
HETATM    2  N   UNL     1     -10.327  14.336  65.433  1.00  0.00    -0.348 NA 
HETATM    3  C   UNL     1     -11.415  14.971  64.838  1.00  0.00    -0.399 A  
HETATM    4  C   UNL     1     -12.575  14.284  64.489  1.00  0.00    -0.242 A  
HETATM    5  C   UNL     1     -12.653  12.922  64.738  1.00  0.00    -0.493 A  
HETATM    6  C   UNL     1     -11.576  12.260  65.331  1.00  0.00    -0.412 A  
HETATM    7  C   UNL     1     -10.408  12.960  65.692  1.00  0.00    -0.282 A  
ENDROOT
BRANCH   7   8
HETATM    8  S   UNL     1      -9.010  12.093  66.412  1.00  0.00    -0.082 SA 
BRANCH   8   9
HETATM    9  S   UNL     1      -9.410  12.143  68.432  1.00  0.00    -0.126 SA 
BRANCH   9  10
HETATM   10  C   UNL     1     -10.009  13.811  68.719  1.00  0.00    -0.112 A  
HETATM   11  C   UNL     1     -11.392  14.077  68.746  1.00  0.00    -0.309 A  
HETATM   12  C   UNL     1     -11.870  15.349  69.057  1.00  0.00    -0.357 A  
HETATM   13  C   UNL     1     -10.979  16.372  69.351  1.00  0.00    -0.325 A  
HETATM   14  C   UNL     1      -9.611  16.107  69.322  1.00  0.00    -0.235 A  
HETATM   15  N   UNL     1      -9.109  14.845  69.013  1.00  0.00    -0.194 NA 
HETATM   16  O   UNL     1      -7.843  14.676  69.018  1.00  0.00    -0.141 OA 
ENDBRANCH   9  10
ENDBRANCH   8   9
ENDBRANCH   7   8
TORSDOF 3
ENDMDL
MODEL      165
REMARK 921   NORMALIZED FREE ENERGY PREDICTED BY IDOCK:   -3.88 KCAL/MOL
REMARK 922        TOTAL FREE ENERGY PREDICTED BY IDOCK:   -4.76 KCAL/MOL
REMARK 923 INTER-LIGAND FREE ENERGY PREDICTED BY IDOCK:   -4.10 KCAL/MOL
REMARK 924 INTRA-LIGAND FREE ENERGY PREDICTED BY IDOCK:   -0.66 KCAL/MOL
REMARK 927      BINDING AFFINITY PREDICTED BY RF-SCORE:    0.00 PKD
ROOT
HETATM    1  O   UNL     1      -9.564   4.157  68.990  1.00  0.00    -0.170 OA 
HETATM    2  N   UNL     1      -9.714   5.365  68.607  1.00  0.00    -0.130 NA 
HETATM    3  C   UNL     1     -10.640   5.633  67.601  1.00  0.00    -0.204 A  
HETATM    4  C   UNL     1     -10.873   6.923  67.133  1.00  0.00    -0.447 A  
HETATM    5  C   UNL     1     -10.162   7.980  67.684  1.00  0.00    -0.291 A  
HETATM    6  C   UNL     1      -9.231   7.740  68.695  1.00  0.00    -0.138 A  
HETATM    7  C   UNL     1      -8.990   6.432  69.161  1.00  0.00    -0.129 A  
ENDROOT
BRANCH   7   8
HETATM    8  S   UNL     1      -7.823   6.136  70.493  1.00  0.00    -0.108 SA 
BRANCH   8   9
HETATM    9  S   UNL     1      -9.037   5.849  72.132  1.00  0.00    -0.142 SA 
BRANCH   9  10
HETATM   10  C   UNL     1     -10.451   6.910  71.822  1.00  0.00    -0.203 A  
HETATM   11  C   UNL     1     -11.700   6.353  71.485  1.00  0.00    -0.369 A  
HETATM   12  C   UNL     1     -12.826   7.162  71.331  1.00  0.00    -0.431 A  
HETATM   13  C   UNL     1     -12.724   8.534  71.515  1.00  0.00    -0.340 A  
HETATM   14  C   UNL     1     -11.487   9.083  71.846  1.00  0.00    -0.370 A  
HETATM   15  N   UNL     1     -10.348   8.297  72.005  1.00  0.00    -0.254 NA 
HETATM   16  O   UNL     1      -9.252   8.871  72.319  1.00  0.00    -0.376 OA 
ENDBRANCH   9  10
ENDBRANCH   8   9
ENDBRANCH   7   8
TORSDOF 3
ENDMDL
MODEL      166
REMARK 921   NORMALIZED FREE ENERGY PREDICTED BY IDOCK:   -3.88 KCAL/MOL
REMARK 922        TOTAL FREE ENERGY PREDICTED BY IDOCK:   -4.76 KCAL/MOL
REMARK 923 INTER-LIGAND FREE ENERGY PREDICTED BY IDOCK:   -4.56 KCAL/MOL
REMARK 924 INTRA-LIGAND FREE ENERGY PREDICTED BY IDOCK:   -0.20 KCAL/MOL
REMARK 927      BINDING AFFINITY PREDICTED BY RF-SCORE:    0.00 PKD
ROOT
HETATM    1  O   UNL     1      -7.670   8.142  66.684  1.00  0.00    -0.091 OA 
HETATM    2  N   UNL     1      -8.229   8.940  65.859  1.00  0.00    -0.115 NA 
HETATM    3  C   UNL     1      -7.504   9.361  64.747  1.00  0.00    -0.107 A  
HETATM    4  C   UNL     1      -8.042  10.222  63.793  1.00  0.00    -0.143 A  
HETATM    5  C   UNL     1      -9.343  10.676  63.952  1.00  0.00    -0.302 A  
HETATM    6  C   UNL     1     -10.093  10.268  65.056  1.00  0.00    -0.353 A  
HETATM    7  C   UNL     1      -9.543   9.405  66.024  1.00  0.00    -0.261 A  
ENDROOT
BRANCH   7   8
HETATM    8  S   UNL     1     -10.529   8.848  67.418  1.00  0.00    -0.244 SA 
BRANCH   8   9
HETATM    9  S   UNL     1      -9.763   9.922  69.000  1.00  0.00    -0.204 SA 
BRANCH   9  10
HETATM   10  C   UNL     1     -11.083   9.913  70.216  1.00  0.00    -0.308 A  
HETATM   11  C   UNL     1     -11.821  11.084  70.475  1.00  0.00    -0.464 A  
HETATM   12  C   UNL     1     -12.907  11.067  71.350  1.00  0.00    -0.548 A  
HETATM   13  C   UNL     1     -13.275   9.883  71.974  1.00  0.00    -0.555 A  
HETATM   14  C   UNL     1     -12.542   8.726  71.718  1.00  0.00    -0.356 A  
HETATM   15  N   UNL     1     -11.454   8.718  70.849  1.00  0.00    -0.280 NA 
HETATM   16  O   UNL     1     -10.838   7.616  70.656  1.00  0.00    -0.228 OA 
ENDBRANCH   9  10
ENDBRANCH   8   9
ENDBRANCH   7   8
TORSDOF 3
ENDMDL
MODEL      167
REMARK 921   NORMALIZED FREE ENERGY PREDICTED BY IDOCK:   -3.88 KCAL/MOL
REMARK 922        TOTAL FREE ENERGY PREDICTED BY IDOCK:   -4.75 KCAL/MOL
REMARK 923 INTER-LIGAND FREE ENERGY PREDICTED BY IDOCK:   -4.56 KCAL/MOL
REMARK 924 INTRA-LIGAND FREE ENERGY PREDICTED BY IDOCK:   -0.19 KCAL/MOL
REMARK 927      BINDING AFFINITY PREDICTED BY RF-SCORE:    0.00 PKD
ROOT
HETATM    1  O   UNL     1      -6.918  12.498  67.369  1.00  0.00    -0.139 OA 
HETATM    2  N   UNL     1      -8.150  12.655  67.666  1.00  0.00    -0.160 NA 
HETATM    3  C   UNL     1      -8.865  11.555  68.135  1.00  0.00    -0.165 A  
HETATM    4  C   UNL     1     -10.209  11.642  68.492  1.00  0.00    -0.216 A  
HETATM    5  C   UNL     1     -10.859  12.862  68.378  1.00  0.00    -0.276 A  
HETATM    6  C   UNL     1     -10.166  13.980  67.913  1.00  0.00    -0.240 A  
HETATM    7  C   UNL     1      -8.809  13.887  67.544  1.00  0.00    -0.196 A  
ENDROOT
BRANCH   7   8
HETATM    8  S   UNL     1      -7.912  15.340  66.989  1.00  0.00    -0.162 SA 
BRANCH   8   9
HETATM    9  S   UNL     1      -7.923  16.566  68.645  1.00  0.00    -0.243 SA 
BRANCH   9  10
HETATM   10  C   UNL     1      -8.705  18.075  68.068  1.00  0.00    -0.261 A  
HETATM   11  C   UNL     1      -7.924  19.196  67.727  1.00  0.00    -0.305 A  
HETATM   12  C   UNL     1      -8.512  20.342  67.192  1.00  0.00    -0.407 A  
HETATM   13  C   UNL     1      -9.884  20.384  66.984  1.00  0.00    -0.594 A  
HETATM   14  C   UNL     1     -10.654  19.274  67.324  1.00  0.00    -0.484 A  
HETATM   15  N   UNL     1     -10.091  18.119  67.860  1.00  0.00    -0.338 NA 
HETATM   16  O   UNL     1     -10.860  17.138  68.136  1.00  0.00    -0.373 OA 
ENDBRANCH   9  10
ENDBRANCH   8   9
ENDBRANCH   7   8
TORSDOF 3
ENDMDL
MODEL      168
REMARK 921   NORMALIZED FREE ENERGY PREDICTED BY IDOCK:   -3.87 KCAL/MOL
REMARK 922        TOTAL FREE ENERGY PREDICTED BY IDOCK:   -4.75 KCAL/MOL
REMARK 923 INTER-LIGAND FREE ENERGY PREDICTED BY IDOCK:   -4.44 KCAL/MOL
REMARK 924 INTRA-LIGAND FREE ENERGY PREDICTED BY IDOCK:   -0.31 KCAL/MOL
REMARK 927      BINDING AFFINITY PREDICTED BY RF-SCORE:    0.00 PKD
ROOT
HETATM    1  O   UNL     1      -7.123  15.324  68.377  1.00  0.00    -0.105 OA 
HETATM    2  N   UNL     1      -7.189  16.584  68.570  1.00  0.00    -0.166 NA 
HETATM    3  C   UNL     1      -6.255  17.176  69.417  1.00  0.00    -0.234 A  
HETATM    4  C   UNL     1      -6.249  18.545  69.673  1.00  0.00    -0.244 A  
HETATM    5  C   UNL     1      -7.203  19.349  69.065  1.00  0.00    -0.397 A  
HETATM    6  C   UNL     1      -8.149  18.782  68.211  1.00  0.00    -0.353 A  
HETATM    7  C   UNL     1      -8.158  17.395  67.961  1.00  0.00    -0.227 A  
ENDROOT
BRANCH   7   8
HETATM    8  S   UNL     1      -9.351  16.679  66.825  1.00  0.00    -0.258 SA 
BRANCH   8   9
HETATM    9  S   UNL     1     -10.762  15.852  68.077  1.00  0.00    -0.310 SA 
BRANCH   9  10
HETATM   10  C   UNL     1     -10.818  14.125  67.594  1.00  0.00    -0.260 A  
HETATM   11  C   UNL     1     -10.143  13.150  68.354  1.00  0.00    -0.231 A  
HETATM   12  C   UNL     1     -10.254  11.796  68.041  1.00  0.00    -0.202 A  
HETATM   13  C   UNL     1     -11.042  11.393  66.972  1.00  0.00    -0.364 A  
HETATM   14  C   UNL     1     -11.707  12.359  66.221  1.00  0.00    -0.395 A  
HETATM   15  N   UNL     1     -11.612  13.718  66.513  1.00  0.00    -0.348 NA 
HETATM   16  O   UNL     1     -12.261  14.543  65.785  1.00  0.00    -0.345 OA 
ENDBRANCH   9  10
ENDBRANCH   8   9
ENDBRANCH   7   8
TORSDOF 3
ENDMDL
MODEL      169
REMARK 921   NORMALIZED FREE ENERGY PREDICTED BY IDOCK:   -3.87 KCAL/MOL
REMARK 922        TOTAL FREE ENERGY PREDICTED BY IDOCK:   -4.74 KCAL/MOL
REMARK 923 INTER-LIGAND FREE ENERGY PREDICTED BY IDOCK:   -4.53 KCAL/MOL
REMARK 924 INTRA-LIGAND FREE ENERGY PREDICTED BY IDOCK:   -0.21 KCAL/MOL
REMARK 927      BINDING AFFINITY PREDICTED BY RF-SCORE:    0.00 PKD
ROOT
HETATM    1  O   UNL     1      -8.077  10.600  65.110  1.00  0.00    -0.146 OA 
HETATM    2  N   UNL     1      -8.960  10.234  65.956  1.00  0.00    -0.149 NA 
HETATM    3  C   UNL     1      -9.370   8.903  65.955  1.00  0.00    -0.242 A  
HETATM    4  C   UNL     1     -10.320   8.419  66.851  1.00  0.00    -0.378 A  
HETATM    5  C   UNL     1     -10.877   9.288  67.779  1.00  0.00    -0.192 A  
HETATM    6  C   UNL     1     -10.482  10.626  67.804  1.00  0.00    -0.258 A  
HETATM    7  C   UNL     1      -9.528  11.115  66.889  1.00  0.00    -0.185 A  
ENDROOT
BRANCH   7   8
HETATM    8  S   UNL     1      -8.991  12.827  66.957  1.00  0.00    -0.215 SA 
BRANCH   8   9
HETATM    9  S   UNL     1     -10.316  13.790  65.707  1.00  0.00    -0.316 SA 
BRANCH   9  10
HETATM   10  C   UNL     1     -10.205  15.513  66.194  1.00  0.00    -0.306 A  
HETATM   11  C   UNL     1      -9.679  15.866  67.453  1.00  0.00    -0.227 A  
HETATM   12  C   UNL     1      -9.505  17.203  67.806  1.00  0.00    -0.253 A  
HETATM   13  C   UNL     1      -9.845  18.207  66.910  1.00  0.00    -0.331 A  
HETATM   14  C   UNL     1     -10.366  17.856  65.666  1.00  0.00    -0.059 A  
HETATM   15  N   UNL     1     -10.551  16.528  65.290  1.00  0.00    -0.624 NA 
HETATM   16  O   UNL     1     -11.023  16.285  64.129  1.00  0.00    -0.649 OA 
ENDBRANCH   9  10
ENDBRANCH   8   9
ENDBRANCH   7   8
TORSDOF 3
ENDMDL
MODEL      170
REMARK 921   NORMALIZED FREE ENERGY PREDICTED BY IDOCK:   -3.87 KCAL/MOL
REMARK 922        TOTAL FREE ENERGY PREDICTED BY IDOCK:   -4.74 KCAL/MOL
REMARK 923 INTER-LIGAND FREE ENERGY PREDICTED BY IDOCK:   -4.57 KCAL/MOL
REMARK 924 INTRA-LIGAND FREE ENERGY PREDICTED BY IDOCK:   -0.17 KCAL/MOL
REMARK 927      BINDING AFFINITY PREDICTED BY RF-SCORE:    0.00 PKD
ROOT
HETATM    1  O   UNL     1      -7.591   8.933  68.781  1.00  0.00    -0.088 OA 
HETATM    2  N   UNL     1      -8.526   8.252  68.241  1.00  0.00    -0.135 NA 
HETATM    3  C   UNL     1      -8.581   6.883  68.493  1.00  0.00    -0.123 A  
HETATM    4  C   UNL     1      -9.573   6.069  67.953  1.00  0.00    -0.118 A  
HETATM    5  C   UNL     1     -10.542   6.636  67.138  1.00  0.00    -0.401 A  
HETATM    6  C   UNL     1     -10.513   8.006  66.872  1.00  0.00    -0.387 A  
HETATM    7  C   UNL     1      -9.502   8.825  67.412  1.00  0.00    -0.146 A  
ENDROOT
BRANCH   7   8
HETATM    8  S   UNL     1      -9.497  10.594  67.102  1.00  0.00    -0.157 SA 
BRANCH   8   9
HETATM    9  S   UNL     1     -10.483  10.763  65.301  1.00  0.00    -0.161 SA 
BRANCH   9  10
HETATM   10  C   UNL     1     -10.857  12.513  65.169  1.00  0.00    -0.288 A  
HETATM   11  C   UNL     1      -9.925  13.476  65.603  1.00  0.00    -0.252 A  
HETATM   12  C   UNL     1     -10.165  14.838  65.422  1.00  0.00    -0.415 A  
HETATM   13  C   UNL     1     -11.334  15.259  64.802  1.00  0.00    -0.396 A  
HETATM   14  C   UNL     1     -12.255  14.305  64.375  1.00  0.00    -0.447 A  
HETATM   15  N   UNL     1     -12.038  12.939  64.545  1.00  0.00    -0.389 NA 
HETATM   16  O   UNL     1     -12.924  12.125  64.117  1.00  0.00    -0.664 OA 
ENDBRANCH   9  10
ENDBRANCH   8   9
ENDBRANCH   7   8
TORSDOF 3
ENDMDL
MODEL      171
REMARK 921   NORMALIZED FREE ENERGY PREDICTED BY IDOCK:   -3.86 KCAL/MOL
REMARK 922        TOTAL FREE ENERGY PREDICTED BY IDOCK:   -4.73 KCAL/MOL
REMARK 923 INTER-LIGAND FREE ENERGY PREDICTED BY IDOCK:   -4.36 KCAL/MOL
REMARK 924 INTRA-LIGAND FREE ENERGY PREDICTED BY IDOCK:   -0.37 KCAL/MOL
REMARK 927      BINDING AFFINITY PREDICTED BY RF-SCORE:    0.00 PKD
ROOT
HETATM    1  O   UNL     1      -8.062   9.872  68.144  1.00  0.00    -0.103 OA 
HETATM    2  N   UNL     1      -8.626  10.099  67.021  1.00  0.00    -0.129 NA 
HETATM    3  C   UNL     1      -8.207   9.372  65.909  1.00  0.00    -0.115 A  
HETATM    4  C   UNL     1      -8.776   9.550  64.650  1.00  0.00    -0.233 A  
HETATM    5  C   UNL     1      -9.795  10.478  64.495  1.00  0.00    -0.401 A  
HETATM    6  C   UNL     1     -10.236  11.218  65.594  1.00  0.00    -0.304 A  
HETATM    7  C   UNL     1      -9.652  11.043  66.864  1.00  0.00    -0.182 A  
ENDROOT
BRANCH   7   8
HETATM    8  S   UNL     1     -10.255  11.965  68.282  1.00  0.00    -0.208 SA 
BRANCH   8   9
HETATM    9  S   UNL     1     -11.813  13.065  67.504  1.00  0.00    -0.323 SA 
BRANCH   9  10
HETATM   10  C   UNL     1     -11.125  14.709  67.292  1.00  0.00    -0.328 A  
HETATM   11  C   UNL     1     -10.586  15.101  66.051  1.00  0.00    -0.329 A  
HETATM   12  C   UNL     1     -10.131  16.404  65.848  1.00  0.00    -0.370 A  
HETATM   13  C   UNL     1     -10.213  17.335  66.874  1.00  0.00    -0.322 A  
HETATM   14  C   UNL     1     -10.745  16.944  68.101  1.00  0.00    -0.375 A  
HETATM   15  N   UNL     1     -11.204  15.649  68.329  1.00  0.00    -0.337 NA 
HETATM   16  O   UNL     1     -11.689  15.369  69.477  1.00  0.00    -0.304 OA 
ENDBRANCH   9  10
ENDBRANCH   8   9
ENDBRANCH   7   8
TORSDOF 3
ENDMDL
MODEL      172
REMARK 921   NORMALIZED FREE ENERGY PREDICTED BY IDOCK:   -3.86 KCAL/MOL
REMARK 922        TOTAL FREE ENERGY PREDICTED BY IDOCK:   -4.73 KCAL/MOL
REMARK 923 INTER-LIGAND FREE ENERGY PREDICTED BY IDOCK:   -4.40 KCAL/MOL
REMARK 924 INTRA-LIGAND FREE ENERGY PREDICTED BY IDOCK:   -0.33 KCAL/MOL
REMARK 927      BINDING AFFINITY PREDICTED BY RF-SCORE:    0.00 PKD
ROOT
HETATM    1  O   UNL     1     -10.788   9.066  67.143  1.00  0.00    -0.210 OA 
HETATM    2  N   UNL     1      -9.943   8.215  66.705  1.00  0.00    -0.267 NA 
HETATM    3  C   UNL     1      -9.058   8.611  65.704  1.00  0.00    -0.164 A  
HETATM    4  C   UNL     1      -8.100   7.749  65.178  1.00  0.00    -0.137 A  
HETATM    5  C   UNL     1      -8.018   6.452  65.665  1.00  0.00    -0.120 A  
HETATM    6  C   UNL     1      -8.891   6.030  66.670  1.00  0.00    -0.125 A  
HETATM    7  C   UNL     1      -9.866   6.902  67.193  1.00  0.00    -0.165 A  
ENDROOT
BRANCH   7   8
HETATM    8  S   UNL     1     -10.955   6.366  68.516  1.00  0.00    -0.295 SA 
BRANCH   8   9
HETATM    9  S   UNL     1     -10.026   7.077  70.212  1.00  0.00    -0.179 SA 
BRANCH   9  10
HETATM   10  C   UNL     1     -11.195   8.260  70.888  1.00  0.00    -0.265 A  
HETATM   11  C   UNL     1     -11.050   9.635  70.624  1.00  0.00    -0.384 A  
HETATM   12  C   UNL     1     -12.001  10.554  71.067  1.00  0.00    -0.466 A  
HETATM   13  C   UNL     1     -13.111  10.114  71.775  1.00  0.00    -0.568 A  
HETATM   14  C   UNL     1     -13.252   8.753  72.037  1.00  0.00    -0.395 A  
HETATM   15  N   UNL     1     -12.315   7.817  71.605  1.00  0.00    -0.311 NA 
HETATM   16  O   UNL     1     -12.519   6.585  71.874  1.00  0.00    -0.347 OA 
ENDBRANCH   9  10
ENDBRANCH   8   9
ENDBRANCH   7   8
TORSDOF 3
ENDMDL
MODEL      173
REMARK 921   NORMALIZED FREE ENERGY PREDICTED BY IDOCK:   -3.86 KCAL/MOL
REMARK 922        TOTAL FREE ENERGY PREDICTED BY IDOCK:   -4.73 KCAL/MOL
REMARK 923 INTER-LIGAND FREE ENERGY PREDICTED BY IDOCK:   -4.57 KCAL/MOL
REMARK 924 INTRA-LIGAND FREE ENERGY PREDICTED BY IDOCK:   -0.16 KCAL/MOL
REMARK 927      BINDING AFFINITY PREDICTED BY RF-SCORE:    0.00 PKD
ROOT
HETATM    1  O   UNL     1     -12.815  14.476  70.272  1.00  0.00    -0.329 OA 
HETATM    2  N   UNL     1     -11.652  14.494  69.747  1.00  0.00    -0.280 NA 
HETATM    3  C   UNL     1     -10.893  15.657  69.852  1.00  0.00    -0.318 A  
HETATM    4  C   UNL     1      -9.612  15.758  69.317  1.00  0.00    -0.270 A  
HETATM    5  C   UNL     1      -9.068  14.665  68.657  1.00  0.00    -0.189 A  
HETATM    6  C   UNL     1      -9.806  13.486  68.539  1.00  0.00    -0.189 A  
HETATM    7  C   UNL     1     -11.106  13.390  69.074  1.00  0.00    -0.249 A  
ENDROOT
BRANCH   7   8
HETATM    8  S   UNL     1     -12.031  11.855  68.958  1.00  0.00    -0.204 SA 
BRANCH   8   9
HETATM    9  S   UNL     1     -12.082  11.184  70.905  1.00  0.00    -0.266 SA 
BRANCH   9  10
HETATM   10  C   UNL     1     -11.937   9.401  70.758  1.00  0.00    -0.231 A  
HETATM   11  C   UNL     1     -10.864   8.830  70.046  1.00  0.00    -0.231 A  
HETATM   12  C   UNL     1     -10.691   7.447  70.001  1.00  0.00    -0.258 A  
HETATM   13  C   UNL     1     -11.579   6.615  70.669  1.00  0.00    -0.439 A  
HETATM   14  C   UNL     1     -12.640   7.183  71.371  1.00  0.00    -0.394 A  
HETATM   15  N   UNL     1     -12.835   8.561  71.430  1.00  0.00    -0.290 NA 
HETATM   16  O   UNL     1     -13.825   9.007  72.103  1.00  0.00    -0.427 OA 
ENDBRANCH   9  10
ENDBRANCH   8   9
ENDBRANCH   7   8
TORSDOF 3
ENDMDL
MODEL      174
REMARK 921   NORMALIZED FREE ENERGY PREDICTED BY IDOCK:   -3.84 KCAL/MOL
REMARK 922        TOTAL FREE ENERGY PREDICTED BY IDOCK:   -4.71 KCAL/MOL
REMARK 923 INTER-LIGAND FREE ENERGY PREDICTED BY IDOCK:   -4.27 KCAL/MOL
REMARK 924 INTRA-LIGAND FREE ENERGY PREDICTED BY IDOCK:   -0.45 KCAL/MOL
REMARK 927      BINDING AFFINITY PREDICTED BY RF-SCORE:    0.00 PKD
ROOT
HETATM    1  O   UNL     1     -10.578   9.890  70.415  1.00  0.00    -0.274 OA 
HETATM    2  N   UNL     1     -11.582   9.288  70.923  1.00  0.00    -0.286 NA 
HETATM    3  C   UNL     1     -12.517  10.037  71.633  1.00  0.00    -0.418 A  
HETATM    4  C   UNL     1     -13.646   9.461  72.209  1.00  0.00    -0.532 A  
HETATM    5  C   UNL     1     -13.852   8.096  72.072  1.00  0.00    -0.377 A  
HETATM    6  C   UNL     1     -12.932   7.322  71.363  1.00  0.00    -0.420 A  
HETATM    7  C   UNL     1     -11.785   7.906  70.790  1.00  0.00    -0.218 A  
ENDROOT
BRANCH   7   8
HETATM    8  S   UNL     1     -10.630   6.911  69.841  1.00  0.00    -0.239 SA 
BRANCH   8   9
HETATM    9  S   UNL     1      -9.189   6.408  71.224  1.00  0.00    -0.155 SA 
BRANCH   9  10
HETATM   10  C   UNL     1      -9.831   4.926  72.007  1.00  0.00    -0.177 A  
HETATM   11  C   UNL     1     -10.691   5.023  73.118  1.00  0.00    -0.314 A  
HETATM   12  C   UNL     1     -11.268   3.883  73.678  1.00  0.00    -0.294 A  
HETATM   13  C   UNL     1     -11.001   2.634  73.136  1.00  0.00    -0.216 A  
HETATM   14  C   UNL     1     -10.149   2.540  72.037  1.00  0.00    -0.125 A  
HETATM   15  N   UNL     1      -9.560   3.663  71.461  1.00  0.00    -0.154 NA 
HETATM   16  O   UNL     1      -8.799   3.499  70.449  1.00  0.00    -0.070 OA 
ENDBRANCH   9  10
ENDBRANCH   8   9
ENDBRANCH   7   8
TORSDOF 3
ENDMDL
MODEL      175
REMARK 921   NORMALIZED FREE ENERGY PREDICTED BY IDOCK:   -3.84 KCAL/MOL
REMARK 922        TOTAL FREE ENERGY PREDICTED BY IDOCK:   -4.71 KCAL/MOL
REMARK 923 INTER-LIGAND FREE ENERGY PREDICTED BY IDOCK:   -4.52 KCAL/MOL
REMARK 924 INTRA-LIGAND FREE ENERGY PREDICTED BY IDOCK:   -0.18 KCAL/MOL
REMARK 927      BINDING AFFINITY PREDICTED BY RF-SCORE:    0.00 PKD
ROOT
HETATM    1  O   UNL     1      -9.235  11.101  65.435  1.00  0.00    -0.210 OA 
HETATM    2  N   UNL     1      -9.485  12.133  66.144  1.00  0.00    -0.236 NA 
HETATM    3  C   UNL     1     -10.066  13.239  65.527  1.00  0.00    -0.263 A  
HETATM    4  C   UNL     1     -10.381  14.400  66.229  1.00  0.00    -0.300 A  
HETATM    5  C   UNL     1     -10.111  14.460  67.588  1.00  0.00    -0.222 A  
HETATM    6  C   UNL     1      -9.532  13.366  68.232  1.00  0.00    -0.209 A  
HETATM    7  C   UNL     1      -9.205  12.196  67.518  1.00  0.00    -0.182 A  
ENDROOT
BRANCH   7   8
HETATM    8  S   UNL     1      -8.503  10.776  68.362  1.00  0.00    -0.144 SA 
BRANCH   8   9
HETATM    9  S   UNL     1      -9.974   9.344  68.186  1.00  0.00    -0.183 SA 
BRANCH   9  10
HETATM   10  C   UNL     1     -11.032   9.626  69.609  1.00  0.00    -0.229 A  
HETATM   11  C   UNL     1     -10.853   8.878  70.789  1.00  0.00    -0.294 A  
HETATM   12  C   UNL     1     -11.608   9.150  71.929  1.00  0.00    -0.430 A  
HETATM   13  C   UNL     1     -12.545  10.174  71.912  1.00  0.00    -0.437 A  
HETATM   14  C   UNL     1     -12.721  10.911  70.744  1.00  0.00    -0.340 A  
HETATM   15  N   UNL     1     -11.980  10.658  69.591  1.00  0.00    -0.287 NA 
HETATM   16  O   UNL     1     -12.190  11.384  68.562  1.00  0.00    -0.557 OA 
ENDBRANCH   9  10
ENDBRANCH   8   9
ENDBRANCH   7   8
TORSDOF 3
ENDMDL
MODEL      176
REMARK 921   NORMALIZED FREE ENERGY PREDICTED BY IDOCK:   -3.83 KCAL/MOL
REMARK 922        TOTAL FREE ENERGY PREDICTED BY IDOCK:   -4.70 KCAL/MOL
REMARK 923 INTER-LIGAND FREE ENERGY PREDICTED BY IDOCK:   -4.48 KCAL/MOL
REMARK 924 INTRA-LIGAND FREE ENERGY PREDICTED BY IDOCK:   -0.22 KCAL/MOL
REMARK 927      BINDING AFFINITY PREDICTED BY RF-SCORE:    0.00 PKD
ROOT
HETATM    1  O   UNL     1      -8.903  11.748  68.158  1.00  0.00    -0.157 OA 
HETATM    2  N   UNL     1      -7.911  12.365  68.673  1.00  0.00    -0.090 NA 
HETATM    3  C   UNL     1      -6.840  11.615  69.154  1.00  0.00    -0.111 A  
HETATM    4  C   UNL     1      -5.715  12.209  69.721  1.00  0.00    -0.111 A  
HETATM    5  C   UNL     1      -5.654  13.592  69.809  1.00  0.00    -0.102 A  
HETATM    6  C   UNL     1      -6.712  14.367  69.332  1.00  0.00    -0.140 A  
HETATM    7  C   UNL     1      -7.853  13.764  68.769  1.00  0.00    -0.059 A  
ENDROOT
BRANCH   7   8
HETATM    8  S   UNL     1      -9.191  14.769  68.116  1.00  0.00    -0.202 SA 
BRANCH   8   9
HETATM    9  S   UNL     1      -8.282  15.851  66.617  1.00  0.00    -0.269 SA 
BRANCH   9  10
HETATM   10  C   UNL     1      -9.046  17.471  66.721  1.00  0.00    -0.262 A  
HETATM   11  C   UNL     1      -8.531  18.447  67.597  1.00  0.00    -0.264 A  
HETATM   12  C   UNL     1      -9.059  19.737  67.621  1.00  0.00    -0.416 A  
HETATM   13  C   UNL     1     -10.103  20.075  66.770  1.00  0.00    -0.607 A  
HETATM   14  C   UNL     1     -10.612  19.108  65.906  1.00  0.00    -0.415 A  
HETATM   15  N   UNL     1     -10.102  17.813  65.864  1.00  0.00    -0.568 NA 
HETATM   16  O   UNL     1     -10.614  16.985  65.037  1.00  0.00    -0.703 OA 
ENDBRANCH   9  10
ENDBRANCH   8   9
ENDBRANCH   7   8
TORSDOF 3
ENDMDL
MODEL      177
REMARK 921   NORMALIZED FREE ENERGY PREDICTED BY IDOCK:   -3.83 KCAL/MOL
REMARK 922        TOTAL FREE ENERGY PREDICTED BY IDOCK:   -4.69 KCAL/MOL
REMARK 923 INTER-LIGAND FREE ENERGY PREDICTED BY IDOCK:   -4.57 KCAL/MOL
REMARK 924 INTRA-LIGAND FREE ENERGY PREDICTED BY IDOCK:   -0.12 KCAL/MOL
REMARK 927      BINDING AFFINITY PREDICTED BY RF-SCORE:    0.00 PKD
ROOT
HETATM    1  O   UNL     1     -11.332  13.364  67.809  1.00  0.00    -0.266 OA 
HETATM    2  N   UNL     1     -11.108  12.752  66.712  1.00  0.00    -0.267 NA 
HETATM    3  C   UNL     1     -11.700  13.235  65.548  1.00  0.00    -0.346 A  
HETATM    4  C   UNL     1     -11.500  12.633  64.308  1.00  0.00    -0.420 A  
HETATM    5  C   UNL     1     -10.683  11.515  64.226  1.00  0.00    -0.416 A  
HETATM    6  C   UNL     1     -10.074  11.011  65.376  1.00  0.00    -0.326 A  
HETATM    7  C   UNL     1     -10.287  11.617  66.631  1.00  0.00    -0.222 A  
ENDROOT
BRANCH   7   8
HETATM    8  S   UNL     1      -9.464  10.990  68.099  1.00  0.00    -0.179 SA 
BRANCH   8   9
HETATM    9  S   UNL     1     -11.025  10.335  69.273  1.00  0.00    -0.251 SA 
BRANCH   9  10
HETATM   10  C   UNL     1     -10.227   9.397  70.579  1.00  0.00    -0.271 A  
HETATM   11  C   UNL     1      -8.860   9.071  70.489  1.00  0.00    -0.242 A  
HETATM   12  C   UNL     1      -8.209   8.422  71.537  1.00  0.00    -0.182 A  
HETATM   13  C   UNL     1      -8.907   8.095  72.691  1.00  0.00    -0.285 A  
HETATM   14  C   UNL     1     -10.260   8.417  72.777  1.00  0.00    -0.184 A  
HETATM   15  N   UNL     1     -10.933   9.064  71.743  1.00  0.00    -0.359 NA 
HETATM   16  O   UNL     1     -12.171   9.336  71.901  1.00  0.00    -0.356 OA 
ENDBRANCH   9  10
ENDBRANCH   8   9
ENDBRANCH   7   8
TORSDOF 3
ENDMDL
MODEL      178
REMARK 921   NORMALIZED FREE ENERGY PREDICTED BY IDOCK:   -3.82 KCAL/MOL
REMARK 922        TOTAL FREE ENERGY PREDICTED BY IDOCK:   -4.68 KCAL/MOL
REMARK 923 INTER-LIGAND FREE ENERGY PREDICTED BY IDOCK:   -4.39 KCAL/MOL
REMARK 924 INTRA-LIGAND FREE ENERGY PREDICTED BY IDOCK:   -0.29 KCAL/MOL
REMARK 927      BINDING AFFINITY PREDICTED BY RF-SCORE:    0.00 PKD
ROOT
HETATM    1  O   UNL     1      -9.078   3.940  69.094  1.00  0.00    -0.110 OA 
HETATM    2  N   UNL     1      -9.664   4.342  70.154  1.00  0.00    -0.202 NA 
HETATM    3  C   UNL     1      -9.437   3.649  71.342  1.00  0.00    -0.157 A  
HETATM    4  C   UNL     1     -10.028   4.028  72.545  1.00  0.00    -0.222 A  
HETATM    5  C   UNL     1     -10.869   5.131  72.566  1.00  0.00    -0.282 A  
HETATM    6  C   UNL     1     -11.111   5.844  71.391  1.00  0.00    -0.313 A  
HETATM    7  C   UNL     1     -10.520   5.453  70.174  1.00  0.00    -0.290 A  
ENDROOT
BRANCH   7   8
HETATM    8  S   UNL     1     -10.800   6.403  68.675  1.00  0.00    -0.323 SA 
BRANCH   8   9
HETATM    9  S   UNL     1      -9.625   8.073  68.946  1.00  0.00    -0.154 SA 
BRANCH   9  10
HETATM   10  C   UNL     1     -10.764   9.313  69.568  1.00  0.00    -0.222 A  
HETATM   11  C   UNL     1     -11.243   9.241  70.891  1.00  0.00    -0.372 A  
HETATM   12  C   UNL     1     -12.056  10.247  71.413  1.00  0.00    -0.457 A  
HETATM   13  C   UNL     1     -12.397  11.340  70.629  1.00  0.00    -0.477 A  
HETATM   14  C   UNL     1     -11.923  11.409  69.321  1.00  0.00    -0.332 A  
HETATM   15  N   UNL     1     -11.111  10.417  68.776  1.00  0.00    -0.244 NA 
HETATM   16  O   UNL     1     -10.706  10.555  67.572  1.00  0.00    -0.235 OA 
ENDBRANCH   9  10
ENDBRANCH   8   9
ENDBRANCH   7   8
TORSDOF 3
ENDMDL
MODEL      179
REMARK 921   NORMALIZED FREE ENERGY PREDICTED BY IDOCK:   -3.80 KCAL/MOL
REMARK 922        TOTAL FREE ENERGY PREDICTED BY IDOCK:   -4.67 KCAL/MOL
REMARK 923 INTER-LIGAND FREE ENERGY PREDICTED BY IDOCK:   -4.31 KCAL/MOL
REMARK 924 INTRA-LIGAND FREE ENERGY PREDICTED BY IDOCK:   -0.36 KCAL/MOL
REMARK 927      BINDING AFFINITY PREDICTED BY RF-SCORE:    0.00 PKD
ROOT
HETATM    1  O   UNL     1     -10.067  12.887  67.946  1.00  0.00    -0.219 OA 
HETATM    2  N   UNL     1      -9.977  11.896  67.147  1.00  0.00    -0.193 NA 
HETATM    3  C   UNL     1     -10.216  12.111  65.791  1.00  0.00    -0.254 A  
HETATM    4  C   UNL     1     -10.128  11.088  64.851  1.00  0.00    -0.359 A  
HETATM    5  C   UNL     1      -9.790   9.810  65.274  1.00  0.00    -0.335 A  
HETATM    6  C   UNL     1      -9.543   9.567  66.627  1.00  0.00    -0.243 A  
HETATM    7  C   UNL     1      -9.642  10.603  67.577  1.00  0.00    -0.161 A  
ENDROOT
BRANCH   7   8
HETATM    8  S   UNL     1      -9.278  10.293  69.308  1.00  0.00    -0.185 SA 
BRANCH   8   9
HETATM    9  S   UNL     1     -11.126   9.862  70.111  1.00  0.00    -0.315 SA 
BRANCH   9  10
HETATM   10  C   UNL     1     -11.067   8.095  70.421  1.00  0.00    -0.239 A  
HETATM   11  C   UNL     1     -10.682   7.205  69.400  1.00  0.00    -0.246 A  
HETATM   12  C   UNL     1     -10.546   5.841  69.654  1.00  0.00    -0.396 A  
HETATM   13  C   UNL     1     -10.785   5.346  70.929  1.00  0.00    -0.243 A  
HETATM   14  C   UNL     1     -11.167   6.228  71.937  1.00  0.00    -0.283 A  
HETATM   15  N   UNL     1     -11.311   7.595  71.708  1.00  0.00    -0.248 NA 
HETATM   16  O   UNL     1     -11.654   8.342  72.685  1.00  0.00    -0.385 OA 
ENDBRANCH   9  10
ENDBRANCH   8   9
ENDBRANCH   7   8
TORSDOF 3
ENDMDL
MODEL      180
REMARK 921   NORMALIZED FREE ENERGY PREDICTED BY IDOCK:   -3.80 KCAL/MOL
REMARK 922        TOTAL FREE ENERGY PREDICTED BY IDOCK:   -4.67 KCAL/MOL
REMARK 923 INTER-LIGAND FREE ENERGY PREDICTED BY IDOCK:   -4.39 KCAL/MOL
REMARK 924 INTRA-LIGAND FREE ENERGY PREDICTED BY IDOCK:   -0.27 KCAL/MOL
REMARK 927      BINDING AFFINITY PREDICTED BY RF-SCORE:    0.00 PKD
ROOT
HETATM    1  O   UNL     1      -7.330  10.922  69.650  1.00  0.00    -0.134 OA 
HETATM    2  N   UNL     1      -8.370  10.200  69.483  1.00  0.00    -0.167 NA 
HETATM    3  C   UNL     1      -8.833   9.442  70.557  1.00  0.00    -0.239 A  
HETATM    4  C   UNL     1      -9.965   8.637  70.463  1.00  0.00    -0.220 A  
HETATM    5  C   UNL     1     -10.659   8.586  69.262  1.00  0.00    -0.193 A  
HETATM    6  C   UNL     1     -10.218   9.337  68.171  1.00  0.00    -0.246 A  
HETATM    7  C   UNL     1      -9.067  10.144  68.267  1.00  0.00    -0.122 A  
ENDROOT
BRANCH   7   8
HETATM    8  S   UNL     1      -8.533  11.142  66.873  1.00  0.00    -0.153 SA 
BRANCH   8   9
HETATM    9  S   UNL     1      -9.038  13.057  67.441  1.00  0.00    -0.211 SA 
BRANCH   9  10
HETATM   10  C   UNL     1     -10.294  13.548  66.256  1.00  0.00    -0.293 A  
HETATM   11  C   UNL     1     -11.426  12.738  66.041  1.00  0.00    -0.396 A  
HETATM   12  C   UNL     1     -12.451  13.153  65.191  1.00  0.00    -0.539 A  
HETATM   13  C   UNL     1     -12.366  14.381  64.550  1.00  0.00    -0.440 A  
HETATM   14  C   UNL     1     -11.245  15.180  64.764  1.00  0.00    -0.388 A  
HETATM   15  N   UNL     1     -10.208  14.788  65.607  1.00  0.00    -0.334 NA 
HETATM   16  O   UNL     1      -9.217  15.579  65.761  1.00  0.00    -0.317 OA 
ENDBRANCH   9  10
ENDBRANCH   8   9
ENDBRANCH   7   8
TORSDOF 3
ENDMDL
MODEL      181
REMARK 921   NORMALIZED FREE ENERGY PREDICTED BY IDOCK:   -3.80 KCAL/MOL
REMARK 922        TOTAL FREE ENERGY PREDICTED BY IDOCK:   -4.66 KCAL/MOL
REMARK 923 INTER-LIGAND FREE ENERGY PREDICTED BY IDOCK:   -4.48 KCAL/MOL
REMARK 924 INTRA-LIGAND FREE ENERGY PREDICTED BY IDOCK:   -0.18 KCAL/MOL
REMARK 927      BINDING AFFINITY PREDICTED BY RF-SCORE:    0.00 PKD
ROOT
HETATM    1  O   UNL     1      -8.163   8.088  66.483  1.00  0.00    -0.109 OA 
HETATM    2  N   UNL     1      -8.534   8.778  65.476  1.00  0.00    -0.155 NA 
HETATM    3  C   UNL     1      -8.121   8.378  64.207  1.00  0.00    -0.151 A  
HETATM    4  C   UNL     1      -8.490   9.067  63.055  1.00  0.00    -0.190 A  
HETATM    5  C   UNL     1      -9.297  10.190  63.170  1.00  0.00    -0.333 A  
HETATM    6  C   UNL     1      -9.727  10.612  64.429  1.00  0.00    -0.368 A  
HETATM    7  C   UNL     1      -9.344   9.918  65.594  1.00  0.00    -0.214 A  
ENDROOT
BRANCH   7   8
HETATM    8  S   UNL     1      -9.939  10.440  67.206  1.00  0.00    -0.196 SA 
BRANCH   8   9
HETATM    9  S   UNL     1     -11.407  11.811  66.748  1.00  0.00    -0.275 SA 
BRANCH   9  10
HETATM   10  C   UNL     1     -11.864  12.510  68.337  1.00  0.00    -0.304 A  
HETATM   11  C   UNL     1     -12.103  11.670  69.443  1.00  0.00    -0.328 A  
HETATM   12  C   UNL     1     -12.370  12.205  70.703  1.00  0.00    -0.385 A  
HETATM   13  C   UNL     1     -12.396  13.582  70.880  1.00  0.00    -0.437 A  
HETATM   14  C   UNL     1     -12.162  14.410  69.784  1.00  0.00    -0.321 A  
HETATM   15  N   UNL     1     -11.894  13.900  68.516  1.00  0.00    -0.351 NA 
HETATM   16  O   UNL     1     -11.678  14.722  67.563  1.00  0.00    -0.363 OA 
ENDBRANCH   9  10
ENDBRANCH   8   9
ENDBRANCH   7   8
TORSDOF 3
ENDMDL
MODEL      182
REMARK 921   NORMALIZED FREE ENERGY PREDICTED BY IDOCK:   -3.80 KCAL/MOL
REMARK 922        TOTAL FREE ENERGY PREDICTED BY IDOCK:   -4.66 KCAL/MOL
REMARK 923 INTER-LIGAND FREE ENERGY PREDICTED BY IDOCK:   -4.36 KCAL/MOL
REMARK 924 INTRA-LIGAND FREE ENERGY PREDICTED BY IDOCK:   -0.30 KCAL/MOL
REMARK 927      BINDING AFFINITY PREDICTED BY RF-SCORE:    0.00 PKD
ROOT
HETATM    1  O   UNL     1     -11.399   9.840  71.176  1.00  0.00    -0.344 OA 
HETATM    2  N   UNL     1     -11.082   8.713  70.666  1.00  0.00    -0.246 NA 
HETATM    3  C   UNL     1     -11.869   7.604  70.966  1.00  0.00    -0.285 A  
HETATM    4  C   UNL     1     -11.600   6.341  70.444  1.00  0.00    -0.371 A  
HETATM    5  C   UNL     1     -10.515   6.179  69.595  1.00  0.00    -0.312 A  
HETATM    6  C   UNL     1      -9.712   7.274  69.275  1.00  0.00    -0.161 A  
HETATM    7  C   UNL     1      -9.981   8.549  69.813  1.00  0.00    -0.191 A  
ENDROOT
BRANCH   7   8
HETATM    8  S   UNL     1      -8.970   9.963  69.361  1.00  0.00    -0.206 SA 
BRANCH   8   9
HETATM    9  S   UNL     1      -9.518  10.333  67.410  1.00  0.00    -0.154 SA 
BRANCH   9  10
HETATM   10  C   UNL     1     -10.489  11.840  67.506  1.00  0.00    -0.202 A  
HETATM   11  C   UNL     1     -10.778  12.423  68.756  1.00  0.00    -0.242 A  
HETATM   12  C   UNL     1     -11.453  13.640  68.838  1.00  0.00    -0.344 A  
HETATM   13  C   UNL     1     -11.843  14.296  67.679  1.00  0.00    -0.420 A  
HETATM   14  C   UNL     1     -11.557  13.717  66.445  1.00  0.00    -0.360 A  
HETATM   15  N   UNL     1     -10.885  12.502  66.336  1.00  0.00    -0.255 NA 
HETATM   16  O   UNL     1     -10.650  12.040  65.169  1.00  0.00    -0.268 OA 
ENDBRANCH   9  10
ENDBRANCH   8   9
ENDBRANCH   7   8
TORSDOF 3
ENDMDL
MODEL      183
REMARK 921   NORMALIZED FREE ENERGY PREDICTED BY IDOCK:   -3.80 KCAL/MOL
REMARK 922        TOTAL FREE ENERGY PREDICTED BY IDOCK:   -4.66 KCAL/MOL
REMARK 923 INTER-LIGAND FREE ENERGY PREDICTED BY IDOCK:   -4.29 KCAL/MOL
REMARK 924 INTRA-LIGAND FREE ENERGY PREDICTED BY IDOCK:   -0.36 KCAL/MOL
REMARK 927      BINDING AFFINITY PREDICTED BY RF-SCORE:    0.00 PKD
ROOT
HETATM    1  O   UNL     1      -6.517  19.131  69.630  1.00  0.00    -0.288 OA 
HETATM    2  N   UNL     1      -7.359  19.073  68.673  1.00  0.00    -0.306 NA 
HETATM    3  C   UNL     1      -7.768  20.262  68.074  1.00  0.00    -0.183 A  
HETATM    4  C   UNL     1      -8.674  20.288  67.017  1.00  0.00    -0.413 A  
HETATM    5  C   UNL     1      -9.188  19.090  66.540  1.00  0.00    -0.357 A  
HETATM    6  C   UNL     1      -8.793  17.884  67.120  1.00  0.00    -0.250 A  
HETATM    7  C   UNL     1      -7.883  17.862  68.195  1.00  0.00    -0.266 A  
ENDROOT
BRANCH   7   8
HETATM    8  S   UNL     1      -7.345  16.303  68.906  1.00  0.00    -0.209 SA 
BRANCH   8   9
HETATM    9  S   UNL     1      -8.065  14.903  67.578  1.00  0.00    -0.196 SA 
BRANCH   9  10
HETATM   10  C   UNL     1      -9.667  14.447  68.247  1.00  0.00    -0.222 A  
HETATM   11  C   UNL     1     -10.065  14.907  69.518  1.00  0.00    -0.120 A  
HETATM   12  C   UNL     1     -11.341  14.635  70.009  1.00  0.00    -0.288 A  
HETATM   13  C   UNL     1     -12.239  13.907  69.241  1.00  0.00    -0.319 A  
HETATM   14  C   UNL     1     -11.843  13.451  67.986  1.00  0.00    -0.357 A  
HETATM   15  N   UNL     1     -10.573  13.710  67.473  1.00  0.00    -0.240 NA 
HETATM   16  O   UNL     1     -10.286  13.268  66.309  1.00  0.00    -0.278 OA 
ENDBRANCH   9  10
ENDBRANCH   8   9
ENDBRANCH   7   8
TORSDOF 3
ENDMDL
MODEL      184
REMARK 921   NORMALIZED FREE ENERGY PREDICTED BY IDOCK:   -3.79 KCAL/MOL
REMARK 922        TOTAL FREE ENERGY PREDICTED BY IDOCK:   -4.65 KCAL/MOL
REMARK 923 INTER-LIGAND FREE ENERGY PREDICTED BY IDOCK:   -4.36 KCAL/MOL
REMARK 924 INTRA-LIGAND FREE ENERGY PREDICTED BY IDOCK:   -0.29 KCAL/MOL
REMARK 927      BINDING AFFINITY PREDICTED BY RF-SCORE:    0.00 PKD
ROOT
HETATM    1  O   UNL     1      -7.896  12.851  67.373  1.00  0.00    -0.165 OA 
HETATM    2  N   UNL     1      -9.009  12.232  67.466  1.00  0.00    -0.172 NA 
HETATM    3  C   UNL     1      -9.106  11.172  68.364  1.00  0.00    -0.168 A  
HETATM    4  C   UNL     1     -10.285  10.451  68.534  1.00  0.00    -0.191 A  
HETATM    5  C   UNL     1     -11.402  10.797  67.788  1.00  0.00    -0.354 A  
HETATM    6  C   UNL     1     -11.332  11.857  66.882  1.00  0.00    -0.392 A  
HETATM    7  C   UNL     1     -10.135  12.579  66.705  1.00  0.00    -0.230 A  
ENDROOT
BRANCH   7   8
HETATM    8  S   UNL     1     -10.066  13.970  65.571  1.00  0.00    -0.296 SA 
BRANCH   8   9
HETATM    9  S   UNL     1     -10.752  15.544  66.709  1.00  0.00    -0.287 SA 
BRANCH   9  10
HETATM   10  C   UNL     1      -9.407  16.731  66.670  1.00  0.00    -0.254 A  
HETATM   11  C   UNL     1      -8.075  16.296  66.532  1.00  0.00    -0.337 A  
HETATM   12  C   UNL     1      -7.032  17.212  66.409  1.00  0.00    -0.296 A  
HETATM   13  C   UNL     1      -7.300  18.574  66.416  1.00  0.00    -0.277 A  
HETATM   14  C   UNL     1      -8.619  19.003  66.555  1.00  0.00    -0.311 A  
HETATM   15  N   UNL     1      -9.678  18.107  66.680  1.00  0.00    -0.319 NA 
HETATM   16  O   UNL     1     -10.861  18.576  66.792  1.00  0.00    -0.315 OA 
ENDBRANCH   9  10
ENDBRANCH   8   9
ENDBRANCH   7   8
TORSDOF 3
ENDMDL
MODEL      185
REMARK 921   NORMALIZED FREE ENERGY PREDICTED BY IDOCK:   -3.77 KCAL/MOL
REMARK 922        TOTAL FREE ENERGY PREDICTED BY IDOCK:   -4.63 KCAL/MOL
REMARK 923 INTER-LIGAND FREE ENERGY PREDICTED BY IDOCK:   -4.45 KCAL/MOL
REMARK 924 INTRA-LIGAND FREE ENERGY PREDICTED BY IDOCK:   -0.18 KCAL/MOL
REMARK 927      BINDING AFFINITY PREDICTED BY RF-SCORE:    0.00 PKD
ROOT
HETATM    1  O   UNL     1     -10.564  18.121  65.286  1.00  0.00    -0.591 OA 
HETATM    2  N   UNL     1      -9.648  18.260  66.164  1.00  0.00    -0.498 NA 
HETATM    3  C   UNL     1      -9.105  19.527  66.363  1.00  0.00    -0.370 A  
HETATM    4  C   UNL     1      -8.110  19.768  67.308  1.00  0.00    -0.327 A  
HETATM    5  C   UNL     1      -7.643  18.714  68.079  1.00  0.00    -0.279 A  
HETATM    6  C   UNL     1      -8.172  17.434  67.902  1.00  0.00    -0.225 A  
HETATM    7  C   UNL     1      -9.171  17.192  66.939  1.00  0.00    -0.241 A  
ENDROOT
BRANCH   7   8
HETATM    8  S   UNL     1      -9.878  15.552  66.748  1.00  0.00    -0.251 SA 
BRANCH   8   9
HETATM    9  S   UNL     1      -8.337  14.303  67.304  1.00  0.00    -0.187 SA 
BRANCH   9  10
HETATM   10  C   UNL     1      -9.007  12.654  67.077  1.00  0.00    -0.216 A  
HETATM   11  C   UNL     1     -10.400  12.443  67.078  1.00  0.00    -0.235 A  
HETATM   12  C   UNL     1     -10.933  11.183  66.812  1.00  0.00    -0.309 A  
HETATM   13  C   UNL     1     -10.088  10.116  66.537  1.00  0.00    -0.296 A  
HETATM   14  C   UNL     1      -8.711  10.326  66.539  1.00  0.00    -0.131 A  
HETATM   15  N   UNL     1      -8.154  11.576  66.801  1.00  0.00    -0.160 NA 
HETATM   16  O   UNL     1      -6.882  11.692  66.774  1.00  0.00    -0.137 OA 
ENDBRANCH   9  10
ENDBRANCH   8   9
ENDBRANCH   7   8
TORSDOF 3
ENDMDL
MODEL      186
REMARK 921   NORMALIZED FREE ENERGY PREDICTED BY IDOCK:   -3.76 KCAL/MOL
REMARK 922        TOTAL FREE ENERGY PREDICTED BY IDOCK:   -4.61 KCAL/MOL
REMARK 923 INTER-LIGAND FREE ENERGY PREDICTED BY IDOCK:   -4.47 KCAL/MOL
REMARK 924 INTRA-LIGAND FREE ENERGY PREDICTED BY IDOCK:   -0.15 KCAL/MOL
REMARK 927      BINDING AFFINITY PREDICTED BY RF-SCORE:    0.00 PKD
ROOT
HETATM    1  O   UNL     1     -12.277  11.149  68.316  1.00  0.00    -0.613 OA 
HETATM    2  N   UNL     1     -11.055  11.460  68.121  1.00  0.00    -0.227 NA 
HETATM    3  C   UNL     1     -10.765  12.717  67.594  1.00  0.00    -0.218 A  
HETATM    4  C   UNL     1      -9.459  13.140  67.360  1.00  0.00    -0.214 A  
HETATM    5  C   UNL     1      -8.409  12.286  67.663  1.00  0.00    -0.166 A  
HETATM    6  C   UNL     1      -8.671  11.022  68.195  1.00  0.00    -0.141 A  
HETATM    7  C   UNL     1      -9.993  10.593  68.421  1.00  0.00    -0.163 A  
ENDROOT
BRANCH   7   8
HETATM    8  S   UNL     1     -10.320   8.984  69.147  1.00  0.00    -0.219 SA 
BRANCH   8   9
HETATM    9  S   UNL     1     -11.103   9.448  70.996  1.00  0.00    -0.375 SA 
BRANCH   9  10
HETATM   10  C   UNL     1     -10.811   7.974  71.978  1.00  0.00    -0.272 A  
HETATM   11  C   UNL     1      -9.836   7.977  72.995  1.00  0.00    -0.352 A  
HETATM   12  C   UNL     1      -9.663   6.868  73.823  1.00  0.00    -0.286 A  
HETATM   13  C   UNL     1     -10.462   5.746  73.654  1.00  0.00    -0.286 A  
HETATM   14  C   UNL     1     -11.424   5.745  72.647  1.00  0.00    -0.287 A  
HETATM   15  N   UNL     1     -11.615   6.839  71.806  1.00  0.00    -0.281 NA 
HETATM   16  O   UNL     1     -12.525   6.768  70.912  1.00  0.00    -0.364 OA 
ENDBRANCH   9  10
ENDBRANCH   8   9
ENDBRANCH   7   8
TORSDOF 3
ENDMDL
MODEL      187
REMARK 921   NORMALIZED FREE ENERGY PREDICTED BY IDOCK:   -3.76 KCAL/MOL
REMARK 922        TOTAL FREE ENERGY PREDICTED BY IDOCK:   -4.61 KCAL/MOL
REMARK 923 INTER-LIGAND FREE ENERGY PREDICTED BY IDOCK:   -4.07 KCAL/MOL
REMARK 924 INTRA-LIGAND FREE ENERGY PREDICTED BY IDOCK:   -0.54 KCAL/MOL
REMARK 927      BINDING AFFINITY PREDICTED BY RF-SCORE:    0.00 PKD
ROOT
HETATM    1  O   UNL     1      -9.679   9.078  69.505  1.00  0.00    -0.164 OA 
HETATM    2  N   UNL     1     -10.678   8.688  70.198  1.00  0.00    -0.232 NA 
HETATM    3  C   UNL     1     -11.334   9.619  71.001  1.00  0.00    -0.374 A  
HETATM    4  C   UNL     1     -12.437   9.280  71.780  1.00  0.00    -0.458 A  
HETATM    5  C   UNL     1     -12.903   7.973  71.757  1.00  0.00    -0.353 A  
HETATM    6  C   UNL     1     -12.266   7.021  70.960  1.00  0.00    -0.419 A  
HETATM    7  C   UNL     1     -11.144   7.365  70.180  1.00  0.00    -0.246 A  
ENDROOT
BRANCH   7   8
HETATM    8  S   UNL     1     -10.358   6.145  69.122  1.00  0.00    -0.246 SA 
BRANCH   8   9
HETATM    9  S   UNL     1      -8.775   5.481  70.260  1.00  0.00    -0.131 SA 
BRANCH   9  10
HETATM   10  C   UNL     1      -9.501   5.139  71.865  1.00  0.00    -0.147 A  
HETATM   11  C   UNL     1     -10.119   3.899  72.118  1.00  0.00    -0.225 A  
HETATM   12  C   UNL     1     -10.606   3.588  73.387  1.00  0.00    -0.282 A  
HETATM   13  C   UNL     1     -10.479   4.504  74.422  1.00  0.00    -0.318 A  
HETATM   14  C   UNL     1      -9.870   5.731  74.169  1.00  0.00    -0.206 A  
HETATM   15  N   UNL     1      -9.376   6.065  72.910  1.00  0.00    -0.147 NA 
HETATM   16  O   UNL     1      -8.820   7.205  72.758  1.00  0.00    -0.121 OA 
ENDBRANCH   9  10
ENDBRANCH   8   9
ENDBRANCH   7   8
TORSDOF 3
ENDMDL
MODEL      188
REMARK 921   NORMALIZED FREE ENERGY PREDICTED BY IDOCK:   -3.73 KCAL/MOL
REMARK 922        TOTAL FREE ENERGY PREDICTED BY IDOCK:   -4.57 KCAL/MOL
REMARK 923 INTER-LIGAND FREE ENERGY PREDICTED BY IDOCK:   -4.09 KCAL/MOL
REMARK 924 INTRA-LIGAND FREE ENERGY PREDICTED BY IDOCK:   -0.49 KCAL/MOL
REMARK 927      BINDING AFFINITY PREDICTED BY RF-SCORE:    0.00 PKD
ROOT
HETATM    1  O   UNL     1     -11.800  10.711  68.133  1.00  0.00    -0.482 OA 
HETATM    2  N   UNL     1     -11.932  11.869  68.652  1.00  0.00    -0.376 NA 
HETATM    3  C   UNL     1     -12.003  11.972  70.040  1.00  0.00    -0.324 A  
HETATM    4  C   UNL     1     -12.136  13.198  70.687  1.00  0.00    -0.346 A  
HETATM    5  C   UNL     1     -12.198  14.358  69.929  1.00  0.00    -0.394 A  
HETATM    6  C   UNL     1     -12.127  14.284  68.537  1.00  0.00    -0.295 A  
HETATM    7  C   UNL     1     -12.002  13.042  67.885  1.00  0.00    -0.291 A  
ENDROOT
BRANCH   7   8
HETATM    8  S   UNL     1     -11.866  12.958  66.096  1.00  0.00    -0.436 SA 
BRANCH   8   9
HETATM    9  S   UNL     1      -9.883  13.398  65.751  1.00  0.00    -0.141 SA 
BRANCH   9  10
HETATM   10  C   UNL     1      -8.989  12.157  66.691  1.00  0.00    -0.198 A  
HETATM   11  C   UNL     1      -8.908  10.831  66.224  1.00  0.00    -0.182 A  
HETATM   12  C   UNL     1      -8.141   9.881  66.898  1.00  0.00    -0.113 A  
HETATM   13  C   UNL     1      -7.442  10.239  68.042  1.00  0.00    -0.087 A  
HETATM   14  C   UNL     1      -7.525  11.551  68.503  1.00  0.00    -0.115 A  
HETATM   15  N   UNL     1      -8.284  12.518  67.848  1.00  0.00    -0.153 NA 
HETATM   16  O   UNL     1      -8.303  13.703  68.325  1.00  0.00    -0.155 OA 
ENDBRANCH   9  10
ENDBRANCH   8   9
ENDBRANCH   7   8
TORSDOF 3
ENDMDL
MODEL      189
REMARK 921   NORMALIZED FREE ENERGY PREDICTED BY IDOCK:   -3.71 KCAL/MOL
REMARK 922        TOTAL FREE ENERGY PREDICTED BY IDOCK:   -4.56 KCAL/MOL
REMARK 923 INTER-LIGAND FREE ENERGY PREDICTED BY IDOCK:   -4.36 KCAL/MOL
REMARK 924 INTRA-LIGAND FREE ENERGY PREDICTED BY IDOCK:   -0.20 KCAL/MOL
REMARK 927      BINDING AFFINITY PREDICTED BY RF-SCORE:    0.00 PKD
ROOT
HETATM    1  O   UNL     1      -9.331  15.289  69.726  1.00  0.00    -0.216 OA 
HETATM    2  N   UNL     1      -9.593  15.383  68.480  1.00  0.00    -0.196 NA 
HETATM    3  C   UNL     1     -10.905  15.647  68.095  1.00  0.00    -0.301 A  
HETATM    4  C   UNL     1     -11.274  15.776  66.758  1.00  0.00    -0.021 A  
HETATM    5  C   UNL     1     -10.305  15.639  65.775  1.00  0.00    -0.386 A  
HETATM    6  C   UNL     1      -8.981  15.377  66.133  1.00  0.00    -0.294 A  
HETATM    7  C   UNL     1      -8.613  15.238  67.486  1.00  0.00    -0.177 A  
ENDROOT
BRANCH   7   8
HETATM    8  S   UNL     1      -6.901  14.947  67.942  1.00  0.00    -0.171 SA 
BRANCH   8   9
HETATM    9  S   UNL     1      -5.937  16.638  67.269  1.00  0.00    -0.165 SA 
BRANCH   9  10
HETATM   10  C   UNL     1      -7.200  17.912  67.318  1.00  0.00    -0.184 A  
HETATM   11  C   UNL     1      -7.839  18.236  68.531  1.00  0.00    -0.313 A  
HETATM   12  C   UNL     1      -8.756  19.284  68.599  1.00  0.00    -0.402 A  
HETATM   13  C   UNL     1      -9.045  20.027  67.463  1.00  0.00    -0.457 A  
HETATM   14  C   UNL     1      -8.414  19.703  66.264  1.00  0.00    -0.360 A  
HETATM   15  N   UNL     1      -7.495  18.661  66.170  1.00  0.00    -0.305 NA 
HETATM   16  O   UNL     1      -6.949  18.431  65.039  1.00  0.00    -0.411 OA 
ENDBRANCH   9  10
ENDBRANCH   8   9
ENDBRANCH   7   8
TORSDOF 3
ENDMDL
MODEL      190
REMARK 921   NORMALIZED FREE ENERGY PREDICTED BY IDOCK:   -3.70 KCAL/MOL
REMARK 922        TOTAL FREE ENERGY PREDICTED BY IDOCK:   -4.54 KCAL/MOL
REMARK 923 INTER-LIGAND FREE ENERGY PREDICTED BY IDOCK:   -4.23 KCAL/MOL
REMARK 924 INTRA-LIGAND FREE ENERGY PREDICTED BY IDOCK:   -0.32 KCAL/MOL
REMARK 927      BINDING AFFINITY PREDICTED BY RF-SCORE:    0.00 PKD
ROOT
HETATM    1  O   UNL     1     -11.487  11.922  69.219  1.00  0.00    -0.262 OA 
HETATM    2  N   UNL     1     -11.697  11.037  70.115  1.00  0.00    -0.328 NA 
HETATM    3  C   UNL     1     -12.873  11.109  70.857  1.00  0.00    -0.282 A  
HETATM    4  C   UNL     1     -13.184  10.179  71.845  1.00  0.00    -0.557 A  
HETATM    5  C   UNL     1     -12.297   9.144  72.102  1.00  0.00    -0.424 A  
HETATM    6  C   UNL     1     -11.111   9.047  71.371  1.00  0.00    -0.399 A  
HETATM    7  C   UNL     1     -10.795   9.995  70.378  1.00  0.00    -0.318 A  
ENDROOT
BRANCH   7   8
HETATM    8  S   UNL     1      -9.290   9.838  69.411  1.00  0.00    -0.215 SA 
BRANCH   8   9
HETATM    9  S   UNL     1      -8.681   7.907  69.791  1.00  0.00    -0.138 SA 
BRANCH   9  10
HETATM   10  C   UNL     1      -9.149   7.002  68.314  1.00  0.00    -0.126 A  
HETATM   11  C   UNL     1      -8.272   6.930  67.214  1.00  0.00    -0.118 A  
HETATM   12  C   UNL     1      -8.586   6.155  66.098  1.00  0.00    -0.141 A  
HETATM   13  C   UNL     1      -9.773   5.437  66.064  1.00  0.00    -0.134 A  
HETATM   14  C   UNL     1     -10.640   5.511  67.152  1.00  0.00    -0.240 A  
HETATM   15  N   UNL     1     -10.350   6.278  68.278  1.00  0.00    -0.172 NA 
HETATM   16  O   UNL     1     -11.189   6.287  69.241  1.00  0.00    -0.372 OA 
ENDBRANCH   9  10
ENDBRANCH   8   9
ENDBRANCH   7   8
TORSDOF 3
ENDMDL
MODEL      191
REMARK 921   NORMALIZED FREE ENERGY PREDICTED BY IDOCK:   -3.70 KCAL/MOL
REMARK 922        TOTAL FREE ENERGY PREDICTED BY IDOCK:   -4.54 KCAL/MOL
REMARK 923 INTER-LIGAND FREE ENERGY PREDICTED BY IDOCK:   -4.17 KCAL/MOL
REMARK 924 INTRA-LIGAND FREE ENERGY PREDICTED BY IDOCK:   -0.36 KCAL/MOL
REMARK 927      BINDING AFFINITY PREDICTED BY RF-SCORE:    0.00 PKD
ROOT
HETATM    1  O   UNL     1     -12.528  13.609  71.330  1.00  0.00    -0.352 OA 
HETATM    2  N   UNL     1     -12.155  13.994  70.171  1.00  0.00    -0.330 NA 
HETATM    3  C   UNL     1     -11.956  15.356  69.955  1.00  0.00    -0.359 A  
HETATM    4  C   UNL     1     -11.539  15.858  68.725  1.00  0.00    -0.389 A  
HETATM    5  C   UNL     1     -11.312  14.977  67.678  1.00  0.00    -0.342 A  
HETATM    6  C   UNL     1     -11.501  13.607  67.868  1.00  0.00    -0.348 A  
HETATM    7  C   UNL     1     -11.932  13.102  69.111  1.00  0.00    -0.281 A  
ENDROOT
BRANCH   7   8
HETATM    8  S   UNL     1     -12.129  11.335  69.361  1.00  0.00    -0.268 SA 
BRANCH   8   9
HETATM    9  S   UNL     1     -10.188  10.645  69.417  1.00  0.00    -0.150 SA 
BRANCH   9  10
HETATM   10  C   UNL     1      -9.847  10.159  67.724  1.00  0.00    -0.163 A  
HETATM   11  C   UNL     1      -9.239  11.063  66.831  1.00  0.00    -0.168 A  
HETATM   12  C   UNL     1      -8.887  10.667  65.541  1.00  0.00    -0.202 A  
HETATM   13  C   UNL     1      -9.129   9.366  65.125  1.00  0.00    -0.280 A  
HETATM   14  C   UNL     1      -9.732   8.473  66.009  1.00  0.00    -0.125 A  
HETATM   15  N   UNL     1     -10.094   8.845  67.302  1.00  0.00    -0.217 NA 
HETATM   16  O   UNL     1     -10.633   7.967  68.058  1.00  0.00    -0.200 OA 
ENDBRANCH   9  10
ENDBRANCH   8   9
ENDBRANCH   7   8
TORSDOF 3
ENDMDL
MODEL      192
REMARK 921   NORMALIZED FREE ENERGY PREDICTED BY IDOCK:   -3.68 KCAL/MOL
REMARK 922        TOTAL FREE ENERGY PREDICTED BY IDOCK:   -4.52 KCAL/MOL
REMARK 923 INTER-LIGAND FREE ENERGY PREDICTED BY IDOCK:   -4.31 KCAL/MOL
REMARK 924 INTRA-LIGAND FREE ENERGY PREDICTED BY IDOCK:   -0.21 KCAL/MOL
REMARK 927      BINDING AFFINITY PREDICTED BY RF-SCORE:    0.00 PKD
ROOT
HETATM    1  O   UNL     1     -12.720  13.462  66.130  1.00  0.00    -0.304 OA 
HETATM    2  N   UNL     1     -11.602  14.074  66.200  1.00  0.00    -0.353 NA 
HETATM    3  C   UNL     1     -11.370  15.136  65.329  1.00  0.00    -0.318 A  
HETATM    4  C   UNL     1     -10.183  15.863  65.347  1.00  0.00    -0.354 A  
HETATM    5  C   UNL     1      -9.196  15.523  66.261  1.00  0.00    -0.364 A  
HETATM    6  C   UNL     1      -9.404  14.464  67.147  1.00  0.00    -0.226 A  
HETATM    7  C   UNL     1     -10.602  13.724  67.121  1.00  0.00    -0.277 A  
ENDROOT
BRANCH   7   8
HETATM    8  S   UNL     1     -10.881  12.393  68.293  1.00  0.00    -0.249 SA 
BRANCH   8   9
HETATM    9  S   UNL     1      -9.345  11.080  67.893  1.00  0.00    -0.163 SA 
BRANCH   9  10
HETATM   10  C   UNL     1      -9.729   9.640  68.893  1.00  0.00    -0.162 A  
HETATM   11  C   UNL     1      -9.561   9.678  70.291  1.00  0.00    -0.307 A  
HETATM   12  C   UNL     1      -9.941   8.598  71.087  1.00  0.00    -0.289 A  
HETATM   13  C   UNL     1     -10.497   7.468  70.503  1.00  0.00    -0.224 A  
HETATM   14  C   UNL     1     -10.660   7.432  69.120  1.00  0.00    -0.204 A  
HETATM   15  N   UNL     1     -10.288   8.497  68.304  1.00  0.00    -0.209 NA 
HETATM   16  O   UNL     1     -10.479   8.394  67.045  1.00  0.00    -0.307 OA 
ENDBRANCH   9  10
ENDBRANCH   8   9
ENDBRANCH   7   8
TORSDOF 3
ENDMDL
MODEL      193
REMARK 921   NORMALIZED FREE ENERGY PREDICTED BY IDOCK:   -3.66 KCAL/MOL
REMARK 922        TOTAL FREE ENERGY PREDICTED BY IDOCK:   -4.50 KCAL/MOL
REMARK 923 INTER-LIGAND FREE ENERGY PREDICTED BY IDOCK:   -4.17 KCAL/MOL
REMARK 924 INTRA-LIGAND FREE ENERGY PREDICTED BY IDOCK:   -0.34 KCAL/MOL
REMARK 927      BINDING AFFINITY PREDICTED BY RF-SCORE:    0.00 PKD
ROOT
HETATM    1  O   UNL     1      -9.603  14.752  65.917  1.00  0.00    -0.309 OA 
HETATM    2  N   UNL     1     -10.354  13.987  65.223  1.00  0.00    -0.364 NA 
HETATM    3  C   UNL     1     -11.393  14.560  64.494  1.00  0.00    -0.316 A  
HETATM    4  C   UNL     1     -12.251  13.800  63.703  1.00  0.00    -0.311 A  
HETATM    5  C   UNL     1     -12.066  12.427  63.635  1.00  0.00    -0.648 A  
HETATM    6  C   UNL     1     -11.031  11.827  64.354  1.00  0.00    -0.397 A  
HETATM    7  C   UNL     1     -10.171  12.598  65.161  1.00  0.00    -0.280 A  
ENDROOT
BRANCH   7   8
HETATM    8  S   UNL     1      -8.813  11.825  66.046  1.00  0.00     0.020 SA 
BRANCH   8   9
HETATM    9  S   UNL     1      -8.360  10.186  64.884  1.00  0.00    -0.169 SA 
BRANCH   9  10
HETATM   10  C   UNL     1      -8.891   8.787  65.875  1.00  0.00    -0.186 A  
HETATM   11  C   UNL     1     -10.033   8.885  66.693  1.00  0.00    -0.346 A  
HETATM   12  C   UNL     1     -10.506   7.778  67.397  1.00  0.00    -0.362 A  
HETATM   13  C   UNL     1      -9.853   6.558  67.291  1.00  0.00    -0.175 A  
HETATM   14  C   UNL     1      -8.722   6.463  66.483  1.00  0.00    -0.133 A  
HETATM   15  N   UNL     1      -8.229   7.555  65.771  1.00  0.00    -0.130 NA 
HETATM   16  O   UNL     1      -7.194   7.388  65.042  1.00  0.00    -0.061 OA 
ENDBRANCH   9  10
ENDBRANCH   8   9
ENDBRANCH   7   8
TORSDOF 3
ENDMDL
MODEL      194
REMARK 921   NORMALIZED FREE ENERGY PREDICTED BY IDOCK:   -3.66 KCAL/MOL
REMARK 922        TOTAL FREE ENERGY PREDICTED BY IDOCK:   -4.49 KCAL/MOL
REMARK 923 INTER-LIGAND FREE ENERGY PREDICTED BY IDOCK:   -4.18 KCAL/MOL
REMARK 924 INTRA-LIGAND FREE ENERGY PREDICTED BY IDOCK:   -0.31 KCAL/MOL
REMARK 927      BINDING AFFINITY PREDICTED BY RF-SCORE:    0.00 PKD
ROOT
HETATM    1  O   UNL     1      -7.327   9.979  64.317  1.00  0.00    -0.131 OA 
HETATM    2  N   UNL     1      -7.864   9.118  65.090  1.00  0.00    -0.103 NA 
HETATM    3  C   UNL     1      -7.896   7.786  64.683  1.00  0.00    -0.130 A  
HETATM    4  C   UNL     1      -8.454   6.782  65.470  1.00  0.00    -0.124 A  
HETATM    5  C   UNL     1      -8.996   7.115  66.704  1.00  0.00    -0.164 A  
HETATM    6  C   UNL     1      -8.975   8.442  67.138  1.00  0.00    -0.153 A  
HETATM    7  C   UNL     1      -8.418   9.456  66.334  1.00  0.00    -0.126 A  
ENDROOT
BRANCH   7   8
HETATM    8  S   UNL     1      -8.354  11.153  66.919  1.00  0.00    -0.152 SA 
BRANCH   8   9
HETATM    9  S   UNL     1     -10.318  11.571  67.380  1.00  0.00    -0.213 SA 
BRANCH   9  10
HETATM   10  C   UNL     1     -10.975  12.299  65.878  1.00  0.00    -0.302 A  
HETATM   11  C   UNL     1     -10.675  11.736  64.622  1.00  0.00    -0.363 A  
HETATM   12  C   UNL     1     -11.252  12.239  63.456  1.00  0.00    -0.535 A  
HETATM   13  C   UNL     1     -12.140  13.304  63.525  1.00  0.00    -0.550 A  
HETATM   14  C   UNL     1     -12.434  13.860  64.768  1.00  0.00    -0.354 A  
HETATM   15  N   UNL     1     -11.870  13.377  65.947  1.00  0.00    -0.357 NA 
HETATM   16  O   UNL     1     -12.196  13.932  67.050  1.00  0.00    -0.421 OA 
ENDBRANCH   9  10
ENDBRANCH   8   9
ENDBRANCH   7   8
TORSDOF 3
ENDMDL
MODEL      195
REMARK 921   NORMALIZED FREE ENERGY PREDICTED BY IDOCK:   -3.65 KCAL/MOL
REMARK 922        TOTAL FREE ENERGY PREDICTED BY IDOCK:   -4.48 KCAL/MOL
REMARK 923 INTER-LIGAND FREE ENERGY PREDICTED BY IDOCK:   -4.04 KCAL/MOL
REMARK 924 INTRA-LIGAND FREE ENERGY PREDICTED BY IDOCK:   -0.44 KCAL/MOL
REMARK 927      BINDING AFFINITY PREDICTED BY RF-SCORE:    0.00 PKD
ROOT
HETATM    1  O   UNL     1      -9.106   5.363  70.288  1.00  0.00    -0.131 OA 
HETATM    2  N   UNL     1      -9.385   6.002  69.219  1.00  0.00    -0.132 NA 
HETATM    3  C   UNL     1     -10.482   5.591  68.465  1.00  0.00    -0.164 A  
HETATM    4  C   UNL     1     -10.861   6.239  67.293  1.00  0.00    -0.457 A  
HETATM    5  C   UNL     1     -10.126   7.333  66.858  1.00  0.00    -0.317 A  
HETATM    6  C   UNL     1      -9.024   7.768  67.596  1.00  0.00    -0.128 A  
HETATM    7  C   UNL     1      -8.637   7.104  68.776  1.00  0.00    -0.125 A  
ENDROOT
BRANCH   7   8
HETATM    8  S   UNL     1      -7.245   7.698  69.744  1.00  0.00    -0.081 SA 
BRANCH   8   9
HETATM    9  S   UNL     1      -7.947   9.457  70.554  1.00  0.00    -0.157 SA 
BRANCH   9  10
HETATM   10  C   UNL     1      -9.510   8.999  71.308  1.00  0.00    -0.269 A  
HETATM   11  C   UNL     1      -9.549   8.045  72.344  1.00  0.00    -0.297 A  
HETATM   12  C   UNL     1     -10.744   7.749  72.998  1.00  0.00    -0.446 A  
HETATM   13  C   UNL     1     -11.914   8.401  72.635  1.00  0.00    -0.346 A  
HETATM   14  C   UNL     1     -11.873   9.343  71.610  1.00  0.00    -0.394 A  
HETATM   15  N   UNL     1     -10.692   9.656  70.940  1.00  0.00    -0.324 NA 
HETATM   16  O   UNL     1     -10.732  10.539  70.018  1.00  0.00    -0.276 OA 
ENDBRANCH   9  10
ENDBRANCH   8   9
ENDBRANCH   7   8
TORSDOF 3
ENDMDL
MODEL      196
REMARK 921   NORMALIZED FREE ENERGY PREDICTED BY IDOCK:   -3.64 KCAL/MOL
REMARK 922        TOTAL FREE ENERGY PREDICTED BY IDOCK:   -4.47 KCAL/MOL
REMARK 923 INTER-LIGAND FREE ENERGY PREDICTED BY IDOCK:   -4.13 KCAL/MOL
REMARK 924 INTRA-LIGAND FREE ENERGY PREDICTED BY IDOCK:   -0.34 KCAL/MOL
REMARK 927      BINDING AFFINITY PREDICTED BY RF-SCORE:    0.00 PKD
ROOT
HETATM    1  O   UNL     1     -10.582  16.604  67.976  1.00  0.00    -0.311 OA 
HETATM    2  N   UNL     1     -10.147  17.751  67.622  1.00  0.00    -0.326 NA 
HETATM    3  C   UNL     1     -10.902  18.877  67.944  1.00  0.00    -0.197 A  
HETATM    4  C   UNL     1     -10.494  20.164  67.604  1.00  0.00    -0.408 A  
HETATM    5  C   UNL     1      -9.297  20.336  66.924  1.00  0.00    -0.505 A  
HETATM    6  C   UNL     1      -8.520  19.226  66.592  1.00  0.00    -0.329 A  
HETATM    7  C   UNL     1      -8.939  17.923  66.928  1.00  0.00    -0.257 A  
ENDROOT
BRANCH   7   8
HETATM    8  S   UNL     1      -7.912  16.503  66.537  1.00  0.00    -0.314 SA 
BRANCH   8   9
HETATM    9  S   UNL     1      -6.011  17.295  66.476  1.00  0.00    -0.192 SA 
BRANCH   9  10
HETATM   10  C   UNL     1      -5.635  17.662  68.192  1.00  0.00    -0.151 A  
HETATM   11  C   UNL     1      -5.572  18.996  68.639  1.00  0.00    -0.205 A  
HETATM   12  C   UNL     1      -5.370  19.292  69.986  1.00  0.00    -0.226 A  
HETATM   13  C   UNL     1      -5.234  18.263  70.908  1.00  0.00    -0.275 A  
HETATM   14  C   UNL     1      -5.294  16.944  70.465  1.00  0.00    -0.213 A  
HETATM   15  N   UNL     1      -5.494  16.623  69.124  1.00  0.00    -0.132 NA 
HETATM   16  O   UNL     1      -5.549  15.390  68.795  1.00  0.00    -0.090 OA 
ENDBRANCH   9  10
ENDBRANCH   8   9
ENDBRANCH   7   8
TORSDOF 3
ENDMDL
MODEL      197
REMARK 921   NORMALIZED FREE ENERGY PREDICTED BY IDOCK:   -3.64 KCAL/MOL
REMARK 922        TOTAL FREE ENERGY PREDICTED BY IDOCK:   -4.47 KCAL/MOL
REMARK 923 INTER-LIGAND FREE ENERGY PREDICTED BY IDOCK:   -4.13 KCAL/MOL
REMARK 924 INTRA-LIGAND FREE ENERGY PREDICTED BY IDOCK:   -0.34 KCAL/MOL
REMARK 927      BINDING AFFINITY PREDICTED BY RF-SCORE:    0.00 PKD
ROOT
HETATM    1  O   UNL     1     -11.137  14.789  68.306  1.00  0.00    -0.255 OA 
HETATM    2  N   UNL     1      -9.881  14.879  68.097  1.00  0.00    -0.215 NA 
HETATM    3  C   UNL     1      -9.326  16.144  67.915  1.00  0.00    -0.212 A  
HETATM    4  C   UNL     1      -7.964  16.332  67.693  1.00  0.00    -0.160 A  
HETATM    5  C   UNL     1      -7.129  15.226  67.650  1.00  0.00    -0.206 A  
HETATM    6  C   UNL     1      -7.658  13.947  67.831  1.00  0.00    -0.158 A  
HETATM    7  C   UNL     1      -9.037  13.759  68.047  1.00  0.00    -0.191 A  
ENDROOT
BRANCH   7   8
HETATM    8  S   UNL     1      -9.704  12.115  68.324  1.00  0.00    -0.202 SA 
BRANCH   8   9
HETATM    9  S   UNL     1      -9.082  11.065  66.664  1.00  0.00    -0.171 SA 
BRANCH   9  10
HETATM   10  C   UNL     1     -10.334  11.421  65.427  1.00  0.00    -0.279 A  
HETATM   11  C   UNL     1     -11.529  12.071  65.790  1.00  0.00    -0.377 A  
HETATM   12  C   UNL     1     -12.468  12.434  64.824  1.00  0.00    -0.480 A  
HETATM   13  C   UNL     1     -12.227  12.159  63.486  1.00  0.00    -0.670 A  
HETATM   14  C   UNL     1     -11.044  11.513  63.129  1.00  0.00    -0.061 A  
HETATM   15  N   UNL     1     -10.092  11.141  64.075  1.00  0.00    -0.304 NA 
HETATM   16  O   UNL     1      -9.027  10.563  63.671  1.00  0.00    -0.187 OA 
ENDBRANCH   9  10
ENDBRANCH   8   9
ENDBRANCH   7   8
TORSDOF 3
ENDMDL
MODEL      198
REMARK 921   NORMALIZED FREE ENERGY PREDICTED BY IDOCK:   -3.64 KCAL/MOL
REMARK 922        TOTAL FREE ENERGY PREDICTED BY IDOCK:   -4.47 KCAL/MOL
REMARK 923 INTER-LIGAND FREE ENERGY PREDICTED BY IDOCK:   -4.09 KCAL/MOL
REMARK 924 INTRA-LIGAND FREE ENERGY PREDICTED BY IDOCK:   -0.39 KCAL/MOL
REMARK 927      BINDING AFFINITY PREDICTED BY RF-SCORE:    0.00 PKD
ROOT
HETATM    1  O   UNL     1      -6.818  12.373  67.544  1.00  0.00    -0.114 OA 
HETATM    2  N   UNL     1      -7.989  12.627  67.105  1.00  0.00    -0.155 NA 
HETATM    3  C   UNL     1      -8.616  11.680  66.298  1.00  0.00    -0.103 A  
HETATM    4  C   UNL     1      -9.896  11.873  65.786  1.00  0.00    -0.262 A  
HETATM    5  C   UNL     1     -10.574  13.045  66.089  1.00  0.00    -0.289 A  
HETATM    6  C   UNL     1      -9.971  14.009  66.898  1.00  0.00    -0.263 A  
HETATM    7  C   UNL     1      -8.671  13.815  67.406  1.00  0.00    -0.207 A  
ENDROOT
BRANCH   7   8
HETATM    8  S   UNL     1      -7.919  15.040  68.483  1.00  0.00    -0.153 SA 
BRANCH   8   9
HETATM    9  S   UNL     1      -7.042  16.356  67.163  1.00  0.00    -0.218 SA 
BRANCH   9  10
HETATM   10  C   UNL     1      -8.221  17.704  67.040  1.00  0.00    -0.220 A  
HETATM   11  C   UNL     1      -9.376  17.569  66.246  1.00  0.00    -0.231 A  
HETATM   12  C   UNL     1     -10.343  18.573  66.214  1.00  0.00    -0.459 A  
HETATM   13  C   UNL     1     -10.177  19.721  66.976  1.00  0.00    -0.579 A  
HETATM   14  C   UNL     1      -9.032  19.853  67.760  1.00  0.00    -0.323 A  
HETATM   15  N   UNL     1      -8.052  18.864  67.808  1.00  0.00    -0.256 NA 
HETATM   16  O   UNL     1      -7.036  19.052  68.559  1.00  0.00    -0.253 OA 
ENDBRANCH   9  10
ENDBRANCH   8   9
ENDBRANCH   7   8
TORSDOF 3
ENDMDL
MODEL      199
REMARK 921   NORMALIZED FREE ENERGY PREDICTED BY IDOCK:   -3.62 KCAL/MOL
REMARK 922        TOTAL FREE ENERGY PREDICTED BY IDOCK:   -4.45 KCAL/MOL
REMARK 923 INTER-LIGAND FREE ENERGY PREDICTED BY IDOCK:   -4.05 KCAL/MOL
REMARK 924 INTRA-LIGAND FREE ENERGY PREDICTED BY IDOCK:   -0.40 KCAL/MOL
REMARK 927      BINDING AFFINITY PREDICTED BY RF-SCORE:    0.00 PKD
ROOT
HETATM    1  O   UNL     1      -8.736  10.412  66.407  1.00  0.00    -0.136 OA 
HETATM    2  N   UNL     1      -9.566  11.105  65.728  1.00  0.00    -0.212 NA 
HETATM    3  C   UNL     1      -9.853  10.709  64.424  1.00  0.00    -0.334 A  
HETATM    4  C   UNL     1     -10.753  11.402  63.619  1.00  0.00    -0.470 A  
HETATM    5  C   UNL     1     -11.390  12.523  64.131  1.00  0.00    -0.440 A  
HETATM    6  C   UNL     1     -11.124  12.940  65.436  1.00  0.00    -0.309 A  
HETATM    7  C   UNL     1     -10.205  12.243  66.244  1.00  0.00    -0.229 A  
ENDROOT
BRANCH   7   8
HETATM    8  S   UNL     1      -9.901  12.759  67.937  1.00  0.00    -0.229 SA 
BRANCH   8   9
HETATM    9  S   UNL     1      -8.120  13.786  67.808  1.00  0.00    -0.194 SA 
BRANCH   9  10
HETATM   10  C   UNL     1      -8.616  15.495  67.575  1.00  0.00    -0.170 A  
HETATM   11  C   UNL     1      -9.977  15.855  67.620  1.00  0.00    -0.237 A  
HETATM   12  C   UNL     1     -10.368  17.190  67.531  1.00  0.00    -0.341 A  
HETATM   13  C   UNL     1      -9.409  18.186  67.401  1.00  0.00    -0.254 A  
HETATM   14  C   UNL     1      -8.063  17.827  67.354  1.00  0.00    -0.209 A  
HETATM   15  N   UNL     1      -7.648  16.500  67.441  1.00  0.00    -0.139 NA 
HETATM   16  O   UNL     1      -6.396  16.251  67.402  1.00  0.00    -0.146 OA 
ENDBRANCH   9  10
ENDBRANCH   8   9
ENDBRANCH   7   8
TORSDOF 3
ENDMDL
MODEL      200
REMARK 921   NORMALIZED FREE ENERGY PREDICTED BY IDOCK:   -3.62 KCAL/MOL
REMARK 922        TOTAL FREE ENERGY PREDICTED BY IDOCK:   -4.45 KCAL/MOL
REMARK 923 INTER-LIGAND FREE ENERGY PREDICTED BY IDOCK:   -4.23 KCAL/MOL
REMARK 924 INTRA-LIGAND FREE ENERGY PREDICTED BY IDOCK:   -0.22 KCAL/MOL
REMARK 927      BINDING AFFINITY PREDICTED BY RF-SCORE:    0.00 PKD
ROOT
HETATM    1  O   UNL     1      -7.708  12.141  67.290  1.00  0.00    -0.154 OA 
HETATM    2  N   UNL     1      -8.631  11.286  67.501  1.00  0.00    -0.132 NA 
HETATM    3  C   UNL     1      -8.279  10.045  68.028  1.00  0.00    -0.116 A  
HETATM    4  C   UNL     1      -9.224   9.059  68.298  1.00  0.00    -0.139 A  
HETATM    5  C   UNL     1     -10.562   9.317  68.037  1.00  0.00    -0.262 A  
HETATM    6  C   UNL     1     -10.943  10.553  67.512  1.00  0.00    -0.365 A  
HETATM    7  C   UNL     1      -9.983  11.545  67.230  1.00  0.00    -0.191 A  
ENDROOT
BRANCH   7   8
HETATM    8  S   UNL     1     -10.485  13.149  66.597  1.00  0.00    -0.281 SA 
BRANCH   8   9
HETATM    9  S   UNL     1     -10.909  14.221  68.304  1.00  0.00    -0.254 SA 
BRANCH   9  10
HETATM   10  C   UNL     1     -10.549  15.921  67.854  1.00  0.00    -0.300 A  
HETATM   11  C   UNL     1     -10.391  16.282  66.501  1.00  0.00    -0.310 A  
HETATM   12  C   UNL     1     -10.201  17.614  66.134  1.00  0.00    -0.345 A  
HETATM   13  C   UNL     1     -10.172  18.604  67.106  1.00  0.00    -0.415 A  
HETATM   14  C   UNL     1     -10.326  18.244  68.444  1.00  0.00    -0.343 A  
HETATM   15  N   UNL     1     -10.516  16.921  68.836  1.00  0.00    -0.328 NA 
HETATM   16  O   UNL     1     -10.661  16.671  70.080  1.00  0.00    -0.292 OA 
ENDBRANCH   9  10
ENDBRANCH   8   9
ENDBRANCH   7   8
TORSDOF 3
ENDMDL
MODEL      201
REMARK 921   NORMALIZED FREE ENERGY PREDICTED BY IDOCK:   -3.61 KCAL/MOL
REMARK 922        TOTAL FREE ENERGY PREDICTED BY IDOCK:   -4.44 KCAL/MOL
REMARK 923 INTER-LIGAND FREE ENERGY PREDICTED BY IDOCK:   -4.19 KCAL/MOL
REMARK 924 INTRA-LIGAND FREE ENERGY PREDICTED BY IDOCK:   -0.25 KCAL/MOL
REMARK 927      BINDING AFFINITY PREDICTED BY RF-SCORE:    0.00 PKD
ROOT
HETATM    1  O   UNL     1     -12.200  12.066  67.451  1.00  0.00    -0.491 OA 
HETATM    2  N   UNL     1     -11.727  12.041  66.266  1.00  0.00    -0.547 NA 
HETATM    3  C   UNL     1     -12.168  12.997  65.354  1.00  0.00    -0.471 A  
HETATM    4  C   UNL     1     -11.695  13.048  64.045  1.00  0.00    -0.497 A  
HETATM    5  C   UNL     1     -10.752  12.117  63.633  1.00  0.00    -0.518 A  
HETATM    6  C   UNL     1     -10.291  11.150  64.527  1.00  0.00    -0.400 A  
HETATM    7  C   UNL     1     -10.778  11.096  65.848  1.00  0.00    -0.198 A  
ENDROOT
BRANCH   7   8
HETATM    8  S   UNL     1     -10.147   9.877  67.006  1.00  0.00    -0.231 SA 
BRANCH   8   9
HETATM    9  S   UNL     1      -8.194   9.620  66.404  1.00  0.00    -0.120 SA 
BRANCH   9  10
HETATM   10  C   UNL     1      -7.999   7.839  66.297  1.00  0.00    -0.100 A  
HETATM   11  C   UNL     1      -8.016   7.194  65.045  1.00  0.00    -0.129 A  
HETATM   12  C   UNL     1      -7.776   5.824  64.943  1.00  0.00    -0.095 A  
HETATM   13  C   UNL     1      -7.510   5.079  66.083  1.00  0.00    -0.086 A  
HETATM   14  C   UNL     1      -7.496   5.719  67.321  1.00  0.00    -0.081 A  
HETATM   15  N   UNL     1      -7.733   7.085  67.450  1.00  0.00    -0.108 NA 
HETATM   16  O   UNL     1      -7.692   7.602  68.617  1.00  0.00    -0.113 OA 
ENDBRANCH   9  10
ENDBRANCH   8   9
ENDBRANCH   7   8
TORSDOF 3
ENDMDL
MODEL      202
REMARK 921   NORMALIZED FREE ENERGY PREDICTED BY IDOCK:   -3.59 KCAL/MOL
REMARK 922        TOTAL FREE ENERGY PREDICTED BY IDOCK:   -4.41 KCAL/MOL
REMARK 923 INTER-LIGAND FREE ENERGY PREDICTED BY IDOCK:   -4.19 KCAL/MOL
REMARK 924 INTRA-LIGAND FREE ENERGY PREDICTED BY IDOCK:   -0.22 KCAL/MOL
REMARK 927      BINDING AFFINITY PREDICTED BY RF-SCORE:    0.00 PKD
ROOT
HETATM    1  O   UNL     1     -12.101  12.029  67.376  1.00  0.00    -0.566 OA 
HETATM    2  N   UNL     1     -11.813  12.033  66.132  1.00  0.00    -0.555 NA 
HETATM    3  C   UNL     1     -12.558  12.845  65.280  1.00  0.00    -0.439 A  
HETATM    4  C   UNL     1     -12.304  12.917  63.913  1.00  0.00    -0.476 A  
HETATM    5  C   UNL     1     -11.273  12.158  63.378  1.00  0.00    -0.494 A  
HETATM    6  C   UNL     1     -10.509  11.338  64.209  1.00  0.00    -0.419 A  
HETATM    7  C   UNL     1     -10.775  11.259  65.591  1.00  0.00    -0.217 A  
ENDROOT
BRANCH   7   8
HETATM    8  S   UNL     1      -9.759  10.237  66.661  1.00  0.00    -0.193 SA 
BRANCH   8   9
HETATM    9  S   UNL     1      -8.252  11.514  67.246  1.00  0.00    -0.162 SA 
BRANCH   9  10
HETATM   10  C   UNL     1      -7.615  10.778  68.754  1.00  0.00    -0.113 A  
HETATM   11  C   UNL     1      -8.127   9.552  69.220  1.00  0.00    -0.103 A  
HETATM   12  C   UNL     1      -7.579   8.926  70.339  1.00  0.00    -0.088 A  
HETATM   13  C   UNL     1      -6.510   9.510  71.005  1.00  0.00    -0.071 A  
HETATM   14  C   UNL     1      -6.006  10.724  70.543  1.00  0.00    -0.122 A  
HETATM   15  N   UNL     1      -6.537  11.368  69.428  1.00  0.00    -0.107 NA 
HETATM   16  O   UNL     1      -6.014  12.473  69.058  1.00  0.00    -0.067 OA 
ENDBRANCH   9  10
ENDBRANCH   8   9
ENDBRANCH   7   8
TORSDOF 3
ENDMDL
MODEL      203
REMARK 921   NORMALIZED FREE ENERGY PREDICTED BY IDOCK:   -3.58 KCAL/MOL
REMARK 922        TOTAL FREE ENERGY PREDICTED BY IDOCK:   -4.41 KCAL/MOL
REMARK 923 INTER-LIGAND FREE ENERGY PREDICTED BY IDOCK:   -4.06 KCAL/MOL
REMARK 924 INTRA-LIGAND FREE ENERGY PREDICTED BY IDOCK:   -0.35 KCAL/MOL
REMARK 927      BINDING AFFINITY PREDICTED BY RF-SCORE:    0.00 PKD
ROOT
HETATM    1  O   UNL     1      -7.794  12.228  68.434  1.00  0.00    -0.143 OA 
HETATM    2  N   UNL     1      -9.059  12.104  68.319  1.00  0.00    -0.197 NA 
HETATM    3  C   UNL     1      -9.840  13.257  68.299  1.00  0.00    -0.231 A  
HETATM    4  C   UNL     1     -11.226  13.212  68.167  1.00  0.00    -0.304 A  
HETATM    5  C   UNL     1     -11.852  11.980  68.048  1.00  0.00    -0.338 A  
HETATM    6  C   UNL     1     -11.093  10.809  68.063  1.00  0.00    -0.359 A  
HETATM    7  C   UNL     1      -9.693  10.857  68.207  1.00  0.00    -0.165 A  
ENDROOT
BRANCH   7   8
HETATM    8  S   UNL     1      -8.718   9.349  68.178  1.00  0.00    -0.124 SA 
BRANCH   8   9
HETATM    9  S   UNL     1     -10.121   7.872  68.484  1.00  0.00    -0.201 SA 
BRANCH   9  10
HETATM   10  C   UNL     1     -10.274   7.777  70.270  1.00  0.00    -0.199 A  
HETATM   11  C   UNL     1      -9.332   8.414  71.101  1.00  0.00    -0.223 A  
HETATM   12  C   UNL     1      -9.491   8.423  72.487  1.00  0.00    -0.360 A  
HETATM   13  C   UNL     1     -10.592   7.804  73.063  1.00  0.00    -0.441 A  
HETATM   14  C   UNL     1     -11.521   7.173  72.239  1.00  0.00    -0.271 A  
HETATM   15  N   UNL     1     -11.385   7.149  70.853  1.00  0.00    -0.275 NA 
HETATM   16  O   UNL     1     -12.284   6.561  70.163  1.00  0.00    -0.229 OA 
ENDBRANCH   9  10
ENDBRANCH   8   9
ENDBRANCH   7   8
TORSDOF 3
ENDMDL
MODEL      204
REMARK 921   NORMALIZED FREE ENERGY PREDICTED BY IDOCK:   -3.58 KCAL/MOL
REMARK 922        TOTAL FREE ENERGY PREDICTED BY IDOCK:   -4.40 KCAL/MOL
REMARK 923 INTER-LIGAND FREE ENERGY PREDICTED BY IDOCK:   -4.17 KCAL/MOL
REMARK 924 INTRA-LIGAND FREE ENERGY PREDICTED BY IDOCK:   -0.23 KCAL/MOL
REMARK 927      BINDING AFFINITY PREDICTED BY RF-SCORE:    0.00 PKD
ROOT
HETATM    1  O   UNL     1      -9.409   8.565  68.013  1.00  0.00    -0.136 OA 
HETATM    2  N   UNL     1     -10.174   9.528  68.353  1.00  0.00    -0.186 NA 
HETATM    3  C   UNL     1     -10.581  10.431  67.374  1.00  0.00    -0.269 A  
HETATM    4  C   UNL     1     -11.423  11.503  67.658  1.00  0.00    -0.357 A  
HETATM    5  C   UNL     1     -11.876  11.680  68.957  1.00  0.00    -0.391 A  
HETATM    6  C   UNL     1     -11.486  10.788  69.957  1.00  0.00    -0.412 A  
HETATM    7  C   UNL     1     -10.626   9.710  69.669  1.00  0.00    -0.233 A  
ENDROOT
BRANCH   7   8
HETATM    8  S   UNL     1     -10.165   8.540  70.951  1.00  0.00    -0.211 SA 
BRANCH   8   9
HETATM    9  S   UNL     1     -11.416   6.940  70.605  1.00  0.00    -0.352 SA 
BRANCH   9  10
HETATM   10  C   UNL     1     -10.825   5.671  71.729  1.00  0.00    -0.239 A  
HETATM   11  C   UNL     1     -11.127   5.741  73.103  1.00  0.00    -0.288 A  
HETATM   12  C   UNL     1     -10.751   4.715  73.971  1.00  0.00    -0.352 A  
HETATM   13  C   UNL     1     -10.077   3.605  73.481  1.00  0.00    -0.194 A  
HETATM   14  C   UNL     1      -9.778   3.540  72.122  1.00  0.00    -0.160 A  
HETATM   15  N   UNL     1     -10.142   4.551  71.235  1.00  0.00    -0.182 NA 
HETATM   16  O   UNL     1      -9.843   4.415  70.001  1.00  0.00    -0.211 OA 
ENDBRANCH   9  10
ENDBRANCH   8   9
ENDBRANCH   7   8
TORSDOF 3
ENDMDL
MODEL      205
REMARK 921   NORMALIZED FREE ENERGY PREDICTED BY IDOCK:   -3.55 KCAL/MOL
REMARK 922        TOTAL FREE ENERGY PREDICTED BY IDOCK:   -4.37 KCAL/MOL
REMARK 923 INTER-LIGAND FREE ENERGY PREDICTED BY IDOCK:   -3.89 KCAL/MOL
REMARK 924 INTRA-LIGAND FREE ENERGY PREDICTED BY IDOCK:   -0.48 KCAL/MOL
REMARK 927      BINDING AFFINITY PREDICTED BY RF-SCORE:    0.00 PKD
ROOT
HETATM    1  O   UNL     1     -11.185   6.164  68.933  1.00  0.00    -0.372 OA 
HETATM    2  N   UNL     1     -10.937   5.672  70.084  1.00  0.00    -0.290 NA 
HETATM    3  C   UNL     1     -10.014   4.632  70.178  1.00  0.00    -0.233 A  
HETATM    4  C   UNL     1      -9.678   4.046  71.396  1.00  0.00    -0.253 A  
HETATM    5  C   UNL     1     -10.279   4.511  72.556  1.00  0.00    -0.246 A  
HETATM    6  C   UNL     1     -11.205   5.554  72.492  1.00  0.00    -0.330 A  
HETATM    7  C   UNL     1     -11.550   6.138  71.257  1.00  0.00    -0.205 A  
ENDROOT
BRANCH   7   8
HETATM    8  S   UNL     1     -12.707   7.509  71.187  1.00  0.00    -0.186 SA 
BRANCH   8   9
HETATM    9  S   UNL     1     -11.500   9.162  71.422  1.00  0.00    -0.379 SA 
BRANCH   9  10
HETATM   10  C   UNL     1     -10.856   9.472  69.776  1.00  0.00    -0.243 A  
HETATM   11  C   UNL     1     -11.586  10.255  68.861  1.00  0.00    -0.132 A  
HETATM   12  C   UNL     1     -11.055  10.578  67.613  1.00  0.00    -0.375 A  
HETATM   13  C   UNL     1      -9.789  10.131  67.261  1.00  0.00    -0.226 A  
HETATM   14  C   UNL     1      -9.069   9.354  68.167  1.00  0.00    -0.127 A  
HETATM   15  N   UNL     1      -9.578   9.018  69.419  1.00  0.00    -0.157 NA 
HETATM   16  O   UNL     1      -8.855   8.312  70.200  1.00  0.00    -0.137 OA 
ENDBRANCH   9  10
ENDBRANCH   8   9
ENDBRANCH   7   8
TORSDOF 3
ENDMDL
MODEL      206
REMARK 921   NORMALIZED FREE ENERGY PREDICTED BY IDOCK:   -3.55 KCAL/MOL
REMARK 922        TOTAL FREE ENERGY PREDICTED BY IDOCK:   -4.37 KCAL/MOL
REMARK 923 INTER-LIGAND FREE ENERGY PREDICTED BY IDOCK:   -3.96 KCAL/MOL
REMARK 924 INTRA-LIGAND FREE ENERGY PREDICTED BY IDOCK:   -0.41 KCAL/MOL
REMARK 927      BINDING AFFINITY PREDICTED BY RF-SCORE:    0.00 PKD
ROOT
HETATM    1  O   UNL     1     -11.513  11.448  66.136  1.00  0.00    -0.270 OA 
HETATM    2  N   UNL     1     -10.371  11.523  66.701  1.00  0.00    -0.219 NA 
HETATM    3  C   UNL     1      -9.230  11.432  65.907  1.00  0.00    -0.216 A  
HETATM    4  C   UNL     1      -7.947  11.515  66.441  1.00  0.00    -0.046 A  
HETATM    5  C   UNL     1      -7.795  11.695  67.809  1.00  0.00    -0.129 A  
HETATM    6  C   UNL     1      -8.922  11.792  68.627  1.00  0.00    -0.069 A  
HETATM    7  C   UNL     1     -10.219  11.698  68.084  1.00  0.00    -0.197 A  
ENDROOT
BRANCH   7   8
HETATM    8  S   UNL     1     -11.664  11.869  69.137  1.00  0.00    -0.324 SA 
BRANCH   8   9
HETATM    9  S   UNL     1     -11.825  13.906  69.395  1.00  0.00    -0.350 SA 
BRANCH   9  10
HETATM   10  C   UNL     1     -10.879  14.596  68.034  1.00  0.00    -0.257 A  
HETATM   11  C   UNL     1      -9.544  15.001  68.227  1.00  0.00    -0.210 A  
HETATM   12  C   UNL     1      -8.772  15.453  67.158  1.00  0.00    -0.243 A  
HETATM   13  C   UNL     1      -9.316  15.503  65.882  1.00  0.00    -0.355 A  
HETATM   14  C   UNL     1     -10.637  15.103  65.693  1.00  0.00    -0.356 A  
HETATM   15  N   UNL     1     -11.429  14.648  66.745  1.00  0.00    -0.361 NA 
HETATM   16  O   UNL     1     -12.628  14.289  66.492  1.00  0.00    -0.360 OA 
ENDBRANCH   9  10
ENDBRANCH   8   9
ENDBRANCH   7   8
TORSDOF 3
ENDMDL
MODEL      207
REMARK 921   NORMALIZED FREE ENERGY PREDICTED BY IDOCK:   -3.55 KCAL/MOL
REMARK 922        TOTAL FREE ENERGY PREDICTED BY IDOCK:   -4.36 KCAL/MOL
REMARK 923 INTER-LIGAND FREE ENERGY PREDICTED BY IDOCK:   -3.76 KCAL/MOL
REMARK 924 INTRA-LIGAND FREE ENERGY PREDICTED BY IDOCK:   -0.60 KCAL/MOL
REMARK 927      BINDING AFFINITY PREDICTED BY RF-SCORE:    0.00 PKD
ROOT
HETATM    1  O   UNL     1      -7.717   9.170  71.819  1.00  0.00    -0.344 OA 
HETATM    2  N   UNL     1      -8.903   8.749  72.027  1.00  0.00    -0.370 NA 
HETATM    3  C   UNL     1      -9.887   9.040  71.084  1.00  0.00    -0.300 A  
HETATM    4  C   UNL     1     -11.203   8.610  71.229  1.00  0.00    -0.338 A  
HETATM    5  C   UNL     1     -11.551   7.866  72.347  1.00  0.00    -0.436 A  
HETATM    6  C   UNL     1     -10.585   7.558  73.306  1.00  0.00    -0.438 A  
HETATM    7  C   UNL     1      -9.256   8.003  73.162  1.00  0.00    -0.279 A  
ENDROOT
BRANCH   7   8
HETATM    8  S   UNL     1      -8.008   7.565  74.377  1.00  0.00    -0.198 SA 
BRANCH   8   9
HETATM    9  S   UNL     1      -7.016   5.992  73.492  1.00  0.00    -0.081 SA 
BRANCH   9  10
HETATM   10  C   UNL     1      -8.305   4.786  73.169  1.00  0.00    -0.100 A  
HETATM   11  C   UNL     1      -8.860   4.036  74.224  1.00  0.00    -0.095 A  
HETATM   12  C   UNL     1      -9.924   3.163  73.999  1.00  0.00    -0.166 A  
HETATM   13  C   UNL     1     -10.453   3.030  72.723  1.00  0.00    -0.212 A  
HETATM   14  C   UNL     1      -9.902   3.772  71.681  1.00  0.00    -0.170 A  
HETATM   15  N   UNL     1      -8.839   4.650  71.880  1.00  0.00    -0.121 NA 
HETATM   16  O   UNL     1      -8.394   5.304  70.877  1.00  0.00    -0.112 OA 
ENDBRANCH   9  10
ENDBRANCH   8   9
ENDBRANCH   7   8
TORSDOF 3
ENDMDL
MODEL      208
REMARK 921   NORMALIZED FREE ENERGY PREDICTED BY IDOCK:   -3.53 KCAL/MOL
REMARK 922        TOTAL FREE ENERGY PREDICTED BY IDOCK:   -4.34 KCAL/MOL
REMARK 923 INTER-LIGAND FREE ENERGY PREDICTED BY IDOCK:   -3.65 KCAL/MOL
REMARK 924 INTRA-LIGAND FREE ENERGY PREDICTED BY IDOCK:   -0.69 KCAL/MOL
REMARK 927      BINDING AFFINITY PREDICTED BY RF-SCORE:    0.00 PKD
ROOT
HETATM    1  O   UNL     1      -7.121   8.674  72.218  1.00  0.00    -0.201 OA 
HETATM    2  N   UNL     1      -8.033   9.098  71.433  1.00  0.00    -0.338 NA 
HETATM    3  C   UNL     1      -7.656   9.842  70.317  1.00  0.00    -0.158 A  
HETATM    4  C   UNL     1      -8.587  10.333  69.404  1.00  0.00    -0.167 A  
HETATM    5  C   UNL     1      -9.934  10.074  69.609  1.00  0.00    -0.263 A  
HETATM    6  C   UNL     1     -10.339   9.329  70.718  1.00  0.00    -0.348 A  
HETATM    7  C   UNL     1      -9.396   8.842  71.644  1.00  0.00    -0.275 A  
ENDROOT
BRANCH   7   8
HETATM    8  S   UNL     1      -9.921   7.846  73.043  1.00  0.00    -0.283 SA 
BRANCH   8   9
HETATM    9  S   UNL     1      -9.480   5.923  72.448  1.00  0.00    -0.144 SA 
BRANCH   9  10
HETATM   10  C   UNL     1      -9.686   5.958  70.666  1.00  0.00    -0.176 A  
HETATM   11  C   UNL     1     -10.973   6.026  70.098  1.00  0.00    -0.429 A  
HETATM   12  C   UNL     1     -11.142   6.145  68.719  1.00  0.00    -0.398 A  
HETATM   13  C   UNL     1     -10.032   6.204  67.888  1.00  0.00    -0.149 A  
HETATM   14  C   UNL     1      -8.760   6.134  68.451  1.00  0.00    -0.115 A  
HETATM   15  N   UNL     1      -8.565   6.015  69.825  1.00  0.00    -0.129 NA 
HETATM   16  O   UNL     1      -7.368   5.968  70.268  1.00  0.00    -0.082 OA 
ENDBRANCH   9  10
ENDBRANCH   8   9
ENDBRANCH   7   8
TORSDOF 3
ENDMDL
MODEL      209
REMARK 921   NORMALIZED FREE ENERGY PREDICTED BY IDOCK:   -3.51 KCAL/MOL
REMARK 922        TOTAL FREE ENERGY PREDICTED BY IDOCK:   -4.32 KCAL/MOL
REMARK 923 INTER-LIGAND FREE ENERGY PREDICTED BY IDOCK:   -3.98 KCAL/MOL
REMARK 924 INTRA-LIGAND FREE ENERGY PREDICTED BY IDOCK:   -0.34 KCAL/MOL
REMARK 927      BINDING AFFINITY PREDICTED BY RF-SCORE:    0.00 PKD
ROOT
HETATM    1  O   UNL     1     -12.622  12.046  65.051  1.00  0.00    -0.415 OA 
HETATM    2  N   UNL     1     -11.969  13.141  64.991  1.00  0.00    -0.360 NA 
HETATM    3  C   UNL     1     -12.652  14.302  64.635  1.00  0.00    -0.255 A  
HETATM    4  C   UNL     1     -12.019  15.540  64.557  1.00  0.00    -0.172 A  
HETATM    5  C   UNL     1     -10.664  15.624  64.844  1.00  0.00    -0.406 A  
HETATM    6  C   UNL     1      -9.957  14.477  65.206  1.00  0.00    -0.322 A  
HETATM    7  C   UNL     1     -10.598  13.224  65.275  1.00  0.00    -0.315 A  
ENDROOT
BRANCH   7   8
HETATM    8  S   UNL     1      -9.691  11.760  65.785  1.00  0.00    -0.234 SA 
BRANCH   8   9
HETATM    9  S   UNL     1      -9.778  11.843  67.842  1.00  0.00    -0.197 SA 
BRANCH   9  10
HETATM   10  C   UNL     1      -9.227  13.504  68.237  1.00  0.00    -0.195 A  
HETATM   11  C   UNL     1     -10.145  14.470  68.693  1.00  0.00    -0.244 A  
HETATM   12  C   UNL     1      -9.714  15.736  69.089  1.00  0.00    -0.250 A  
HETATM   13  C   UNL     1      -8.364  16.055  69.043  1.00  0.00    -0.243 A  
HETATM   14  C   UNL     1      -7.458  15.098  68.591  1.00  0.00    -0.124 A  
HETATM   15  N   UNL     1      -7.863  13.828  68.189  1.00  0.00    -0.136 NA 
HETATM   16  O   UNL     1      -6.972  13.001  67.797  1.00  0.00    -0.110 OA 
ENDBRANCH   9  10
ENDBRANCH   8   9
ENDBRANCH   7   8
TORSDOF 3
ENDMDL
MODEL      210
REMARK 921   NORMALIZED FREE ENERGY PREDICTED BY IDOCK:   -3.51 KCAL/MOL
REMARK 922        TOTAL FREE ENERGY PREDICTED BY IDOCK:   -4.32 KCAL/MOL
REMARK 923 INTER-LIGAND FREE ENERGY PREDICTED BY IDOCK:   -4.10 KCAL/MOL
REMARK 924 INTRA-LIGAND FREE ENERGY PREDICTED BY IDOCK:   -0.21 KCAL/MOL
REMARK 927      BINDING AFFINITY PREDICTED BY RF-SCORE:    0.00 PKD
ROOT
HETATM    1  O   UNL     1     -12.817  11.259  71.510  1.00  0.00    -0.416 OA 
HETATM    2  N   UNL     1     -12.624  12.455  71.107  1.00  0.00    -0.325 NA 
HETATM    3  C   UNL     1     -12.882  13.503  71.987  1.00  0.00    -0.249 A  
HETATM    4  C   UNL     1     -12.688  14.835  71.631  1.00  0.00    -0.399 A  
HETATM    5  C   UNL     1     -12.220  15.133  70.360  1.00  0.00    -0.391 A  
HETATM    6  C   UNL     1     -11.950  14.102  69.459  1.00  0.00    -0.389 A  
HETATM    7  C   UNL     1     -12.157  12.755  69.818  1.00  0.00    -0.237 A  
ENDROOT
BRANCH   7   8
HETATM    8  S   UNL     1     -11.764  11.432  68.669  1.00  0.00    -0.319 SA 
BRANCH   8   9
HETATM    9  S   UNL     1      -9.728  11.617  68.411  1.00  0.00    -0.188 SA 
BRANCH   9  10
HETATM   10  C   UNL     1      -9.320  10.339  67.219  1.00  0.00    -0.149 A  
HETATM   11  C   UNL     1      -9.126   9.008  67.639  1.00  0.00    -0.144 A  
HETATM   12  C   UNL     1      -8.898   7.992  66.712  1.00  0.00    -0.157 A  
HETATM   13  C   UNL     1      -8.867   8.284  65.356  1.00  0.00    -0.116 A  
HETATM   14  C   UNL     1      -9.058   9.601  64.943  1.00  0.00    -0.232 A  
HETATM   15  N   UNL     1      -9.286  10.634  65.849  1.00  0.00    -0.175 NA 
HETATM   16  O   UNL     1      -9.463  11.814  65.393  1.00  0.00    -0.218 OA 
ENDBRANCH   9  10
ENDBRANCH   8   9
ENDBRANCH   7   8
TORSDOF 3
ENDMDL
MODEL      211
REMARK 921   NORMALIZED FREE ENERGY PREDICTED BY IDOCK:   -3.50 KCAL/MOL
REMARK 922        TOTAL FREE ENERGY PREDICTED BY IDOCK:   -4.31 KCAL/MOL
REMARK 923 INTER-LIGAND FREE ENERGY PREDICTED BY IDOCK:   -4.27 KCAL/MOL
REMARK 924 INTRA-LIGAND FREE ENERGY PREDICTED BY IDOCK:   -0.05 KCAL/MOL
REMARK 927      BINDING AFFINITY PREDICTED BY RF-SCORE:    0.00 PKD
ROOT
HETATM    1  O   UNL     1     -11.549  11.332  70.013  1.00  0.00    -0.297 OA 
HETATM    2  N   UNL     1     -11.578  10.220  70.641  1.00  0.00    -0.323 NA 
HETATM    3  C   UNL     1     -12.772   9.829  71.243  1.00  0.00    -0.369 A  
HETATM    4  C   UNL     1     -12.893   8.628  71.937  1.00  0.00    -0.411 A  
HETATM    5  C   UNL     1     -11.792   7.790  72.033  1.00  0.00    -0.351 A  
HETATM    6  C   UNL     1     -10.584   8.156  71.437  1.00  0.00    -0.269 A  
HETATM    7  C   UNL     1     -10.462   9.377  70.744  1.00  0.00    -0.304 A  
ENDROOT
BRANCH   7   8
HETATM    8  S   UNL     1      -8.918   9.821  69.941  1.00  0.00    -0.213 SA 
BRANCH   8   9
HETATM    9  S   UNL     1      -9.454  10.023  67.962  1.00  0.00    -0.138 SA 
BRANCH   9  10
HETATM   10  C   UNL     1      -9.275  11.779  67.637  1.00  0.00    -0.180 A  
HETATM   11  C   UNL     1      -8.136  12.474  68.087  1.00  0.00    -0.167 A  
HETATM   12  C   UNL     1      -7.943  13.817  67.762  1.00  0.00    -0.170 A  
HETATM   13  C   UNL     1      -8.878  14.482  66.981  1.00  0.00    -0.256 A  
HETATM   14  C   UNL     1     -10.004  13.793  66.539  1.00  0.00    -0.288 A  
HETATM   15  N   UNL     1     -10.220  12.452  66.850  1.00  0.00    -0.223 NA 
HETATM   16  O   UNL     1     -11.271  11.884  66.398  1.00  0.00    -0.307 OA 
ENDBRANCH   9  10
ENDBRANCH   8   9
ENDBRANCH   7   8
TORSDOF 3
ENDMDL
MODEL      212
REMARK 921   NORMALIZED FREE ENERGY PREDICTED BY IDOCK:   -3.49 KCAL/MOL
REMARK 922        TOTAL FREE ENERGY PREDICTED BY IDOCK:   -4.30 KCAL/MOL
REMARK 923 INTER-LIGAND FREE ENERGY PREDICTED BY IDOCK:   -3.75 KCAL/MOL
REMARK 924 INTRA-LIGAND FREE ENERGY PREDICTED BY IDOCK:   -0.55 KCAL/MOL
REMARK 927      BINDING AFFINITY PREDICTED BY RF-SCORE:    0.00 PKD
ROOT
HETATM    1  O   UNL     1      -8.443  14.628  68.036  1.00  0.00    -0.142 OA 
HETATM    2  N   UNL     1      -9.605  14.903  68.488  1.00  0.00    -0.208 NA 
HETATM    3  C   UNL     1      -9.780  14.987  69.867  1.00  0.00     0.082 A  
HETATM    4  C   UNL     1     -11.011  15.292  70.442  1.00  0.00    -0.317 A  
HETATM    5  C   UNL     1     -12.102  15.522  69.617  1.00  0.00    -0.352 A  
HETATM    6  C   UNL     1     -11.955  15.446  68.231  1.00  0.00    -0.109 A  
HETATM    7  C   UNL     1     -10.710  15.128  67.653  1.00  0.00    -0.285 A  
ENDROOT
BRANCH   7   8
HETATM    8  S   UNL     1     -10.518  15.077  65.868  1.00  0.00    -0.352 SA 
BRANCH   8   9
HETATM    9  S   UNL     1     -10.539  17.065  65.331  1.00  0.00     0.004 SA 
BRANCH   9  10
HETATM   10  C   UNL     1      -9.395  17.840  66.477  1.00  0.00    -0.279 A  
HETATM   11  C   UNL     1      -8.006  17.666  66.325  1.00  0.00    -0.292 A  
HETATM   12  C   UNL     1      -7.106  18.335  67.153  1.00  0.00    -0.211 A  
HETATM   13  C   UNL     1      -7.576  19.192  68.139  1.00  0.00    -0.321 A  
HETATM   14  C   UNL     1      -8.951  19.362  68.289  1.00  0.00    -0.336 A  
HETATM   15  N   UNL     1      -9.870  18.704  67.475  1.00  0.00    -0.310 NA 
HETATM   16  O   UNL     1     -11.114  18.919  67.666  1.00  0.00    -0.328 OA 
ENDBRANCH   9  10
ENDBRANCH   8   9
ENDBRANCH   7   8
TORSDOF 3
ENDMDL
MODEL      213
REMARK 921   NORMALIZED FREE ENERGY PREDICTED BY IDOCK:   -3.48 KCAL/MOL
REMARK 922        TOTAL FREE ENERGY PREDICTED BY IDOCK:   -4.29 KCAL/MOL
REMARK 923 INTER-LIGAND FREE ENERGY PREDICTED BY IDOCK:   -4.11 KCAL/MOL
REMARK 924 INTRA-LIGAND FREE ENERGY PREDICTED BY IDOCK:   -0.18 KCAL/MOL
REMARK 927      BINDING AFFINITY PREDICTED BY RF-SCORE:    0.00 PKD
ROOT
HETATM    1  O   UNL     1     -10.571  10.987  63.997  1.00  0.00    -0.366 OA 
HETATM    2  N   UNL     1     -10.906  11.441  65.142  1.00  0.00    -0.269 NA 
HETATM    3  C   UNL     1     -11.582  12.657  65.202  1.00  0.00    -0.348 A  
HETATM    4  C   UNL     1     -11.992  13.218  66.409  1.00  0.00    -0.465 A  
HETATM    5  C   UNL     1     -11.723  12.545  67.592  1.00  0.00    -0.423 A  
HETATM    6  C   UNL     1     -11.050  11.323  67.560  1.00  0.00    -0.346 A  
HETATM    7  C   UNL     1     -10.627  10.763  66.338  1.00  0.00    -0.203 A  
ENDROOT
BRANCH   7   8
HETATM    8  S   UNL     1      -9.802   9.168  66.301  1.00  0.00    -0.282 SA 
BRANCH   8   9
HETATM    9  S   UNL     1      -9.999   8.487  68.235  1.00  0.00    -0.190 SA 
BRANCH   9  10
HETATM   10  C   UNL     1      -9.813   6.708  68.094  1.00  0.00    -0.132 A  
HETATM   11  C   UNL     1     -10.050   6.062  66.864  1.00  0.00    -0.229 A  
HETATM   12  C   UNL     1      -9.822   4.694  66.719  1.00  0.00    -0.237 A  
HETATM   13  C   UNL     1      -9.350   3.952  67.793  1.00  0.00    -0.230 A  
HETATM   14  C   UNL     1      -9.118   4.593  69.009  1.00  0.00    -0.118 A  
HETATM   15  N   UNL     1      -9.339   5.957  69.179  1.00  0.00    -0.120 NA 
HETATM   16  O   UNL     1      -9.093   6.475  70.320  1.00  0.00    -0.153 OA 
ENDBRANCH   9  10
ENDBRANCH   8   9
ENDBRANCH   7   8
TORSDOF 3
ENDMDL
MODEL      214
REMARK 921   NORMALIZED FREE ENERGY PREDICTED BY IDOCK:   -3.48 KCAL/MOL
REMARK 922        TOTAL FREE ENERGY PREDICTED BY IDOCK:   -4.29 KCAL/MOL
REMARK 923 INTER-LIGAND FREE ENERGY PREDICTED BY IDOCK:   -4.08 KCAL/MOL
REMARK 924 INTRA-LIGAND FREE ENERGY PREDICTED BY IDOCK:   -0.21 KCAL/MOL
REMARK 927      BINDING AFFINITY PREDICTED BY RF-SCORE:    0.00 PKD
ROOT
HETATM    1  O   UNL     1     -10.647  11.226  63.706  1.00  0.00    -0.355 OA 
HETATM    2  N   UNL     1     -11.142  12.036  64.559  1.00  0.00    -0.317 NA 
HETATM    3  C   UNL     1     -12.161  12.893  64.149  1.00  0.00    -0.432 A  
HETATM    4  C   UNL     1     -12.762  13.800  65.019  1.00  0.00    -0.379 A  
HETATM    5  C   UNL     1     -12.336  13.854  66.338  1.00  0.00    -0.468 A  
HETATM    6  C   UNL     1     -11.318  13.005  66.776  1.00  0.00    -0.365 A  
HETATM    7  C   UNL     1     -10.705  12.095  65.892  1.00  0.00    -0.266 A  
ENDROOT
BRANCH   7   8
HETATM    8  S   UNL     1      -9.428  10.975  66.473  1.00  0.00    -0.192 SA 
BRANCH   8   9
HETATM    9  S   UNL     1      -9.100  11.594  68.410  1.00  0.00    -0.157 SA 
BRANCH   9  10
HETATM   10  C   UNL     1      -8.986  10.066  69.345  1.00  0.00    -0.194 A  
HETATM   11  C   UNL     1      -9.905   9.023  69.122  1.00  0.00    -0.175 A  
HETATM   12  C   UNL     1      -9.772   7.799  69.776  1.00  0.00    -0.176 A  
HETATM   13  C   UNL     1      -8.718   7.595  70.656  1.00  0.00    -0.140 A  
HETATM   14  C   UNL     1      -7.811   8.629  70.877  1.00  0.00    -0.118 A  
HETATM   15  N   UNL     1      -7.923   9.860  70.237  1.00  0.00    -0.185 NA 
HETATM   16  O   UNL     1      -7.046  10.756  70.482  1.00  0.00    -0.158 OA 
ENDBRANCH   9  10
ENDBRANCH   8   9
ENDBRANCH   7   8
TORSDOF 3
ENDMDL
MODEL      215
REMARK 921   NORMALIZED FREE ENERGY PREDICTED BY IDOCK:   -3.46 KCAL/MOL
REMARK 922        TOTAL FREE ENERGY PREDICTED BY IDOCK:   -4.26 KCAL/MOL
REMARK 923 INTER-LIGAND FREE ENERGY PREDICTED BY IDOCK:   -4.04 KCAL/MOL
REMARK 924 INTRA-LIGAND FREE ENERGY PREDICTED BY IDOCK:   -0.22 KCAL/MOL
REMARK 927      BINDING AFFINITY PREDICTED BY RF-SCORE:    0.00 PKD
ROOT
HETATM    1  O   UNL     1      -7.047   5.848  67.527  1.00  0.00    -0.071 OA 
HETATM    2  N   UNL     1      -8.241   5.684  67.105  1.00  0.00    -0.102 NA 
HETATM    3  C   UNL     1      -8.487   4.661  66.192  1.00  0.00    -0.114 A  
HETATM    4  C   UNL     1      -9.761   4.406  65.690  1.00  0.00    -0.211 A  
HETATM    5  C   UNL     1     -10.822   5.194  66.111  1.00  0.00    -0.163 A  
HETATM    6  C   UNL     1     -10.604   6.224  67.028  1.00  0.00    -0.386 A  
HETATM    7  C   UNL     1      -9.312   6.485  67.527  1.00  0.00    -0.122 A  
ENDROOT
BRANCH   7   8
HETATM    8  S   UNL     1      -9.047   7.782  68.740  1.00  0.00    -0.139 SA 
BRANCH   8   9
HETATM    9  S   UNL     1     -10.516   7.430  70.140  1.00  0.00    -0.225 SA 
BRANCH   9  10
HETATM   10  C   UNL     1     -11.227   9.049  70.445  1.00  0.00    -0.241 A  
HETATM   11  C   UNL     1     -11.044  10.094  69.519  1.00  0.00    -0.295 A  
HETATM   12  C   UNL     1     -11.667  11.329  69.700  1.00  0.00    -0.420 A  
HETATM   13  C   UNL     1     -12.484  11.538  70.803  1.00  0.00    -0.444 A  
HETATM   14  C   UNL     1     -12.662  10.503  71.719  1.00  0.00    -0.402 A  
HETATM   15  N   UNL     1     -12.051   9.262  71.560  1.00  0.00    -0.337 NA 
HETATM   16  O   UNL     1     -12.272   8.359  72.436  1.00  0.00    -0.369 OA 
ENDBRANCH   9  10
ENDBRANCH   8   9
ENDBRANCH   7   8
TORSDOF 3
ENDMDL
MODEL      216
REMARK 921   NORMALIZED FREE ENERGY PREDICTED BY IDOCK:   -3.41 KCAL/MOL
REMARK 922        TOTAL FREE ENERGY PREDICTED BY IDOCK:   -4.20 KCAL/MOL
REMARK 923 INTER-LIGAND FREE ENERGY PREDICTED BY IDOCK:   -3.87 KCAL/MOL
REMARK 924 INTRA-LIGAND FREE ENERGY PREDICTED BY IDOCK:   -0.33 KCAL/MOL
REMARK 927      BINDING AFFINITY PREDICTED BY RF-SCORE:    0.00 PKD
ROOT
HETATM    1  O   UNL     1     -12.793  13.417  65.234  1.00  0.00    -0.648 OA 
HETATM    2  N   UNL     1     -11.636  13.840  65.565  1.00  0.00    -0.318 NA 
HETATM    3  C   UNL     1     -11.189  15.045  65.027  1.00  0.00    -0.409 A  
HETATM    4  C   UNL     1      -9.945  15.583  65.344  1.00  0.00    -0.339 A  
HETATM    5  C   UNL     1      -9.120  14.901  66.227  1.00  0.00    -0.262 A  
HETATM    6  C   UNL     1      -9.544  13.693  66.783  1.00  0.00    -0.277 A  
HETATM    7  C   UNL     1     -10.799  13.146  66.453  1.00  0.00    -0.287 A  
ENDROOT
BRANCH   7   8
HETATM    8  S   UNL     1     -11.356  11.615  67.208  1.00  0.00    -0.286 SA 
BRANCH   8   9
HETATM    9  S   UNL     1      -9.789  11.097  68.441  1.00  0.00    -0.190 SA 
BRANCH   9  10
HETATM   10  C   UNL     1      -9.004   9.721  67.598  1.00  0.00    -0.128 A  
HETATM   11  C   UNL     1      -8.413   9.904  66.333  1.00  0.00    -0.128 A  
HETATM   12  C   UNL     1      -7.722   8.865  65.709  1.00  0.00    -0.094 A  
HETATM   13  C   UNL     1      -7.605   7.634  66.339  1.00  0.00    -0.088 A  
HETATM   14  C   UNL     1      -8.192   7.455  67.590  1.00  0.00    -0.118 A  
HETATM   15  N   UNL     1      -8.888   8.476  68.233  1.00  0.00    -0.142 NA 
HETATM   16  O   UNL     1      -9.389   8.240  69.384  1.00  0.00    -0.154 OA 
ENDBRANCH   9  10
ENDBRANCH   8   9
ENDBRANCH   7   8
TORSDOF 3
ENDMDL
MODEL      217
REMARK 921   NORMALIZED FREE ENERGY PREDICTED BY IDOCK:   -3.40 KCAL/MOL
REMARK 922        TOTAL FREE ENERGY PREDICTED BY IDOCK:   -4.19 KCAL/MOL
REMARK 923 INTER-LIGAND FREE ENERGY PREDICTED BY IDOCK:   -3.87 KCAL/MOL
REMARK 924 INTRA-LIGAND FREE ENERGY PREDICTED BY IDOCK:   -0.32 KCAL/MOL
REMARK 927      BINDING AFFINITY PREDICTED BY RF-SCORE:    0.00 PKD
ROOT
HETATM    1  O   UNL     1      -8.319  12.548  67.926  1.00  0.00    -0.145 OA 
HETATM    2  N   UNL     1      -8.431  11.630  67.047  1.00  0.00    -0.162 NA 
HETATM    3  C   UNL     1      -7.274  10.998  66.595  1.00  0.00    -0.143 A  
HETATM    4  C   UNL     1      -7.309   9.980  65.645  1.00  0.00    -0.127 A  
HETATM    5  C   UNL     1      -8.533   9.577  65.132  1.00  0.00    -0.160 A  
HETATM    6  C   UNL     1      -9.707  10.191  65.569  1.00  0.00    -0.344 A  
HETATM    7  C   UNL     1      -9.669  11.228  66.522  1.00  0.00    -0.202 A  
ENDROOT
BRANCH   7   8
HETATM    8  S   UNL     1     -11.187  11.983  67.114  1.00  0.00    -0.335 SA 
BRANCH   8   9
HETATM    9  S   UNL     1     -11.931  12.925  65.440  1.00  0.00    -0.451 SA 
BRANCH   9  10
HETATM   10  C   UNL     1     -11.273  14.592  65.547  1.00  0.00    -0.335 A  
HETATM   11  C   UNL     1     -10.317  14.919  66.528  1.00  0.00    -0.295 A  
HETATM   12  C   UNL     1      -9.732  16.184  66.564  1.00  0.00    -0.282 A  
HETATM   13  C   UNL     1     -10.086  17.138  65.619  1.00  0.00    -0.101 A  
HETATM   14  C   UNL     1     -11.033  16.812  64.650  1.00  0.00     0.109 A  
HETATM   15  N   UNL     1     -11.632  15.556  64.595  1.00  0.00    -0.346 NA 
HETATM   16  O   UNL     1     -12.483  15.329  63.670  1.00  0.00    -0.550 OA 
ENDBRANCH   9  10
ENDBRANCH   8   9
ENDBRANCH   7   8
TORSDOF 3
ENDMDL
MODEL      218
REMARK 921   NORMALIZED FREE ENERGY PREDICTED BY IDOCK:   -3.38 KCAL/MOL
REMARK 922        TOTAL FREE ENERGY PREDICTED BY IDOCK:   -4.17 KCAL/MOL
REMARK 923 INTER-LIGAND FREE ENERGY PREDICTED BY IDOCK:   -3.99 KCAL/MOL
REMARK 924 INTRA-LIGAND FREE ENERGY PREDICTED BY IDOCK:   -0.18 KCAL/MOL
REMARK 927      BINDING AFFINITY PREDICTED BY RF-SCORE:    0.00 PKD
ROOT
HETATM    1  O   UNL     1      -9.537  10.328  64.473  1.00  0.00    -0.270 OA 
HETATM    2  N   UNL     1     -10.460  11.197  64.617  1.00  0.00    -0.327 NA 
HETATM    3  C   UNL     1     -11.395  11.348  63.595  1.00  0.00    -0.206 A  
HETATM    4  C   UNL     1     -12.440  12.265  63.677  1.00  0.00    -0.647 A  
HETATM    5  C   UNL     1     -12.559  13.054  64.811  1.00  0.00    -0.460 A  
HETATM    6  C   UNL     1     -11.637  12.921  65.851  1.00  0.00    -0.423 A  
HETATM    7  C   UNL     1     -10.575  12.000  65.762  1.00  0.00    -0.263 A  
ENDROOT
BRANCH   7   8
HETATM    8  S   UNL     1      -9.420  11.802  67.122  1.00  0.00    -0.178 SA 
BRANCH   8   9
HETATM    9  S   UNL     1      -8.699  13.709  67.413  1.00  0.00    -0.224 SA 
BRANCH   9  10
HETATM   10  C   UNL     1      -7.493  13.526  68.729  1.00  0.00    -0.071 A  
HETATM   11  C   UNL     1      -6.916  12.269  68.997  1.00  0.00    -0.078 A  
HETATM   12  C   UNL     1      -5.912  12.132  69.956  1.00  0.00    -0.156 A  
HETATM   13  C   UNL     1      -5.466  13.244  70.656  1.00  0.00    -0.165 A  
HETATM   14  C   UNL     1      -6.039  14.486  70.390  1.00  0.00    -0.176 A  
HETATM   15  N   UNL     1      -7.043  14.648  69.439  1.00  0.00    -0.154 NA 
HETATM   16  O   UNL     1      -7.512  15.820  69.243  1.00  0.00    -0.194 OA 
ENDBRANCH   9  10
ENDBRANCH   8   9
ENDBRANCH   7   8
TORSDOF 3
ENDMDL
MODEL      219
REMARK 921   NORMALIZED FREE ENERGY PREDICTED BY IDOCK:   -3.38 KCAL/MOL
REMARK 922        TOTAL FREE ENERGY PREDICTED BY IDOCK:   -4.17 KCAL/MOL
REMARK 923 INTER-LIGAND FREE ENERGY PREDICTED BY IDOCK:   -3.95 KCAL/MOL
REMARK 924 INTRA-LIGAND FREE ENERGY PREDICTED BY IDOCK:   -0.21 KCAL/MOL
REMARK 927      BINDING AFFINITY PREDICTED BY RF-SCORE:    0.00 PKD
ROOT
HETATM    1  O   UNL     1     -11.615  14.644  68.934  1.00  0.00    -0.279 OA 
HETATM    2  N   UNL     1     -12.067  13.925  69.888  1.00  0.00    -0.328 NA 
HETATM    3  C   UNL     1     -12.466  14.556  71.064  1.00  0.00    -0.341 A  
HETATM    4  C   UNL     1     -12.980  13.849  72.148  1.00  0.00    -0.441 A  
HETATM    5  C   UNL     1     -13.102  12.470  72.056  1.00  0.00    -0.472 A  
HETATM    6  C   UNL     1     -12.713  11.812  70.888  1.00  0.00    -0.328 A  
HETATM    7  C   UNL     1     -12.184  12.530  69.797  1.00  0.00    -0.132 A  
ENDROOT
BRANCH   7   8
HETATM    8  S   UNL     1     -11.728  11.683  68.281  1.00  0.00    -0.275 SA 
BRANCH   8   9
HETATM    9  S   UNL     1      -9.735  11.247  68.563  1.00  0.00    -0.193 SA 
BRANCH   9  10
HETATM   10  C   UNL     1      -9.300  10.245  67.139  1.00  0.00    -0.153 A  
HETATM   11  C   UNL     1      -8.432  10.749  66.150  1.00  0.00    -0.167 A  
HETATM   12  C   UNL     1      -8.016   9.948  65.087  1.00  0.00    -0.139 A  
HETATM   13  C   UNL     1      -8.453   8.634  64.997  1.00  0.00    -0.192 A  
HETATM   14  C   UNL     1      -9.313   8.138  65.975  1.00  0.00    -0.117 A  
HETATM   15  N   UNL     1      -9.743   8.918  67.045  1.00  0.00    -0.174 NA 
HETATM   16  O   UNL     1     -10.523   8.389  67.908  1.00  0.00    -0.219 OA 
ENDBRANCH   9  10
ENDBRANCH   8   9
ENDBRANCH   7   8
TORSDOF 3
ENDMDL
MODEL      220
REMARK 921   NORMALIZED FREE ENERGY PREDICTED BY IDOCK:   -3.37 KCAL/MOL
REMARK 922        TOTAL FREE ENERGY PREDICTED BY IDOCK:   -4.16 KCAL/MOL
REMARK 923 INTER-LIGAND FREE ENERGY PREDICTED BY IDOCK:   -3.92 KCAL/MOL
REMARK 924 INTRA-LIGAND FREE ENERGY PREDICTED BY IDOCK:   -0.24 KCAL/MOL
REMARK 927      BINDING AFFINITY PREDICTED BY RF-SCORE:    0.00 PKD
ROOT
HETATM    1  O   UNL     1      -8.501   7.806  66.823  1.00  0.00    -0.120 OA 
HETATM    2  N   UNL     1      -9.282   8.812  66.745  1.00  0.00    -0.160 NA 
HETATM    3  C   UNL     1      -9.381   9.484  65.529  1.00  0.00    -0.255 A  
HETATM    4  C   UNL     1     -10.217  10.585  65.356  1.00  0.00    -0.340 A  
HETATM    5  C   UNL     1     -10.979  11.029  66.427  1.00  0.00    -0.202 A  
HETATM    6  C   UNL     1     -10.901  10.372  67.656  1.00  0.00    -0.361 A  
HETATM    7  C   UNL     1     -10.047   9.265  67.831  1.00  0.00    -0.200 A  
ENDROOT
BRANCH   7   8
HETATM    8  S   UNL     1      -9.986   8.397  69.402  1.00  0.00    -0.196 SA 
BRANCH   8   9
HETATM    9  S   UNL     1     -11.114   6.709  69.056  1.00  0.00    -0.224 SA 
BRANCH   9  10
HETATM   10  C   UNL     1     -10.762   5.651  70.462  1.00  0.00    -0.274 A  
HETATM   11  C   UNL     1      -9.861   4.576  70.337  1.00  0.00    -0.302 A  
HETATM   12  C   UNL     1      -9.511   3.803  71.443  1.00  0.00    -0.225 A  
HETATM   13  C   UNL     1     -10.048   4.094  72.690  1.00  0.00    -0.225 A  
HETATM   14  C   UNL     1     -10.940   5.157  72.811  1.00  0.00    -0.267 A  
HETATM   15  N   UNL     1     -11.307   5.943  71.721  1.00  0.00    -0.259 NA 
HETATM   16  O   UNL     1     -12.122   6.907  71.913  1.00  0.00    -0.311 OA 
ENDBRANCH   9  10
ENDBRANCH   8   9
ENDBRANCH   7   8
TORSDOF 3
ENDMDL
MODEL      221
REMARK 921   NORMALIZED FREE ENERGY PREDICTED BY IDOCK:   -3.37 KCAL/MOL
REMARK 922        TOTAL FREE ENERGY PREDICTED BY IDOCK:   -4.15 KCAL/MOL
REMARK 923 INTER-LIGAND FREE ENERGY PREDICTED BY IDOCK:   -3.97 KCAL/MOL
REMARK 924 INTRA-LIGAND FREE ENERGY PREDICTED BY IDOCK:   -0.18 KCAL/MOL
REMARK 927      BINDING AFFINITY PREDICTED BY RF-SCORE:    0.00 PKD
ROOT
HETATM    1  O   UNL     1     -12.170  12.103  67.319  1.00  0.00    -0.496 OA 
HETATM    2  N   UNL     1     -11.810  12.079  66.094  1.00  0.00    -0.555 NA 
HETATM    3  C   UNL     1     -12.465  12.916  65.193  1.00  0.00    -0.501 A  
HETATM    4  C   UNL     1     -12.128  12.960  63.842  1.00  0.00    -0.553 A  
HETATM    5  C   UNL     1     -11.106  12.146  63.375  1.00  0.00    -0.495 A  
HETATM    6  C   UNL     1     -10.432  11.300  64.257  1.00  0.00    -0.419 A  
HETATM    7  C   UNL     1     -10.782  11.251  65.621  1.00  0.00    -0.217 A  
ENDROOT
BRANCH   7   8
HETATM    8  S   UNL     1      -9.880  10.193  66.758  1.00  0.00    -0.204 SA 
BRANCH   8   9
HETATM    9  S   UNL     1      -8.793   8.969  65.506  1.00  0.00    -0.198 SA 
BRANCH   9  10
HETATM   10  C   UNL     1      -7.406   8.435  66.512  1.00  0.00    -0.081 A  
HETATM   11  C   UNL     1      -7.299   8.847  67.855  1.00  0.00    -0.084 A  
HETATM   12  C   UNL     1      -6.276   8.366  68.671  1.00  0.00    -0.045 A  
HETATM   13  C   UNL     1      -5.350   7.464  68.164  1.00  0.00    -0.025 A  
HETATM   14  C   UNL     1      -5.457   7.060  66.835  1.00  0.00    -0.018 A  
HETATM   15  N   UNL     1      -6.469   7.526  65.999  1.00  0.00    -0.045 NA 
HETATM   16  O   UNL     1      -6.509   7.101  64.796  1.00  0.00    -0.036 OA 
ENDBRANCH   9  10
ENDBRANCH   8   9
ENDBRANCH   7   8
TORSDOF 3
ENDMDL
MODEL      222
REMARK 921   NORMALIZED FREE ENERGY PREDICTED BY IDOCK:   -3.36 KCAL/MOL
REMARK 922        TOTAL FREE ENERGY PREDICTED BY IDOCK:   -4.14 KCAL/MOL
REMARK 923 INTER-LIGAND FREE ENERGY PREDICTED BY IDOCK:   -3.84 KCAL/MOL
REMARK 924 INTRA-LIGAND FREE ENERGY PREDICTED BY IDOCK:   -0.31 KCAL/MOL
REMARK 927      BINDING AFFINITY PREDICTED BY RF-SCORE:    0.00 PKD
ROOT
HETATM    1  O   UNL     1     -10.477  13.953  67.517  1.00  0.00    -0.246 OA 
HETATM    2  N   UNL     1     -11.055  13.689  66.410  1.00  0.00    -0.301 NA 
HETATM    3  C   UNL     1     -11.446  14.748  65.595  1.00  0.00    -0.327 A  
HETATM    4  C   UNL     1     -12.073  14.548  64.368  1.00  0.00    -0.492 A  
HETATM    5  C   UNL     1     -12.315  13.251  63.938  1.00  0.00    -0.422 A  
HETATM    6  C   UNL     1     -11.931  12.171  64.734  1.00  0.00    -0.377 A  
HETATM    7  C   UNL     1     -11.306  12.377  65.980  1.00  0.00    -0.353 A  
ENDROOT
BRANCH   7   8
HETATM    8  S   UNL     1     -10.774  10.982  66.977  1.00  0.00    -0.272 SA 
BRANCH   8   9
HETATM    9  S   UNL     1      -8.723  11.014  66.781  1.00  0.00    -0.157 SA 
BRANCH   9  10
HETATM   10  C   UNL     1      -8.360   9.593  65.747  1.00  0.00    -0.128 A  
HETATM   11  C   UNL     1      -8.083   8.340  66.329  1.00  0.00    -0.109 A  
HETATM   12  C   UNL     1      -7.889   7.210  65.535  1.00  0.00    -0.115 A  
HETATM   13  C   UNL     1      -7.973   7.310  64.154  1.00  0.00    -0.084 A  
HETATM   14  C   UNL     1      -8.245   8.551  63.580  1.00  0.00    -0.128 A  
HETATM   15  N   UNL     1      -8.443   9.694  64.351  1.00  0.00    -0.167 NA 
HETATM   16  O   UNL     1      -8.699  10.793  63.754  1.00  0.00    -0.160 OA 
ENDBRANCH   9  10
ENDBRANCH   8   9
ENDBRANCH   7   8
TORSDOF 3
ENDMDL
MODEL      223
REMARK 921   NORMALIZED FREE ENERGY PREDICTED BY IDOCK:   -3.36 KCAL/MOL
REMARK 922        TOTAL FREE ENERGY PREDICTED BY IDOCK:   -4.14 KCAL/MOL
REMARK 923 INTER-LIGAND FREE ENERGY PREDICTED BY IDOCK:   -4.11 KCAL/MOL
REMARK 924 INTRA-LIGAND FREE ENERGY PREDICTED BY IDOCK:   -0.03 KCAL/MOL
REMARK 927      BINDING AFFINITY PREDICTED BY RF-SCORE:    0.00 PKD
ROOT
HETATM    1  O   UNL     1      -7.375  18.413  68.558  1.00  0.00    -0.268 OA 
HETATM    2  N   UNL     1      -8.400  18.754  67.880  1.00  0.00    -0.270 NA 
HETATM    3  C   UNL     1      -8.621  20.110  67.644  1.00  0.00    -0.303 A  
HETATM    4  C   UNL     1      -9.709  20.567  66.905  1.00  0.00    -0.516 A  
HETATM    5  C   UNL     1     -10.604  19.645  66.383  1.00  0.00    -0.592 A  
HETATM    6  C   UNL     1     -10.406  18.281  66.601  1.00  0.00    -0.400 A  
HETATM    7  C   UNL     1      -9.309  17.822  67.357  1.00  0.00    -0.252 A  
ENDROOT
BRANCH   7   8
HETATM    8  S   UNL     1      -9.035  16.063  67.595  1.00  0.00    -0.191 SA 
BRANCH   8   9
HETATM    9  S   UNL     1      -9.006  15.861  69.645  1.00  0.00     0.141 SA 
BRANCH   9  10
HETATM   10  C   UNL     1     -10.627  15.202  70.044  1.00  0.00    -0.216 A  
HETATM   11  C   UNL     1     -11.030  13.950  69.541  1.00  0.00    -0.109 A  
HETATM   12  C   UNL     1     -12.250  13.387  69.917  1.00  0.00    -0.337 A  
HETATM   13  C   UNL     1     -13.081  14.060  70.802  1.00  0.00    -0.245 A  
HETATM   14  C   UNL     1     -12.680  15.300  71.296  1.00  0.00    -0.401 A  
HETATM   15  N   UNL     1     -11.468  15.883  70.936  1.00  0.00    -0.382 NA 
HETATM   16  O   UNL     1     -11.165  17.017  71.439  1.00  0.00     0.229 OA 
ENDBRANCH   9  10
ENDBRANCH   8   9
ENDBRANCH   7   8
TORSDOF 3
ENDMDL
MODEL      224
REMARK 921   NORMALIZED FREE ENERGY PREDICTED BY IDOCK:   -3.35 KCAL/MOL
REMARK 922        TOTAL FREE ENERGY PREDICTED BY IDOCK:   -4.13 KCAL/MOL
REMARK 923 INTER-LIGAND FREE ENERGY PREDICTED BY IDOCK:   -3.62 KCAL/MOL
REMARK 924 INTRA-LIGAND FREE ENERGY PREDICTED BY IDOCK:   -0.51 KCAL/MOL
REMARK 927      BINDING AFFINITY PREDICTED BY RF-SCORE:    0.00 PKD
ROOT
HETATM    1  O   UNL     1     -10.537  12.976  68.826  1.00  0.00    -0.243 OA 
HETATM    2  N   UNL     1     -10.305  13.828  67.904  1.00  0.00    -0.240 NA 
HETATM    3  C   UNL     1     -11.383  14.330  67.177  1.00  0.00    -0.337 A  
HETATM    4  C   UNL     1     -11.220  15.270  66.162  1.00  0.00    -0.225 A  
HETATM    5  C   UNL     1      -9.944  15.724  65.863  1.00  0.00    -0.380 A  
HETATM    6  C   UNL     1      -8.847  15.240  66.577  1.00  0.00    -0.335 A  
HETATM    7  C   UNL     1      -9.014  14.282  67.596  1.00  0.00    -0.194 A  
ENDROOT
BRANCH   7   8
HETATM    8  S   UNL     1      -7.603  13.698  68.541  1.00  0.00    -0.122 SA 
BRANCH   8   9
HETATM    9  S   UNL     1      -6.867  12.157  67.389  1.00  0.00    -0.150 SA 
BRANCH   9  10
HETATM   10  C   UNL     1      -8.262  11.044  67.201  1.00  0.00    -0.133 A  
HETATM   11  C   UNL     1      -8.926  10.936  65.964  1.00  0.00    -0.200 A  
HETATM   12  C   UNL     1      -9.952  10.009  65.781  1.00  0.00    -0.346 A  
HETATM   13  C   UNL     1     -10.327   9.175  66.825  1.00  0.00    -0.308 A  
HETATM   14  C   UNL     1      -9.670   9.286  68.049  1.00  0.00    -0.150 A  
HETATM   15  N   UNL     1      -8.643  10.203  68.257  1.00  0.00    -0.114 NA 
HETATM   16  O   UNL     1      -8.081  10.238  69.403  1.00  0.00    -0.141 OA 
ENDBRANCH   9  10
ENDBRANCH   8   9
ENDBRANCH   7   8
TORSDOF 3
ENDMDL
MODEL      225
REMARK 921   NORMALIZED FREE ENERGY PREDICTED BY IDOCK:   -3.35 KCAL/MOL
REMARK 922        TOTAL FREE ENERGY PREDICTED BY IDOCK:   -4.13 KCAL/MOL
REMARK 923 INTER-LIGAND FREE ENERGY PREDICTED BY IDOCK:   -3.84 KCAL/MOL
REMARK 924 INTRA-LIGAND FREE ENERGY PREDICTED BY IDOCK:   -0.28 KCAL/MOL
REMARK 927      BINDING AFFINITY PREDICTED BY RF-SCORE:    0.00 PKD
ROOT
HETATM    1  O   UNL     1     -11.590  11.062  68.975  1.00  0.00    -0.271 OA 
HETATM    2  N   UNL     1     -11.959  10.485  70.052  1.00  0.00    -0.288 NA 
HETATM    3  C   UNL     1     -12.910  11.116  70.852  1.00  0.00    -0.282 A  
HETATM    4  C   UNL     1     -13.375  10.551  72.037  1.00  0.00    -0.420 A  
HETATM    5  C   UNL     1     -12.880   9.319  72.437  1.00  0.00    -0.418 A  
HETATM    6  C   UNL     1     -11.929   8.663  71.653  1.00  0.00    -0.388 A  
HETATM    7  C   UNL     1     -11.453   9.241  70.460  1.00  0.00    -0.248 A  
ENDROOT
BRANCH   7   8
HETATM    8  S   UNL     1     -10.264   8.371  69.434  1.00  0.00    -0.210 SA 
BRANCH   8   9
HETATM    9  S   UNL     1      -8.488   8.623  70.448  1.00  0.00    -0.153 SA 
BRANCH   9  10
HETATM   10  C   UNL     1      -8.651   7.561  71.886  1.00  0.00    -0.107 A  
HETATM   11  C   UNL     1      -8.949   8.111  73.148  1.00  0.00    -0.330 A  
HETATM   12  C   UNL     1      -9.167   7.289  74.254  1.00  0.00    -0.232 A  
HETATM   13  C   UNL     1      -9.098   5.910  74.116  1.00  0.00    -0.128 A  
HETATM   14  C   UNL     1      -8.802   5.368  72.867  1.00  0.00    -0.121 A  
HETATM   15  N   UNL     1      -8.579   6.168  71.749  1.00  0.00    -0.133 NA 
HETATM   16  O   UNL     1      -8.323   5.597  70.635  1.00  0.00    -0.114 OA 
ENDBRANCH   9  10
ENDBRANCH   8   9
ENDBRANCH   7   8
TORSDOF 3
ENDMDL
MODEL      226
REMARK 921   NORMALIZED FREE ENERGY PREDICTED BY IDOCK:   -3.34 KCAL/MOL
REMARK 922        TOTAL FREE ENERGY PREDICTED BY IDOCK:   -4.12 KCAL/MOL
REMARK 923 INTER-LIGAND FREE ENERGY PREDICTED BY IDOCK:   -3.60 KCAL/MOL
REMARK 924 INTRA-LIGAND FREE ENERGY PREDICTED BY IDOCK:   -0.51 KCAL/MOL
REMARK 927      BINDING AFFINITY PREDICTED BY RF-SCORE:    0.00 PKD
ROOT
HETATM    1  O   UNL     1     -12.888  13.855  66.718  1.00  0.00    -0.029 OA 
HETATM    2  N   UNL     1     -12.040  13.282  65.955  1.00  0.00    -0.424 NA 
HETATM    3  C   UNL     1     -11.740  11.941  66.184  1.00  0.00    -0.142 A  
HETATM    4  C   UNL     1     -10.835  11.238  65.393  1.00  0.00    -0.255 A  
HETATM    5  C   UNL     1     -10.210  11.891  64.340  1.00  0.00    -0.333 A  
HETATM    6  C   UNL     1     -10.494  13.234  64.087  1.00  0.00    -0.281 A  
HETATM    7  C   UNL     1     -11.403  13.945  64.895  1.00  0.00    -0.347 A  
ENDROOT
BRANCH   7   8
HETATM    8  S   UNL     1     -11.797  15.660  64.535  1.00  0.00    -0.039 SA 
BRANCH   8   9
HETATM    9  S   UNL     1     -10.316  16.703  65.516  1.00  0.00    -0.164 SA 
BRANCH   9  10
HETATM   10  C   UNL     1     -10.335  16.030  67.180  1.00  0.00    -0.295 A  
HETATM   11  C   UNL     1     -11.301  16.460  68.112  1.00  0.00    -0.205 A  
HETATM   12  C   UNL     1     -11.382  15.880  69.377  1.00  0.00    -0.349 A  
HETATM   13  C   UNL     1     -10.508  14.861  69.730  1.00  0.00    -0.151 A  
HETATM   14  C   UNL     1      -9.553  14.438  68.808  1.00  0.00    -0.177 A  
HETATM   15  N   UNL     1      -9.451  15.003  67.538  1.00  0.00    -0.202 NA 
HETATM   16  O   UNL     1      -8.557  14.555  66.744  1.00  0.00    -0.210 OA 
ENDBRANCH   9  10
ENDBRANCH   8   9
ENDBRANCH   7   8
TORSDOF 3
ENDMDL
MODEL      227
REMARK 921   NORMALIZED FREE ENERGY PREDICTED BY IDOCK:   -3.33 KCAL/MOL
REMARK 922        TOTAL FREE ENERGY PREDICTED BY IDOCK:   -4.10 KCAL/MOL
REMARK 923 INTER-LIGAND FREE ENERGY PREDICTED BY IDOCK:   -3.91 KCAL/MOL
REMARK 924 INTRA-LIGAND FREE ENERGY PREDICTED BY IDOCK:   -0.20 KCAL/MOL
REMARK 927      BINDING AFFINITY PREDICTED BY RF-SCORE:    0.00 PKD
ROOT
HETATM    1  O   UNL     1     -12.799  13.379  65.258  1.00  0.00    -0.648 OA 
HETATM    2  N   UNL     1     -11.635  13.818  65.543  1.00  0.00    -0.318 NA 
HETATM    3  C   UNL     1     -11.356  15.163  65.312  1.00  0.00    -0.318 A  
HETATM    4  C   UNL     1     -10.116  15.724  65.604  1.00  0.00    -0.401 A  
HETATM    5  C   UNL     1      -9.123  14.921  66.145  1.00  0.00    -0.202 A  
HETATM    6  C   UNL     1      -9.376  13.571  66.390  1.00  0.00    -0.191 A  
HETATM    7  C   UNL     1     -10.628  13.003  66.084  1.00  0.00    -0.277 A  
ENDROOT
BRANCH   7   8
HETATM    8  S   UNL     1     -10.961  11.275  66.443  1.00  0.00    -0.175 SA 
BRANCH   8   9
HETATM    9  S   UNL     1      -9.091  10.501  66.822  1.00  0.00    -0.152 SA 
BRANCH   9  10
HETATM   10  C   UNL     1      -9.357   9.357  68.179  1.00  0.00    -0.133 A  
HETATM   11  C   UNL     1     -10.218   8.254  68.023  1.00  0.00    -0.265 A  
HETATM   12  C   UNL     1     -10.362   7.309  69.038  1.00  0.00    -0.208 A  
HETATM   13  C   UNL     1      -9.647   7.446  70.220  1.00  0.00    -0.165 A  
HETATM   14  C   UNL     1      -8.796   8.539  70.373  1.00  0.00    -0.150 A  
HETATM   15  N   UNL     1      -8.636   9.497  69.374  1.00  0.00    -0.147 NA 
HETATM   16  O   UNL     1      -7.829  10.465  69.583  1.00  0.00    -0.156 OA 
ENDBRANCH   9  10
ENDBRANCH   8   9
ENDBRANCH   7   8
TORSDOF 3
ENDMDL
MODEL      228
REMARK 921   NORMALIZED FREE ENERGY PREDICTED BY IDOCK:   -3.32 KCAL/MOL
REMARK 922        TOTAL FREE ENERGY PREDICTED BY IDOCK:   -4.09 KCAL/MOL
REMARK 923 INTER-LIGAND FREE ENERGY PREDICTED BY IDOCK:   -3.59 KCAL/MOL
REMARK 924 INTRA-LIGAND FREE ENERGY PREDICTED BY IDOCK:   -0.51 KCAL/MOL
REMARK 927      BINDING AFFINITY PREDICTED BY RF-SCORE:    0.00 PKD
ROOT
HETATM    1  O   UNL     1     -11.195   6.836  67.233  1.00  0.00    -0.348 OA 
HETATM    2  N   UNL     1     -10.277   6.410  68.011  1.00  0.00    -0.148 NA 
HETATM    3  C   UNL     1     -10.078   5.035  68.114  1.00  0.00    -0.103 A  
HETATM    4  C   UNL     1      -9.092   4.487  68.931  1.00  0.00    -0.171 A  
HETATM    5  C   UNL     1      -8.277   5.335  69.666  1.00  0.00    -0.095 A  
HETATM    6  C   UNL     1      -8.452   6.718  69.579  1.00  0.00    -0.133 A  
HETATM    7  C   UNL     1      -9.457   7.268  68.760  1.00  0.00    -0.142 A  
ENDROOT
BRANCH   7   8
HETATM    8  S   UNL     1      -9.648   9.048  68.618  1.00  0.00    -0.155 SA 
BRANCH   8   9
HETATM    9  S   UNL     1     -11.082   9.485  70.030  1.00  0.00    -0.217 SA 
BRANCH   9  10
HETATM   10  C   UNL     1     -10.777   8.304  71.346  1.00  0.00    -0.227 A  
HETATM   11  C   UNL     1      -9.848   8.595  72.364  1.00  0.00    -0.315 A  
HETATM   12  C   UNL     1      -9.668   7.726  73.439  1.00  0.00    -0.353 A  
HETATM   13  C   UNL     1     -10.415   6.558  73.519  1.00  0.00    -0.317 A  
HETATM   14  C   UNL     1     -11.332   6.271  72.510  1.00  0.00    -0.275 A  
HETATM   15  N   UNL     1     -11.528   7.123  71.426  1.00  0.00    -0.261 NA 
HETATM   16  O   UNL     1     -12.395   6.797  70.546  1.00  0.00    -0.326 OA 
ENDBRANCH   9  10
ENDBRANCH   8   9
ENDBRANCH   7   8
TORSDOF 3
ENDMDL
MODEL      229
REMARK 921   NORMALIZED FREE ENERGY PREDICTED BY IDOCK:   -3.29 KCAL/MOL
REMARK 922        TOTAL FREE ENERGY PREDICTED BY IDOCK:   -4.07 KCAL/MOL
REMARK 923 INTER-LIGAND FREE ENERGY PREDICTED BY IDOCK:   -3.80 KCAL/MOL
REMARK 924 INTRA-LIGAND FREE ENERGY PREDICTED BY IDOCK:   -0.27 KCAL/MOL
REMARK 927      BINDING AFFINITY PREDICTED BY RF-SCORE:    0.00 PKD
ROOT
HETATM    1  O   UNL     1     -10.564  10.626  69.981  1.00  0.00    -0.230 OA 
HETATM    2  N   UNL     1     -11.411  10.212  70.842  1.00  0.00    -0.348 NA 
HETATM    3  C   UNL     1     -12.655  10.836  70.904  1.00  0.00    -0.401 A  
HETATM    4  C   UNL     1     -13.639  10.440  71.805  1.00  0.00    -0.246 A  
HETATM    5  C   UNL     1     -13.377   9.389  72.672  1.00  0.00    -0.300 A  
HETATM    6  C   UNL     1     -12.139   8.744  72.630  1.00  0.00    -0.207 A  
HETATM    7  C   UNL     1     -11.142   9.154  71.723  1.00  0.00    -0.367 A  
ENDROOT
BRANCH   7   8
HETATM    8  S   UNL     1      -9.569   8.291  71.643  1.00  0.00    -0.221 SA 
BRANCH   8   9
HETATM    9  S   UNL     1      -9.996   6.451  72.466  1.00  0.00    -0.171 SA 
BRANCH   9  10
HETATM   10  C   UNL     1      -9.859   5.311  71.087  1.00  0.00    -0.189 A  
HETATM   11  C   UNL     1      -9.945   5.782  69.762  1.00  0.00    -0.250 A  
HETATM   12  C   UNL     1      -9.749   4.921  68.683  1.00  0.00    -0.225 A  
HETATM   13  C   UNL     1      -9.460   3.583  68.907  1.00  0.00    -0.210 A  
HETATM   14  C   UNL     1      -9.377   3.119  70.218  1.00  0.00    -0.165 A  
HETATM   15  N   UNL     1      -9.569   3.958  71.313  1.00  0.00    -0.160 NA 
HETATM   16  O   UNL     1      -9.465   3.462  72.485  1.00  0.00    -0.107 OA 
ENDBRANCH   9  10
ENDBRANCH   8   9
ENDBRANCH   7   8
TORSDOF 3
ENDMDL
MODEL      230
REMARK 921   NORMALIZED FREE ENERGY PREDICTED BY IDOCK:   -3.29 KCAL/MOL
REMARK 922        TOTAL FREE ENERGY PREDICTED BY IDOCK:   -4.06 KCAL/MOL
REMARK 923 INTER-LIGAND FREE ENERGY PREDICTED BY IDOCK:   -3.80 KCAL/MOL
REMARK 924 INTRA-LIGAND FREE ENERGY PREDICTED BY IDOCK:   -0.26 KCAL/MOL
REMARK 927      BINDING AFFINITY PREDICTED BY RF-SCORE:    0.00 PKD
ROOT
HETATM    1  O   UNL     1      -9.314  13.602  67.007  1.00  0.00    -0.230 OA 
HETATM    2  N   UNL     1     -10.325  13.627  66.229  1.00  0.00    -0.287 NA 
HETATM    3  C   UNL     1     -10.294  14.475  65.124  1.00  0.00    -0.411 A  
HETATM    4  C   UNL     1     -11.350  14.555  64.220  1.00  0.00    -0.135 A  
HETATM    5  C   UNL     1     -12.472  13.765  64.422  1.00  0.00    -0.317 A  
HETATM    6  C   UNL     1     -12.529  12.904  65.520  1.00  0.00    -0.462 A  
HETATM    7  C   UNL     1     -11.463  12.832  66.438  1.00  0.00    -0.357 A  
ENDROOT
BRANCH   7   8
HETATM    8  S   UNL     1     -11.524  11.690  67.822  1.00  0.00    -0.290 SA 
BRANCH   8   9
HETATM    9  S   UNL     1     -10.517  10.037  67.118  1.00  0.00    -0.232 SA 
BRANCH   9  10
HETATM   10  C   UNL     1      -9.365   9.633  68.434  1.00  0.00    -0.133 A  
HETATM   11  C   UNL     1      -8.387  10.563  68.836  1.00  0.00    -0.147 A  
HETATM   12  C   UNL     1      -7.546  10.296  69.916  1.00  0.00    -0.153 A  
HETATM   13  C   UNL     1      -7.672   9.103  70.614  1.00  0.00    -0.152 A  
HETATM   14  C   UNL     1      -8.639   8.183  70.213  1.00  0.00    -0.131 A  
HETATM   15  N   UNL     1      -9.490   8.426  69.137  1.00  0.00    -0.154 NA 
HETATM   16  O   UNL     1     -10.359   7.540  68.837  1.00  0.00    -0.204 OA 
ENDBRANCH   9  10
ENDBRANCH   8   9
ENDBRANCH   7   8
TORSDOF 3
ENDMDL
MODEL      231
REMARK 921   NORMALIZED FREE ENERGY PREDICTED BY IDOCK:   -3.27 KCAL/MOL
REMARK 922        TOTAL FREE ENERGY PREDICTED BY IDOCK:   -4.04 KCAL/MOL
REMARK 923 INTER-LIGAND FREE ENERGY PREDICTED BY IDOCK:   -4.06 KCAL/MOL
REMARK 924 INTRA-LIGAND FREE ENERGY PREDICTED BY IDOCK:    0.02 KCAL/MOL
REMARK 927      BINDING AFFINITY PREDICTED BY RF-SCORE:    0.00 PKD
ROOT
HETATM    1  O   UNL     1     -10.203   8.813  67.146  1.00  0.00    -0.227 OA 
HETATM    2  N   UNL     1     -10.165   8.771  68.421  1.00  0.00    -0.192 NA 
HETATM    3  C   UNL     1      -9.468   7.731  69.031  1.00  0.00    -0.150 A  
HETATM    4  C   UNL     1      -9.367   7.617  70.415  1.00  0.00    -0.160 A  
HETATM    5  C   UNL     1      -9.978   8.570  71.217  1.00  0.00    -0.284 A  
HETATM    6  C   UNL     1     -10.681   9.625  70.631  1.00  0.00    -0.388 A  
HETATM    7  C   UNL     1     -10.789   9.732  69.231  1.00  0.00    -0.216 A  
ENDROOT
BRANCH   7   8
HETATM    8  S   UNL     1     -11.656  11.116  68.484  1.00  0.00    -0.305 SA 
BRANCH   8   9
HETATM    9  S   UNL     1     -10.217  11.994  67.300  1.00  0.00    -0.205 SA 
BRANCH   9  10
HETATM   10  C   UNL     1     -10.199  13.708  67.830  1.00  0.00    -0.250 A  
HETATM   11  C   UNL     1      -9.084  14.232  68.512  1.00  0.00    -0.191 A  
HETATM   12  C   UNL     1      -9.021  15.584  68.849  1.00  0.00    -0.220 A  
HETATM   13  C   UNL     1     -10.063  16.433  68.505  1.00  0.00    -0.248 A  
HETATM   14  C   UNL     1     -11.166  15.913  67.832  1.00  0.00    -0.297 A  
HETATM   15  N   UNL     1     -11.253  14.566  67.486  1.00  0.00    -0.307 NA 
HETATM   16  O   UNL     1     -12.292  14.166  66.859  1.00  0.00    -0.419 OA 
ENDBRANCH   9  10
ENDBRANCH   8   9
ENDBRANCH   7   8
TORSDOF 3
ENDMDL
MODEL      232
REMARK 921   NORMALIZED FREE ENERGY PREDICTED BY IDOCK:   -3.27 KCAL/MOL
REMARK 922        TOTAL FREE ENERGY PREDICTED BY IDOCK:   -4.04 KCAL/MOL
REMARK 923 INTER-LIGAND FREE ENERGY PREDICTED BY IDOCK:   -3.86 KCAL/MOL
REMARK 924 INTRA-LIGAND FREE ENERGY PREDICTED BY IDOCK:   -0.18 KCAL/MOL
REMARK 927      BINDING AFFINITY PREDICTED BY RF-SCORE:    0.00 PKD
ROOT
HETATM    1  O   UNL     1     -11.931  14.726  69.218  1.00  0.00    -0.303 OA 
HETATM    2  N   UNL     1     -12.333  13.856  70.060  1.00  0.00    -0.333 NA 
HETATM    3  C   UNL     1     -12.727  14.288  71.325  1.00  0.00    -0.357 A  
HETATM    4  C   UNL     1     -13.189  13.407  72.299  1.00  0.00    -0.570 A  
HETATM    5  C   UNL     1     -13.263  12.054  72.004  1.00  0.00    -0.481 A  
HETATM    6  C   UNL     1     -12.877  11.594  70.744  1.00  0.00    -0.197 A  
HETATM    7  C   UNL     1     -12.401  12.487  69.764  1.00  0.00    -0.020 A  
ENDROOT
BRANCH   7   8
HETATM    8  S   UNL     1     -11.950  11.894  68.130  1.00  0.00     0.004 SA 
BRANCH   8   9
HETATM    9  S   UNL     1      -9.894  12.024  68.129  1.00  0.00    -0.204 SA 
BRANCH   9  10
HETATM   10  C   UNL     1      -9.412  11.340  66.541  1.00  0.00    -0.193 A  
HETATM   11  C   UNL     1      -8.802  10.073  66.466  1.00  0.00    -0.154 A  
HETATM   12  C   UNL     1      -8.506   9.493  65.233  1.00  0.00    -0.159 A  
HETATM   13  C   UNL     1      -8.819  10.164  64.059  1.00  0.00    -0.247 A  
HETATM   14  C   UNL     1      -9.421  11.418  64.135  1.00  0.00    -0.135 A  
HETATM   15  N   UNL     1      -9.726  12.018  65.355  1.00  0.00    -0.220 NA 
HETATM   16  O   UNL     1     -10.288  13.165  65.344  1.00  0.00    -0.291 OA 
ENDBRANCH   9  10
ENDBRANCH   8   9
ENDBRANCH   7   8
TORSDOF 3
ENDMDL
MODEL      233
REMARK 921   NORMALIZED FREE ENERGY PREDICTED BY IDOCK:   -3.27 KCAL/MOL
REMARK 922        TOTAL FREE ENERGY PREDICTED BY IDOCK:   -4.04 KCAL/MOL
REMARK 923 INTER-LIGAND FREE ENERGY PREDICTED BY IDOCK:   -3.76 KCAL/MOL
REMARK 924 INTRA-LIGAND FREE ENERGY PREDICTED BY IDOCK:   -0.28 KCAL/MOL
REMARK 927      BINDING AFFINITY PREDICTED BY RF-SCORE:    0.00 PKD
ROOT
HETATM    1  O   UNL     1      -9.671   8.624  70.637  1.00  0.00    -0.169 OA 
HETATM    2  N   UNL     1      -9.026   9.385  69.841  1.00  0.00    -0.182 NA 
HETATM    3  C   UNL     1      -7.664   9.153  69.657  1.00  0.00    -0.082 A  
HETATM    4  C   UNL     1      -6.889   9.930  68.800  1.00  0.00    -0.054 A  
HETATM    5  C   UNL     1      -7.489  10.969  68.103  1.00  0.00    -0.092 A  
HETATM    6  C   UNL     1      -8.852  11.221  68.266  1.00  0.00    -0.158 A  
HETATM    7  C   UNL     1      -9.631  10.440  69.142  1.00  0.00    -0.213 A  
ENDROOT
BRANCH   7   8
HETATM    8  S   UNL     1     -11.393  10.742  69.313  1.00  0.00    -0.310 SA 
BRANCH   8   9
HETATM    9  S   UNL     1     -11.651  12.573  68.405  1.00  0.00    -0.341 SA 
BRANCH   9  10
HETATM   10  C   UNL     1     -11.825  13.720  69.773  1.00  0.00    -0.331 A  
HETATM   11  C   UNL     1     -12.221  13.259  71.044  1.00  0.00    -0.287 A  
HETATM   12  C   UNL     1     -12.272  14.126  72.136  1.00  0.00    -0.081 A  
HETATM   13  C   UNL     1     -11.924  15.460  71.979  1.00  0.00    -0.500 A  
HETATM   14  C   UNL     1     -11.534  15.914  70.720  1.00  0.00    -0.407 A  
HETATM   15  N   UNL     1     -11.476  15.069  69.615  1.00  0.00    -0.276 NA 
HETATM   16  O   UNL     1     -11.098  15.556  68.496  1.00  0.00    -0.273 OA 
ENDBRANCH   9  10
ENDBRANCH   8   9
ENDBRANCH   7   8
TORSDOF 3
ENDMDL
MODEL      234
REMARK 921   NORMALIZED FREE ENERGY PREDICTED BY IDOCK:   -3.26 KCAL/MOL
REMARK 922        TOTAL FREE ENERGY PREDICTED BY IDOCK:   -4.02 KCAL/MOL
REMARK 923 INTER-LIGAND FREE ENERGY PREDICTED BY IDOCK:   -3.85 KCAL/MOL
REMARK 924 INTRA-LIGAND FREE ENERGY PREDICTED BY IDOCK:   -0.17 KCAL/MOL
REMARK 927      BINDING AFFINITY PREDICTED BY RF-SCORE:    0.00 PKD
ROOT
HETATM    1  O   UNL     1      -9.505  10.143  64.721  1.00  0.00    -0.249 OA 
HETATM    2  N   UNL     1      -8.807  10.720  65.620  1.00  0.00    -0.186 NA 
HETATM    3  C   UNL     1      -7.424  10.553  65.597  1.00  0.00    -0.129 A  
HETATM    4  C   UNL     1      -6.589  11.156  66.534  1.00  0.00    -0.124 A  
HETATM    5  C   UNL     1      -7.148  11.951  67.524  1.00  0.00    -0.123 A  
HETATM    6  C   UNL     1      -8.531  12.137  67.569  1.00  0.00    -0.169 A  
HETATM    7  C   UNL     1      -9.375  11.518  66.625  1.00  0.00    -0.189 A  
ENDROOT
BRANCH   7   8
HETATM    8  S   UNL     1     -11.148  11.799  66.662  1.00  0.00    -0.316 SA 
BRANCH   8   9
HETATM    9  S   UNL     1     -11.526  12.188  68.649  1.00  0.00    -0.321 SA 
BRANCH   9  10
HETATM   10  C   UNL     1     -11.261  13.956  68.807  1.00  0.00    -0.272 A  
HETATM   11  C   UNL     1     -10.791  14.707  67.713  1.00  0.00    -0.268 A  
HETATM   12  C   UNL     1     -10.668  16.093  67.796  1.00  0.00    -0.325 A  
HETATM   13  C   UNL     1     -11.017  16.751  68.968  1.00  0.00    -0.239 A  
HETATM   14  C   UNL     1     -11.479  16.006  70.050  1.00  0.00    -0.331 A  
HETATM   15  N   UNL     1     -11.610  14.620  69.992  1.00  0.00    -0.272 NA 
HETATM   16  O   UNL     1     -12.052  14.007  71.021  1.00  0.00    -0.336 OA 
ENDBRANCH   9  10
ENDBRANCH   8   9
ENDBRANCH   7   8
TORSDOF 3
ENDMDL
MODEL      235
REMARK 921   NORMALIZED FREE ENERGY PREDICTED BY IDOCK:   -3.25 KCAL/MOL
REMARK 922        TOTAL FREE ENERGY PREDICTED BY IDOCK:   -4.02 KCAL/MOL
REMARK 923 INTER-LIGAND FREE ENERGY PREDICTED BY IDOCK:   -3.76 KCAL/MOL
REMARK 924 INTRA-LIGAND FREE ENERGY PREDICTED BY IDOCK:   -0.26 KCAL/MOL
REMARK 927      BINDING AFFINITY PREDICTED BY RF-SCORE:    0.00 PKD
ROOT
HETATM    1  O   UNL     1     -11.966  15.010  69.588  1.00  0.00    -0.298 OA 
HETATM    2  N   UNL     1     -11.413  15.385  68.500  1.00  0.00    -0.335 NA 
HETATM    3  C   UNL     1     -10.753  16.612  68.479  1.00  0.00    -0.351 A  
HETATM    4  C   UNL     1     -10.115  17.091  67.338  1.00  0.00    -0.291 A  
HETATM    5  C   UNL     1     -10.134  16.324  66.182  1.00  0.00    -0.362 A  
HETATM    6  C   UNL     1     -10.785  15.090  66.177  1.00  0.00    -0.328 A  
HETATM    7  C   UNL     1     -11.438  14.612  67.330  1.00  0.00    -0.372 A  
ENDROOT
BRANCH   7   8
HETATM    8  S   UNL     1     -12.236  13.003  67.328  1.00  0.00     0.055 SA 
BRANCH   8   9
HETATM    9  S   UNL     1     -10.991  11.858  66.152  1.00  0.00    -0.316 SA 
BRANCH   9  10
HETATM   10  C   UNL     1      -9.963  10.978  67.330  1.00  0.00    -0.182 A  
HETATM   11  C   UNL     1     -10.458  10.658  68.609  1.00  0.00    -0.211 A  
HETATM   12  C   UNL     1      -9.702   9.896  69.499  1.00  0.00    -0.238 A  
HETATM   13  C   UNL     1      -8.446   9.437  69.126  1.00  0.00    -0.134 A  
HETATM   14  C   UNL     1      -7.957   9.756  67.861  1.00  0.00    -0.104 A  
HETATM   15  N   UNL     1      -8.693  10.516  66.954  1.00  0.00    -0.127 NA 
HETATM   16  O   UNL     1      -8.183  10.758  65.809  1.00  0.00    -0.162 OA 
ENDBRANCH   9  10
ENDBRANCH   8   9
ENDBRANCH   7   8
TORSDOF 3
ENDMDL
MODEL      236
REMARK 921   NORMALIZED FREE ENERGY PREDICTED BY IDOCK:   -3.25 KCAL/MOL
REMARK 922        TOTAL FREE ENERGY PREDICTED BY IDOCK:   -4.01 KCAL/MOL
REMARK 923 INTER-LIGAND FREE ENERGY PREDICTED BY IDOCK:   -3.67 KCAL/MOL
REMARK 924 INTRA-LIGAND FREE ENERGY PREDICTED BY IDOCK:   -0.34 KCAL/MOL
REMARK 927      BINDING AFFINITY PREDICTED BY RF-SCORE:    0.00 PKD
ROOT
HETATM    1  O   UNL     1      -6.764   7.211  69.069  1.00  0.00    -0.052 OA 
HETATM    2  N   UNL     1      -7.910   7.336  68.521  1.00  0.00    -0.120 NA 
HETATM    3  C   UNL     1      -8.151   6.665  67.325  1.00  0.00    -0.121 A  
HETATM    4  C   UNL     1      -9.376   6.739  66.667  1.00  0.00    -0.197 A  
HETATM    5  C   UNL     1     -10.393   7.504  67.219  1.00  0.00    -0.366 A  
HETATM    6  C   UNL     1     -10.179   8.185  68.418  1.00  0.00    -0.240 A  
HETATM    7  C   UNL     1      -8.936   8.116  69.076  1.00  0.00    -0.144 A  
ENDROOT
BRANCH   7   8
HETATM    8  S   UNL     1      -8.683   8.958  70.642  1.00  0.00    -0.216 SA 
BRANCH   8   9
HETATM    9  S   UNL     1     -10.503   8.762  71.586  1.00  0.00    -0.342 SA 
BRANCH   9  10
HETATM   10  C   UNL     1     -10.370   7.209  72.475  1.00  0.00    -0.208 A  
HETATM   11  C   UNL     1      -9.788   7.168  73.757  1.00  0.00    -0.355 A  
HETATM   12  C   UNL     1      -9.762   5.985  74.494  1.00  0.00    -0.263 A  
HETATM   13  C   UNL     1     -10.319   4.828  73.967  1.00  0.00    -0.299 A  
HETATM   14  C   UNL     1     -10.893   4.869  72.698  1.00  0.00    -0.199 A  
HETATM   15  N   UNL     1     -10.931   6.039  71.942  1.00  0.00    -0.253 NA 
HETATM   16  O   UNL     1     -11.484   6.001  70.792  1.00  0.00    -0.290 OA 
ENDBRANCH   9  10
ENDBRANCH   8   9
ENDBRANCH   7   8
TORSDOF 3
ENDMDL
MODEL      237
REMARK 921   NORMALIZED FREE ENERGY PREDICTED BY IDOCK:   -3.24 KCAL/MOL
REMARK 922        TOTAL FREE ENERGY PREDICTED BY IDOCK:   -4.00 KCAL/MOL
REMARK 923 INTER-LIGAND FREE ENERGY PREDICTED BY IDOCK:   -3.31 KCAL/MOL
REMARK 924 INTRA-LIGAND FREE ENERGY PREDICTED BY IDOCK:   -0.69 KCAL/MOL
REMARK 927      BINDING AFFINITY PREDICTED BY RF-SCORE:    0.00 PKD
ROOT
HETATM    1  O   UNL     1      -8.745   3.078  71.473  1.00  0.00    -0.070 OA 
HETATM    2  N   UNL     1      -8.843   4.084  70.693  1.00  0.00    -0.076 NA 
HETATM    3  C   UNL     1      -9.571   3.942  69.513  1.00  0.00    -0.178 A  
HETATM    4  C   UNL     1      -9.735   4.992  68.613  1.00  0.00    -0.221 A  
HETATM    5  C   UNL     1      -9.159   6.221  68.898  1.00  0.00    -0.124 A  
HETATM    6  C   UNL     1      -8.428   6.391  70.074  1.00  0.00    -0.135 A  
HETATM    7  C   UNL     1      -8.255   5.325  70.978  1.00  0.00    -0.116 A  
ENDROOT
BRANCH   7   8
HETATM    8  S   UNL     1      -7.350   5.564  72.511  1.00  0.00    -0.097 SA 
BRANCH   8   9
HETATM    9  S   UNL     1      -8.843   5.720  73.923  1.00  0.00    -0.126 SA 
BRANCH   9  10
HETATM   10  C   UNL     1     -10.139   6.641  73.090  1.00  0.00    -0.194 A  
HETATM   11  C   UNL     1      -9.959   8.003  72.781  1.00  0.00    -0.364 A  
HETATM   12  C   UNL     1     -10.921   8.705  72.055  1.00  0.00    -0.432 A  
HETATM   13  C   UNL     1     -12.070   8.059  71.621  1.00  0.00    -0.339 A  
HETATM   14  C   UNL     1     -12.247   6.712  71.929  1.00  0.00    -0.335 A  
HETATM   15  N   UNL     1     -11.301   5.989  72.654  1.00  0.00    -0.286 NA 
HETATM   16  O   UNL     1     -11.529   4.755  72.888  1.00  0.00    -0.218 OA 
ENDBRANCH   9  10
ENDBRANCH   8   9
ENDBRANCH   7   8
TORSDOF 3
ENDMDL
MODEL      238
REMARK 921   NORMALIZED FREE ENERGY PREDICTED BY IDOCK:   -3.23 KCAL/MOL
REMARK 922        TOTAL FREE ENERGY PREDICTED BY IDOCK:   -3.99 KCAL/MOL
REMARK 923 INTER-LIGAND FREE ENERGY PREDICTED BY IDOCK:   -3.83 KCAL/MOL
REMARK 924 INTRA-LIGAND FREE ENERGY PREDICTED BY IDOCK:   -0.17 KCAL/MOL
REMARK 927      BINDING AFFINITY PREDICTED BY RF-SCORE:    0.00 PKD
ROOT
HETATM    1  O   UNL     1     -12.264  12.270  70.588  1.00  0.00    -0.371 OA 
HETATM    2  N   UNL     1     -12.229  11.055  70.976  1.00  0.00    -0.361 NA 
HETATM    3  C   UNL     1     -13.158  10.632  71.924  1.00  0.00    -0.458 A  
HETATM    4  C   UNL     1     -13.195   9.322  72.394  1.00  0.00    -0.501 A  
HETATM    5  C   UNL     1     -12.280   8.403  71.902  1.00  0.00    -0.395 A  
HETATM    6  C   UNL     1     -11.340   8.798  70.949  1.00  0.00    -0.322 A  
HETATM    7  C   UNL     1     -11.298  10.127  70.483  1.00  0.00    -0.338 A  
ENDROOT
BRANCH   7   8
HETATM    8  S   UNL     1     -10.116  10.618  69.224  1.00  0.00    -0.172 SA 
BRANCH   8   9
HETATM    9  S   UNL     1      -8.492   9.408  69.601  1.00  0.00    -0.182 SA 
BRANCH   9  10
HETATM   10  C   UNL     1      -8.141   8.639  68.018  1.00  0.00    -0.111 A  
HETATM   11  C   UNL     1      -8.336   7.255  67.839  1.00  0.00    -0.119 A  
HETATM   12  C   UNL     1      -8.154   6.663  66.590  1.00  0.00    -0.110 A  
HETATM   13  C   UNL     1      -7.781   7.440  65.501  1.00  0.00    -0.107 A  
HETATM   14  C   UNL     1      -7.588   8.808  65.681  1.00  0.00    -0.086 A  
HETATM   15  N   UNL     1      -7.762   9.423  66.919  1.00  0.00    -0.091 NA 
HETATM   16  O   UNL     1      -7.577  10.684  67.003  1.00  0.00    -0.103 OA 
ENDBRANCH   9  10
ENDBRANCH   8   9
ENDBRANCH   7   8
TORSDOF 3
ENDMDL
MODEL      239
REMARK 921   NORMALIZED FREE ENERGY PREDICTED BY IDOCK:   -3.23 KCAL/MOL
REMARK 922        TOTAL FREE ENERGY PREDICTED BY IDOCK:   -3.99 KCAL/MOL
REMARK 923 INTER-LIGAND FREE ENERGY PREDICTED BY IDOCK:   -3.63 KCAL/MOL
REMARK 924 INTRA-LIGAND FREE ENERGY PREDICTED BY IDOCK:   -0.36 KCAL/MOL
REMARK 927      BINDING AFFINITY PREDICTED BY RF-SCORE:    0.00 PKD
ROOT
HETATM    1  O   UNL     1      -9.178   8.008  70.610  1.00  0.00    -0.151 OA 
HETATM    2  N   UNL     1      -8.435   8.943  70.160  1.00  0.00    -0.133 NA 
HETATM    3  C   UNL     1      -7.271   9.261  70.857  1.00  0.00    -0.102 A  
HETATM    4  C   UNL     1      -6.400  10.260  70.429  1.00  0.00    -0.127 A  
HETATM    5  C   UNL     1      -6.697  10.962  69.270  1.00  0.00    -0.086 A  
HETATM    6  C   UNL     1      -7.855  10.662  68.551  1.00  0.00    -0.115 A  
HETATM    7  C   UNL     1      -8.739   9.658  68.992  1.00  0.00    -0.142 A  
ENDROOT
BRANCH   7   8
HETATM    8  S   UNL     1     -10.204   9.247  68.037  1.00  0.00    -0.220 SA 
BRANCH   8   9
HETATM    9  S   UNL     1      -9.497   9.144  66.105  1.00  0.00    -0.264 SA 
BRANCH   9  10
HETATM   10  C   UNL     1     -10.028  10.688  65.361  1.00  0.00    -0.281 A  
HETATM   11  C   UNL     1     -10.531  11.731  66.164  1.00  0.00    -0.284 A  
HETATM   12  C   UNL     1     -10.861  12.966  65.609  1.00  0.00    -0.296 A  
HETATM   13  C   UNL     1     -10.691  13.183  64.249  1.00  0.00    -0.431 A  
HETATM   14  C   UNL     1     -10.195  12.150  63.456  1.00  0.00    -0.424 A  
HETATM   15  N   UNL     1      -9.859  10.907  63.987  1.00  0.00    -0.292 NA 
HETATM   16  O   UNL     1      -9.400  10.013  63.198  1.00  0.00    -0.285 OA 
ENDBRANCH   9  10
ENDBRANCH   8   9
ENDBRANCH   7   8
TORSDOF 3
ENDMDL
MODEL      240
REMARK 921   NORMALIZED FREE ENERGY PREDICTED BY IDOCK:   -3.22 KCAL/MOL
REMARK 922        TOTAL FREE ENERGY PREDICTED BY IDOCK:   -3.98 KCAL/MOL
REMARK 923 INTER-LIGAND FREE ENERGY PREDICTED BY IDOCK:   -4.24 KCAL/MOL
REMARK 924 INTRA-LIGAND FREE ENERGY PREDICTED BY IDOCK:    0.26 KCAL/MOL
REMARK 927      BINDING AFFINITY PREDICTED BY RF-SCORE:    0.00 PKD
ROOT
HETATM    1  O   UNL     1     -10.927  11.588  68.114  1.00  0.00    -0.200 OA 
HETATM    2  N   UNL     1     -10.916  12.543  67.268  1.00  0.00    -0.252 NA 
HETATM    3  C   UNL     1     -10.357  12.312  66.013  1.00  0.00    -0.245 A  
HETATM    4  C   UNL     1     -10.314  13.295  65.028  1.00  0.00    -0.355 A  
HETATM    5  C   UNL     1     -10.846  14.547  65.301  1.00  0.00    -0.377 A  
HETATM    6  C   UNL     1     -11.413  14.805  66.550  1.00  0.00    -0.328 A  
HETATM    7  C   UNL     1     -11.447  13.811  67.547  1.00  0.00    -0.330 A  
ENDROOT
BRANCH   7   8
HETATM    8  S   UNL     1     -12.219  14.136  69.136  1.00  0.00    -0.159 SA 
BRANCH   8   9
HETATM    9  S   UNL     1     -10.852  15.346  70.090  1.00  0.00    -0.309 SA 
BRANCH   9  10
HETATM   10  C   UNL     1      -9.593  15.649  68.847  1.00  0.00    -0.224 A  
HETATM   11  C   UNL     1      -8.597  14.686  68.592  1.00  0.00    -0.172 A  
HETATM   12  C   UNL     1      -7.669  14.871  67.568  1.00  0.00    -0.214 A  
HETATM   13  C   UNL     1      -7.723  16.012  66.780  1.00  0.00    -0.270 A  
HETATM   14  C   UNL     1      -8.708  16.964  67.035  1.00  0.00    -0.209 A  
HETATM   15  N   UNL     1      -9.646  16.803  68.053  1.00  0.00    -0.231 NA 
HETATM   16  O   UNL     1     -10.526  17.714  68.219  1.00  0.00    -0.366 OA 
ENDBRANCH   9  10
ENDBRANCH   8   9
ENDBRANCH   7   8
TORSDOF 3
ENDMDL
MODEL      241
REMARK 921   NORMALIZED FREE ENERGY PREDICTED BY IDOCK:   -3.22 KCAL/MOL
REMARK 922        TOTAL FREE ENERGY PREDICTED BY IDOCK:   -3.98 KCAL/MOL
REMARK 923 INTER-LIGAND FREE ENERGY PREDICTED BY IDOCK:   -3.70 KCAL/MOL
REMARK 924 INTRA-LIGAND FREE ENERGY PREDICTED BY IDOCK:   -0.28 KCAL/MOL
REMARK 927      BINDING AFFINITY PREDICTED BY RF-SCORE:    0.00 PKD
ROOT
HETATM    1  O   UNL     1      -9.557   8.302  66.494  1.00  0.00    -0.209 OA 
HETATM    2  N   UNL     1      -8.761   7.431  66.982  1.00  0.00    -0.121 NA 
HETATM    3  C   UNL     1      -7.428   7.451  66.580  1.00  0.00    -0.084 A  
HETATM    4  C   UNL     1      -6.491   6.544  67.071  1.00  0.00    -0.043 A  
HETATM    5  C   UNL     1      -6.896   5.590  67.993  1.00  0.00    -0.060 A  
HETATM    6  C   UNL     1      -8.225   5.550  68.416  1.00  0.00    -0.099 A  
HETATM    7  C   UNL     1      -9.172   6.462  67.910  1.00  0.00    -0.113 A  
ENDROOT
BRANCH   7   8
HETATM    8  S   UNL     1     -10.871   6.433  68.492  1.00  0.00    -0.319 SA 
BRANCH   8   9
HETATM    9  S   UNL     1     -10.681   6.728  70.522  1.00  0.00    -0.252 SA 
BRANCH   9  10
HETATM   10  C   UNL     1     -11.691   8.175  70.850  1.00  0.00    -0.244 A  
HETATM   11  C   UNL     1     -12.902   8.054  71.560  1.00  0.00    -0.331 A  
HETATM   12  C   UNL     1     -13.648   9.181  71.899  1.00  0.00    -0.493 A  
HETATM   13  C   UNL     1     -13.198  10.445  71.543  1.00  0.00    -0.485 A  
HETATM   14  C   UNL     1     -12.001  10.562  70.840  1.00  0.00    -0.377 A  
HETATM   15  N   UNL     1     -11.237   9.452  70.488  1.00  0.00    -0.261 NA 
HETATM   16  O   UNL     1     -10.145   9.640  69.853  1.00  0.00    -0.213 OA 
ENDBRANCH   9  10
ENDBRANCH   8   9
ENDBRANCH   7   8
TORSDOF 3
ENDMDL
MODEL      242
REMARK 921   NORMALIZED FREE ENERGY PREDICTED BY IDOCK:   -3.22 KCAL/MOL
REMARK 922        TOTAL FREE ENERGY PREDICTED BY IDOCK:   -3.98 KCAL/MOL
REMARK 923 INTER-LIGAND FREE ENERGY PREDICTED BY IDOCK:   -3.80 KCAL/MOL
REMARK 924 INTRA-LIGAND FREE ENERGY PREDICTED BY IDOCK:   -0.18 KCAL/MOL
REMARK 927      BINDING AFFINITY PREDICTED BY RF-SCORE:    0.00 PKD
ROOT
HETATM    1  O   UNL     1      -9.612  11.423  68.516  1.00  0.00    -0.185 OA 
HETATM    2  N   UNL     1      -8.493  10.970  68.103  1.00  0.00    -0.129 NA 
HETATM    3  C   UNL     1      -7.920  11.547  66.971  1.00  0.00    -0.161 A  
HETATM    4  C   UNL     1      -6.696  11.120  66.460  1.00  0.00    -0.128 A  
HETATM    5  C   UNL     1      -6.022  10.088  67.097  1.00  0.00    -0.051 A  
HETATM    6  C   UNL     1      -6.572   9.495  68.234  1.00  0.00    -0.057 A  
HETATM    7  C   UNL     1      -7.815   9.922  68.743  1.00  0.00    -0.091 A  
ENDROOT
BRANCH   7   8
HETATM    8  S   UNL     1      -8.495   9.184  70.232  1.00  0.00    -0.211 SA 
BRANCH   8   9
HETATM    9  S   UNL     1     -10.188   8.226  69.556  1.00  0.00    -0.213 SA 
BRANCH   9  10
HETATM   10  C   UNL     1     -11.463   8.716  70.720  1.00  0.00    -0.259 A  
HETATM   11  C   UNL     1     -11.731  10.079  70.952  1.00  0.00    -0.462 A  
HETATM   12  C   UNL     1     -12.778  10.472  71.784  1.00  0.00    -0.508 A  
HETATM   13  C   UNL     1     -13.577   9.513  72.392  1.00  0.00    -0.459 A  
HETATM   14  C   UNL     1     -13.310   8.165  72.163  1.00  0.00    -0.219 A  
HETATM   15  N   UNL     1     -12.269   7.748  71.337  1.00  0.00    -0.312 NA 
HETATM   16  O   UNL     1     -12.092   6.495  71.167  1.00  0.00    -0.350 OA 
ENDBRANCH   9  10
ENDBRANCH   8   9
ENDBRANCH   7   8
TORSDOF 3
ENDMDL
MODEL      243
REMARK 921   NORMALIZED FREE ENERGY PREDICTED BY IDOCK:   -3.22 KCAL/MOL
REMARK 922        TOTAL FREE ENERGY PREDICTED BY IDOCK:   -3.97 KCAL/MOL
REMARK 923 INTER-LIGAND FREE ENERGY PREDICTED BY IDOCK:   -3.73 KCAL/MOL
REMARK 924 INTRA-LIGAND FREE ENERGY PREDICTED BY IDOCK:   -0.25 KCAL/MOL
REMARK 927      BINDING AFFINITY PREDICTED BY RF-SCORE:    0.00 PKD
ROOT
HETATM    1  O   UNL     1      -8.431  11.657  67.975  1.00  0.00    -0.137 OA 
HETATM    2  N   UNL     1      -9.568  12.157  68.268  1.00  0.00    -0.211 NA 
HETATM    3  C   UNL     1      -9.745  13.532  68.129  1.00  0.00    -0.233 A  
HETATM    4  C   UNL     1     -10.956  14.156  68.416  1.00  0.00    -0.270 A  
HETATM    5  C   UNL     1     -12.025  13.387  68.852  1.00  0.00    -0.362 A  
HETATM    6  C   UNL     1     -11.876  12.007  68.997  1.00  0.00    -0.372 A  
HETATM    7  C   UNL     1     -10.646  11.379  68.716  1.00  0.00    -0.204 A  
ENDROOT
BRANCH   7   8
HETATM    8  S   UNL     1     -10.475   9.598  68.861  1.00  0.00    -0.220 SA 
BRANCH   8   9
HETATM    9  S   UNL     1      -9.423   9.364  70.617  1.00  0.00    -0.226 SA 
BRANCH   9  10
HETATM   10  C   UNL     1      -9.840   7.705  71.160  1.00  0.00    -0.173 A  
HETATM   11  C   UNL     1     -10.857   7.502  72.114  1.00  0.00    -0.282 A  
HETATM   12  C   UNL     1     -11.251   6.215  72.476  1.00  0.00    -0.327 A  
HETATM   13  C   UNL     1     -10.644   5.113  71.890  1.00  0.00    -0.256 A  
HETATM   14  C   UNL     1      -9.637   5.316  70.949  1.00  0.00    -0.175 A  
HETATM   15  N   UNL     1      -9.225   6.592  70.571  1.00  0.00    -0.155 NA 
HETATM   16  O   UNL     1      -8.303   6.698  69.693  1.00  0.00    -0.128 OA 
ENDBRANCH   9  10
ENDBRANCH   8   9
ENDBRANCH   7   8
TORSDOF 3
ENDMDL
MODEL      244
REMARK 921   NORMALIZED FREE ENERGY PREDICTED BY IDOCK:   -3.20 KCAL/MOL
REMARK 922        TOTAL FREE ENERGY PREDICTED BY IDOCK:   -3.96 KCAL/MOL
REMARK 923 INTER-LIGAND FREE ENERGY PREDICTED BY IDOCK:   -3.53 KCAL/MOL
REMARK 924 INTRA-LIGAND FREE ENERGY PREDICTED BY IDOCK:   -0.43 KCAL/MOL
REMARK 927      BINDING AFFINITY PREDICTED BY RF-SCORE:    0.00 PKD
ROOT
HETATM    1  O   UNL     1      -7.963   5.993  71.407  1.00  0.00    -0.110 OA 
HETATM    2  N   UNL     1      -8.979   6.689  71.744  1.00  0.00    -0.140 NA 
HETATM    3  C   UNL     1      -9.937   6.108  72.571  1.00  0.00    -0.172 A  
HETATM    4  C   UNL     1     -11.070   6.800  72.994  1.00  0.00    -0.252 A  
HETATM    5  C   UNL     1     -11.252   8.112  72.581  1.00  0.00    -0.447 A  
HETATM    6  C   UNL     1     -10.306   8.719  71.754  1.00  0.00    -0.413 A  
HETATM    7  C   UNL     1      -9.166   8.013  71.320  1.00  0.00    -0.150 A  
ENDROOT
BRANCH   7   8
HETATM    8  S   UNL     1      -7.931   8.816  70.293  1.00  0.00    -0.119 SA 
BRANCH   8   9
HETATM    9  S   UNL     1      -8.745   8.713  68.404  1.00  0.00    -0.142 SA 
BRANCH   9  10
HETATM   10  C   UNL     1      -9.672  10.241  68.243  1.00  0.00    -0.142 A  
HETATM   11  C   UNL     1     -11.065  10.255  68.452  1.00  0.00    -0.302 A  
HETATM   12  C   UNL     1     -11.782  11.450  68.419  1.00  0.00    -0.373 A  
HETATM   13  C   UNL     1     -11.122  12.648  68.183  1.00  0.00    -0.285 A  
HETATM   14  C   UNL     1      -9.744  12.632  67.974  1.00  0.00    -0.215 A  
HETATM   15  N   UNL     1      -9.006  11.451  68.002  1.00  0.00    -0.156 NA 
HETATM   16  O   UNL     1      -7.745  11.517  67.812  1.00  0.00    -0.113 OA 
ENDBRANCH   9  10
ENDBRANCH   8   9
ENDBRANCH   7   8
TORSDOF 3
ENDMDL
MODEL      245
REMARK 921   NORMALIZED FREE ENERGY PREDICTED BY IDOCK:   -3.20 KCAL/MOL
REMARK 922        TOTAL FREE ENERGY PREDICTED BY IDOCK:   -3.95 KCAL/MOL
REMARK 923 INTER-LIGAND FREE ENERGY PREDICTED BY IDOCK:   -3.73 KCAL/MOL
REMARK 924 INTRA-LIGAND FREE ENERGY PREDICTED BY IDOCK:   -0.23 KCAL/MOL
REMARK 927      BINDING AFFINITY PREDICTED BY RF-SCORE:    0.00 PKD
ROOT
HETATM    1  O   UNL     1      -8.201   8.675  72.785  1.00  0.00    -0.385 OA 
HETATM    2  N   UNL     1      -9.204   7.893  72.677  1.00  0.00    -0.185 NA 
HETATM    3  C   UNL     1      -9.352   6.870  73.611  1.00  0.00    -0.178 A  
HETATM    4  C   UNL     1     -10.422   5.979  73.572  1.00  0.00    -0.275 A  
HETATM    5  C   UNL     1     -11.375   6.113  72.573  1.00  0.00    -0.328 A  
HETATM    6  C   UNL     1     -11.253   7.132  71.626  1.00  0.00    -0.275 A  
HETATM    7  C   UNL     1     -10.164   8.025  71.662  1.00  0.00    -0.202 A  
ENDROOT
BRANCH   7   8
HETATM    8  S   UNL     1     -10.036   9.360  70.468  1.00  0.00    -0.290 SA 
BRANCH   8   9
HETATM    9  S   UNL     1      -8.679   8.640  69.095  1.00  0.00    -0.137 SA 
BRANCH   9  10
HETATM   10  C   UNL     1      -8.956   9.648  67.636  1.00  0.00    -0.125 A  
HETATM   11  C   UNL     1      -9.638   9.119  66.523  1.00  0.00    -0.289 A  
HETATM   12  C   UNL     1      -9.937   9.920  65.421  1.00  0.00    -0.349 A  
HETATM   13  C   UNL     1      -9.568  11.257  65.415  1.00  0.00    -0.261 A  
HETATM   14  C   UNL     1      -8.892  11.778  66.516  1.00  0.00    -0.183 A  
HETATM   15  N   UNL     1      -8.581  10.999  67.628  1.00  0.00    -0.124 NA 
HETATM   16  O   UNL     1      -7.969  11.550  68.605  1.00  0.00    -0.140 OA 
ENDBRANCH   9  10
ENDBRANCH   8   9
ENDBRANCH   7   8
TORSDOF 3
ENDMDL
MODEL      246
REMARK 921   NORMALIZED FREE ENERGY PREDICTED BY IDOCK:   -3.18 KCAL/MOL
REMARK 922        TOTAL FREE ENERGY PREDICTED BY IDOCK:   -3.93 KCAL/MOL
REMARK 923 INTER-LIGAND FREE ENERGY PREDICTED BY IDOCK:   -3.50 KCAL/MOL
REMARK 924 INTRA-LIGAND FREE ENERGY PREDICTED BY IDOCK:   -0.43 KCAL/MOL
REMARK 927      BINDING AFFINITY PREDICTED BY RF-SCORE:    0.00 PKD
ROOT
HETATM    1  O   UNL     1      -9.846   9.522  69.744  1.00  0.00    -0.188 OA 
HETATM    2  N   UNL     1     -10.693   8.801  70.369  1.00  0.00    -0.219 NA 
HETATM    3  C   UNL     1     -11.362   9.355  71.458  1.00  0.00    -0.394 A  
HETATM    4  C   UNL     1     -12.309   8.642  72.188  1.00  0.00    -0.452 A  
HETATM    5  C   UNL     1     -12.600   7.336  71.822  1.00  0.00    -0.376 A  
HETATM    6  C   UNL     1     -11.946   6.757  70.733  1.00  0.00    -0.433 A  
HETATM    7  C   UNL     1     -10.981   7.478  70.002  1.00  0.00    -0.240 A  
ENDROOT
BRANCH   7   8
HETATM    8  S   UNL     1     -10.177   6.742  68.575  1.00  0.00    -0.187 SA 
BRANCH   8   9
HETATM    9  S   UNL     1      -8.437   5.966  69.359  1.00  0.00    -0.114 SA 
BRANCH   9  10
HETATM   10  C   UNL     1      -8.860   4.272  69.773  1.00  0.00    -0.085 A  
HETATM   11  C   UNL     1      -9.358   3.954  71.052  1.00  0.00    -0.222 A  
HETATM   12  C   UNL     1      -9.775   2.659  71.356  1.00  0.00    -0.217 A  
HETATM   13  C   UNL     1      -9.707   1.664  70.390  1.00  0.00    -0.057 A  
HETATM   14  C   UNL     1      -9.213   1.980  69.127  1.00  0.00    -0.131 A  
HETATM   15  N   UNL     1      -8.790   3.266  68.799  1.00  0.00    -0.103 NA 
HETATM   16  O   UNL     1      -8.359   3.482  67.616  1.00  0.00    -0.087 OA 
ENDBRANCH   9  10
ENDBRANCH   8   9
ENDBRANCH   7   8
TORSDOF 3
ENDMDL
MODEL      247
REMARK 921   NORMALIZED FREE ENERGY PREDICTED BY IDOCK:   -3.18 KCAL/MOL
REMARK 922        TOTAL FREE ENERGY PREDICTED BY IDOCK:   -3.93 KCAL/MOL
REMARK 923 INTER-LIGAND FREE ENERGY PREDICTED BY IDOCK:   -3.50 KCAL/MOL
REMARK 924 INTRA-LIGAND FREE ENERGY PREDICTED BY IDOCK:   -0.43 KCAL/MOL
REMARK 927      BINDING AFFINITY PREDICTED BY RF-SCORE:    0.00 PKD
ROOT
HETATM    1  O   UNL     1     -11.109   7.875  70.601  1.00  0.00    -0.254 OA 
HETATM    2  N   UNL     1     -11.631   9.036  70.698  1.00  0.00    -0.256 NA 
HETATM    3  C   UNL     1     -12.588   9.253  71.687  1.00  0.00    -0.365 A  
HETATM    4  C   UNL     1     -13.199  10.491  71.868  1.00  0.00    -0.526 A  
HETATM    5  C   UNL     1     -12.845  11.546  71.040  1.00  0.00    -0.358 A  
HETATM    6  C   UNL     1     -11.887  11.357  70.042  1.00  0.00    -0.440 A  
HETATM    7  C   UNL     1     -11.278  10.100  69.855  1.00  0.00    -0.287 A  
ENDROOT
BRANCH   7   8
HETATM    8  S   UNL     1     -10.013   9.876  68.600  1.00  0.00    -0.172 SA 
BRANCH   8   9
HETATM    9  S   UNL     1      -8.268  10.315  69.601  1.00  0.00    -0.080 SA 
BRANCH   9  10
HETATM   10  C   UNL     1      -7.623   8.711  70.083  1.00  0.00    -0.069 A  
HETATM   11  C   UNL     1      -6.847   7.955  69.183  1.00  0.00    -0.052 A  
HETATM   12  C   UNL     1      -6.267   6.749  69.576  1.00  0.00    -0.034 A  
HETATM   13  C   UNL     1      -6.445   6.284  70.871  1.00  0.00    -0.048 A  
HETATM   14  C   UNL     1      -7.215   7.032  71.759  1.00  0.00    -0.078 A  
HETATM   15  N   UNL     1      -7.806   8.239  71.390  1.00  0.00    -0.096 NA 
HETATM   16  O   UNL     1      -8.488   8.874  72.264  1.00  0.00    -0.391 OA 
ENDBRANCH   9  10
ENDBRANCH   8   9
ENDBRANCH   7   8
TORSDOF 3
ENDMDL
MODEL      248
REMARK 921   NORMALIZED FREE ENERGY PREDICTED BY IDOCK:   -3.17 KCAL/MOL
REMARK 922        TOTAL FREE ENERGY PREDICTED BY IDOCK:   -3.92 KCAL/MOL
REMARK 923 INTER-LIGAND FREE ENERGY PREDICTED BY IDOCK:   -4.13 KCAL/MOL
REMARK 924 INTRA-LIGAND FREE ENERGY PREDICTED BY IDOCK:    0.20 KCAL/MOL
REMARK 927      BINDING AFFINITY PREDICTED BY RF-SCORE:    0.00 PKD
ROOT
HETATM    1  O   UNL     1     -11.680   6.325  69.712  1.00  0.00    -0.403 OA 
HETATM    2  N   UNL     1     -11.314   6.568  70.910  1.00  0.00    -0.317 NA 
HETATM    3  C   UNL     1     -10.961   5.497  71.727  1.00  0.00    -0.182 A  
HETATM    4  C   UNL     1     -10.540   5.675  73.043  1.00  0.00    -0.275 A  
HETATM    5  C   UNL     1     -10.468   6.960  73.560  1.00  0.00    -0.382 A  
HETATM    6  C   UNL     1     -10.813   8.052  72.762  1.00  0.00    -0.438 A  
HETATM    7  C   UNL     1     -11.248   7.868  71.435  1.00  0.00    -0.247 A  
ENDROOT
BRANCH   7   8
HETATM    8  S   UNL     1     -11.647   9.280  70.400  1.00  0.00    -0.110 SA 
BRANCH   8   9
HETATM    9  S   UNL     1     -10.384   9.059  68.788  1.00  0.00    -0.207 SA 
BRANCH   9  10
HETATM   10  C   UNL     1      -9.742  10.711  68.504  1.00  0.00    -0.174 A  
HETATM   11  C   UNL     1      -8.353  10.943  68.489  1.00  0.00    -0.142 A  
HETATM   12  C   UNL     1      -7.842  12.203  68.180  1.00  0.00    -0.147 A  
HETATM   13  C   UNL     1      -8.705  13.247  67.877  1.00  0.00    -0.192 A  
HETATM   14  C   UNL     1     -10.079  13.016  67.895  1.00  0.00    -0.235 A  
HETATM   15  N   UNL     1     -10.614  11.767  68.201  1.00  0.00    -0.195 NA 
HETATM   16  O   UNL     1     -11.884  11.629  68.186  1.00  0.00    -0.481 OA 
ENDBRANCH   9  10
ENDBRANCH   8   9
ENDBRANCH   7   8
TORSDOF 3
ENDMDL
MODEL      249
REMARK 921   NORMALIZED FREE ENERGY PREDICTED BY IDOCK:   -3.17 KCAL/MOL
REMARK 922        TOTAL FREE ENERGY PREDICTED BY IDOCK:   -3.92 KCAL/MOL
REMARK 923 INTER-LIGAND FREE ENERGY PREDICTED BY IDOCK:   -3.65 KCAL/MOL
REMARK 924 INTRA-LIGAND FREE ENERGY PREDICTED BY IDOCK:   -0.27 KCAL/MOL
REMARK 927      BINDING AFFINITY PREDICTED BY RF-SCORE:    0.00 PKD
ROOT
HETATM    1  O   UNL     1      -8.285  10.909  66.365  1.00  0.00    -0.152 OA 
HETATM    2  N   UNL     1      -7.415  11.305  67.211  1.00  0.00    -0.119 NA 
HETATM    3  C   UNL     1      -6.143  10.740  67.171  1.00  0.00    -0.063 A  
HETATM    4  C   UNL     1      -5.133  11.122  68.050  1.00  0.00    -0.043 A  
HETATM    5  C   UNL     1      -5.398  12.100  68.998  1.00  0.00    -0.054 A  
HETATM    6  C   UNL     1      -6.664  12.685  69.058  1.00  0.00    -0.097 A  
HETATM    7  C   UNL     1      -7.686  12.289  68.174  1.00  0.00    -0.138 A  
ENDROOT
BRANCH   7   8
HETATM    8  S   UNL     1      -9.298  13.078  68.229  1.00  0.00    -0.166 SA 
BRANCH   8   9
HETATM    9  S   UNL     1      -9.292  14.286  66.560  1.00  0.00    -0.242 SA 
BRANCH   9  10
HETATM   10  C   UNL     1     -10.645  13.660  65.561  1.00  0.00    -0.296 A  
HETATM   11  C   UNL     1     -10.384  12.897  64.406  1.00  0.00    -0.393 A  
HETATM   12  C   UNL     1     -11.426  12.329  63.673  1.00  0.00    -0.572 A  
HETATM   13  C   UNL     1     -12.740  12.508  64.083  1.00  0.00    -0.417 A  
HETATM   14  C   UNL     1     -12.995  13.265  65.225  1.00  0.00    -0.143 A  
HETATM   15  N   UNL     1     -11.972  13.843  65.973  1.00  0.00    -0.389 NA 
HETATM   16  O   UNL     1     -12.285  14.513  67.014  1.00  0.00    -0.362 OA 
ENDBRANCH   9  10
ENDBRANCH   8   9
ENDBRANCH   7   8
TORSDOF 3
ENDMDL
MODEL      250
REMARK 921   NORMALIZED FREE ENERGY PREDICTED BY IDOCK:   -3.16 KCAL/MOL
REMARK 922        TOTAL FREE ENERGY PREDICTED BY IDOCK:   -3.91 KCAL/MOL
REMARK 923 INTER-LIGAND FREE ENERGY PREDICTED BY IDOCK:   -3.58 KCAL/MOL
REMARK 924 INTRA-LIGAND FREE ENERGY PREDICTED BY IDOCK:   -0.33 KCAL/MOL
REMARK 927      BINDING AFFINITY PREDICTED BY RF-SCORE:    0.00 PKD
ROOT
HETATM    1  O   UNL     1     -10.015   5.037  68.553  1.00  0.00    -0.160 OA 
HETATM    2  N   UNL     1      -9.299   6.023  68.931  1.00  0.00    -0.123 NA 
HETATM    3  C   UNL     1      -8.351   5.811  69.930  1.00  0.00    -0.119 A  
HETATM    4  C   UNL     1      -7.521   6.829  70.393  1.00  0.00    -0.087 A  
HETATM    5  C   UNL     1      -7.638   8.097  69.842  1.00  0.00    -0.089 A  
HETATM    6  C   UNL     1      -8.577   8.336  68.837  1.00  0.00    -0.132 A  
HETATM    7  C   UNL     1      -9.422   7.306  68.378  1.00  0.00    -0.142 A  
ENDROOT
BRANCH   7   8
HETATM    8  S   UNL     1     -10.596   7.610  67.054  1.00  0.00    -0.251 SA 
BRANCH   8   9
HETATM    9  S   UNL     1      -9.646   9.021  65.892  1.00  0.00    -0.208 SA 
BRANCH   9  10
HETATM   10  C   UNL     1     -10.502  10.551  66.273  1.00  0.00    -0.183 A  
HETATM   11  C   UNL     1     -10.850  10.861  67.602  1.00  0.00    -0.317 A  
HETATM   12  C   UNL     1     -11.434  12.087  67.921  1.00  0.00    -0.396 A  
HETATM   13  C   UNL     1     -11.673  13.022  66.924  1.00  0.00    -0.441 A  
HETATM   14  C   UNL     1     -11.330  12.712  65.609  1.00  0.00    -0.322 A  
HETATM   15  N   UNL     1     -10.747  11.495  65.265  1.00  0.00    -0.286 NA 
HETATM   16  O   UNL     1     -10.449  11.288  64.040  1.00  0.00    -0.323 OA 
ENDBRANCH   9  10
ENDBRANCH   8   9
ENDBRANCH   7   8
TORSDOF 3
ENDMDL
MODEL      251
REMARK 921   NORMALIZED FREE ENERGY PREDICTED BY IDOCK:   -3.15 KCAL/MOL
REMARK 922        TOTAL FREE ENERGY PREDICTED BY IDOCK:   -3.90 KCAL/MOL
REMARK 923 INTER-LIGAND FREE ENERGY PREDICTED BY IDOCK:   -3.66 KCAL/MOL
REMARK 924 INTRA-LIGAND FREE ENERGY PREDICTED BY IDOCK:   -0.24 KCAL/MOL
REMARK 927      BINDING AFFINITY PREDICTED BY RF-SCORE:    0.00 PKD
ROOT
HETATM    1  O   UNL     1     -12.282  11.222  68.440  1.00  0.00    -0.604 OA 
HETATM    2  N   UNL     1     -11.591  11.271  67.369  1.00  0.00    -0.554 NA 
HETATM    3  C   UNL     1     -11.676  12.413  66.574  1.00  0.00    -0.379 A  
HETATM    4  C   UNL     1     -10.948  12.552  65.396  1.00  0.00    -0.329 A  
HETATM    5  C   UNL     1     -10.106  11.524  64.997  1.00  0.00    -0.315 A  
HETATM    6  C   UNL     1      -9.999  10.371  65.776  1.00  0.00    -0.334 A  
HETATM    7  C   UNL     1     -10.745  10.228  66.963  1.00  0.00    -0.216 A  
ENDROOT
BRANCH   7   8
HETATM    8  S   UNL     1     -10.568   8.761  67.983  1.00  0.00    -0.104 SA 
BRANCH   8   9
HETATM    9  S   UNL     1      -8.593   8.237  67.721  1.00  0.00    -0.131 SA 
BRANCH   9  10
HETATM   10  C   UNL     1      -8.042   7.768  69.364  1.00  0.00    -0.126 A  
HETATM   11  C   UNL     1      -7.387   8.701  70.189  1.00  0.00    -0.053 A  
HETATM   12  C   UNL     1      -7.036   8.376  71.499  1.00  0.00    -0.075 A  
HETATM   13  C   UNL     1      -7.338   7.120  72.006  1.00  0.00    -0.081 A  
HETATM   14  C   UNL     1      -7.986   6.197  71.187  1.00  0.00    -0.116 A  
HETATM   15  N   UNL     1      -8.346   6.498  69.875  1.00  0.00    -0.129 NA 
HETATM   16  O   UNL     1      -8.947   5.604  69.190  1.00  0.00    -0.112 OA 
ENDBRANCH   9  10
ENDBRANCH   8   9
ENDBRANCH   7   8
TORSDOF 3
ENDMDL
MODEL      252
REMARK 921   NORMALIZED FREE ENERGY PREDICTED BY IDOCK:   -3.12 KCAL/MOL
REMARK 922        TOTAL FREE ENERGY PREDICTED BY IDOCK:   -3.86 KCAL/MOL
REMARK 923 INTER-LIGAND FREE ENERGY PREDICTED BY IDOCK:   -3.63 KCAL/MOL
REMARK 924 INTRA-LIGAND FREE ENERGY PREDICTED BY IDOCK:   -0.23 KCAL/MOL
REMARK 927      BINDING AFFINITY PREDICTED BY RF-SCORE:    0.00 PKD
ROOT
HETATM    1  O   UNL     1      -9.267  15.268  66.127  1.00  0.00    -0.298 OA 
HETATM    2  N   UNL     1     -10.258  14.518  65.840  1.00  0.00    -0.306 NA 
HETATM    3  C   UNL     1     -11.371  15.091  65.228  1.00  0.00    -0.349 A  
HETATM    4  C   UNL     1     -12.490  14.343  64.871  1.00  0.00    -0.368 A  
HETATM    5  C   UNL     1     -12.501  12.980  65.132  1.00  0.00    -0.552 A  
HETATM    6  C   UNL     1     -11.398  12.379  65.742  1.00  0.00    -0.393 A  
HETATM    7  C   UNL     1     -10.272  13.141  66.110  1.00  0.00    -0.290 A  
ENDROOT
BRANCH   7   8
HETATM    8  S   UNL     1      -8.839  12.353  66.853  1.00  0.00    -0.186 SA 
BRANCH   8   9
HETATM    9  S   UNL     1      -9.642  11.303  68.433  1.00  0.00    -0.199 SA 
BRANCH   9  10
HETATM   10  C   UNL     1      -8.720   9.763  68.449  1.00  0.00    -0.120 A  
HETATM   11  C   UNL     1      -9.266   8.599  67.875  1.00  0.00    -0.148 A  
HETATM   12  C   UNL     1      -8.523   7.421  67.802  1.00  0.00    -0.118 A  
HETATM   13  C   UNL     1      -7.226   7.388  68.292  1.00  0.00    -0.090 A  
HETATM   14  C   UNL     1      -6.688   8.541  68.861  1.00  0.00    -0.053 A  
HETATM   15  N   UNL     1      -7.410   9.729  68.947  1.00  0.00    -0.072 NA 
HETATM   16  O   UNL     1      -6.845  10.747  69.473  1.00  0.00    -0.087 OA 
ENDBRANCH   9  10
ENDBRANCH   8   9
ENDBRANCH   7   8
TORSDOF 3
ENDMDL
MODEL      253
REMARK 921   NORMALIZED FREE ENERGY PREDICTED BY IDOCK:   -3.11 KCAL/MOL
REMARK 922        TOTAL FREE ENERGY PREDICTED BY IDOCK:   -3.85 KCAL/MOL
REMARK 923 INTER-LIGAND FREE ENERGY PREDICTED BY IDOCK:   -3.22 KCAL/MOL
REMARK 924 INTRA-LIGAND FREE ENERGY PREDICTED BY IDOCK:   -0.63 KCAL/MOL
REMARK 927      BINDING AFFINITY PREDICTED BY RF-SCORE:    0.00 PKD
ROOT
HETATM    1  O   UNL     1      -9.755   9.449  69.780  1.00  0.00    -0.176 OA 
HETATM    2  N   UNL     1     -10.607   8.610  70.227  1.00  0.00    -0.217 NA 
HETATM    3  C   UNL     1     -11.369   8.964  71.338  1.00  0.00    -0.309 A  
HETATM    4  C   UNL     1     -12.327   8.113  71.882  1.00  0.00    -0.371 A  
HETATM    5  C   UNL     1     -12.535   6.871  71.300  1.00  0.00    -0.409 A  
HETATM    6  C   UNL     1     -11.787   6.492  70.184  1.00  0.00    -0.331 A  
HETATM    7  C   UNL     1     -10.811   7.351  69.642  1.00  0.00    -0.210 A  
ENDROOT
BRANCH   7   8
HETATM    8  S   UNL     1      -9.886   6.875  68.178  1.00  0.00    -0.140 SA 
BRANCH   8   9
HETATM    9  S   UNL     1      -8.122   6.143  68.951  1.00  0.00    -0.109 SA 
BRANCH   9  10
HETATM   10  C   UNL     1      -8.568   5.565  70.590  1.00  0.00    -0.129 A  
HETATM   11  C   UNL     1      -8.335   6.375  71.719  1.00  0.00    -0.120 A  
HETATM   12  C   UNL     1      -8.760   5.976  72.986  1.00  0.00    -0.122 A  
HETATM   13  C   UNL     1      -9.426   4.769  73.145  1.00  0.00    -0.142 A  
HETATM   14  C   UNL     1      -9.654   3.969  72.028  1.00  0.00    -0.143 A  
HETATM   15  N   UNL     1      -9.239   4.345  70.752  1.00  0.00    -0.127 NA 
HETATM   16  O   UNL     1      -9.494   3.563  69.775  1.00  0.00    -0.166 OA 
ENDBRANCH   9  10
ENDBRANCH   8   9
ENDBRANCH   7   8
TORSDOF 3
ENDMDL
MODEL      254
REMARK 921   NORMALIZED FREE ENERGY PREDICTED BY IDOCK:   -3.11 KCAL/MOL
REMARK 922        TOTAL FREE ENERGY PREDICTED BY IDOCK:   -3.85 KCAL/MOL
REMARK 923 INTER-LIGAND FREE ENERGY PREDICTED BY IDOCK:   -3.71 KCAL/MOL
REMARK 924 INTRA-LIGAND FREE ENERGY PREDICTED BY IDOCK:   -0.14 KCAL/MOL
REMARK 927      BINDING AFFINITY PREDICTED BY RF-SCORE:    0.00 PKD
ROOT
HETATM    1  O   UNL     1      -7.159   8.818  69.040  1.00  0.00    -0.063 OA 
HETATM    2  N   UNL     1      -8.176   8.609  68.296  1.00  0.00    -0.121 NA 
HETATM    3  C   UNL     1      -8.343   7.343  67.740  1.00  0.00    -0.118 A  
HETATM    4  C   UNL     1      -9.429   7.028  66.927  1.00  0.00    -0.199 A  
HETATM    5  C   UNL     1     -10.378   8.004  66.661  1.00  0.00    -0.273 A  
HETATM    6  C   UNL     1     -10.236   9.280  67.207  1.00  0.00    -0.315 A  
HETATM    7  C   UNL     1      -9.132   9.599  68.022  1.00  0.00    -0.125 A  
ENDROOT
BRANCH   7   8
HETATM    8  S   UNL     1      -8.979  11.230  68.758  1.00  0.00    -0.056 SA 
BRANCH   8   9
HETATM    9  S   UNL     1     -10.286  12.374  67.651  1.00  0.00    -0.220 SA 
BRANCH   9  10
HETATM   10  C   UNL     1     -10.948  13.551  68.833  1.00  0.00    -0.252 A  
HETATM   11  C   UNL     1     -10.715  14.930  68.672  1.00  0.00    -0.250 A  
HETATM   12  C   UNL     1     -11.299  15.860  69.532  1.00  0.00    -0.335 A  
HETATM   13  C   UNL     1     -12.128  15.429  70.559  1.00  0.00    -0.411 A  
HETATM   14  C   UNL     1     -12.355  14.064  70.718  1.00  0.00    -0.373 A  
HETATM   15  N   UNL     1     -11.783  13.116  69.872  1.00  0.00    -0.287 NA 
HETATM   16  O   UNL     1     -12.048  11.883  70.074  1.00  0.00    -0.311 OA 
ENDBRANCH   9  10
ENDBRANCH   8   9
ENDBRANCH   7   8
TORSDOF 3
ENDMDL
MODEL      255
REMARK 921   NORMALIZED FREE ENERGY PREDICTED BY IDOCK:   -3.10 KCAL/MOL
REMARK 922        TOTAL FREE ENERGY PREDICTED BY IDOCK:   -3.84 KCAL/MOL
REMARK 923 INTER-LIGAND FREE ENERGY PREDICTED BY IDOCK:   -3.36 KCAL/MOL
REMARK 924 INTRA-LIGAND FREE ENERGY PREDICTED BY IDOCK:   -0.48 KCAL/MOL
REMARK 927      BINDING AFFINITY PREDICTED BY RF-SCORE:    0.00 PKD
ROOT
HETATM    1  O   UNL     1      -7.489   6.139  69.830  1.00  0.00    -0.077 OA 
HETATM    2  N   UNL     1      -8.085   5.128  69.329  1.00  0.00    -0.083 NA 
HETATM    3  C   UNL     1      -8.202   3.975  70.102  1.00  0.00    -0.057 A  
HETATM    4  C   UNL     1      -8.847   2.832  69.636  1.00  0.00    -0.147 A  
HETATM    5  C   UNL     1      -9.393   2.838  68.360  1.00  0.00    -0.252 A  
HETATM    6  C   UNL     1      -9.292   3.981  67.565  1.00  0.00    -0.219 A  
HETATM    7  C   UNL     1      -8.631   5.133  68.036  1.00  0.00    -0.103 A  
ENDROOT
BRANCH   7   8
HETATM    8  S   UNL     1      -8.544   6.615  67.026  1.00  0.00    -0.115 SA 
BRANCH   8   9
HETATM    9  S   UNL     1     -10.467   7.351  67.098  1.00  0.00    -0.346 SA 
BRANCH   9  10
HETATM   10  C   UNL     1     -10.574   8.139  68.706  1.00  0.00    -0.121 A  
HETATM   11  C   UNL     1     -10.280   9.509  68.849  1.00  0.00    -0.213 A  
HETATM   12  C   UNL     1     -10.447  10.153  70.075  1.00  0.00    -0.325 A  
HETATM   13  C   UNL     1     -10.915   9.444  71.172  1.00  0.00    -0.430 A  
HETATM   14  C   UNL     1     -11.204   8.088  71.029  1.00  0.00    -0.266 A  
HETATM   15  N   UNL     1     -11.044   7.423  69.816  1.00  0.00    -0.201 NA 
HETATM   16  O   UNL     1     -11.341   6.182  69.759  1.00  0.00    -0.411 OA 
ENDBRANCH   9  10
ENDBRANCH   8   9
ENDBRANCH   7   8
TORSDOF 3
ENDMDL
MODEL      256
REMARK 921   NORMALIZED FREE ENERGY PREDICTED BY IDOCK:   -3.10 KCAL/MOL
REMARK 922        TOTAL FREE ENERGY PREDICTED BY IDOCK:   -3.83 KCAL/MOL
REMARK 923 INTER-LIGAND FREE ENERGY PREDICTED BY IDOCK:   -3.38 KCAL/MOL
REMARK 924 INTRA-LIGAND FREE ENERGY PREDICTED BY IDOCK:   -0.46 KCAL/MOL
REMARK 927      BINDING AFFINITY PREDICTED BY RF-SCORE:    0.00 PKD
ROOT
HETATM    1  O   UNL     1      -9.394   4.328  69.898  1.00  0.00    -0.127 OA 
HETATM    2  N   UNL     1     -10.255   5.077  70.470  1.00  0.00    -0.255 NA 
HETATM    3  C   UNL     1     -10.427   4.960  71.847  1.00  0.00    -0.163 A  
HETATM    4  C   UNL     1     -11.337   5.746  72.550  1.00  0.00    -0.358 A  
HETATM    5  C   UNL     1     -12.098   6.678  71.860  1.00  0.00    -0.385 A  
HETATM    6  C   UNL     1     -11.944   6.817  70.480  1.00  0.00    -0.385 A  
HETATM    7  C   UNL     1     -11.030   6.014  69.770  1.00  0.00    -0.401 A  
ENDROOT
BRANCH   7   8
HETATM    8  S   UNL     1     -10.804   6.231  68.001  1.00  0.00    -0.321 SA 
BRANCH   8   9
HETATM    9  S   UNL     1     -10.489   8.258  67.808  1.00  0.00    -0.182 SA 
BRANCH   9  10
HETATM   10  C   UNL     1      -8.969   8.553  68.717  1.00  0.00    -0.139 A  
HETATM   11  C   UNL     1      -9.011   9.067  70.027  1.00  0.00    -0.184 A  
HETATM   12  C   UNL     1      -7.843   9.216  70.775  1.00  0.00    -0.173 A  
HETATM   13  C   UNL     1      -6.620   8.849  70.231  1.00  0.00    -0.042 A  
HETATM   14  C   UNL     1      -6.581   8.342  68.934  1.00  0.00    -0.053 A  
HETATM   15  N   UNL     1      -7.733   8.185  68.166  1.00  0.00    -0.108 NA 
HETATM   16  O   UNL     1      -7.619   7.703  66.989  1.00  0.00    -0.099 OA 
ENDBRANCH   9  10
ENDBRANCH   8   9
ENDBRANCH   7   8
TORSDOF 3
ENDMDL
MODEL      257
REMARK 921   NORMALIZED FREE ENERGY PREDICTED BY IDOCK:   -3.09 KCAL/MOL
REMARK 922        TOTAL FREE ENERGY PREDICTED BY IDOCK:   -3.82 KCAL/MOL
REMARK 923 INTER-LIGAND FREE ENERGY PREDICTED BY IDOCK:   -3.47 KCAL/MOL
REMARK 924 INTRA-LIGAND FREE ENERGY PREDICTED BY IDOCK:   -0.35 KCAL/MOL
REMARK 927      BINDING AFFINITY PREDICTED BY RF-SCORE:    0.00 PKD
ROOT
HETATM    1  O   UNL     1      -8.524   7.687  66.669  1.00  0.00    -0.121 OA 
HETATM    2  N   UNL     1      -8.779   6.489  67.030  1.00  0.00    -0.112 NA 
HETATM    3  C   UNL     1      -9.458   5.658  66.142  1.00  0.00    -0.139 A  
HETATM    4  C   UNL     1      -9.766   4.336  66.451  1.00  0.00    -0.228 A  
HETATM    5  C   UNL     1      -9.384   3.825  67.683  1.00  0.00    -0.240 A  
HETATM    6  C   UNL     1      -8.700   4.635  68.591  1.00  0.00    -0.115 A  
HETATM    7  C   UNL     1      -8.398   5.975  68.278  1.00  0.00    -0.113 A  
ENDROOT
BRANCH   7   8
HETATM    8  S   UNL     1      -7.478   6.998  69.433  1.00  0.00    -0.099 SA 
BRANCH   8   9
HETATM    9  S   UNL     1      -8.200   6.407  71.269  1.00  0.00    -0.122 SA 
BRANCH   9  10
HETATM   10  C   UNL     1      -9.860   7.087  71.327  1.00  0.00    -0.175 A  
HETATM   11  C   UNL     1     -10.939   6.383  70.758  1.00  0.00    -0.346 A  
HETATM   12  C   UNL     1     -12.245   6.858  70.875  1.00  0.00    -0.404 A  
HETATM   13  C   UNL     1     -12.495   8.036  71.566  1.00  0.00    -0.334 A  
HETATM   14  C   UNL     1     -11.426   8.732  72.126  1.00  0.00    -0.351 A  
HETATM   15  N   UNL     1     -10.113   8.279  72.022  1.00  0.00    -0.235 NA 
HETATM   16  O   UNL     1      -9.187   8.966  72.571  1.00  0.00    -0.334 OA 
ENDBRANCH   9  10
ENDBRANCH   8   9
ENDBRANCH   7   8
TORSDOF 3
ENDMDL
MODEL      258
REMARK 921   NORMALIZED FREE ENERGY PREDICTED BY IDOCK:   -3.08 KCAL/MOL
REMARK 922        TOTAL FREE ENERGY PREDICTED BY IDOCK:   -3.81 KCAL/MOL
REMARK 923 INTER-LIGAND FREE ENERGY PREDICTED BY IDOCK:   -3.46 KCAL/MOL
REMARK 924 INTRA-LIGAND FREE ENERGY PREDICTED BY IDOCK:   -0.35 KCAL/MOL
REMARK 927      BINDING AFFINITY PREDICTED BY RF-SCORE:    0.00 PKD
ROOT
HETATM    1  O   UNL     1      -7.201   7.414  69.240  1.00  0.00    -0.076 OA 
HETATM    2  N   UNL     1      -8.354   7.272  68.711  1.00  0.00    -0.128 NA 
HETATM    3  C   UNL     1      -8.696   6.027  68.188  1.00  0.00    -0.113 A  
HETATM    4  C   UNL     1      -9.936   5.784  67.603  1.00  0.00    -0.165 A  
HETATM    5  C   UNL     1     -10.865   6.812  67.539  1.00  0.00    -0.388 A  
HETATM    6  C   UNL     1     -10.549   8.069  68.058  1.00  0.00    -0.190 A  
HETATM    7  C   UNL     1      -9.290   8.315  68.640  1.00  0.00    -0.143 A  
ENDROOT
BRANCH   7   8
HETATM    8  S   UNL     1      -8.907   9.921  69.346  1.00  0.00    -0.199 SA 
BRANCH   8   9
HETATM    9  S   UNL     1      -7.988  10.915  67.794  1.00  0.00    -0.113 SA 
BRANCH   9  10
HETATM   10  C   UNL     1      -9.276  11.973  67.128  1.00  0.00    -0.190 A  
HETATM   11  C   UNL     1     -10.540  11.442  66.806  1.00  0.00    -0.298 A  
HETATM   12  C   UNL     1     -11.575  12.270  66.373  1.00  0.00    -0.445 A  
HETATM   13  C   UNL     1     -11.368  13.637  66.262  1.00  0.00    -0.325 A  
HETATM   14  C   UNL     1     -10.116  14.161  66.579  1.00  0.00    -0.280 A  
HETATM   15  N   UNL     1      -9.066  13.355  67.012  1.00  0.00    -0.236 NA 
HETATM   16  O   UNL     1      -7.951  13.909  67.295  1.00  0.00    -0.176 OA 
ENDBRANCH   9  10
ENDBRANCH   8   9
ENDBRANCH   7   8
TORSDOF 3
ENDMDL
MODEL      259
REMARK 921   NORMALIZED FREE ENERGY PREDICTED BY IDOCK:   -3.07 KCAL/MOL
REMARK 922        TOTAL FREE ENERGY PREDICTED BY IDOCK:   -3.80 KCAL/MOL
REMARK 923 INTER-LIGAND FREE ENERGY PREDICTED BY IDOCK:   -3.42 KCAL/MOL
REMARK 924 INTRA-LIGAND FREE ENERGY PREDICTED BY IDOCK:   -0.38 KCAL/MOL
REMARK 927      BINDING AFFINITY PREDICTED BY RF-SCORE:    0.00 PKD
ROOT
HETATM    1  O   UNL     1      -9.736   4.337  70.440  1.00  0.00    -0.183 OA 
HETATM    2  N   UNL     1     -10.252   5.370  70.984  1.00  0.00    -0.217 NA 
HETATM    3  C   UNL     1     -10.210   5.480  72.372  1.00  0.00    -0.196 A  
HETATM    4  C   UNL     1     -10.739   6.579  73.045  1.00  0.00    -0.291 A  
HETATM    5  C   UNL     1     -11.326   7.600  72.312  1.00  0.00    -0.355 A  
HETATM    6  C   UNL     1     -11.378   7.517  70.920  1.00  0.00    -0.297 A  
HETATM    7  C   UNL     1     -10.851   6.399  70.243  1.00  0.00    -0.293 A  
ENDROOT
BRANCH   7   8
HETATM    8  S   UNL     1     -10.882   6.320  68.449  1.00  0.00    -0.320 SA 
BRANCH   8   9
HETATM    9  S   UNL     1      -8.985   6.923  67.915  1.00  0.00    -0.119 SA 
BRANCH   9  10
HETATM   10  C   UNL     1      -9.078   8.715  67.918  1.00  0.00    -0.140 A  
HETATM   11  C   UNL     1      -9.813   9.392  66.926  1.00  0.00    -0.261 A  
HETATM   12  C   UNL     1      -9.967  10.778  66.970  1.00  0.00    -0.236 A  
HETATM   13  C   UNL     1      -9.397  11.506  68.005  1.00  0.00    -0.175 A  
HETATM   14  C   UNL     1      -8.669  10.834  68.985  1.00  0.00    -0.130 A  
HETATM   15  N   UNL     1      -8.500   9.451  68.963  1.00  0.00    -0.125 NA 
HETATM   16  O   UNL     1      -7.829   8.905  69.902  1.00  0.00    -0.083 OA 
ENDBRANCH   9  10
ENDBRANCH   8   9
ENDBRANCH   7   8
TORSDOF 3
ENDMDL
MODEL      260
REMARK 921   NORMALIZED FREE ENERGY PREDICTED BY IDOCK:   -3.05 KCAL/MOL
REMARK 922        TOTAL FREE ENERGY PREDICTED BY IDOCK:   -3.78 KCAL/MOL
REMARK 923 INTER-LIGAND FREE ENERGY PREDICTED BY IDOCK:   -3.48 KCAL/MOL
REMARK 924 INTRA-LIGAND FREE ENERGY PREDICTED BY IDOCK:   -0.30 KCAL/MOL
REMARK 927      BINDING AFFINITY PREDICTED BY RF-SCORE:    0.00 PKD
ROOT
HETATM    1  O   UNL     1      -7.514  10.451  70.075  1.00  0.00    -0.159 OA 
HETATM    2  N   UNL     1      -7.345  11.460  69.312  1.00  0.00    -0.084 NA 
HETATM    3  C   UNL     1      -6.105  12.094  69.314  1.00  0.00    -0.090 A  
HETATM    4  C   UNL     1      -5.833  13.194  68.504  1.00  0.00    -0.081 A  
HETATM    5  C   UNL     1      -6.828  13.677  67.666  1.00  0.00    -0.185 A  
HETATM    6  C   UNL     1      -8.079  13.058  67.642  1.00  0.00    -0.172 A  
HETATM    7  C   UNL     1      -8.353  11.952  68.469  1.00  0.00    -0.118 A  
ENDROOT
BRANCH   7   8
HETATM    8  S   UNL     1      -9.950  11.133  68.400  1.00  0.00    -0.192 SA 
BRANCH   8   9
HETATM    9  S   UNL     1     -10.984  12.228  66.994  1.00  0.00    -0.284 SA 
BRANCH   9  10
HETATM   10  C   UNL     1     -10.386  11.600  65.423  1.00  0.00    -0.267 A  
HETATM   11  C   UNL     1      -9.908  10.279  65.319  1.00  0.00    -0.372 A  
HETATM   12  C   UNL     1      -9.526   9.751  64.086  1.00  0.00    -0.164 A  
HETATM   13  C   UNL     1      -9.619  10.529  62.941  1.00  0.00    -0.355 A  
HETATM   14  C   UNL     1     -10.090  11.836  63.046  1.00  0.00    -0.227 A  
HETATM   15  N   UNL     1     -10.477  12.386  64.266  1.00  0.00    -0.339 NA 
HETATM   16  O   UNL     1     -10.909  13.588  64.281  1.00  0.00    -0.391 OA 
ENDBRANCH   9  10
ENDBRANCH   8   9
ENDBRANCH   7   8
TORSDOF 3
ENDMDL
MODEL      261
REMARK 921   NORMALIZED FREE ENERGY PREDICTED BY IDOCK:   -3.03 KCAL/MOL
REMARK 922        TOTAL FREE ENERGY PREDICTED BY IDOCK:   -3.75 KCAL/MOL
REMARK 923 INTER-LIGAND FREE ENERGY PREDICTED BY IDOCK:   -3.51 KCAL/MOL
REMARK 924 INTRA-LIGAND FREE ENERGY PREDICTED BY IDOCK:   -0.24 KCAL/MOL
REMARK 927      BINDING AFFINITY PREDICTED BY RF-SCORE:    0.00 PKD
ROOT
HETATM    1  O   UNL     1      -8.699   7.041  68.544  1.00  0.00    -0.123 OA 
HETATM    2  N   UNL     1      -9.195   8.199  68.753  1.00  0.00    -0.144 NA 
HETATM    3  C   UNL     1     -10.266   8.312  69.637  1.00  0.00    -0.209 A  
HETATM    4  C   UNL     1     -10.859   9.538  69.930  1.00  0.00    -0.272 A  
HETATM    5  C   UNL     1     -10.369  10.686  69.325  1.00  0.00    -0.240 A  
HETATM    6  C   UNL     1      -9.295  10.601  68.438  1.00  0.00    -0.163 A  
HETATM    7  C   UNL     1      -8.703   9.359  68.136  1.00  0.00    -0.124 A  
ENDROOT
BRANCH   7   8
HETATM    8  S   UNL     1      -7.293   9.263  67.029  1.00  0.00    -0.091 SA 
BRANCH   8   9
HETATM    9  S   UNL     1      -8.066   8.344  65.355  1.00  0.00    -0.141 SA 
BRANCH   9  10
HETATM   10  C   UNL     1      -8.980   9.645  64.523  1.00  0.00    -0.235 A  
HETATM   11  C   UNL     1     -10.132  10.197  65.116  1.00  0.00    -0.329 A  
HETATM   12  C   UNL     1     -10.798  11.269  64.523  1.00  0.00    -0.354 A  
HETATM   13  C   UNL     1     -10.323  11.810  63.336  1.00  0.00    -0.481 A  
HETATM   14  C   UNL     1      -9.184  11.261  62.751  1.00  0.00    -0.322 A  
HETATM   15  N   UNL     1      -8.502  10.190  63.323  1.00  0.00    -0.170 NA 
HETATM   16  O   UNL     1      -7.458   9.748  62.733  1.00  0.00    -0.115 OA 
ENDBRANCH   9  10
ENDBRANCH   8   9
ENDBRANCH   7   8
TORSDOF 3
ENDMDL
MODEL      262
REMARK 921   NORMALIZED FREE ENERGY PREDICTED BY IDOCK:   -3.00 KCAL/MOL
REMARK 922        TOTAL FREE ENERGY PREDICTED BY IDOCK:   -3.72 KCAL/MOL
REMARK 923 INTER-LIGAND FREE ENERGY PREDICTED BY IDOCK:   -3.38 KCAL/MOL
REMARK 924 INTRA-LIGAND FREE ENERGY PREDICTED BY IDOCK:   -0.34 KCAL/MOL
REMARK 927      BINDING AFFINITY PREDICTED BY RF-SCORE:    0.00 PKD
ROOT
HETATM    1  O   UNL     1      -9.500   8.153  66.210  1.00  0.00    -0.208 OA 
HETATM    2  N   UNL     1      -9.653   9.227  66.883  1.00  0.00    -0.163 NA 
HETATM    3  C   UNL     1     -10.499  10.212  66.379  1.00  0.00    -0.140 A  
HETATM    4  C   UNL     1     -10.730  11.408  67.054  1.00  0.00    -0.304 A  
HETATM    5  C   UNL     1     -10.100  11.629  68.270  1.00  0.00    -0.206 A  
HETATM    6  C   UNL     1      -9.249  10.657  68.800  1.00  0.00    -0.182 A  
HETATM    7  C   UNL     1      -9.010   9.452  68.109  1.00  0.00    -0.128 A  
ENDROOT
BRANCH   7   8
HETATM    8  S   UNL     1      -7.950   8.188  68.818  1.00  0.00    -0.116 SA 
BRANCH   8   9
HETATM    9  S   UNL     1      -9.275   6.703  69.352  1.00  0.00    -0.141 SA 
BRANCH   9  10
HETATM   10  C   UNL     1     -10.296   7.461  70.618  1.00  0.00    -0.212 A  
HETATM   11  C   UNL     1     -11.396   8.265  70.260  1.00  0.00    -0.129 A  
HETATM   12  C   UNL     1     -12.249   8.785  71.233  1.00  0.00    -0.332 A  
HETATM   13  C   UNL     1     -12.023   8.507  72.574  1.00  0.00    -0.401 A  
HETATM   14  C   UNL     1     -10.933   7.713  72.926  1.00  0.00    -0.400 A  
HETATM   15  N   UNL     1     -10.066   7.183  71.973  1.00  0.00    -0.178 NA 
HETATM   16  O   UNL     1      -9.095   6.455  72.372  1.00  0.00    -0.139 OA 
ENDBRANCH   9  10
ENDBRANCH   8   9
ENDBRANCH   7   8
TORSDOF 3
ENDMDL
MODEL      263
REMARK 921   NORMALIZED FREE ENERGY PREDICTED BY IDOCK:   -3.00 KCAL/MOL
REMARK 922        TOTAL FREE ENERGY PREDICTED BY IDOCK:   -3.72 KCAL/MOL
REMARK 923 INTER-LIGAND FREE ENERGY PREDICTED BY IDOCK:   -3.28 KCAL/MOL
REMARK 924 INTRA-LIGAND FREE ENERGY PREDICTED BY IDOCK:   -0.44 KCAL/MOL
REMARK 927      BINDING AFFINITY PREDICTED BY RF-SCORE:    0.00 PKD
ROOT
HETATM    1  O   UNL     1     -11.501   9.388  71.350  1.00  0.00    -0.323 OA 
HETATM    2  N   UNL     1     -11.074   8.359  70.728  1.00  0.00    -0.254 NA 
HETATM    3  C   UNL     1     -11.800   7.174  70.828  1.00  0.00    -0.325 A  
HETATM    4  C   UNL     1     -11.411   6.008  70.174  1.00  0.00    -0.351 A  
HETATM    5  C   UNL     1     -10.264   6.023  69.394  1.00  0.00    -0.269 A  
HETATM    6  C   UNL     1      -9.519   7.198  69.273  1.00  0.00    -0.152 A  
HETATM    7  C   UNL     1      -9.911   8.373  69.945  1.00  0.00    -0.186 A  
ENDROOT
BRANCH   7   8
HETATM    8  S   UNL     1      -8.973   9.892  69.749  1.00  0.00    -0.199 SA 
BRANCH   8   9
HETATM    9  S   UNL     1      -9.775  10.728  68.045  1.00  0.00    -0.166 SA 
BRANCH   9  10
HETATM   10  C   UNL     1      -8.814  10.010  66.711  1.00  0.00    -0.132 A  
HETATM   11  C   UNL     1      -9.294   8.886  66.011  1.00  0.00    -0.306 A  
HETATM   12  C   UNL     1      -8.600   8.375  64.915  1.00  0.00    -0.108 A  
HETATM   13  C   UNL     1      -7.423   8.979  64.497  1.00  0.00    -0.104 A  
HETATM   14  C   UNL     1      -6.948  10.089  65.192  1.00  0.00    -0.134 A  
HETATM   15  N   UNL     1      -7.622  10.618  66.290  1.00  0.00    -0.132 NA 
HETATM   16  O   UNL     1      -7.131  11.645  66.869  1.00  0.00    -0.142 OA 
ENDBRANCH   9  10
ENDBRANCH   8   9
ENDBRANCH   7   8
TORSDOF 3
ENDMDL
MODEL      264
REMARK 921   NORMALIZED FREE ENERGY PREDICTED BY IDOCK:   -3.00 KCAL/MOL
REMARK 922        TOTAL FREE ENERGY PREDICTED BY IDOCK:   -3.72 KCAL/MOL
REMARK 923 INTER-LIGAND FREE ENERGY PREDICTED BY IDOCK:   -3.51 KCAL/MOL
REMARK 924 INTRA-LIGAND FREE ENERGY PREDICTED BY IDOCK:   -0.21 KCAL/MOL
REMARK 927      BINDING AFFINITY PREDICTED BY RF-SCORE:    0.00 PKD
ROOT
HETATM    1  O   UNL     1     -12.231  11.440  68.017  1.00  0.00    -0.607 OA 
HETATM    2  N   UNL     1     -11.423  12.088  67.272  1.00  0.00    -0.383 NA 
HETATM    3  C   UNL     1     -11.912  13.173  66.547  1.00  0.00    -0.398 A  
HETATM    4  C   UNL     1     -11.096  13.940  65.720  1.00  0.00    -0.294 A  
HETATM    5  C   UNL     1      -9.751  13.618  65.611  1.00  0.00    -0.119 A  
HETATM    6  C   UNL     1      -9.235  12.537  66.329  1.00  0.00    -0.133 A  
HETATM    7  C   UNL     1     -10.064  11.757  67.158  1.00  0.00    -0.203 A  
ENDROOT
BRANCH   7   8
HETATM    8  S   UNL     1      -9.383  10.397  68.112  1.00  0.00    -0.148 SA 
BRANCH   8   9
HETATM    9  S   UNL     1      -9.143   8.907  66.710  1.00  0.00    -0.151 SA 
BRANCH   9  10
HETATM   10  C   UNL     1      -9.464   7.394  67.620  1.00  0.00    -0.136 A  
HETATM   11  C   UNL     1      -9.691   7.432  69.009  1.00  0.00    -0.160 A  
HETATM   12  C   UNL     1     -10.030   6.275  69.711  1.00  0.00    -0.204 A  
HETATM   13  C   UNL     1     -10.155   5.068  69.038  1.00  0.00    -0.238 A  
HETATM   14  C   UNL     1      -9.928   5.032  67.664  1.00  0.00    -0.155 A  
HETATM   15  N   UNL     1      -9.587   6.173  66.941  1.00  0.00    -0.137 NA 
HETATM   16  O   UNL     1      -9.406   6.063  65.681  1.00  0.00    -0.043 OA 
ENDBRANCH   9  10
ENDBRANCH   8   9
ENDBRANCH   7   8
TORSDOF 3
ENDMDL
MODEL      265
REMARK 921   NORMALIZED FREE ENERGY PREDICTED BY IDOCK:   -2.99 KCAL/MOL
REMARK 922        TOTAL FREE ENERGY PREDICTED BY IDOCK:   -3.71 KCAL/MOL
REMARK 923 INTER-LIGAND FREE ENERGY PREDICTED BY IDOCK:   -3.58 KCAL/MOL
REMARK 924 INTRA-LIGAND FREE ENERGY PREDICTED BY IDOCK:   -0.13 KCAL/MOL
REMARK 927      BINDING AFFINITY PREDICTED BY RF-SCORE:    0.00 PKD
ROOT
HETATM    1  O   UNL     1     -12.621  13.607  65.816  1.00  0.00    -0.476 OA 
HETATM    2  N   UNL     1     -11.630  14.294  66.237  1.00  0.00    -0.360 NA 
HETATM    3  C   UNL     1     -10.922  15.068  65.320  1.00  0.00    -0.382 A  
HETATM    4  C   UNL     1      -9.836  15.854  65.696  1.00  0.00    -0.337 A  
HETATM    5  C   UNL     1      -9.444  15.871  67.027  1.00  0.00    -0.234 A  
HETATM    6  C   UNL     1     -10.138  15.107  67.967  1.00  0.00    -0.222 A  
HETATM    7  C   UNL     1     -11.231  14.305  67.581  1.00  0.00    -0.304 A  
ENDROOT
BRANCH   7   8
HETATM    8  S   UNL     1     -12.147  13.360  68.803  1.00  0.00    -0.145 SA 
BRANCH   8   9
HETATM    9  S   UNL     1     -10.857  11.827  69.282  1.00  0.00    -0.068 SA 
BRANCH   9  10
HETATM   10  C   UNL     1      -9.837  11.639  67.816  1.00  0.00    -0.179 A  
HETATM   11  C   UNL     1      -8.444  11.836  67.887  1.00  0.00    -0.154 A  
HETATM   12  C   UNL     1      -7.632  11.605  66.778  1.00  0.00    -0.104 A  
HETATM   13  C   UNL     1      -8.193  11.169  65.586  1.00  0.00     0.047 A  
HETATM   14  C   UNL     1      -9.571  10.976  65.518  1.00  0.00    -0.222 A  
HETATM   15  N   UNL     1     -10.404  11.201  66.611  1.00  0.00    -0.232 NA 
HETATM   16  O   UNL     1     -11.657  10.992  66.475  1.00  0.00    -0.205 OA 
ENDBRANCH   9  10
ENDBRANCH   8   9
ENDBRANCH   7   8
TORSDOF 3
ENDMDL
MODEL      266
REMARK 921   NORMALIZED FREE ENERGY PREDICTED BY IDOCK:   -2.98 KCAL/MOL
REMARK 922        TOTAL FREE ENERGY PREDICTED BY IDOCK:   -3.70 KCAL/MOL
REMARK 923 INTER-LIGAND FREE ENERGY PREDICTED BY IDOCK:   -3.51 KCAL/MOL
REMARK 924 INTRA-LIGAND FREE ENERGY PREDICTED BY IDOCK:   -0.19 KCAL/MOL
REMARK 927      BINDING AFFINITY PREDICTED BY RF-SCORE:    0.00 PKD
ROOT
HETATM    1  O   UNL     1      -9.153   3.069  71.157  1.00  0.00    -0.092 OA 
HETATM    2  N   UNL     1      -9.936   4.039  71.430  1.00  0.00    -0.172 NA 
HETATM    3  C   UNL     1     -10.504   4.099  72.700  1.00  0.00    -0.155 A  
HETATM    4  C   UNL     1     -11.361   5.128  73.083  1.00  0.00    -0.385 A  
HETATM    5  C   UNL     1     -11.660   6.131  72.171  1.00  0.00    -0.369 A  
HETATM    6  C   UNL     1     -11.102   6.097  70.892  1.00  0.00    -0.371 A  
HETATM    7  C   UNL     1     -10.244   5.049  70.505  1.00  0.00    -0.246 A  
ENDROOT
BRANCH   7   8
HETATM    8  S   UNL     1      -9.494   5.037  68.873  1.00  0.00    -0.151 SA 
BRANCH   8   9
HETATM    9  S   UNL     1     -10.819   6.131  67.735  1.00  0.00    -0.299 SA 
BRANCH   9  10
HETATM   10  C   UNL     1      -9.767   7.144  66.692  1.00  0.00    -0.170 A  
HETATM   11  C   UNL     1      -8.741   6.555  65.928  1.00  0.00    -0.149 A  
HETATM   12  C   UNL     1      -7.978   7.319  65.046  1.00  0.00    -0.129 A  
HETATM   13  C   UNL     1      -8.229   8.677  64.909  1.00  0.00    -0.159 A  
HETATM   14  C   UNL     1      -9.243   9.258  65.667  1.00  0.00    -0.231 A  
HETATM   15  N   UNL     1     -10.019   8.517  66.555  1.00  0.00    -0.278 NA 
HETATM   16  O   UNL     1     -10.938   9.118  67.208  1.00  0.00    -0.151 OA 
ENDBRANCH   9  10
ENDBRANCH   8   9
ENDBRANCH   7   8
TORSDOF 3
ENDMDL
MODEL      267
REMARK 921   NORMALIZED FREE ENERGY PREDICTED BY IDOCK:   -2.98 KCAL/MOL
REMARK 922        TOTAL FREE ENERGY PREDICTED BY IDOCK:   -3.70 KCAL/MOL
REMARK 923 INTER-LIGAND FREE ENERGY PREDICTED BY IDOCK:   -3.09 KCAL/MOL
REMARK 924 INTRA-LIGAND FREE ENERGY PREDICTED BY IDOCK:   -0.61 KCAL/MOL
REMARK 927      BINDING AFFINITY PREDICTED BY RF-SCORE:    0.00 PKD
ROOT
HETATM    1  O   UNL     1      -8.822   4.230  70.735  1.00  0.00    -0.088 OA 
HETATM    2  N   UNL     1      -9.861   4.882  71.087  1.00  0.00    -0.181 NA 
HETATM    3  C   UNL     1     -10.371   4.681  72.367  1.00  0.00    -0.199 A  
HETATM    4  C   UNL     1     -11.493   5.359  72.834  1.00  0.00    -0.340 A  
HETATM    5  C   UNL     1     -12.127   6.268  72.000  1.00  0.00    -0.321 A  
HETATM    6  C   UNL     1     -11.636   6.492  70.713  1.00  0.00    -0.437 A  
HETATM    7  C   UNL     1     -10.506   5.797  70.240  1.00  0.00    -0.280 A  
ENDROOT
BRANCH   7   8
HETATM    8  S   UNL     1      -9.853   6.122  68.599  1.00  0.00    -0.145 SA 
BRANCH   8   9
HETATM    9  S   UNL     1      -8.813   7.884  68.844  1.00  0.00    -0.141 SA 
BRANCH   9  10
HETATM   10  C   UNL     1      -8.272   7.839  70.554  1.00  0.00    -0.120 A  
HETATM   11  C   UNL     1      -9.047   8.443  71.563  1.00  0.00    -0.254 A  
HETATM   12  C   UNL     1      -8.684   8.336  72.905  1.00  0.00    -0.291 A  
HETATM   13  C   UNL     1      -7.548   7.623  73.261  1.00  0.00    -0.129 A  
HETATM   14  C   UNL     1      -6.781   7.028  72.262  1.00  0.00    -0.057 A  
HETATM   15  N   UNL     1      -7.123   7.120  70.914  1.00  0.00    -0.068 NA 
HETATM   16  O   UNL     1      -6.377   6.539  70.056  1.00  0.00    -0.036 OA 
ENDBRANCH   9  10
ENDBRANCH   8   9
ENDBRANCH   7   8
TORSDOF 3
ENDMDL
MODEL      268
REMARK 921   NORMALIZED FREE ENERGY PREDICTED BY IDOCK:   -2.96 KCAL/MOL
REMARK 922        TOTAL FREE ENERGY PREDICTED BY IDOCK:   -3.68 KCAL/MOL
REMARK 923 INTER-LIGAND FREE ENERGY PREDICTED BY IDOCK:   -3.44 KCAL/MOL
REMARK 924 INTRA-LIGAND FREE ENERGY PREDICTED BY IDOCK:   -0.24 KCAL/MOL
REMARK 927      BINDING AFFINITY PREDICTED BY RF-SCORE:    0.00 PKD
ROOT
HETATM    1  O   UNL     1      -7.081   9.905  68.953  1.00  0.00    -0.067 OA 
HETATM    2  N   UNL     1      -7.450  10.062  67.741  1.00  0.00    -0.089 NA 
HETATM    3  C   UNL     1      -6.588   9.655  66.725  1.00  0.00    -0.067 A  
HETATM    4  C   UNL     1      -6.917   9.781  65.378  1.00  0.00    -0.105 A  
HETATM    5  C   UNL     1      -8.144  10.328  65.032  1.00  0.00    -0.146 A  
HETATM    6  C   UNL     1      -9.028  10.742  66.029  1.00  0.00    -0.196 A  
HETATM    7  C   UNL     1      -8.688  10.622  67.391  1.00  0.00    -0.125 A  
ENDROOT
BRANCH   7   8
HETATM    8  S   UNL     1      -9.849  11.115  68.669  1.00  0.00    -0.193 SA 
BRANCH   8   9
HETATM    9  S   UNL     1     -11.110  12.416  67.689  1.00  0.00    -0.277 SA 
BRANCH   9  10
HETATM   10  C   UNL     1     -11.267  13.805  68.814  1.00  0.00    -0.271 A  
HETATM   11  C   UNL     1     -12.327  13.856  69.740  1.00  0.00    -0.330 A  
HETATM   12  C   UNL     1     -12.408  14.884  70.679  1.00  0.00    -0.406 A  
HETATM   13  C   UNL     1     -11.433  15.871  70.712  1.00  0.00    -0.437 A  
HETATM   14  C   UNL     1     -10.387  15.820  69.793  1.00  0.00    -0.306 A  
HETATM   15  N   UNL     1     -10.284  14.805  68.845  1.00  0.00    -0.233 NA 
HETATM   16  O   UNL     1      -9.290  14.819  68.043  1.00  0.00    -0.189 OA 
ENDBRANCH   9  10
ENDBRANCH   8   9
ENDBRANCH   7   8
TORSDOF 3
ENDMDL
MODEL      269
REMARK 921   NORMALIZED FREE ENERGY PREDICTED BY IDOCK:   -2.91 KCAL/MOL
REMARK 922        TOTAL FREE ENERGY PREDICTED BY IDOCK:   -3.62 KCAL/MOL
REMARK 923 INTER-LIGAND FREE ENERGY PREDICTED BY IDOCK:   -3.39 KCAL/MOL
REMARK 924 INTRA-LIGAND FREE ENERGY PREDICTED BY IDOCK:   -0.23 KCAL/MOL
REMARK 927      BINDING AFFINITY PREDICTED BY RF-SCORE:    0.00 PKD
ROOT
HETATM    1  O   UNL     1      -9.396   3.848  65.296  1.00  0.00    -0.140 OA 
HETATM    2  N   UNL     1      -8.824   4.861  64.772  1.00  0.00    -0.154 NA 
HETATM    3  C   UNL     1      -8.546   4.835  63.407  1.00  0.00    -0.131 A  
HETATM    4  C   UNL     1      -7.934   5.902  62.754  1.00  0.00    -0.104 A  
HETATM    5  C   UNL     1      -7.590   7.031  63.483  1.00  0.00    -0.105 A  
HETATM    6  C   UNL     1      -7.860   7.085  64.852  1.00  0.00    -0.126 A  
HETATM    7  C   UNL     1      -8.470   6.000  65.511  1.00  0.00    -0.151 A  
ENDROOT
BRANCH   7   8
HETATM    8  S   UNL     1      -8.855   6.095  67.262  1.00  0.00    -0.106 SA 
BRANCH   8   9
HETATM    9  S   UNL     1     -10.642   7.120  67.301  1.00  0.00    -0.340 SA 
BRANCH   9  10
HETATM   10  C   UNL     1     -10.657   7.913  68.911  1.00  0.00    -0.145 A  
HETATM   11  C   UNL     1     -10.347   9.281  69.034  1.00  0.00    -0.228 A  
HETATM   12  C   UNL     1     -10.443   9.928  70.266  1.00  0.00    -0.348 A  
HETATM   13  C   UNL     1     -10.856   9.224  71.388  1.00  0.00    -0.434 A  
HETATM   14  C   UNL     1     -11.161   7.871  71.264  1.00  0.00    -0.255 A  
HETATM   15  N   UNL     1     -11.072   7.202  70.046  1.00  0.00    -0.267 NA 
HETATM   16  O   UNL     1     -11.379   5.962  70.008  1.00  0.00    -0.352 OA 
ENDBRANCH   9  10
ENDBRANCH   8   9
ENDBRANCH   7   8
TORSDOF 3
ENDMDL
MODEL      270
REMARK 921   NORMALIZED FREE ENERGY PREDICTED BY IDOCK:   -2.89 KCAL/MOL
REMARK 922        TOTAL FREE ENERGY PREDICTED BY IDOCK:   -3.59 KCAL/MOL
REMARK 923 INTER-LIGAND FREE ENERGY PREDICTED BY IDOCK:   -3.20 KCAL/MOL
REMARK 924 INTRA-LIGAND FREE ENERGY PREDICTED BY IDOCK:   -0.39 KCAL/MOL
REMARK 927      BINDING AFFINITY PREDICTED BY RF-SCORE:    0.00 PKD
ROOT
HETATM    1  O   UNL     1     -10.032   6.796  66.227  1.00  0.00    -0.056 OA 
HETATM    2  N   UNL     1      -9.469   7.747  66.866  1.00  0.00    -0.175 NA 
HETATM    3  C   UNL     1      -9.680   9.055  66.433  1.00  0.00    -0.268 A  
HETATM    4  C   UNL     1      -9.112  10.150  67.079  1.00  0.00    -0.155 A  
HETATM    5  C   UNL     1      -8.311   9.937  68.191  1.00  0.00    -0.110 A  
HETATM    6  C   UNL     1      -8.085   8.637  68.647  1.00  0.00    -0.117 A  
HETATM    7  C   UNL     1      -8.652   7.530  67.986  1.00  0.00    -0.122 A  
ENDROOT
BRANCH   7   8
HETATM    8  S   UNL     1      -8.394   5.865  68.606  1.00  0.00    -0.108 SA 
BRANCH   8   9
HETATM    9  S   UNL     1     -10.202   5.397  69.476  1.00  0.00    -0.275 SA 
BRANCH   9  10
HETATM   10  C   UNL     1     -10.178   6.280  71.038  1.00  0.00    -0.192 A  
HETATM   11  C   UNL     1      -8.967   6.472  71.730  1.00  0.00    -0.138 A  
HETATM   12  C   UNL     1      -8.922   7.234  72.897  1.00  0.00    -0.168 A  
HETATM   13  C   UNL     1     -10.081   7.820  73.387  1.00  0.00    -0.327 A  
HETATM   14  C   UNL     1     -11.279   7.627  72.702  1.00  0.00    -0.366 A  
HETATM   15  N   UNL     1     -11.349   6.870  71.535  1.00  0.00    -0.254 NA 
HETATM   16  O   UNL     1     -12.482   6.748  70.957  1.00  0.00    -0.367 OA 
ENDBRANCH   9  10
ENDBRANCH   8   9
ENDBRANCH   7   8
TORSDOF 3
ENDMDL
MODEL      271
REMARK 921   NORMALIZED FREE ENERGY PREDICTED BY IDOCK:   -2.88 KCAL/MOL
REMARK 922        TOTAL FREE ENERGY PREDICTED BY IDOCK:   -3.58 KCAL/MOL
REMARK 923 INTER-LIGAND FREE ENERGY PREDICTED BY IDOCK:   -3.00 KCAL/MOL
REMARK 924 INTRA-LIGAND FREE ENERGY PREDICTED BY IDOCK:   -0.58 KCAL/MOL
REMARK 927      BINDING AFFINITY PREDICTED BY RF-SCORE:    0.00 PKD
ROOT
HETATM    1  O   UNL     1      -9.181   8.719  68.462  1.00  0.00    -0.141 OA 
HETATM    2  N   UNL     1      -8.201   8.537  69.259  1.00  0.00    -0.113 NA 
HETATM    3  C   UNL     1      -7.717   9.628  69.978  1.00  0.00    -0.157 A  
HETATM    4  C   UNL     1      -6.659   9.514  70.876  1.00  0.00    -0.090 A  
HETATM    5  C   UNL     1      -6.064   8.275  71.064  1.00  0.00    -0.034 A  
HETATM    6  C   UNL     1      -6.530   7.165  70.359  1.00  0.00    -0.046 A  
HETATM    7  C   UNL     1      -7.595   7.285  69.444  1.00  0.00    -0.097 A  
ENDROOT
BRANCH   7   8
HETATM    8  S   UNL     1      -8.219   5.843  68.574  1.00  0.00    -0.109 SA 
BRANCH   8   9
HETATM    9  S   UNL     1      -9.044   4.702  70.077  1.00  0.00    -0.116 SA 
BRANCH   9  10
HETATM   10  C   UNL     1     -10.008   5.872  71.037  1.00  0.00    -0.190 A  
HETATM   11  C   UNL     1      -9.664   6.153  72.374  1.00  0.00    -0.169 A  
HETATM   12  C   UNL     1     -10.349   7.127  73.100  1.00  0.00    -0.336 A  
HETATM   13  C   UNL     1     -11.382   7.837  72.504  1.00  0.00    -0.429 A  
HETATM   14  C   UNL     1     -11.722   7.556  71.182  1.00  0.00    -0.291 A  
HETATM   15  N   UNL     1     -11.053   6.588  70.436  1.00  0.00    -0.304 NA 
HETATM   16  O   UNL     1     -11.415   6.395  69.227  1.00  0.00    -0.381 OA 
ENDBRANCH   9  10
ENDBRANCH   8   9
ENDBRANCH   7   8
TORSDOF 3
ENDMDL
MODEL      272
REMARK 921   NORMALIZED FREE ENERGY PREDICTED BY IDOCK:   -2.88 KCAL/MOL
REMARK 922        TOTAL FREE ENERGY PREDICTED BY IDOCK:   -3.58 KCAL/MOL
REMARK 923 INTER-LIGAND FREE ENERGY PREDICTED BY IDOCK:   -3.35 KCAL/MOL
REMARK 924 INTRA-LIGAND FREE ENERGY PREDICTED BY IDOCK:   -0.23 KCAL/MOL
REMARK 927      BINDING AFFINITY PREDICTED BY RF-SCORE:    0.00 PKD
ROOT
HETATM    1  O   UNL     1     -11.682   6.249  69.809  1.00  0.00    -0.403 OA 
HETATM    2  N   UNL     1     -11.062   6.848  70.750  1.00  0.00    -0.261 NA 
HETATM    3  C   UNL     1     -11.572   6.761  72.044  1.00  0.00    -0.291 A  
HETATM    4  C   UNL     1     -10.951   7.376  73.128  1.00  0.00    -0.408 A  
HETATM    5  C   UNL     1      -9.786   8.099  72.918  1.00  0.00    -0.340 A  
HETATM    6  C   UNL     1      -9.252   8.200  71.633  1.00  0.00    -0.220 A  
HETATM    7  C   UNL     1      -9.887   7.585  70.536  1.00  0.00    -0.183 A  
ENDROOT
BRANCH   7   8
HETATM    8  S   UNL     1      -9.170   7.682  68.892  1.00  0.00    -0.138 SA 
BRANCH   8   9
HETATM    9  S   UNL     1      -8.146   5.903  68.717  1.00  0.00    -0.103 SA 
BRANCH   9  10
HETATM   10  C   UNL     1      -8.528   5.340  67.056  1.00  0.00    -0.106 A  
HETATM   11  C   UNL     1      -8.106   6.083  65.936  1.00  0.00    -0.119 A  
HETATM   12  C   UNL     1      -8.317   5.610  64.642  1.00  0.00    -0.119 A  
HETATM   13  C   UNL     1      -8.945   4.389  64.444  1.00  0.00    -0.151 A  
HETATM   14  C   UNL     1      -9.364   3.655  65.553  1.00  0.00    -0.160 A  
HETATM   15  N   UNL     1      -9.165   4.107  66.855  1.00  0.00    -0.143 NA 
HETATM   16  O   UNL     1      -9.566   3.373  67.821  1.00  0.00    -0.200 OA 
ENDBRANCH   9  10
ENDBRANCH   8   9
ENDBRANCH   7   8
TORSDOF 3
ENDMDL
MODEL      273
REMARK 921   NORMALIZED FREE ENERGY PREDICTED BY IDOCK:   -2.87 KCAL/MOL
REMARK 922        TOTAL FREE ENERGY PREDICTED BY IDOCK:   -3.57 KCAL/MOL
REMARK 923 INTER-LIGAND FREE ENERGY PREDICTED BY IDOCK:   -2.93 KCAL/MOL
REMARK 924 INTRA-LIGAND FREE ENERGY PREDICTED BY IDOCK:   -0.64 KCAL/MOL
REMARK 927      BINDING AFFINITY PREDICTED BY RF-SCORE:    0.00 PKD
ROOT
HETATM    1  O   UNL     1      -6.939  10.727  68.114  1.00  0.00    -0.071 OA 
HETATM    2  N   UNL     1      -8.195  10.641  67.900  1.00  0.00    -0.111 NA 
HETATM    3  C   UNL     1      -9.045  11.516  68.573  1.00  0.00    -0.157 A  
HETATM    4  C   UNL     1     -10.425  11.498  68.389  1.00  0.00    -0.226 A  
HETATM    5  C   UNL     1     -10.976  10.581  67.506  1.00  0.00    -0.365 A  
HETATM    6  C   UNL     1     -10.147   9.694  66.816  1.00  0.00    -0.301 A  
HETATM    7  C   UNL     1      -8.752   9.709  67.012  1.00  0.00    -0.128 A  
ENDROOT
BRANCH   7   8
HETATM    8  S   UNL     1      -7.688   8.596  66.087  1.00  0.00    -0.099 SA 
BRANCH   8   9
HETATM    9  S   UNL     1      -7.159   7.176  67.483  1.00  0.00    -0.091 SA 
BRANCH   9  10
HETATM   10  C   UNL     1      -8.698   6.794  68.324  1.00  0.00    -0.123 A  
HETATM   11  C   UNL     1      -8.947   7.294  69.617  1.00  0.00    -0.141 A  
HETATM   12  C   UNL     1     -10.174   7.080  70.243  1.00  0.00    -0.206 A  
HETATM   13  C   UNL     1     -11.172   6.371  69.588  1.00  0.00    -0.483 A  
HETATM   14  C   UNL     1     -10.923   5.876  68.310  1.00  0.00    -0.170 A  
HETATM   15  N   UNL     1      -9.705   6.076  67.664  1.00  0.00    -0.112 NA 
HETATM   16  O   UNL     1      -9.556   5.601  66.488  1.00  0.00    -0.146 OA 
ENDBRANCH   9  10
ENDBRANCH   8   9
ENDBRANCH   7   8
TORSDOF 3
ENDMDL
MODEL      274
REMARK 921   NORMALIZED FREE ENERGY PREDICTED BY IDOCK:   -2.84 KCAL/MOL
REMARK 922        TOTAL FREE ENERGY PREDICTED BY IDOCK:   -3.53 KCAL/MOL
REMARK 923 INTER-LIGAND FREE ENERGY PREDICTED BY IDOCK:   -3.29 KCAL/MOL
REMARK 924 INTRA-LIGAND FREE ENERGY PREDICTED BY IDOCK:   -0.24 KCAL/MOL
REMARK 927      BINDING AFFINITY PREDICTED BY RF-SCORE:    0.00 PKD
ROOT
HETATM    1  O   UNL     1     -11.273   6.000  69.182  1.00  0.00    -0.378 OA 
HETATM    2  N   UNL     1     -11.109   7.076  69.848  1.00  0.00    -0.271 NA 
HETATM    3  C   UNL     1     -11.354   7.052  71.219  1.00  0.00    -0.274 A  
HETATM    4  C   UNL     1     -11.190   8.179  72.022  1.00  0.00    -0.372 A  
HETATM    5  C   UNL     1     -10.766   9.365  71.440  1.00  0.00    -0.407 A  
HETATM    6  C   UNL     1     -10.511   9.416  70.069  1.00  0.00    -0.266 A  
HETATM    7  C   UNL     1     -10.687   8.277  69.258  1.00  0.00    -0.128 A  
ENDROOT
BRANCH   7   8
HETATM    8  S   UNL     1     -10.313   8.338  67.503  1.00  0.00    -0.266 SA 
BRANCH   8   9
HETATM    9  S   UNL     1      -8.335   7.767  67.420  1.00  0.00    -0.123 SA 
BRANCH   9  10
HETATM   10  C   UNL     1      -8.259   6.655  66.014  1.00  0.00    -0.128 A  
HETATM   11  C   UNL     1      -9.030   5.476  65.995  1.00  0.00    -0.154 A  
HETATM   12  C   UNL     1      -9.048   4.651  64.871  1.00  0.00    -0.154 A  
HETATM   13  C   UNL     1      -8.304   4.991  63.749  1.00  0.00    -0.132 A  
HETATM   14  C   UNL     1      -7.540   6.156  63.771  1.00  0.00    -0.089 A  
HETATM   15  N   UNL     1      -7.505   6.996  64.882  1.00  0.00    -0.088 NA 
HETATM   16  O   UNL     1      -6.790   8.052  64.823  1.00  0.00    -0.060 OA 
ENDBRANCH   9  10
ENDBRANCH   8   9
ENDBRANCH   7   8
TORSDOF 3
ENDMDL
MODEL      275
REMARK 921   NORMALIZED FREE ENERGY PREDICTED BY IDOCK:   -2.83 KCAL/MOL
REMARK 922        TOTAL FREE ENERGY PREDICTED BY IDOCK:   -3.52 KCAL/MOL
REMARK 923 INTER-LIGAND FREE ENERGY PREDICTED BY IDOCK:   -3.34 KCAL/MOL
REMARK 924 INTRA-LIGAND FREE ENERGY PREDICTED BY IDOCK:   -0.18 KCAL/MOL
REMARK 927      BINDING AFFINITY PREDICTED BY RF-SCORE:    0.00 PKD
ROOT
HETATM    1  O   UNL     1      -6.537  18.616  69.656  1.00  0.00    -0.230 OA 
HETATM    2  N   UNL     1      -6.498  18.995  68.438  1.00  0.00    -0.229 NA 
HETATM    3  C   UNL     1      -6.688  20.346  68.155  1.00  0.00    -0.291 A  
HETATM    4  C   UNL     1      -6.650  20.844  66.855  1.00  0.00    -0.380 A  
HETATM    5  C   UNL     1      -6.415  19.970  65.804  1.00  0.00    -0.252 A  
HETATM    6  C   UNL     1      -6.219  18.611  66.059  1.00  0.00    -0.236 A  
HETATM    7  C   UNL     1      -6.267  18.109  67.374  1.00  0.00    -0.164 A  
ENDROOT
BRANCH   7   8
HETATM    8  S   UNL     1      -5.968  16.368  67.699  1.00  0.00    -0.156 SA 
BRANCH   8   9
HETATM    9  S   UNL     1      -7.521  15.431  66.721  1.00  0.00     0.356 SA 
BRANCH   9  10
HETATM   10  C   UNL     1      -8.942  15.719  67.778  1.00  0.00    -0.176 A  
HETATM   11  C   UNL     1      -9.330  14.756  68.730  1.00  0.00    -0.198 A  
HETATM   12  C   UNL     1     -10.376  15.008  69.617  1.00  0.00    -0.201 A  
HETATM   13  C   UNL     1     -11.045  16.223  69.573  1.00  0.00    -0.330 A  
HETATM   14  C   UNL     1     -10.661  17.174  68.630  1.00  0.00    -0.352 A  
HETATM   15  N   UNL     1      -9.620  16.946  67.733  1.00  0.00    -0.246 NA 
HETATM   16  O   UNL     1      -9.318  17.870  66.904  1.00  0.00    -0.260 OA 
ENDBRANCH   9  10
ENDBRANCH   8   9
ENDBRANCH   7   8
TORSDOF 3
ENDMDL
MODEL      276
REMARK 921   NORMALIZED FREE ENERGY PREDICTED BY IDOCK:   -2.82 KCAL/MOL
REMARK 922        TOTAL FREE ENERGY PREDICTED BY IDOCK:   -3.50 KCAL/MOL
REMARK 923 INTER-LIGAND FREE ENERGY PREDICTED BY IDOCK:   -3.32 KCAL/MOL
REMARK 924 INTRA-LIGAND FREE ENERGY PREDICTED BY IDOCK:   -0.18 KCAL/MOL
REMARK 927      BINDING AFFINITY PREDICTED BY RF-SCORE:    0.00 PKD
ROOT
HETATM    1  O   UNL     1      -6.832   4.773  66.543  1.00  0.00    -0.055 OA 
HETATM    2  N   UNL     1      -7.980   4.545  66.033  1.00  0.00    -0.099 NA 
HETATM    3  C   UNL     1      -8.072   3.633  64.984  1.00  0.00    -0.090 A  
HETATM    4  C   UNL     1      -9.286   3.319  64.379  1.00  0.00    -0.140 A  
HETATM    5  C   UNL     1     -10.445   3.930  64.835  1.00  0.00    -0.125 A  
HETATM    6  C   UNL     1     -10.382   4.845  65.887  1.00  0.00    -0.271 A  
HETATM    7  C   UNL     1      -9.151   5.169  66.491  1.00  0.00    -0.127 A  
ENDROOT
BRANCH   7   8
HETATM    8  S   UNL     1      -9.083   6.313  67.873  1.00  0.00    -0.109 SA 
BRANCH   8   9
HETATM    9  S   UNL     1     -10.438   5.523  69.209  1.00  0.00    -0.245 SA 
BRANCH   9  10
HETATM   10  C   UNL     1     -10.717   6.849  70.386  1.00  0.00    -0.246 A  
HETATM   11  C   UNL     1     -10.730   8.190  69.958  1.00  0.00    -0.243 A  
HETATM   12  C   UNL     1     -11.035   9.222  70.845  1.00  0.00    -0.368 A  
HETATM   13  C   UNL     1     -11.337   8.931  72.168  1.00  0.00    -0.369 A  
HETATM   14  C   UNL     1     -11.323   7.603  72.590  1.00  0.00    -0.370 A  
HETATM   15  N   UNL     1     -11.020   6.556  71.723  1.00  0.00    -0.238 NA 
HETATM   16  O   UNL     1     -11.038   5.363  72.180  1.00  0.00    -0.231 OA 
ENDBRANCH   9  10
ENDBRANCH   8   9
ENDBRANCH   7   8
TORSDOF 3
ENDMDL
MODEL      277
REMARK 921   NORMALIZED FREE ENERGY PREDICTED BY IDOCK:   -2.81 KCAL/MOL
REMARK 922        TOTAL FREE ENERGY PREDICTED BY IDOCK:   -3.49 KCAL/MOL
REMARK 923 INTER-LIGAND FREE ENERGY PREDICTED BY IDOCK:   -3.24 KCAL/MOL
REMARK 924 INTRA-LIGAND FREE ENERGY PREDICTED BY IDOCK:   -0.25 KCAL/MOL
REMARK 927      BINDING AFFINITY PREDICTED BY RF-SCORE:    0.00 PKD
ROOT
HETATM    1  O   UNL     1      -8.486  12.537  67.413  1.00  0.00    -0.163 OA 
HETATM    2  N   UNL     1      -9.638  12.897  67.827  1.00  0.00    -0.205 NA 
HETATM    3  C   UNL     1      -9.812  14.215  68.245  1.00  0.00    -0.235 A  
HETATM    4  C   UNL     1     -11.039  14.692  68.701  1.00  0.00    -0.276 A  
HETATM    5  C   UNL     1     -12.126  13.832  68.739  1.00  0.00    -0.344 A  
HETATM    6  C   UNL     1     -11.980  12.507  68.323  1.00  0.00    -0.274 A  
HETATM    7  C   UNL     1     -10.736  12.024  67.872  1.00  0.00    -0.210 A  
ENDROOT
BRANCH   7   8
HETATM    8  S   UNL     1     -10.567  10.332  67.296  1.00  0.00    -0.261 SA 
BRANCH   8   9
HETATM    9  S   UNL     1      -9.807   9.346  68.938  1.00  0.00    -0.177 SA 
BRANCH   9  10
HETATM   10  C   UNL     1      -9.662   7.641  68.396  1.00  0.00    -0.158 A  
HETATM   11  C   UNL     1     -10.686   6.715  68.676  1.00  0.00    -0.303 A  
HETATM   12  C   UNL     1     -10.626   5.412  68.183  1.00  0.00    -0.146 A  
HETATM   13  C   UNL     1      -9.551   5.015  67.400  1.00  0.00    -0.164 A  
HETATM   14  C   UNL     1      -8.539   5.932  67.126  1.00  0.00    -0.106 A  
HETATM   15  N   UNL     1      -8.575   7.239  67.607  1.00  0.00    -0.126 NA 
HETATM   16  O   UNL     1      -7.615   8.025  67.304  1.00  0.00    -0.094 OA 
ENDBRANCH   9  10
ENDBRANCH   8   9
ENDBRANCH   7   8
TORSDOF 3
ENDMDL
MODEL      278
REMARK 921   NORMALIZED FREE ENERGY PREDICTED BY IDOCK:   -2.80 KCAL/MOL
REMARK 922        TOTAL FREE ENERGY PREDICTED BY IDOCK:   -3.48 KCAL/MOL
REMARK 923 INTER-LIGAND FREE ENERGY PREDICTED BY IDOCK:   -3.12 KCAL/MOL
REMARK 924 INTRA-LIGAND FREE ENERGY PREDICTED BY IDOCK:   -0.36 KCAL/MOL
REMARK 927      BINDING AFFINITY PREDICTED BY RF-SCORE:    0.00 PKD
ROOT
HETATM    1  O   UNL     1      -9.077   9.846  68.951  1.00  0.00    -0.142 OA 
HETATM    2  N   UNL     1      -8.249   8.984  68.502  1.00  0.00    -0.111 NA 
HETATM    3  C   UNL     1      -6.895   9.154  68.782  1.00  0.00    -0.061 A  
HETATM    4  C   UNL     1      -5.928   8.255  68.339  1.00  0.00    -0.041 A  
HETATM    5  C   UNL     1      -6.322   7.152  67.596  1.00  0.00    -0.047 A  
HETATM    6  C   UNL     1      -7.673   6.956  67.304  1.00  0.00    -0.109 A  
HETATM    7  C   UNL     1      -8.648   7.872  67.744  1.00  0.00    -0.128 A  
ENDROOT
BRANCH   7   8
HETATM    8  S   UNL     1     -10.388   7.590  67.403  1.00  0.00    -0.302 SA 
BRANCH   8   9
HETATM    9  S   UNL     1     -10.868   6.023  68.651  1.00  0.00    -0.280 SA 
BRANCH   9  10
HETATM   10  C   UNL     1     -10.842   6.746  70.293  1.00  0.00    -0.270 A  
HETATM   11  C   UNL     1     -11.528   7.949  70.553  1.00  0.00    -0.204 A  
HETATM   12  C   UNL     1     -11.590   8.472  71.844  1.00  0.00    -0.410 A  
HETATM   13  C   UNL     1     -10.975   7.804  72.894  1.00  0.00    -0.467 A  
HETATM   14  C   UNL     1     -10.296   6.615  72.634  1.00  0.00    -0.196 A  
HETATM   15  N   UNL     1     -10.219   6.073  71.353  1.00  0.00    -0.200 NA 
HETATM   16  O   UNL     1      -9.587   4.974  71.196  1.00  0.00    -0.151 OA 
ENDBRANCH   9  10
ENDBRANCH   8   9
ENDBRANCH   7   8
TORSDOF 3
ENDMDL
MODEL      279
REMARK 921   NORMALIZED FREE ENERGY PREDICTED BY IDOCK:   -2.80 KCAL/MOL
REMARK 922        TOTAL FREE ENERGY PREDICTED BY IDOCK:   -3.48 KCAL/MOL
REMARK 923 INTER-LIGAND FREE ENERGY PREDICTED BY IDOCK:   -3.03 KCAL/MOL
REMARK 924 INTRA-LIGAND FREE ENERGY PREDICTED BY IDOCK:   -0.45 KCAL/MOL
REMARK 927      BINDING AFFINITY PREDICTED BY RF-SCORE:    0.00 PKD
ROOT
HETATM    1  O   UNL     1      -9.419   6.198  69.106  1.00  0.00    -0.131 OA 
HETATM    2  N   UNL     1      -8.734   7.096  69.700  1.00  0.00    -0.141 NA 
HETATM    3  C   UNL     1      -7.488   6.748  70.216  1.00  0.00    -0.090 A  
HETATM    4  C   UNL     1      -6.672   7.669  70.869  1.00  0.00    -0.042 A  
HETATM    5  C   UNL     1      -7.110   8.978  71.010  1.00  0.00    -0.103 A  
HETATM    6  C   UNL     1      -8.353   9.354  70.499  1.00  0.00    -0.233 A  
HETATM    7  C   UNL     1      -9.181   8.418  69.848  1.00  0.00    -0.151 A  
ENDROOT
BRANCH   7   8
HETATM    8  S   UNL     1     -10.759   8.920  69.154  1.00  0.00    -0.082 SA 
BRANCH   8   9
HETATM    9  S   UNL     1     -10.303   9.333  67.188  1.00  0.00    -0.253 SA 
BRANCH   9  10
HETATM   10  C   UNL     1      -9.776  11.048  67.212  1.00  0.00    -0.166 A  
HETATM   11  C   UNL     1      -8.412  11.373  67.342  1.00  0.00    -0.143 A  
HETATM   12  C   UNL     1      -7.982  12.698  67.270  1.00  0.00    -0.166 A  
HETATM   13  C   UNL     1      -8.902  13.715  67.062  1.00  0.00    -0.233 A  
HETATM   14  C   UNL     1     -10.252  13.392  66.935  1.00  0.00    -0.252 A  
HETATM   15  N   UNL     1     -10.706  12.077  67.004  1.00  0.00    -0.233 NA 
HETATM   16  O   UNL     1     -11.957  11.858  66.867  1.00  0.00    -0.614 OA 
ENDBRANCH   9  10
ENDBRANCH   8   9
ENDBRANCH   7   8
TORSDOF 3
ENDMDL
MODEL      280
REMARK 921   NORMALIZED FREE ENERGY PREDICTED BY IDOCK:   -2.76 KCAL/MOL
REMARK 922        TOTAL FREE ENERGY PREDICTED BY IDOCK:   -3.44 KCAL/MOL
REMARK 923 INTER-LIGAND FREE ENERGY PREDICTED BY IDOCK:   -3.26 KCAL/MOL
REMARK 924 INTRA-LIGAND FREE ENERGY PREDICTED BY IDOCK:   -0.18 KCAL/MOL
REMARK 927      BINDING AFFINITY PREDICTED BY RF-SCORE:    0.00 PKD
ROOT
HETATM    1  O   UNL     1     -10.565  10.605  69.952  1.00  0.00    -0.238 OA 
HETATM    2  N   UNL     1     -11.451  10.109  70.725  1.00  0.00    -0.335 NA 
HETATM    3  C   UNL     1     -12.712  10.701  70.757  1.00  0.00    -0.378 A  
HETATM    4  C   UNL     1     -13.739  10.216  71.563  1.00  0.00    -0.125 A  
HETATM    5  C   UNL     1     -13.503   9.107  72.362  1.00  0.00    -0.535 A  
HETATM    6  C   UNL     1     -12.249   8.492  72.347  1.00  0.00    -0.432 A  
HETATM    7  C   UNL     1     -11.210   8.991  71.537  1.00  0.00    -0.348 A  
ENDROOT
BRANCH   7   8
HETATM    8  S   UNL     1      -9.614   8.168  71.489  1.00  0.00    -0.188 SA 
BRANCH   8   9
HETATM    9  S   UNL     1     -10.042   6.264  72.149  1.00  0.00    -0.183 SA 
BRANCH   9  10
HETATM   10  C   UNL     1      -8.444   5.449  72.201  1.00  0.00    -0.126 A  
HETATM   11  C   UNL     1      -7.361   5.955  71.456  1.00  0.00    -0.088 A  
HETATM   12  C   UNL     1      -6.093   5.385  71.559  1.00  0.00    -0.033 A  
HETATM   13  C   UNL     1      -5.884   4.308  72.409  1.00  0.00    -0.015 A  
HETATM   14  C   UNL     1      -6.957   3.808  73.144  1.00  0.00    -0.049 A  
HETATM   15  N   UNL     1      -8.233   4.360  73.058  1.00  0.00    -0.094 NA 
HETATM   16  O   UNL     1      -9.164   3.854  73.771  1.00  0.00    -0.094 OA 
ENDBRANCH   9  10
ENDBRANCH   8   9
ENDBRANCH   7   8
TORSDOF 3
ENDMDL
MODEL      281
REMARK 921   NORMALIZED FREE ENERGY PREDICTED BY IDOCK:   -2.75 KCAL/MOL
REMARK 922        TOTAL FREE ENERGY PREDICTED BY IDOCK:   -3.43 KCAL/MOL
REMARK 923 INTER-LIGAND FREE ENERGY PREDICTED BY IDOCK:   -3.21 KCAL/MOL
REMARK 924 INTRA-LIGAND FREE ENERGY PREDICTED BY IDOCK:   -0.21 KCAL/MOL
REMARK 927      BINDING AFFINITY PREDICTED BY RF-SCORE:    0.00 PKD
ROOT
HETATM    1  O   UNL     1     -11.324   6.262  69.654  1.00  0.00    -0.405 OA 
HETATM    2  N   UNL     1     -11.030   6.603  70.849  1.00  0.00    -0.254 NA 
HETATM    3  C   UNL     1     -11.208   5.670  71.868  1.00  0.00    -0.181 A  
HETATM    4  C   UNL     1     -10.902   5.956  73.197  1.00  0.00    -0.296 A  
HETATM    5  C   UNL     1     -10.402   7.210  73.519  1.00  0.00    -0.412 A  
HETATM    6  C   UNL     1     -10.212   8.162  72.516  1.00  0.00    -0.383 A  
HETATM    7  C   UNL     1     -10.531   7.873  71.175  1.00  0.00    -0.204 A  
ENDROOT
BRANCH   7   8
HETATM    8  S   UNL     1     -10.241   9.087  69.885  1.00  0.00    -0.212 SA 
BRANCH   8   9
HETATM    9  S   UNL     1      -8.491   8.441  69.010  1.00  0.00    -0.123 SA 
BRANCH   9  10
HETATM   10  C   UNL     1      -7.788   9.926  68.287  1.00  0.00    -0.085 A  
HETATM   11  C   UNL     1      -7.925  11.168  68.936  1.00  0.00    -0.126 A  
HETATM   12  C   UNL     1      -7.307  12.311  68.430  1.00  0.00    -0.109 A  
HETATM   13  C   UNL     1      -6.540  12.232  67.276  1.00  0.00    -0.146 A  
HETATM   14  C   UNL     1      -6.407  11.002  66.635  1.00  0.00    -0.124 A  
HETATM   15  N   UNL     1      -7.015   9.846  67.120  1.00  0.00    -0.083 NA 
HETATM   16  O   UNL     1      -6.838   8.753  66.483  1.00  0.00    -0.070 OA 
ENDBRANCH   9  10
ENDBRANCH   8   9
ENDBRANCH   7   8
TORSDOF 3
ENDMDL
MODEL      282
REMARK 921   NORMALIZED FREE ENERGY PREDICTED BY IDOCK:   -2.73 KCAL/MOL
REMARK 922        TOTAL FREE ENERGY PREDICTED BY IDOCK:   -3.40 KCAL/MOL
REMARK 923 INTER-LIGAND FREE ENERGY PREDICTED BY IDOCK:   -3.17 KCAL/MOL
REMARK 924 INTRA-LIGAND FREE ENERGY PREDICTED BY IDOCK:   -0.23 KCAL/MOL
REMARK 927      BINDING AFFINITY PREDICTED BY RF-SCORE:    0.00 PKD
ROOT
HETATM    1  O   UNL     1     -10.116   9.673  70.183  1.00  0.00    -0.229 OA 
HETATM    2  N   UNL     1     -10.506   8.599  70.751  1.00  0.00    -0.197 NA 
HETATM    3  C   UNL     1     -10.747   8.621  72.123  1.00  0.00    -0.347 A  
HETATM    4  C   UNL     1     -11.184   7.496  72.818  1.00  0.00    -0.403 A  
HETATM    5  C   UNL     1     -11.389   6.312  72.125  1.00  0.00    -0.343 A  
HETATM    6  C   UNL     1     -11.158   6.263  70.749  1.00  0.00    -0.377 A  
HETATM    7  C   UNL     1     -10.707   7.400  70.050  1.00  0.00    -0.246 A  
ENDROOT
BRANCH   7   8
HETATM    8  S   UNL     1     -10.455   7.340  68.273  1.00  0.00    -0.180 SA 
BRANCH   8   9
HETATM    9  S   UNL     1      -8.413   7.137  68.090  1.00  0.00    -0.122 SA 
BRANCH   9  10
HETATM   10  C   UNL     1      -8.007   8.096  66.628  1.00  0.00    -0.102 A  
HETATM   11  C   UNL     1      -8.814   9.184  66.242  1.00  0.00    -0.176 A  
HETATM   12  C   UNL     1      -8.459   9.991  65.162  1.00  0.00    -0.160 A  
HETATM   13  C   UNL     1      -7.293   9.730  64.456  1.00  0.00    -0.135 A  
HETATM   14  C   UNL     1      -6.497   8.652  64.838  1.00  0.00    -0.065 A  
HETATM   15  N   UNL     1      -6.831   7.831  65.913  1.00  0.00    -0.056 NA 
HETATM   16  O   UNL     1      -6.045   6.869  66.210  1.00  0.00    -0.033 OA 
ENDBRANCH   9  10
ENDBRANCH   8   9
ENDBRANCH   7   8
TORSDOF 3
ENDMDL
MODEL      283
REMARK 921   NORMALIZED FREE ENERGY PREDICTED BY IDOCK:   -2.71 KCAL/MOL
REMARK 922        TOTAL FREE ENERGY PREDICTED BY IDOCK:   -3.38 KCAL/MOL
REMARK 923 INTER-LIGAND FREE ENERGY PREDICTED BY IDOCK:   -3.13 KCAL/MOL
REMARK 924 INTRA-LIGAND FREE ENERGY PREDICTED BY IDOCK:   -0.25 KCAL/MOL
REMARK 927      BINDING AFFINITY PREDICTED BY RF-SCORE:    0.00 PKD
ROOT
HETATM    1  O   UNL     1     -10.356  10.012  66.675  1.00  0.00    -0.234 OA 
HETATM    2  N   UNL     1      -9.174   9.543  66.566  1.00  0.00    -0.153 NA 
HETATM    3  C   UNL     1      -8.484   9.752  65.373  1.00  0.00    -0.145 A  
HETATM    4  C   UNL     1      -7.188   9.284  65.175  1.00  0.00    -0.094 A  
HETATM    5  C   UNL     1      -6.558   8.588  66.196  1.00  0.00    -0.057 A  
HETATM    6  C   UNL     1      -7.225   8.368  67.403  1.00  0.00    -0.088 A  
HETATM    7  C   UNL     1      -8.540   8.834  67.597  1.00  0.00    -0.128 A  
ENDROOT
BRANCH   7   8
HETATM    8  S   UNL     1      -9.374   8.586  69.167  1.00  0.00    -0.154 SA 
BRANCH   8   9
HETATM    9  S   UNL     1     -10.634   7.000  68.790  1.00  0.00    -0.197 SA 
BRANCH   9  10
HETATM   10  C   UNL     1     -10.552   6.010  70.285  1.00  0.00    -0.273 A  
HETATM   11  C   UNL     1      -9.610   4.970  70.400  1.00  0.00    -0.260 A  
HETATM   12  C   UNL     1      -9.476   4.254  71.589  1.00  0.00    -0.211 A  
HETATM   13  C   UNL     1     -10.273   4.568  72.681  1.00  0.00    -0.236 A  
HETATM   14  C   UNL     1     -11.206   5.597  72.564  1.00  0.00    -0.293 A  
HETATM   15  N   UNL     1     -11.359   6.326  71.387  1.00  0.00    -0.292 NA 
HETATM   16  O   UNL     1     -12.228   7.262  71.360  1.00  0.00    -0.312 OA 
ENDBRANCH   9  10
ENDBRANCH   8   9
ENDBRANCH   7   8
TORSDOF 3
ENDMDL
MODEL      284
REMARK 921   NORMALIZED FREE ENERGY PREDICTED BY IDOCK:   -2.69 KCAL/MOL
REMARK 922        TOTAL FREE ENERGY PREDICTED BY IDOCK:   -3.35 KCAL/MOL
REMARK 923 INTER-LIGAND FREE ENERGY PREDICTED BY IDOCK:   -3.00 KCAL/MOL
REMARK 924 INTRA-LIGAND FREE ENERGY PREDICTED BY IDOCK:   -0.35 KCAL/MOL
REMARK 927      BINDING AFFINITY PREDICTED BY RF-SCORE:    0.00 PKD
ROOT
HETATM    1  O   UNL     1      -9.820   9.312  66.250  1.00  0.00    -0.251 OA 
HETATM    2  N   UNL     1      -8.677   9.250  66.816  1.00  0.00    -0.126 NA 
HETATM    3  C   UNL     1      -7.597   8.768  66.081  1.00  0.00    -0.094 A  
HETATM    4  C   UNL     1      -6.315   8.678  66.619  1.00  0.00    -0.059 A  
HETATM    5  C   UNL     1      -6.103   9.083  67.929  1.00  0.00    -0.051 A  
HETATM    6  C   UNL     1      -7.168   9.573  68.687  1.00  0.00    -0.074 A  
HETATM    7  C   UNL     1      -8.465   9.653  68.143  1.00  0.00    -0.118 A  
ENDROOT
BRANCH   7   8
HETATM    8  S   UNL     1      -9.820  10.327  69.110  1.00  0.00    -0.225 SA 
BRANCH   8   9
HETATM    9  S   UNL     1     -10.952   8.666  69.562  1.00  0.00     0.030 SA 
BRANCH   9  10
HETATM   10  C   UNL     1     -10.371   8.170  71.186  1.00  0.00    -0.198 A  
HETATM   11  C   UNL     1      -9.087   8.544  71.630  1.00  0.00    -0.296 A  
HETATM   12  C   UNL     1      -8.660   8.242  72.922  1.00  0.00    -0.276 A  
HETATM   13  C   UNL     1      -9.506   7.569  73.792  1.00  0.00    -0.330 A  
HETATM   14  C   UNL     1     -10.775   7.198  73.351  1.00  0.00    -0.368 A  
HETATM   15  N   UNL     1     -11.224   7.487  72.065  1.00  0.00    -0.247 NA 
HETATM   16  O   UNL     1     -12.404   7.124  71.737  1.00  0.00    -0.321 OA 
ENDBRANCH   9  10
ENDBRANCH   8   9
ENDBRANCH   7   8
TORSDOF 3
ENDMDL
MODEL      285
REMARK 921   NORMALIZED FREE ENERGY PREDICTED BY IDOCK:   -2.68 KCAL/MOL
REMARK 922        TOTAL FREE ENERGY PREDICTED BY IDOCK:   -3.35 KCAL/MOL
REMARK 923 INTER-LIGAND FREE ENERGY PREDICTED BY IDOCK:   -3.12 KCAL/MOL
REMARK 924 INTRA-LIGAND FREE ENERGY PREDICTED BY IDOCK:   -0.23 KCAL/MOL
REMARK 927      BINDING AFFINITY PREDICTED BY RF-SCORE:    0.00 PKD
ROOT
HETATM    1  O   UNL     1     -10.302  10.619  64.286  1.00  0.00    -0.360 OA 
HETATM    2  N   UNL     1      -9.183  10.696  64.896  1.00  0.00    -0.204 NA 
HETATM    3  C   UNL     1      -8.070  10.086  64.323  1.00  0.00    -0.156 A  
HETATM    4  C   UNL     1      -6.811  10.131  64.918  1.00  0.00    -0.129 A  
HETATM    5  C   UNL     1      -6.657  10.806  66.120  1.00  0.00    -0.127 A  
HETATM    6  C   UNL     1      -7.755  11.429  66.714  1.00  0.00    -0.150 A  
HETATM    7  C   UNL     1      -9.029  11.373  66.116  1.00  0.00    -0.201 A  
ENDROOT
BRANCH   7   8
HETATM    8  S   UNL     1     -10.428  12.215  66.864  1.00  0.00    -0.229 SA 
BRANCH   8   9
HETATM    9  S   UNL     1     -10.480  11.444  68.773  1.00  0.00    -0.194 SA 
BRANCH   9  10
HETATM   10  C   UNL     1     -10.248   9.680  68.540  1.00  0.00    -0.193 A  
HETATM   11  C   UNL     1     -10.875   9.014  67.469  1.00  0.00    -0.130 A  
HETATM   12  C   UNL     1     -10.630   7.663  67.224  1.00  0.00    -0.388 A  
HETATM   13  C   UNL     1      -9.754   6.959  68.038  1.00  0.00    -0.138 A  
HETATM   14  C   UNL     1      -9.136   7.619  69.098  1.00  0.00    -0.141 A  
HETATM   15  N   UNL     1      -9.364   8.967  69.363  1.00  0.00    -0.155 NA 
HETATM   16  O   UNL     1      -8.752   9.506  70.346  1.00  0.00    -0.217 OA 
ENDBRANCH   9  10
ENDBRANCH   8   9
ENDBRANCH   7   8
TORSDOF 3
ENDMDL
MODEL      286
REMARK 921   NORMALIZED FREE ENERGY PREDICTED BY IDOCK:   -2.61 KCAL/MOL
REMARK 922        TOTAL FREE ENERGY PREDICTED BY IDOCK:   -3.26 KCAL/MOL
REMARK 923 INTER-LIGAND FREE ENERGY PREDICTED BY IDOCK:   -3.08 KCAL/MOL
REMARK 924 INTRA-LIGAND FREE ENERGY PREDICTED BY IDOCK:   -0.18 KCAL/MOL
REMARK 927      BINDING AFFINITY PREDICTED BY RF-SCORE:    0.00 PKD
ROOT
HETATM    1  O   UNL     1     -12.416  10.969  69.196  1.00  0.00    -0.432 OA 
HETATM    2  N   UNL     1     -12.259  10.154  70.166  1.00  0.00    -0.172 NA 
HETATM    3  C   UNL     1     -13.017  10.341  71.320  1.00  0.00    -0.420 A  
HETATM    4  C   UNL     1     -12.915   9.492  72.420  1.00  0.00    -0.396 A  
HETATM    5  C   UNL     1     -12.033   8.423  72.368  1.00  0.00    -0.451 A  
HETATM    6  C   UNL     1     -11.263   8.211  71.222  1.00  0.00    -0.297 A  
HETATM    7  C   UNL     1     -11.361   9.077  70.115  1.00  0.00    -0.121 A  
ENDROOT
BRANCH   7   8
HETATM    8  S   UNL     1     -10.402   8.771  68.628  1.00  0.00    -0.186 SA 
BRANCH   8   9
HETATM    9  S   UNL     1      -9.136   7.245  69.186  1.00  0.00    -0.136 SA 
BRANCH   9  10
HETATM   10  C   UNL     1      -7.976   7.118  67.822  1.00  0.00    -0.114 A  
HETATM   11  C   UNL     1      -8.324   7.596  66.544  1.00  0.00    -0.129 A  
HETATM   12  C   UNL     1      -7.400   7.585  65.500  1.00  0.00    -0.071 A  
HETATM   13  C   UNL     1      -6.116   7.103  65.716  1.00  0.00    -0.037 A  
HETATM   14  C   UNL     1      -5.775   6.628  66.980  1.00  0.00    -0.014 A  
HETATM   15  N   UNL     1      -6.680   6.628  68.039  1.00  0.00    -0.068 NA 
HETATM   16  O   UNL     1      -6.291   6.187  69.172  1.00  0.00    -0.037 OA 
ENDBRANCH   9  10
ENDBRANCH   8   9
ENDBRANCH   7   8
TORSDOF 3
ENDMDL
MODEL      287
REMARK 921   NORMALIZED FREE ENERGY PREDICTED BY IDOCK:   -2.60 KCAL/MOL
REMARK 922        TOTAL FREE ENERGY PREDICTED BY IDOCK:   -3.25 KCAL/MOL
REMARK 923 INTER-LIGAND FREE ENERGY PREDICTED BY IDOCK:   -2.92 KCAL/MOL
REMARK 924 INTRA-LIGAND FREE ENERGY PREDICTED BY IDOCK:   -0.33 KCAL/MOL
REMARK 927      BINDING AFFINITY PREDICTED BY RF-SCORE:    0.00 PKD
ROOT
HETATM    1  O   UNL     1      -9.566   8.252  66.353  1.00  0.00    -0.217 OA 
HETATM    2  N   UNL     1      -9.996   8.823  67.410  1.00  0.00    -0.190 NA 
HETATM    3  C   UNL     1     -10.730   9.999  67.278  1.00  0.00    -0.244 A  
HETATM    4  C   UNL     1     -11.245  10.680  68.379  1.00  0.00    -0.347 A  
HETATM    5  C   UNL     1     -11.022  10.171  69.651  1.00  0.00    -0.305 A  
HETATM    6  C   UNL     1     -10.292   8.993  69.811  1.00  0.00    -0.219 A  
HETATM    7  C   UNL     1      -9.765   8.312  68.696  1.00  0.00    -0.156 A  
ENDROOT
BRANCH   7   8
HETATM    8  S   UNL     1      -8.865   6.772  68.908  1.00  0.00    -0.127 SA 
BRANCH   8   9
HETATM    9  S   UNL     1     -10.310   5.334  68.612  1.00  0.00    -0.074 SA 
BRANCH   9  10
HETATM   10  C   UNL     1      -9.749   4.441  67.160  1.00  0.00    -0.197 A  
HETATM   11  C   UNL     1     -10.257   4.760  65.886  1.00  0.00    -0.286 A  
HETATM   12  C   UNL     1      -9.763   4.136  64.741  1.00  0.00    -0.187 A  
HETATM   13  C   UNL     1      -8.752   3.191  64.849  1.00  0.00    -0.108 A  
HETATM   14  C   UNL     1      -8.252   2.875  66.110  1.00  0.00    -0.085 A  
HETATM   15  N   UNL     1      -8.730   3.484  67.269  1.00  0.00    -0.110 NA 
HETATM   16  O   UNL     1      -8.214   3.150  68.388  1.00  0.00    -0.067 OA 
ENDBRANCH   9  10
ENDBRANCH   8   9
ENDBRANCH   7   8
TORSDOF 3
ENDMDL
MODEL      288
REMARK 921   NORMALIZED FREE ENERGY PREDICTED BY IDOCK:   -2.60 KCAL/MOL
REMARK 922        TOTAL FREE ENERGY PREDICTED BY IDOCK:   -3.25 KCAL/MOL
REMARK 923 INTER-LIGAND FREE ENERGY PREDICTED BY IDOCK:   -3.00 KCAL/MOL
REMARK 924 INTRA-LIGAND FREE ENERGY PREDICTED BY IDOCK:   -0.25 KCAL/MOL
REMARK 927      BINDING AFFINITY PREDICTED BY RF-SCORE:    0.00 PKD
ROOT
HETATM    1  O   UNL     1      -8.532   7.810  66.758  1.00  0.00    -0.120 OA 
HETATM    2  N   UNL     1      -7.791   8.522  66.000  1.00  0.00    -0.096 NA 
HETATM    3  C   UNL     1      -6.421   8.274  65.987  1.00  0.00    -0.049 A  
HETATM    4  C   UNL     1      -5.544   8.997  65.183  1.00  0.00    -0.050 A  
HETATM    5  C   UNL     1      -6.048   9.997  64.364  1.00  0.00    -0.130 A  
HETATM    6  C   UNL     1      -7.418  10.265  64.355  1.00  0.00    -0.084 A  
HETATM    7  C   UNL     1      -8.301   9.538  65.178  1.00  0.00    -0.142 A  
ENDROOT
BRANCH   7   8
HETATM    8  S   UNL     1     -10.068   9.857  65.127  1.00  0.00     0.079 SA 
BRANCH   8   9
HETATM    9  S   UNL     1     -10.176  11.849  64.612  1.00  0.00    -0.286 SA 
BRANCH   9  10
HETATM   10  C   UNL     1     -10.710  12.663  66.119  1.00  0.00    -0.267 A  
HETATM   11  C   UNL     1     -11.518  11.982  67.049  1.00  0.00    -0.402 A  
HETATM   12  C   UNL     1     -11.864  12.572  68.264  1.00  0.00    -0.361 A  
HETATM   13  C   UNL     1     -11.406  13.845  68.572  1.00  0.00    -0.311 A  
HETATM   14  C   UNL     1     -10.608  14.518  67.649  1.00  0.00    -0.251 A  
HETATM   15  N   UNL     1     -10.249  13.951  66.429  1.00  0.00    -0.285 NA 
HETATM   16  O   UNL     1      -9.506  14.625  65.639  1.00  0.00    -0.246 OA 
ENDBRANCH   9  10
ENDBRANCH   8   9
ENDBRANCH   7   8
TORSDOF 3
ENDMDL
MODEL      289
REMARK 921   NORMALIZED FREE ENERGY PREDICTED BY IDOCK:   -2.59 KCAL/MOL
REMARK 922        TOTAL FREE ENERGY PREDICTED BY IDOCK:   -3.24 KCAL/MOL
REMARK 923 INTER-LIGAND FREE ENERGY PREDICTED BY IDOCK:   -2.88 KCAL/MOL
REMARK 924 INTRA-LIGAND FREE ENERGY PREDICTED BY IDOCK:   -0.36 KCAL/MOL
REMARK 927      BINDING AFFINITY PREDICTED BY RF-SCORE:    0.00 PKD
ROOT
HETATM    1  O   UNL     1     -10.852   5.637  69.408  1.00  0.00    -0.320 OA 
HETATM    2  N   UNL     1     -10.886   6.860  69.771  1.00  0.00    -0.246 NA 
HETATM    3  C   UNL     1     -11.097   7.148  71.117  1.00  0.00    -0.254 A  
HETATM    4  C   UNL     1     -11.138   8.455  71.598  1.00  0.00    -0.344 A  
HETATM    5  C   UNL     1     -10.962   9.506  70.711  1.00  0.00    -0.389 A  
HETATM    6  C   UNL     1     -10.747   9.246  69.357  1.00  0.00    -0.222 A  
HETATM    7  C   UNL     1     -10.715   7.924  68.871  1.00  0.00    -0.073 A  
ENDROOT
BRANCH   7   8
HETATM    8  S   UNL     1     -10.392   7.595  67.136  1.00  0.00    -0.338 SA 
BRANCH   8   9
HETATM    9  S   UNL     1      -8.443   6.929  67.134  1.00  0.00    -0.122 SA 
BRANCH   9  10
HETATM   10  C   UNL     1      -7.494   8.352  66.592  1.00  0.00    -0.082 A  
HETATM   11  C   UNL     1      -7.994   9.656  66.780  1.00  0.00    -0.105 A  
HETATM   12  C   UNL     1      -7.227  10.771  66.447  1.00  0.00    -0.138 A  
HETATM   13  C   UNL     1      -5.951  10.605  65.927  1.00  0.00    -0.133 A  
HETATM   14  C   UNL     1      -5.459   9.315  65.740  1.00  0.00    -0.040 A  
HETATM   15  N   UNL     1      -6.206   8.185  66.065  1.00  0.00    -0.045 NA 
HETATM   16  O   UNL     1      -5.683   7.035  65.875  1.00  0.00    -0.029 OA 
ENDBRANCH   9  10
ENDBRANCH   8   9
ENDBRANCH   7   8
TORSDOF 3
ENDMDL
MODEL      290
REMARK 921   NORMALIZED FREE ENERGY PREDICTED BY IDOCK:   -2.59 KCAL/MOL
REMARK 922        TOTAL FREE ENERGY PREDICTED BY IDOCK:   -3.24 KCAL/MOL
REMARK 923 INTER-LIGAND FREE ENERGY PREDICTED BY IDOCK:   -3.04 KCAL/MOL
REMARK 924 INTRA-LIGAND FREE ENERGY PREDICTED BY IDOCK:   -0.21 KCAL/MOL
REMARK 927      BINDING AFFINITY PREDICTED BY RF-SCORE:    0.00 PKD
ROOT
HETATM    1  O   UNL     1      -6.888   4.010  65.397  1.00  0.00    -0.054 OA 
HETATM    2  N   UNL     1      -8.078   3.918  64.945  1.00  0.00    -0.093 NA 
HETATM    3  C   UNL     1      -8.292   3.189  63.778  1.00  0.00    -0.086 A  
HETATM    4  C   UNL     1      -9.560   3.031  63.224  1.00  0.00    -0.095 A  
HETATM    5  C   UNL     1     -10.649   3.616  63.853  1.00  0.00    -0.285 A  
HETATM    6  C   UNL     1     -10.464   4.351  65.026  1.00  0.00    -0.157 A  
HETATM    7  C   UNL     1      -9.178   4.517  65.578  1.00  0.00    -0.152 A  
ENDROOT
BRANCH   7   8
HETATM    8  S   UNL     1      -8.953   5.424  67.112  1.00  0.00    -0.111 SA 
BRANCH   8   9
HETATM    9  S   UNL     1     -10.797   6.288  67.426  1.00  0.00    -0.368 SA 
BRANCH   9  10
HETATM   10  C   UNL     1     -10.556   7.320  68.875  1.00  0.00    -0.191 A  
HETATM   11  C   UNL     1     -10.438   6.739  70.152  1.00  0.00    -0.240 A  
HETATM   12  C   UNL     1     -10.160   7.522  71.272  1.00  0.00    -0.197 A  
HETATM   13  C   UNL     1      -9.990   8.893  71.134  1.00  0.00    -0.342 A  
HETATM   14  C   UNL     1     -10.109   9.466  69.870  1.00  0.00    -0.218 A  
HETATM   15  N   UNL     1     -10.386   8.705  68.737  1.00  0.00    -0.211 NA 
HETATM   16  O   UNL     1     -10.469   9.301  67.610  1.00  0.00    -0.238 OA 
ENDBRANCH   9  10
ENDBRANCH   8   9
ENDBRANCH   7   8
TORSDOF 3
ENDMDL
MODEL      291
REMARK 921   NORMALIZED FREE ENERGY PREDICTED BY IDOCK:   -2.58 KCAL/MOL
REMARK 922        TOTAL FREE ENERGY PREDICTED BY IDOCK:   -3.22 KCAL/MOL
REMARK 923 INTER-LIGAND FREE ENERGY PREDICTED BY IDOCK:   -2.98 KCAL/MOL
REMARK 924 INTRA-LIGAND FREE ENERGY PREDICTED BY IDOCK:   -0.25 KCAL/MOL
REMARK 927      BINDING AFFINITY PREDICTED BY RF-SCORE:    0.00 PKD
ROOT
HETATM    1  O   UNL     1      -8.600   8.636  72.350  1.00  0.00    -0.341 OA 
HETATM    2  N   UNL     1      -8.816   7.382  72.253  1.00  0.00    -0.122 NA 
HETATM    3  C   UNL     1      -8.895   6.629  73.421  1.00  0.00    -0.123 A  
HETATM    4  C   UNL     1      -9.139   5.258  73.405  1.00  0.00    -0.128 A  
HETATM    5  C   UNL     1      -9.312   4.618  72.186  1.00  0.00    -0.175 A  
HETATM    6  C   UNL     1      -9.240   5.350  71.000  1.00  0.00    -0.179 A  
HETATM    7  C   UNL     1      -8.984   6.735  71.019  1.00  0.00    -0.145 A  
ENDROOT
BRANCH   7   8
HETATM    8  S   UNL     1      -8.939   7.677  69.491  1.00  0.00    -0.138 SA 
BRANCH   8   9
HETATM    9  S   UNL     1     -10.841   8.457  69.359  1.00  0.00    -0.004 SA 
BRANCH   9  10
HETATM   10  C   UNL     1     -10.627   9.978  68.430  1.00  0.00    -0.220 A  
HETATM   11  C   UNL     1     -10.620  11.222  69.091  1.00  0.00    -0.222 A  
HETATM   12  C   UNL     1     -10.364  12.402  68.393  1.00  0.00    -0.236 A  
HETATM   13  C   UNL     1     -10.107  12.358  67.029  1.00  0.00    -0.223 A  
HETATM   14  C   UNL     1     -10.116  11.127  66.377  1.00  0.00    -0.226 A  
HETATM   15  N   UNL     1     -10.369   9.935  67.052  1.00  0.00    -0.235 NA 
HETATM   16  O   UNL     1     -10.350   8.844  66.388  1.00  0.00    -0.259 OA 
ENDBRANCH   9  10
ENDBRANCH   8   9
ENDBRANCH   7   8
TORSDOF 3
ENDMDL
MODEL      292
REMARK 921   NORMALIZED FREE ENERGY PREDICTED BY IDOCK:   -2.56 KCAL/MOL
REMARK 922        TOTAL FREE ENERGY PREDICTED BY IDOCK:   -3.20 KCAL/MOL
REMARK 923 INTER-LIGAND FREE ENERGY PREDICTED BY IDOCK:   -3.02 KCAL/MOL
REMARK 924 INTRA-LIGAND FREE ENERGY PREDICTED BY IDOCK:   -0.18 KCAL/MOL
REMARK 927      BINDING AFFINITY PREDICTED BY RF-SCORE:    0.00 PKD
ROOT
HETATM    1  O   UNL     1      -9.033   4.171  68.783  1.00  0.00    -0.098 OA 
HETATM    2  N   UNL     1      -9.343   5.290  68.255  1.00  0.00    -0.114 NA 
HETATM    3  C   UNL     1     -10.450   5.343  67.410  1.00  0.00    -0.189 A  
HETATM    4  C   UNL     1     -10.863   6.525  66.802  1.00  0.00    -0.345 A  
HETATM    5  C   UNL     1     -10.154   7.693  67.044  1.00  0.00    -0.338 A  
HETATM    6  C   UNL     1      -9.043   7.669  67.889  1.00  0.00    -0.134 A  
HETATM    7  C   UNL     1      -8.621   6.469  68.495  1.00  0.00    -0.123 A  
ENDROOT
BRANCH   7   8
HETATM    8  S   UNL     1      -7.219   6.456  69.616  1.00  0.00    -0.080 SA 
BRANCH   8   9
HETATM    9  S   UNL     1      -7.753   7.823  71.061  1.00  0.00    -0.086 SA 
BRANCH   9  10
HETATM   10  C   UNL     1      -8.941   6.943  72.079  1.00  0.00    -0.133 A  
HETATM   11  C   UNL     1      -9.330   5.631  71.747  1.00  0.00    -0.163 A  
HETATM   12  C   UNL     1     -10.182   4.905  72.579  1.00  0.00    -0.248 A  
HETATM   13  C   UNL     1     -10.652   5.472  73.755  1.00  0.00    -0.316 A  
HETATM   14  C   UNL     1     -10.267   6.771  74.081  1.00  0.00    -0.339 A  
HETATM   15  N   UNL     1      -9.418   7.517  73.266  1.00  0.00    -0.215 NA 
HETATM   16  O   UNL     1      -9.101   8.697  73.637  1.00  0.00    -0.102 OA 
ENDBRANCH   9  10
ENDBRANCH   8   9
ENDBRANCH   7   8
TORSDOF 3
ENDMDL
MODEL      293
REMARK 921   NORMALIZED FREE ENERGY PREDICTED BY IDOCK:   -2.51 KCAL/MOL
REMARK 922        TOTAL FREE ENERGY PREDICTED BY IDOCK:   -3.14 KCAL/MOL
REMARK 923 INTER-LIGAND FREE ENERGY PREDICTED BY IDOCK:   -2.95 KCAL/MOL
REMARK 924 INTRA-LIGAND FREE ENERGY PREDICTED BY IDOCK:   -0.19 KCAL/MOL
REMARK 927      BINDING AFFINITY PREDICTED BY RF-SCORE:    0.00 PKD
ROOT
HETATM    1  O   UNL     1     -10.968  10.650  66.724  1.00  0.00    -0.215 OA 
HETATM    2  N   UNL     1     -10.269  11.712  66.832  1.00  0.00    -0.211 NA 
HETATM    3  C   UNL     1     -10.796  12.907  66.348  1.00  0.00    -0.274 A  
HETATM    4  C   UNL     1     -10.103  14.112  66.436  1.00  0.00    -0.299 A  
HETATM    5  C   UNL     1      -8.848  14.128  67.026  1.00  0.00    -0.237 A  
HETATM    6  C   UNL     1      -8.298  12.945  67.522  1.00  0.00    -0.183 A  
HETATM    7  C   UNL     1      -8.996  11.725  67.423  1.00  0.00    -0.173 A  
ENDROOT
BRANCH   7   8
HETATM    8  S   UNL     1      -8.301  10.216  68.104  1.00  0.00    -0.119 SA 
BRANCH   8   9
HETATM    9  S   UNL     1      -9.414   9.910  69.811  1.00  0.00    -0.210 SA 
BRANCH   9  10
HETATM   10  C   UNL     1      -9.018   8.228  70.295  1.00  0.00    -0.142 A  
HETATM   11  C   UNL     1      -7.968   7.532  69.664  1.00  0.00    -0.125 A  
HETATM   12  C   UNL     1      -7.594   6.259  70.094  1.00  0.00    -0.096 A  
HETATM   13  C   UNL     1      -8.254   5.665  71.160  1.00  0.00    -0.121 A  
HETATM   14  C   UNL     1      -9.293   6.354  71.781  1.00  0.00    -0.150 A  
HETATM   15  N   UNL     1      -9.687   7.625  71.371  1.00  0.00    -0.163 NA 
HETATM   16  O   UNL     1     -10.641   8.199  71.997  1.00  0.00    -0.230 OA 
ENDBRANCH   9  10
ENDBRANCH   8   9
ENDBRANCH   7   8
TORSDOF 3
ENDMDL
MODEL      294
REMARK 921   NORMALIZED FREE ENERGY PREDICTED BY IDOCK:   -2.48 KCAL/MOL
REMARK 922        TOTAL FREE ENERGY PREDICTED BY IDOCK:   -3.11 KCAL/MOL
REMARK 923 INTER-LIGAND FREE ENERGY PREDICTED BY IDOCK:   -2.71 KCAL/MOL
REMARK 924 INTRA-LIGAND FREE ENERGY PREDICTED BY IDOCK:   -0.40 KCAL/MOL
REMARK 927      BINDING AFFINITY PREDICTED BY RF-SCORE:    0.00 PKD
ROOT
HETATM    1  O   UNL     1      -8.456  12.914  66.973  1.00  0.00    -0.192 OA 
HETATM    2  N   UNL     1      -7.594  12.010  67.234  1.00  0.00    -0.150 NA 
HETATM    3  C   UNL     1      -6.436  12.373  67.918  1.00  0.00    -0.095 A  
HETATM    4  C   UNL     1      -5.450  11.448  68.251  1.00  0.00    -0.042 A  
HETATM    5  C   UNL     1      -5.623  10.119  67.894  1.00  0.00    -0.038 A  
HETATM    6  C   UNL     1      -6.776   9.727  67.211  1.00  0.00    -0.074 A  
HETATM    7  C   UNL     1      -7.767  10.667  66.866  1.00  0.00    -0.122 A  
ENDROOT
BRANCH   7   8
HETATM    8  S   UNL     1      -9.267  10.147  66.028  1.00  0.00    -0.168 SA 
BRANCH   8   9
HETATM    9  S   UNL     1     -10.583   9.807  67.576  1.00  0.00    -0.263 SA 
BRANCH   9  10
HETATM   10  C   UNL     1     -10.364   8.068  67.962  1.00  0.00    -0.206 A  
HETATM   11  C   UNL     1     -10.935   7.078  67.139  1.00  0.00    -0.393 A  
HETATM   12  C   UNL     1     -10.697   5.724  67.377  1.00  0.00    -0.332 A  
HETATM   13  C   UNL     1      -9.883   5.339  68.433  1.00  0.00    -0.208 A  
HETATM   14  C   UNL     1      -9.321   6.320  69.247  1.00  0.00    -0.136 A  
HETATM   15  N   UNL     1      -9.545   7.678  69.031  1.00  0.00    -0.150 NA 
HETATM   16  O   UNL     1      -8.986   8.518  69.813  1.00  0.00    -0.142 OA 
ENDBRANCH   9  10
ENDBRANCH   8   9
ENDBRANCH   7   8
TORSDOF 3
ENDMDL
MODEL      295
REMARK 921   NORMALIZED FREE ENERGY PREDICTED BY IDOCK:   -2.47 KCAL/MOL
REMARK 922        TOTAL FREE ENERGY PREDICTED BY IDOCK:   -3.10 KCAL/MOL
REMARK 923 INTER-LIGAND FREE ENERGY PREDICTED BY IDOCK:   -2.62 KCAL/MOL
REMARK 924 INTRA-LIGAND FREE ENERGY PREDICTED BY IDOCK:   -0.49 KCAL/MOL
REMARK 927      BINDING AFFINITY PREDICTED BY RF-SCORE:    0.00 PKD
ROOT
HETATM    1  O   UNL     1      -7.350   9.954  67.636  1.00  0.00    -0.088 OA 
HETATM    2  N   UNL     1      -7.224   9.293  68.720  1.00  0.00    -0.073 NA 
HETATM    3  C   UNL     1      -6.808   9.967  69.865  1.00  0.00    -0.108 A  
HETATM    4  C   UNL     1      -6.655   9.323  71.091  1.00  0.00    -0.080 A  
HETATM    5  C   UNL     1      -6.926   7.966  71.178  1.00  0.00    -0.049 A  
HETATM    6  C   UNL     1      -7.347   7.266  70.046  1.00  0.00    -0.083 A  
HETATM    7  C   UNL     1      -7.492   7.918  68.805  1.00  0.00    -0.095 A  
ENDROOT
BRANCH   7   8
HETATM    8  S   UNL     1      -8.077   7.021  67.364  1.00  0.00    -0.116 SA 
BRANCH   8   9
HETATM    9  S   UNL     1     -10.048   6.630  67.817  1.00  0.00    -0.164 SA 
BRANCH   9  10
HETATM   10  C   UNL     1     -10.597   8.099  68.689  1.00  0.00    -0.109 A  
HETATM   11  C   UNL     1     -10.720   9.327  68.010  1.00  0.00    -0.231 A  
HETATM   12  C   UNL     1     -11.231  10.453  68.654  1.00  0.00    -0.305 A  
HETATM   13  C   UNL     1     -11.632  10.371  69.981  1.00  0.00    -0.378 A  
HETATM   14  C   UNL     1     -11.508   9.156  70.651  1.00  0.00    -0.262 A  
HETATM   15  N   UNL     1     -11.000   8.018  70.030  1.00  0.00    -0.235 NA 
HETATM   16  O   UNL     1     -10.927   6.937  70.707  1.00  0.00    -0.239 OA 
ENDBRANCH   9  10
ENDBRANCH   8   9
ENDBRANCH   7   8
TORSDOF 3
ENDMDL
MODEL      296
REMARK 921   NORMALIZED FREE ENERGY PREDICTED BY IDOCK:   -2.46 KCAL/MOL
REMARK 922        TOTAL FREE ENERGY PREDICTED BY IDOCK:   -3.08 KCAL/MOL
REMARK 923 INTER-LIGAND FREE ENERGY PREDICTED BY IDOCK:   -2.87 KCAL/MOL
REMARK 924 INTRA-LIGAND FREE ENERGY PREDICTED BY IDOCK:   -0.21 KCAL/MOL
REMARK 927      BINDING AFFINITY PREDICTED BY RF-SCORE:    0.00 PKD
ROOT
HETATM    1  O   UNL     1     -10.839   9.053  69.538  1.00  0.00    -0.229 OA 
HETATM    2  N   UNL     1     -10.715   7.999  70.247  1.00  0.00    -0.236 NA 
HETATM    3  C   UNL     1     -10.495   8.141  71.615  1.00  0.00    -0.228 A  
HETATM    4  C   UNL     1     -10.359   7.044  72.462  1.00  0.00    -0.230 A  
HETATM    5  C   UNL     1     -10.446   5.766  71.930  1.00  0.00    -0.272 A  
HETATM    6  C   UNL     1     -10.668   5.595  70.563  1.00  0.00    -0.344 A  
HETATM    7  C   UNL     1     -10.796   6.707  69.707  1.00  0.00    -0.286 A  
ENDROOT
BRANCH   7   8
HETATM    8  S   UNL     1     -11.127   6.479  67.957  1.00  0.00    -0.153 SA 
BRANCH   8   9
HETATM    9  S   UNL     1     -10.036   4.797  67.482  1.00  0.00    -0.110 SA 
BRANCH   9  10
HETATM   10  C   UNL     1      -9.034   5.306  66.082  1.00  0.00    -0.139 A  
HETATM   11  C   UNL     1      -8.720   6.665  65.887  1.00  0.00    -0.147 A  
HETATM   12  C   UNL     1      -7.869   7.061  64.856  1.00  0.00    -0.126 A  
HETATM   13  C   UNL     1      -7.314   6.110  64.010  1.00  0.00    -0.070 A  
HETATM   14  C   UNL     1      -7.628   4.767  64.205  1.00  0.00    -0.072 A  
HETATM   15  N   UNL     1      -8.476   4.346  65.226  1.00  0.00    -0.118 NA 
HETATM   16  O   UNL     1      -8.707   3.096  65.348  1.00  0.00    -0.110 OA 
ENDBRANCH   9  10
ENDBRANCH   8   9
ENDBRANCH   7   8
TORSDOF 3
ENDMDL
MODEL      297
REMARK 921   NORMALIZED FREE ENERGY PREDICTED BY IDOCK:   -2.46 KCAL/MOL
REMARK 922        TOTAL FREE ENERGY PREDICTED BY IDOCK:   -3.08 KCAL/MOL
REMARK 923 INTER-LIGAND FREE ENERGY PREDICTED BY IDOCK:   -2.98 KCAL/MOL
REMARK 924 INTRA-LIGAND FREE ENERGY PREDICTED BY IDOCK:   -0.10 KCAL/MOL
REMARK 927      BINDING AFFINITY PREDICTED BY RF-SCORE:    0.00 PKD
ROOT
HETATM    1  O   UNL     1      -9.922   5.175  69.272  1.00  0.00    -0.175 OA 
HETATM    2  N   UNL     1      -9.591   5.370  68.055  1.00  0.00    -0.122 NA 
HETATM    3  C   UNL     1     -10.150   4.553  67.075  1.00  0.00    -0.138 A  
HETATM    4  C   UNL     1      -9.851   4.705  65.723  1.00  0.00    -0.227 A  
HETATM    5  C   UNL     1      -8.969   5.703  65.336  1.00  0.00    -0.079 A  
HETATM    6  C   UNL     1      -8.396   6.538  66.297  1.00  0.00    -0.124 A  
HETATM    7  C   UNL     1      -8.693   6.375  67.664  1.00  0.00    -0.114 A  
ENDROOT
BRANCH   7   8
HETATM    8  S   UNL     1      -7.988   7.482  68.890  1.00  0.00    -0.127 SA 
BRANCH   8   9
HETATM    9  S   UNL     1      -9.414   8.957  69.073  1.00  0.00    -0.157 SA 
BRANCH   9  10
HETATM   10  C   UNL     1     -10.263   8.558  70.603  1.00  0.00    -0.197 A  
HETATM   11  C   UNL     1     -11.651   8.314  70.606  1.00  0.00    -0.199 A  
HETATM   12  C   UNL     1     -12.305   7.915  71.771  1.00  0.00    -0.352 A  
HETATM   13  C   UNL     1     -11.587   7.748  72.947  1.00  0.00    -0.301 A  
HETATM   14  C   UNL     1     -10.215   7.991  72.942  1.00  0.00    -0.314 A  
HETATM   15  N   UNL     1      -9.539   8.391  71.792  1.00  0.00    -0.208 NA 
HETATM   16  O   UNL     1      -8.278   8.585  71.864  1.00  0.00    -0.144 OA 
ENDBRANCH   9  10
ENDBRANCH   8   9
ENDBRANCH   7   8
TORSDOF 3
ENDMDL
MODEL      298
REMARK 921   NORMALIZED FREE ENERGY PREDICTED BY IDOCK:   -2.45 KCAL/MOL
REMARK 922        TOTAL FREE ENERGY PREDICTED BY IDOCK:   -3.07 KCAL/MOL
REMARK 923 INTER-LIGAND FREE ENERGY PREDICTED BY IDOCK:   -2.44 KCAL/MOL
REMARK 924 INTRA-LIGAND FREE ENERGY PREDICTED BY IDOCK:   -0.63 KCAL/MOL
REMARK 927      BINDING AFFINITY PREDICTED BY RF-SCORE:    0.00 PKD
ROOT
HETATM    1  O   UNL     1     -11.420   6.257  71.879  1.00  0.00    -0.282 OA 
HETATM    2  N   UNL     1     -10.531   6.381  70.972  1.00  0.00    -0.217 NA 
HETATM    3  C   UNL     1     -10.913   6.225  69.641  1.00  0.00    -0.374 A  
HETATM    4  C   UNL     1     -10.009   6.354  68.590  1.00  0.00    -0.162 A  
HETATM    5  C   UNL     1      -8.683   6.649  68.873  1.00  0.00    -0.128 A  
HETATM    6  C   UNL     1      -8.274   6.813  70.198  1.00  0.00    -0.133 A  
HETATM    7  C   UNL     1      -9.189   6.672  71.259  1.00  0.00    -0.155 A  
ENDROOT
BRANCH   7   8
HETATM    8  S   UNL     1      -8.665   6.929  72.958  1.00  0.00    -0.119 SA 
BRANCH   8   9
HETATM    9  S   UNL     1      -7.692   5.174  73.424  1.00  0.00    -0.100 SA 
BRANCH   9  10
HETATM   10  C   UNL     1      -8.720   3.896  72.696  1.00  0.00    -0.099 A  
HETATM   11  C   UNL     1      -8.267   3.167  71.580  1.00  0.00    -0.069 A  
HETATM   12  C   UNL     1      -9.018   2.112  71.062  1.00  0.00    -0.139 A  
HETATM   13  C   UNL     1     -10.225   1.765  71.651  1.00  0.00    -0.074 A  
HETATM   14  C   UNL     1     -10.672   2.489  72.755  1.00  0.00    -0.066 A  
HETATM   15  N   UNL     1      -9.942   3.547  73.290  1.00  0.00    -0.120 NA 
HETATM   16  O   UNL     1     -10.412   4.157  74.309  1.00  0.00    -0.203 OA 
ENDBRANCH   9  10
ENDBRANCH   8   9
ENDBRANCH   7   8
TORSDOF 3
ENDMDL
MODEL      299
REMARK 921   NORMALIZED FREE ENERGY PREDICTED BY IDOCK:   -2.43 KCAL/MOL
REMARK 922        TOTAL FREE ENERGY PREDICTED BY IDOCK:   -3.05 KCAL/MOL
REMARK 923 INTER-LIGAND FREE ENERGY PREDICTED BY IDOCK:   -2.82 KCAL/MOL
REMARK 924 INTRA-LIGAND FREE ENERGY PREDICTED BY IDOCK:   -0.24 KCAL/MOL
REMARK 927      BINDING AFFINITY PREDICTED BY RF-SCORE:    0.00 PKD
ROOT
HETATM    1  O   UNL     1     -12.499  13.261  66.257  1.00  0.00    -0.354 OA 
HETATM    2  N   UNL     1     -11.858  14.355  66.112  1.00  0.00    -0.390 NA 
HETATM    3  C   UNL     1     -11.506  14.753  64.824  1.00  0.00    -0.410 A  
HETATM    4  C   UNL     1     -10.816  15.938  64.576  1.00  0.00    -0.072 A  
HETATM    5  C   UNL     1     -10.469  16.752  65.645  1.00  0.00    -0.284 A  
HETATM    6  C   UNL     1     -10.812  16.378  66.945  1.00  0.00    -0.118 A  
HETATM    7  C   UNL     1     -11.501  15.175  67.193  1.00  0.00    -0.250 A  
ENDROOT
BRANCH   7   8
HETATM    8  S   UNL     1     -11.979  14.723  68.864  1.00  0.00    -0.223 SA 
BRANCH   8   9
HETATM    9  S   UNL     1     -10.238  14.969  69.938  1.00  0.00    -0.002 SA 
BRANCH   9  10
HETATM   10  C   UNL     1      -8.963  14.304  68.865  1.00  0.00    -0.025 A  
HETATM   11  C   UNL     1      -7.923  15.130  68.396  1.00  0.00    -0.136 A  
HETATM   12  C   UNL     1      -6.878  14.605  67.637  1.00  0.00    -0.204 A  
HETATM   13  C   UNL     1      -6.852  13.250  67.338  1.00  0.00    -0.098 A  
HETATM   14  C   UNL     1      -7.883  12.434  67.801  1.00  0.00    -0.154 A  
HETATM   15  N   UNL     1      -8.937  12.936  68.560  1.00  0.00    -0.108 NA 
HETATM   16  O   UNL     1      -9.840  12.124  68.958  1.00  0.00     0.013 OA 
ENDBRANCH   9  10
ENDBRANCH   8   9
ENDBRANCH   7   8
TORSDOF 3
ENDMDL
MODEL      300
REMARK 921   NORMALIZED FREE ENERGY PREDICTED BY IDOCK:   -2.43 KCAL/MOL
REMARK 922        TOTAL FREE ENERGY PREDICTED BY IDOCK:   -3.05 KCAL/MOL
REMARK 923 INTER-LIGAND FREE ENERGY PREDICTED BY IDOCK:   -2.34 KCAL/MOL
REMARK 924 INTRA-LIGAND FREE ENERGY PREDICTED BY IDOCK:   -0.71 KCAL/MOL
REMARK 927      BINDING AFFINITY PREDICTED BY RF-SCORE:    0.00 PKD
ROOT
HETATM    1  O   UNL     1      -6.919   9.155  68.971  1.00  0.00    -0.061 OA 
HETATM    2  N   UNL     1      -8.058   9.148  68.396  1.00  0.00    -0.103 NA 
HETATM    3  C   UNL     1      -9.199   9.312  69.178  1.00  0.00    -0.149 A  
HETATM    4  C   UNL     1     -10.478   9.328  68.629  1.00  0.00    -0.236 A  
HETATM    5  C   UNL     1     -10.626   9.176  67.258  1.00  0.00    -0.303 A  
HETATM    6  C   UNL     1      -9.500   9.012  66.451  1.00  0.00    -0.288 A  
HETATM    7  C   UNL     1      -8.207   8.987  67.010  1.00  0.00    -0.109 A  
ENDROOT
BRANCH   7   8
HETATM    8  S   UNL     1      -6.760   8.822  65.960  1.00  0.00    -0.069 SA 
BRANCH   8   9
HETATM    9  S   UNL     1      -6.144   6.886  66.303  1.00  0.00    -0.036 SA 
BRANCH   9  10
HETATM   10  C   UNL     1      -7.670   5.985  66.589  1.00  0.00    -0.103 A  
HETATM   11  C   UNL     1      -8.069   5.658  67.899  1.00  0.00    -0.101 A  
HETATM   12  C   UNL     1      -9.296   5.039  68.140  1.00  0.00    -0.156 A  
HETATM   13  C   UNL     1     -10.142   4.743  67.081  1.00  0.00    -0.210 A  
HETATM   14  C   UNL     1      -9.744   5.066  65.785  1.00  0.00    -0.141 A  
HETATM   15  N   UNL     1      -8.524   5.683  65.519  1.00  0.00    -0.141 NA 
HETATM   16  O   UNL     1      -8.234   5.958  64.306  1.00  0.00    -0.131 OA 
ENDBRANCH   9  10
ENDBRANCH   8   9
ENDBRANCH   7   8
TORSDOF 3
ENDMDL
MODEL      301
REMARK 921   NORMALIZED FREE ENERGY PREDICTED BY IDOCK:   -2.38 KCAL/MOL
REMARK 922        TOTAL FREE ENERGY PREDICTED BY IDOCK:   -2.99 KCAL/MOL
REMARK 923 INTER-LIGAND FREE ENERGY PREDICTED BY IDOCK:   -2.73 KCAL/MOL
REMARK 924 INTRA-LIGAND FREE ENERGY PREDICTED BY IDOCK:   -0.26 KCAL/MOL
REMARK 927      BINDING AFFINITY PREDICTED BY RF-SCORE:    0.00 PKD
ROOT
HETATM    1  O   UNL     1      -9.292   5.567  69.102  1.00  0.00    -0.119 OA 
HETATM    2  N   UNL     1      -8.274   6.326  69.232  1.00  0.00    -0.113 NA 
HETATM    3  C   UNL     1      -7.149   5.825  69.881  1.00  0.00    -0.068 A  
HETATM    4  C   UNL     1      -5.993   6.583  70.055  1.00  0.00    -0.022 A  
HETATM    5  C   UNL     1      -5.958   7.880  69.565  1.00  0.00    -0.033 A  
HETATM    6  C   UNL     1      -7.071   8.407  68.908  1.00  0.00    -0.066 A  
HETATM    7  C   UNL     1      -8.241   7.641  68.742  1.00  0.00    -0.128 A  
ENDROOT
BRANCH   7   8
HETATM    8  S   UNL     1      -9.653   8.309  67.855  1.00  0.00    -0.157 SA 
BRANCH   8   9
HETATM    9  S   UNL     1      -8.978  10.143  67.203  1.00  0.00    -0.135 SA 
BRANCH   9  10
HETATM   10  C   UNL     1     -10.084  11.320  67.985  1.00  0.00    -0.177 A  
HETATM   11  C   UNL     1     -11.219  10.873  68.689  1.00  0.00    -0.326 A  
HETATM   12  C   UNL     1     -12.035  11.771  69.376  1.00  0.00    -0.361 A  
HETATM   13  C   UNL     1     -11.729  13.124  69.378  1.00  0.00    -0.386 A  
HETATM   14  C   UNL     1     -10.606  13.565  68.680  1.00  0.00    -0.244 A  
HETATM   15  N   UNL     1      -9.776  12.688  67.986  1.00  0.00    -0.210 NA 
HETATM   16  O   UNL     1      -8.759  13.166  67.379  1.00  0.00    -0.185 OA 
ENDBRANCH   9  10
ENDBRANCH   8   9
ENDBRANCH   7   8
TORSDOF 3
ENDMDL
MODEL      302
REMARK 921   NORMALIZED FREE ENERGY PREDICTED BY IDOCK:   -2.35 KCAL/MOL
REMARK 922        TOTAL FREE ENERGY PREDICTED BY IDOCK:   -2.96 KCAL/MOL
REMARK 923 INTER-LIGAND FREE ENERGY PREDICTED BY IDOCK:   -2.74 KCAL/MOL
REMARK 924 INTRA-LIGAND FREE ENERGY PREDICTED BY IDOCK:   -0.22 KCAL/MOL
REMARK 927      BINDING AFFINITY PREDICTED BY RF-SCORE:    0.00 PKD
ROOT
HETATM    1  O   UNL     1      -8.602   2.755  71.339  1.00  0.00    -0.062 OA 
HETATM    2  N   UNL     1      -9.434   3.710  71.496  1.00  0.00    -0.138 NA 
HETATM    3  C   UNL     1      -9.910   3.972  72.778  1.00  0.00    -0.147 A  
HETATM    4  C   UNL     1     -10.811   5.001  73.039  1.00  0.00    -0.334 A  
HETATM    5  C   UNL     1     -11.251   5.795  71.989  1.00  0.00    -0.307 A  
HETATM    6  C   UNL     1     -10.787   5.556  70.695  1.00  0.00    -0.257 A  
HETATM    7  C   UNL     1      -9.883   4.508  70.433  1.00  0.00    -0.232 A  
ENDROOT
BRANCH   7   8
HETATM    8  S   UNL     1      -9.257   4.235  68.772  1.00  0.00    -0.153 SA 
BRANCH   8   9
HETATM    9  S   UNL     1     -10.369   5.536  67.626  1.00  0.00    -0.183 SA 
BRANCH   9  10
HETATM   10  C   UNL     1      -9.352   5.822  66.175  1.00  0.00    -0.144 A  
HETATM   11  C   UNL     1      -8.448   6.902  66.141  1.00  0.00    -0.136 A  
HETATM   12  C   UNL     1      -7.588   7.081  65.057  1.00  0.00    -0.104 A  
HETATM   13  C   UNL     1      -7.613   6.185  63.998  1.00  0.00    -0.093 A  
HETATM   14  C   UNL     1      -8.509   5.119  64.033  1.00  0.00    -0.123 A  
HETATM   15  N   UNL     1      -9.378   4.919  65.103  1.00  0.00    -0.134 NA 
HETATM   16  O   UNL     1     -10.163   3.912  65.069  1.00  0.00    -0.191 OA 
ENDBRANCH   9  10
ENDBRANCH   8   9
ENDBRANCH   7   8
TORSDOF 3
ENDMDL
MODEL      303
REMARK 921   NORMALIZED FREE ENERGY PREDICTED BY IDOCK:   -2.27 KCAL/MOL
REMARK 922        TOTAL FREE ENERGY PREDICTED BY IDOCK:   -2.87 KCAL/MOL
REMARK 923 INTER-LIGAND FREE ENERGY PREDICTED BY IDOCK:   -2.67 KCAL/MOL
REMARK 924 INTRA-LIGAND FREE ENERGY PREDICTED BY IDOCK:   -0.19 KCAL/MOL
REMARK 927      BINDING AFFINITY PREDICTED BY RF-SCORE:    0.00 PKD
ROOT
HETATM    1  O   UNL     1     -10.718   9.358  68.526  1.00  0.00    -0.214 OA 
HETATM    2  N   UNL     1      -9.790   8.833  69.228  1.00  0.00    -0.176 NA 
HETATM    3  C   UNL     1      -9.045   9.657  70.069  1.00  0.00    -0.237 A  
HETATM    4  C   UNL     1      -8.023   9.164  70.876  1.00  0.00    -0.192 A  
HETATM    5  C   UNL     1      -7.734   7.808  70.845  1.00  0.00    -0.087 A  
HETATM    6  C   UNL     1      -8.466   6.959  70.014  1.00  0.00    -0.140 A  
HETATM    7  C   UNL     1      -9.494   7.462  69.191  1.00  0.00    -0.149 A  
ENDROOT
BRANCH   7   8
HETATM    8  S   UNL     1     -10.461   6.357  68.158  1.00  0.00    -0.248 SA 
BRANCH   8   9
HETATM    9  S   UNL     1      -9.480   4.555  68.343  1.00  0.00    -0.149 SA 
BRANCH   9  10
HETATM   10  C   UNL     1      -9.612   3.816  66.713  1.00  0.00    -0.180 A  
HETATM   11  C   UNL     1     -10.095   4.569  65.625  1.00  0.00    -0.261 A  
HETATM   12  C   UNL     1     -10.117   4.034  64.338  1.00  0.00    -0.199 A  
HETATM   13  C   UNL     1      -9.652   2.746  64.114  1.00  0.00    -0.144 A  
HETATM   14  C   UNL     1      -9.176   2.002  65.191  1.00  0.00    -0.083 A  
HETATM   15  N   UNL     1      -9.145   2.513  66.487  1.00  0.00    -0.127 NA 
HETATM   16  O   UNL     1      -8.683   1.774  67.421  1.00  0.00    -0.088 OA 
ENDBRANCH   9  10
ENDBRANCH   8   9
ENDBRANCH   7   8
TORSDOF 3
ENDMDL
MODEL      304
REMARK 921   NORMALIZED FREE ENERGY PREDICTED BY IDOCK:   -2.05 KCAL/MOL
REMARK 922        TOTAL FREE ENERGY PREDICTED BY IDOCK:   -2.60 KCAL/MOL
REMARK 923 INTER-LIGAND FREE ENERGY PREDICTED BY IDOCK:   -2.23 KCAL/MOL
REMARK 924 INTRA-LIGAND FREE ENERGY PREDICTED BY IDOCK:   -0.37 KCAL/MOL
REMARK 927      BINDING AFFINITY PREDICTED BY RF-SCORE:    0.00 PKD
ROOT
HETATM    1  O   UNL     1      -6.349   3.809  63.849  1.00  0.00    -0.028 OA 
HETATM    2  N   UNL     1      -7.620   3.811  63.976  1.00  0.00    -0.073 NA 
HETATM    3  C   UNL     1      -8.353   2.816  63.333  1.00  0.00    -0.085 A  
HETATM    4  C   UNL     1      -9.740   2.739  63.427  1.00  0.00    -0.102 A  
HETATM    5  C   UNL     1     -10.418   3.682  64.187  1.00  0.00    -0.253 A  
HETATM    6  C   UNL     1      -9.707   4.688  64.844  1.00  0.00    -0.056 A  
HETATM    7  C   UNL     1      -8.305   4.769  64.739  1.00  0.00    -0.132 A  
ENDROOT
BRANCH   7   8
HETATM    8  S   UNL     1      -7.394   6.038  65.623  1.00  0.00    -0.078 SA 
BRANCH   8   9
HETATM    9  S   UNL     1      -8.855   7.391  66.150  1.00  0.00    -0.141 SA 
BRANCH   9  10
HETATM   10  C   UNL     1      -9.256   6.964  67.846  1.00  0.00    -0.124 A  
HETATM   11  C   UNL     1     -10.285   6.043  68.125  1.00  0.00    -0.214 A  
HETATM   12  C   UNL     1     -10.545   5.636  69.433  1.00  0.00    -0.374 A  
HETATM   13  C   UNL     1      -9.781   6.134  70.480  1.00  0.00    -0.203 A  
HETATM   14  C   UNL     1      -8.766   7.046  70.202  1.00  0.00    -0.141 A  
HETATM   15  N   UNL     1      -8.487   7.469  68.904  1.00  0.00    -0.129 NA 
HETATM   16  O   UNL     1      -7.532   8.299  68.727  1.00  0.00    -0.092 OA 
ENDBRANCH   9  10
ENDBRANCH   8   9
ENDBRANCH   7   8
TORSDOF 3
ENDMDL
MODEL      305
REMARK 921   NORMALIZED FREE ENERGY PREDICTED BY IDOCK:   -1.94 KCAL/MOL
REMARK 922        TOTAL FREE ENERGY PREDICTED BY IDOCK:   -2.47 KCAL/MOL
REMARK 923 INTER-LIGAND FREE ENERGY PREDICTED BY IDOCK:   -2.27 KCAL/MOL
REMARK 924 INTRA-LIGAND FREE ENERGY PREDICTED BY IDOCK:   -0.20 KCAL/MOL
REMARK 927      BINDING AFFINITY PREDICTED BY RF-SCORE:    0.00 PKD
ROOT
HETATM    1  O   UNL     1      -6.571   9.709  68.672  1.00  0.00    -0.051 OA 
HETATM    2  N   UNL     1      -6.315   9.331  69.863  1.00  0.00    -0.041 NA 
HETATM    3  C   UNL     1      -5.467  10.115  70.642  1.00  0.00    -0.072 A  
HETATM    4  C   UNL     1      -5.145   9.780  71.955  1.00  0.00    -0.077 A  
HETATM    5  C   UNL     1      -5.685   8.629  72.510  1.00  0.00    -0.069 A  
HETATM    6  C   UNL     1      -6.541   7.826  71.752  1.00  0.00    -0.043 A  
HETATM    7  C   UNL     1      -6.857   8.163  70.421  1.00  0.00    -0.037 A  
ENDROOT
BRANCH   7   8
HETATM    8  S   UNL     1      -7.994   7.150  69.469  1.00  0.00    -0.130 SA 
BRANCH   8   9
HETATM    9  S   UNL     1      -9.845   7.752  70.143  1.00  0.00    -0.185 SA 
BRANCH   9  10
HETATM   10  C   UNL     1     -10.156   6.700  71.564  1.00  0.00    -0.182 A  
HETATM   11  C   UNL     1     -10.428   7.267  72.824  1.00  0.00    -0.302 A  
HETATM   12  C   UNL     1     -10.761   6.463  73.914  1.00  0.00    -0.129 A  
HETATM   13  C   UNL     1     -10.833   5.085  73.762  1.00  0.00    -0.366 A  
HETATM   14  C   UNL     1     -10.561   4.526  72.515  1.00  0.00    -0.158 A  
HETATM   15  N   UNL     1     -10.226   5.308  71.412  1.00  0.00    -0.205 NA 
HETATM   16  O   UNL     1     -10.002   4.724  70.298  1.00  0.00    -0.222 OA 
ENDBRANCH   9  10
ENDBRANCH   8   9
ENDBRANCH   7   8
TORSDOF 3
ENDMDL
MODEL      306
REMARK 921   NORMALIZED FREE ENERGY PREDICTED BY IDOCK:   -1.66 KCAL/MOL
REMARK 922        TOTAL FREE ENERGY PREDICTED BY IDOCK:   -2.14 KCAL/MOL
REMARK 923 INTER-LIGAND FREE ENERGY PREDICTED BY IDOCK:   -1.85 KCAL/MOL
REMARK 924 INTRA-LIGAND FREE ENERGY PREDICTED BY IDOCK:   -0.29 KCAL/MOL
REMARK 927      BINDING AFFINITY PREDICTED BY RF-SCORE:    0.00 PKD
ROOT
HETATM    1  O   UNL     1      -9.314   6.417  69.152  1.00  0.00    -0.133 OA 
HETATM    2  N   UNL     1      -9.020   7.659  69.136  1.00  0.00    -0.136 NA 
HETATM    3  C   UNL     1      -9.970   8.572  69.588  1.00  0.00    -0.192 A  
HETATM    4  C   UNL     1      -9.727   9.943  69.614  1.00  0.00    -0.252 A  
HETATM    5  C   UNL     1      -8.499  10.419  69.178  1.00  0.00    -0.168 A  
HETATM    6  C   UNL     1      -7.529   9.526  68.722  1.00  0.00    -0.075 A  
HETATM    7  C   UNL     1      -7.781   8.140  68.688  1.00  0.00    -0.112 A  
ENDROOT
BRANCH   7   8
HETATM    8  S   UNL     1      -6.511   6.993  68.143  1.00  0.00    -0.049 SA 
BRANCH   8   9
HETATM    9  S   UNL     1      -7.263   6.260  66.371  1.00  0.00    -0.070 SA 
BRANCH   9  10
HETATM   10  C   UNL     1      -7.613   4.535  66.725  1.00  0.00    -0.086 A  
HETATM   11  C   UNL     1      -6.592   3.681  67.186  1.00  0.00    -0.042 A  
HETATM   12  C   UNL     1      -6.871   2.364  67.549  1.00  0.00    -0.040 A  
HETATM   13  C   UNL     1      -8.170   1.882  67.465  1.00  0.00    -0.073 A  
HETATM   14  C   UNL     1      -9.178   2.728  67.007  1.00  0.00    -0.130 A  
HETATM   15  N   UNL     1      -8.924   4.047  66.637  1.00  0.00    -0.122 NA 
HETATM   16  O   UNL     1      -9.902   4.765  66.238  1.00  0.00    -0.175 OA 
ENDBRANCH   9  10
ENDBRANCH   8   9
ENDBRANCH   7   8
TORSDOF 3
ENDMDL
MODEL      307
REMARK 921   NORMALIZED FREE ENERGY PREDICTED BY IDOCK:   -1.12 KCAL/MOL
REMARK 922        TOTAL FREE ENERGY PREDICTED BY IDOCK:   -1.51 KCAL/MOL
REMARK 923 INTER-LIGAND FREE ENERGY PREDICTED BY IDOCK:   -1.95 KCAL/MOL
REMARK 924 INTRA-LIGAND FREE ENERGY PREDICTED BY IDOCK:    0.44 KCAL/MOL
REMARK 927      BINDING AFFINITY PREDICTED BY RF-SCORE:    0.00 PKD
ROOT
HETATM    1  O   UNL     1      -9.314   6.417  69.152  1.00  0.00    -0.133 OA 
HETATM    2  N   UNL     1      -9.020   7.659  69.136  1.00  0.00    -0.136 NA 
HETATM    3  C   UNL     1      -9.970   8.572  69.588  1.00  0.00    -0.192 A  
HETATM    4  C   UNL     1      -9.727   9.943  69.614  1.00  0.00    -0.252 A  
HETATM    5  C   UNL     1      -8.499  10.419  69.178  1.00  0.00    -0.168 A  
HETATM    6  C   UNL     1      -7.529   9.526  68.722  1.00  0.00    -0.075 A  
HETATM    7  C   UNL     1      -7.781   8.140  68.688  1.00  0.00    -0.112 A  
ENDROOT
BRANCH   7   8
HETATM    8  S   UNL     1      -6.511   6.993  68.143  1.00  0.00    -0.049 SA 
BRANCH   8   9
HETATM    9  S   UNL     1      -7.263   6.260  66.371  1.00  0.00    -0.070 SA 
BRANCH   9  10
HETATM   10  C   UNL     1      -7.599   7.729  65.397  1.00  0.00    -0.089 A  
HETATM   11  C   UNL     1      -8.461   8.728  65.888  1.00  0.00    -0.154 A  
HETATM   12  C   UNL     1      -8.658   9.914  65.181  1.00  0.00    -0.166 A  
HETATM   13  C   UNL     1      -7.997  10.122  63.979  1.00  0.00    -0.154 A  
HETATM   14  C   UNL     1      -7.146   9.131  63.494  1.00  0.00    -0.089 A  
HETATM   15  N   UNL     1      -6.933   7.938  64.181  1.00  0.00    -0.067 NA 
HETATM   16  O   UNL     1      -6.130   7.082  63.678  1.00  0.00    -0.042 OA 
ENDBRANCH   9  10
ENDBRANCH   8   9
ENDBRANCH   7   8
TORSDOF 3
ENDMDL
