MODEL        1
REMARK 921   NORMALIZED FREE ENERGY PREDICTED BY IDOCK:   -5.71 KCAL/MOL
REMARK 922        TOTAL FREE ENERGY PREDICTED BY IDOCK:   -8.49 KCAL/MOL
REMARK 923 INTER-LIGAND FREE ENERGY PREDICTED BY IDOCK:   -8.05 KCAL/MOL
REMARK 924 INTRA-LIGAND FREE ENERGY PREDICTED BY IDOCK:   -0.44 KCAL/MOL
REMARK 927      BINDING AFFINITY PREDICTED BY RF-SCORE:    0.00 PKD
ROOT
HETATM    1  C   UNL     1     -12.487  15.752  74.300  1.00  0.00    -0.654 C  
HETATM    2  O   UNL     1     -13.486  15.592  73.294  1.00  0.00    -0.524 OA 
ENDROOT
BRANCH   2   3
HETATM    3  C   UNL     1     -13.365  14.443  72.588  1.00  0.00    -0.507 C  
HETATM    4  O   UNL     1     -14.051  13.440  72.703  1.00  0.00    -0.767 OA 
BRANCH   3   5
HETATM    5  C   UNL     1     -12.238  14.590  71.654  1.00  0.00    -0.403 C  
HETATM    6  C   UNL     1     -12.453  15.230  70.500  1.00  0.00    -0.454 C  
BRANCH   6   7
HETATM    7  C   UNL     1     -11.402  15.270  69.471  1.00  0.00    -0.288 C  
HETATM    8  O   UNL     1     -10.285  15.729  69.623  1.00  0.00    -0.256 OA 
BRANCH   7   9
HETATM    9  O   UNL     1     -11.857  14.556  68.414  1.00  0.00    -0.323 OA 
BRANCH   9  10
HETATM   10  C   UNL     1     -10.869  13.735  67.771  1.00  0.00    -0.250 C  
BRANCH  10  11
HETATM   11  C   UNL     1     -11.617  12.511  67.256  1.00  0.00    -0.367 C  
BRANCH  11  12
HETATM   12  N   UNL     1     -11.586  12.345  65.823  1.00  0.00    -0.380 N  
HETATM   13  C   UNL     1     -12.467  12.942  64.970  1.00  0.00    -0.492 C  
HETATM   14  O   UNL     1     -13.297  13.790  65.252  1.00  0.00    -0.710 OA 
HETATM   15  C   UNL     1     -12.279  12.339  63.610  1.00  0.00    -0.665 C  
HETATM   16  C   UNL     1     -10.934  11.643  63.704  1.00  0.00    -0.507 C  
HETATM   17  C   UNL     1     -10.645  11.605  65.173  1.00  0.00    -0.290 C  
HETATM   18  O   UNL     1      -9.688  11.040  65.681  1.00  0.00    -0.209 OA 
ENDBRANCH  11  12
ENDBRANCH  10  11
ENDBRANCH   9  10
ENDBRANCH   7   9
ENDBRANCH   6   7
ENDBRANCH   3   5
ENDBRANCH   2   3
TORSDOF 7
ENDMDL
MODEL        2
REMARK 921   NORMALIZED FREE ENERGY PREDICTED BY IDOCK:   -5.67 KCAL/MOL
REMARK 922        TOTAL FREE ENERGY PREDICTED BY IDOCK:   -8.43 KCAL/MOL
REMARK 923 INTER-LIGAND FREE ENERGY PREDICTED BY IDOCK:   -8.01 KCAL/MOL
REMARK 924 INTRA-LIGAND FREE ENERGY PREDICTED BY IDOCK:   -0.41 KCAL/MOL
REMARK 927      BINDING AFFINITY PREDICTED BY RF-SCORE:    0.00 PKD
ROOT
HETATM    1  C   UNL     1     -12.528  15.765  74.323  1.00  0.00    -0.654 C  
HETATM    2  O   UNL     1     -13.420  15.774  73.209  1.00  0.00    -0.551 OA 
ENDROOT
BRANCH   2   3
HETATM    3  C   UNL     1     -13.415  14.619  72.502  1.00  0.00    -0.468 C  
HETATM    4  O   UNL     1     -14.194  13.686  72.620  1.00  0.00    -0.735 OA 
BRANCH   3   5
HETATM    5  C   UNL     1     -12.284  14.657  71.561  1.00  0.00    -0.416 C  
HETATM    6  C   UNL     1     -12.425  15.360  70.432  1.00  0.00    -0.447 C  
BRANCH   6   7
HETATM    7  C   UNL     1     -11.384  15.305  69.393  1.00  0.00    -0.294 C  
HETATM    8  O   UNL     1     -10.263  15.770  69.495  1.00  0.00    -0.234 OA 
BRANCH   7   9
HETATM    9  O   UNL     1     -11.852  14.505  68.407  1.00  0.00    -0.323 OA 
BRANCH   9  10
HETATM   10  C   UNL     1     -10.850  13.722  67.739  1.00  0.00    -0.250 C  
BRANCH  10  11
HETATM   11  C   UNL     1     -11.586  12.524  67.147  1.00  0.00    -0.368 C  
BRANCH  11  12
HETATM   12  N   UNL     1     -11.583  12.470  65.706  1.00  0.00    -0.372 N  
HETATM   13  C   UNL     1     -10.809  11.615  64.979  1.00  0.00    -0.288 C  
HETATM   14  O   UNL     1     -10.131  10.699  65.410  1.00  0.00    -0.264 OA 
HETATM   15  C   UNL     1     -10.890  12.024  63.539  1.00  0.00    -0.509 C  
HETATM   16  C   UNL     1     -12.104  12.934  63.486  1.00  0.00    -0.633 C  
HETATM   17  C   UNL     1     -12.388  13.243  64.924  1.00  0.00    -0.425 C  
HETATM   18  O   UNL     1     -13.242  14.027  65.312  1.00  0.00    -0.782 OA 
ENDBRANCH  11  12
ENDBRANCH  10  11
ENDBRANCH   9  10
ENDBRANCH   7   9
ENDBRANCH   6   7
ENDBRANCH   3   5
ENDBRANCH   2   3
TORSDOF 7
ENDMDL
MODEL        3
REMARK 921   NORMALIZED FREE ENERGY PREDICTED BY IDOCK:   -5.52 KCAL/MOL
REMARK 922        TOTAL FREE ENERGY PREDICTED BY IDOCK:   -8.22 KCAL/MOL
REMARK 923 INTER-LIGAND FREE ENERGY PREDICTED BY IDOCK:   -7.72 KCAL/MOL
REMARK 924 INTRA-LIGAND FREE ENERGY PREDICTED BY IDOCK:   -0.50 KCAL/MOL
REMARK 927      BINDING AFFINITY PREDICTED BY RF-SCORE:    0.00 PKD
ROOT
HETATM    1  C   UNL     1      -8.010  18.957  68.823  1.00  0.00    -0.317 C  
HETATM    2  O   UNL     1      -9.428  19.034  68.676  1.00  0.00    -0.366 OA 
ENDROOT
BRANCH   2   3
HETATM    3  C   UNL     1      -9.822  19.542  67.485  1.00  0.00    -0.358 C  
HETATM    4  O   UNL     1      -9.573  20.654  67.047  1.00  0.00    -0.416 OA 
BRANCH   3   5
HETATM    5  C   UNL     1     -10.634  18.528  66.795  1.00  0.00    -0.395 C  
HETATM    6  C   UNL     1     -10.004  17.505  66.208  1.00  0.00    -0.316 C  
BRANCH   6   7
HETATM    7  C   UNL     1     -10.756  16.550  65.380  1.00  0.00    -0.259 C  
HETATM    8  O   UNL     1     -11.369  16.828  64.365  1.00  0.00    -1.089 OA 
BRANCH   7   9
HETATM    9  O   UNL     1     -10.489  15.313  65.861  1.00  0.00    -0.294 OA 
BRANCH   9  10
HETATM   10  C   UNL     1     -11.315  14.903  66.963  1.00  0.00    -0.342 C  
BRANCH  10  11
HETATM   11  C   UNL     1     -12.361  13.965  66.371  1.00  0.00    -0.426 C  
BRANCH  11  12
HETATM   12  N   UNL     1     -11.836  12.977  65.461  1.00  0.00    -0.371 N  
HETATM   13  C   UNL     1     -11.181  11.849  65.860  1.00  0.00    -0.322 C  
HETATM   14  O   UNL     1     -11.065  11.437  67.001  1.00  0.00    -0.281 OA 
HETATM   15  C   UNL     1     -10.573  11.210  64.647  1.00  0.00    -0.386 C  
HETATM   16  C   UNL     1     -11.297  11.870  63.487  1.00  0.00    -0.516 C  
HETATM   17  C   UNL     1     -11.979  13.051  64.108  1.00  0.00    -0.427 C  
HETATM   18  O   UNL     1     -12.598  13.902  63.489  1.00  0.00    -0.842 OA 
ENDBRANCH  11  12
ENDBRANCH  10  11
ENDBRANCH   9  10
ENDBRANCH   7   9
ENDBRANCH   6   7
ENDBRANCH   3   5
ENDBRANCH   2   3
TORSDOF 7
ENDMDL
MODEL        4
REMARK 921   NORMALIZED FREE ENERGY PREDICTED BY IDOCK:   -5.52 KCAL/MOL
REMARK 922        TOTAL FREE ENERGY PREDICTED BY IDOCK:   -8.21 KCAL/MOL
REMARK 923 INTER-LIGAND FREE ENERGY PREDICTED BY IDOCK:   -8.05 KCAL/MOL
REMARK 924 INTRA-LIGAND FREE ENERGY PREDICTED BY IDOCK:   -0.16 KCAL/MOL
REMARK 927      BINDING AFFINITY PREDICTED BY RF-SCORE:    0.00 PKD
ROOT
HETATM    1  C   UNL     1     -12.444  11.768  63.264  1.00  0.00    -0.290 C  
HETATM    2  O   UNL     1     -13.245  12.183  64.370  1.00  0.00    -0.758 OA 
ENDROOT
BRANCH   2   3
HETATM    3  C   UNL     1     -12.530  12.732  65.380  1.00  0.00    -0.416 C  
HETATM    4  O   UNL     1     -12.063  12.149  66.346  1.00  0.00    -0.630 OA 
BRANCH   3   5
HETATM    5  C   UNL     1     -12.420  14.178  65.136  1.00  0.00    -0.453 C  
HETATM    6  C   UNL     1     -11.202  14.698  64.950  1.00  0.00    -0.400 C  
BRANCH   6   7
HETATM    7  C   UNL     1     -11.026  16.155  64.853  1.00  0.00    -0.349 C  
HETATM    8  O   UNL     1     -11.478  16.862  63.971  1.00  0.00    -1.130 OA 
BRANCH   7   9
HETATM    9  O   UNL     1     -10.432  16.558  66.001  1.00  0.00    -0.328 OA 
BRANCH   9  10
HETATM   10  C   UNL     1      -9.150  15.962  66.258  1.00  0.00    -0.344 C  
BRANCH  10  11
HETATM   11  C   UNL     1      -8.487  16.840  67.313  1.00  0.00    -0.184 C  
BRANCH  11  12
HETATM   12  N   UNL     1      -9.067  18.153  67.453  1.00  0.00    -0.252 N  
HETATM   13  C   UNL     1      -8.763  19.209  66.646  1.00  0.00    -0.320 C  
HETATM   14  O   UNL     1      -8.092  19.180  65.628  1.00  0.00    -0.413 OA 
HETATM   15  C   UNL     1      -9.359  20.445  67.250  1.00  0.00    -0.547 C  
HETATM   16  C   UNL     1     -10.366  19.910  68.252  1.00  0.00    -0.526 C  
HETATM   17  C   UNL     1     -10.012  18.461  68.386  1.00  0.00    -0.379 C  
HETATM   18  O   UNL     1     -10.532  17.687  69.176  1.00  0.00    -0.331 OA 
ENDBRANCH  11  12
ENDBRANCH  10  11
ENDBRANCH   9  10
ENDBRANCH   7   9
ENDBRANCH   6   7
ENDBRANCH   3   5
ENDBRANCH   2   3
TORSDOF 7
ENDMDL
MODEL        5
REMARK 921   NORMALIZED FREE ENERGY PREDICTED BY IDOCK:   -5.49 KCAL/MOL
REMARK 922        TOTAL FREE ENERGY PREDICTED BY IDOCK:   -8.18 KCAL/MOL
REMARK 923 INTER-LIGAND FREE ENERGY PREDICTED BY IDOCK:   -7.90 KCAL/MOL
REMARK 924 INTRA-LIGAND FREE ENERGY PREDICTED BY IDOCK:   -0.29 KCAL/MOL
REMARK 927      BINDING AFFINITY PREDICTED BY RF-SCORE:    0.00 PKD
ROOT
HETATM    1  C   UNL     1     -10.109  11.680  63.419  1.00  0.00    -0.440 C  
HETATM    2  O   UNL     1     -11.338  12.152  62.866  1.00  0.00    -0.086 OA 
ENDROOT
BRANCH   2   3
HETATM    3  C   UNL     1     -12.027  12.969  63.698  1.00  0.00    -0.539 C  
HETATM    4  O   UNL     1     -12.565  14.025  63.405  1.00  0.00    -0.845 OA 
BRANCH   3   5
HETATM    5  C   UNL     1     -12.007  12.380  65.046  1.00  0.00    -0.458 C  
HETATM    6  C   UNL     1     -12.021  13.208  66.097  1.00  0.00    -0.478 C  
BRANCH   6   7
HETATM    7  C   UNL     1     -11.850  12.676  67.458  1.00  0.00    -0.334 C  
HETATM    8  O   UNL     1     -11.894  11.499  67.765  1.00  0.00    -0.584 OA 
BRANCH   7   9
HETATM    9  O   UNL     1     -11.469  13.713  68.242  1.00  0.00    -0.274 OA 
BRANCH   9  10
HETATM   10  C   UNL     1     -11.477  13.438  69.651  1.00  0.00    -0.207 C  
BRANCH  10  11
HETATM   11  C   UNL     1     -12.773  14.036  70.185  1.00  0.00    -0.150 C  
BRANCH  11  12
HETATM   12  N   UNL     1     -12.643  14.731  71.442  1.00  0.00    -0.305 N  
HETATM   13  C   UNL     1     -11.892  15.856  71.614  1.00  0.00    -0.490 C  
HETATM   14  O   UNL     1     -11.351  16.514  70.741  1.00  0.00    -0.314 OA 
HETATM   15  C   UNL     1     -11.798  16.133  73.085  1.00  0.00    -0.476 C  
HETATM   16  C   UNL     1     -12.906  15.287  73.686  1.00  0.00    -0.662 C  
HETATM   17  C   UNL     1     -13.291  14.353  72.580  1.00  0.00    -0.486 C  
HETATM   18  O   UNL     1     -14.095  13.439  72.687  1.00  0.00    -0.767 OA 
ENDBRANCH  11  12
ENDBRANCH  10  11
ENDBRANCH   9  10
ENDBRANCH   7   9
ENDBRANCH   6   7
ENDBRANCH   3   5
ENDBRANCH   2   3
TORSDOF 7
ENDMDL
MODEL        6
REMARK 921   NORMALIZED FREE ENERGY PREDICTED BY IDOCK:   -5.46 KCAL/MOL
REMARK 922        TOTAL FREE ENERGY PREDICTED BY IDOCK:   -8.13 KCAL/MOL
REMARK 923 INTER-LIGAND FREE ENERGY PREDICTED BY IDOCK:   -7.74 KCAL/MOL
REMARK 924 INTRA-LIGAND FREE ENERGY PREDICTED BY IDOCK:   -0.39 KCAL/MOL
REMARK 927      BINDING AFFINITY PREDICTED BY RF-SCORE:    0.00 PKD
ROOT
HETATM    1  C   UNL     1     -12.811  15.796  73.929  1.00  0.00    -0.541 C  
HETATM    2  O   UNL     1     -13.812  15.788  72.912  1.00  0.00    -0.575 OA 
ENDROOT
BRANCH   2   3
HETATM    3  C   UNL     1     -13.872  14.625  72.221  1.00  0.00    -0.479 C  
HETATM    4  O   UNL     1     -14.143  13.522  72.669  1.00  0.00    -0.762 OA 
BRANCH   3   5
HETATM    5  C   UNL     1     -13.530  14.903  70.817  1.00  0.00    -0.279 C  
HETATM    6  C   UNL     1     -12.398  14.386  70.328  1.00  0.00    -0.410 C  
BRANCH   6   7
HETATM    7  C   UNL     1     -11.937  14.758  68.981  1.00  0.00    -0.273 C  
HETATM    8  O   UNL     1     -11.795  13.989  68.048  1.00  0.00    -0.338 OA 
BRANCH   7   9
HETATM    9  O   UNL     1     -11.877  16.110  68.943  1.00  0.00    -0.338 OA 
BRANCH   9  10
HETATM   10  C   UNL     1     -10.620  16.670  69.353  1.00  0.00    -0.333 C  
BRANCH  10  11
HETATM   11  C   UNL     1      -9.799  16.826  68.077  1.00  0.00    -0.265 C  
BRANCH  11  12
HETATM   12  N   UNL     1      -9.886  18.128  67.463  1.00  0.00    -0.303 N  
HETATM   13  C   UNL     1      -9.442  19.276  68.050  1.00  0.00    -0.335 C  
HETATM   14  O   UNL     1      -8.797  19.367  69.080  1.00  0.00    -0.350 OA 
HETATM   15  C   UNL     1      -9.928  20.435  67.232  1.00  0.00    -0.564 C  
HETATM   16  C   UNL     1     -10.337  19.804  65.913  1.00  0.00    -0.582 C  
HETATM   17  C   UNL     1     -10.385  18.337  66.212  1.00  0.00    -0.405 C  
HETATM   18  O   UNL     1     -10.766  17.479  65.430  1.00  0.00    -0.612 OA 
ENDBRANCH  11  12
ENDBRANCH  10  11
ENDBRANCH   9  10
ENDBRANCH   7   9
ENDBRANCH   6   7
ENDBRANCH   3   5
ENDBRANCH   2   3
TORSDOF 7
ENDMDL
MODEL        7
REMARK 921   NORMALIZED FREE ENERGY PREDICTED BY IDOCK:   -5.46 KCAL/MOL
REMARK 922        TOTAL FREE ENERGY PREDICTED BY IDOCK:   -8.13 KCAL/MOL
REMARK 923 INTER-LIGAND FREE ENERGY PREDICTED BY IDOCK:   -7.66 KCAL/MOL
REMARK 924 INTRA-LIGAND FREE ENERGY PREDICTED BY IDOCK:   -0.47 KCAL/MOL
REMARK 927      BINDING AFFINITY PREDICTED BY RF-SCORE:    0.00 PKD
ROOT
HETATM    1  C   UNL     1     -13.137  10.773  71.906  1.00  0.00    -0.451 C  
HETATM    2  O   UNL     1     -12.795  11.976  71.218  1.00  0.00    -0.365 OA 
ENDROOT
BRANCH   2   3
HETATM    3  C   UNL     1     -13.231  13.097  71.838  1.00  0.00    -0.431 C  
HETATM    4  O   UNL     1     -14.111  13.171  72.681  1.00  0.00    -0.701 OA 
BRANCH   3   5
HETATM    5  C   UNL     1     -12.475  14.243  71.309  1.00  0.00    -0.439 C  
HETATM    6  C   UNL     1     -12.294  14.324  69.986  1.00  0.00    -0.403 C  
BRANCH   6   7
HETATM    7  C   UNL     1     -11.419  15.365  69.422  1.00  0.00    -0.324 C  
HETATM    8  O   UNL     1     -10.510  15.917  70.015  1.00  0.00    -0.302 OA 
BRANCH   7   9
HETATM    9  O   UNL     1     -11.708  15.450  68.102  1.00  0.00    -0.351 OA 
BRANCH   9  10
HETATM   10  C   UNL     1     -11.789  14.189  67.421  1.00  0.00    -0.413 C  
BRANCH  10  11
HETATM   11  C   UNL     1     -10.873  14.311  66.208  1.00  0.00    -0.310 C  
BRANCH  11  12
HETATM   12  N   UNL     1     -11.126  13.349  65.164  1.00  0.00    -0.294 N  
HETATM   13  C   UNL     1     -12.000  13.554  64.138  1.00  0.00    -0.448 C  
HETATM   14  O   UNL     1     -12.577  14.593  63.866  1.00  0.00    -0.834 OA 
HETATM   15  C   UNL     1     -12.179  12.254  63.412  1.00  0.00    -0.630 C  
HETATM   16  C   UNL     1     -11.008  11.410  63.883  1.00  0.00    -0.442 C  
HETATM   17  C   UNL     1     -10.483  12.151  65.074  1.00  0.00    -0.290 C  
HETATM   18  O   UNL     1      -9.588  11.751  65.804  1.00  0.00    -0.233 OA 
ENDBRANCH  11  12
ENDBRANCH  10  11
ENDBRANCH   9  10
ENDBRANCH   7   9
ENDBRANCH   6   7
ENDBRANCH   3   5
ENDBRANCH   2   3
TORSDOF 7
ENDMDL
MODEL        8
REMARK 921   NORMALIZED FREE ENERGY PREDICTED BY IDOCK:   -5.45 KCAL/MOL
REMARK 922        TOTAL FREE ENERGY PREDICTED BY IDOCK:   -8.11 KCAL/MOL
REMARK 923 INTER-LIGAND FREE ENERGY PREDICTED BY IDOCK:   -7.51 KCAL/MOL
REMARK 924 INTRA-LIGAND FREE ENERGY PREDICTED BY IDOCK:   -0.60 KCAL/MOL
REMARK 927      BINDING AFFINITY PREDICTED BY RF-SCORE:    0.00 PKD
ROOT
HETATM    1  C   UNL     1     -12.482  11.872  63.599  1.00  0.00    -0.470 C  
HETATM    2  O   UNL     1     -13.168  12.597  64.620  1.00  0.00    -0.828 OA 
ENDROOT
BRANCH   2   3
HETATM    3  C   UNL     1     -12.719  13.864  64.779  1.00  0.00    -0.211 C  
HETATM    4  O   UNL     1     -12.612  14.716  63.910  1.00  0.00    -0.834 OA 
BRANCH   3   5
HETATM    5  C   UNL     1     -12.351  14.052  66.191  1.00  0.00    -0.491 C  
HETATM    6  C   UNL     1     -11.059  14.226  66.490  1.00  0.00    -0.323 C  
BRANCH   6   7
HETATM    7  C   UNL     1     -10.625  14.266  67.895  1.00  0.00    -0.240 C  
HETATM    8  O   UNL     1     -10.080  13.354  68.490  1.00  0.00    -0.234 OA 
BRANCH   7   9
HETATM    9  O   UNL     1     -10.789  15.540  68.323  1.00  0.00    -0.270 OA 
BRANCH   9  10
HETATM   10  C   UNL     1      -9.609  16.148  68.870  1.00  0.00    -0.245 C  
BRANCH  10  11
HETATM   11  C   UNL     1      -8.874  16.769  67.687  1.00  0.00    -0.205 C  
BRANCH  11  12
HETATM   12  N   UNL     1      -9.351  18.073  67.300  1.00  0.00    -0.253 N  
HETATM   13  C   UNL     1      -8.999  19.229  67.932  1.00  0.00    -0.311 C  
HETATM   14  O   UNL     1      -8.149  19.360  68.796  1.00  0.00    -0.359 OA 
HETATM   15  C   UNL     1      -9.879  20.328  67.416  1.00  0.00    -0.586 C  
HETATM   16  C   UNL     1     -10.475  19.751  66.145  1.00  0.00    -0.613 C  
HETATM   17  C   UNL     1     -10.173  18.287  66.234  1.00  0.00    -0.401 C  
HETATM   18  O   UNL     1     -10.567  17.444  65.441  1.00  0.00    -0.638 OA 
ENDBRANCH  11  12
ENDBRANCH  10  11
ENDBRANCH   9  10
ENDBRANCH   7   9
ENDBRANCH   6   7
ENDBRANCH   3   5
ENDBRANCH   2   3
TORSDOF 7
ENDMDL
MODEL        9
REMARK 921   NORMALIZED FREE ENERGY PREDICTED BY IDOCK:   -5.44 KCAL/MOL
REMARK 922        TOTAL FREE ENERGY PREDICTED BY IDOCK:   -8.10 KCAL/MOL
REMARK 923 INTER-LIGAND FREE ENERGY PREDICTED BY IDOCK:   -7.60 KCAL/MOL
REMARK 924 INTRA-LIGAND FREE ENERGY PREDICTED BY IDOCK:   -0.51 KCAL/MOL
REMARK 927      BINDING AFFINITY PREDICTED BY RF-SCORE:    0.00 PKD
ROOT
HETATM    1  C   UNL     1     -10.002  11.180  63.542  1.00  0.00    -0.379 C  
HETATM    2  O   UNL     1     -10.779  12.377  63.570  1.00  0.00    -0.442 OA 
ENDROOT
BRANCH   2   3
HETATM    3  C   UNL     1     -12.028  12.201  64.062  1.00  0.00    -0.440 C  
HETATM    4  O   UNL     1     -13.028  11.901  63.429  1.00  0.00    -0.730 OA 
BRANCH   3   5
HETATM    5  C   UNL     1     -11.994  12.454  65.511  1.00  0.00    -0.453 C  
HETATM    6  C   UNL     1     -12.198  13.705  65.939  1.00  0.00    -0.502 C  
BRANCH   6   7
HETATM    7  C   UNL     1     -12.025  14.037  67.362  1.00  0.00    -0.404 C  
HETATM    8  O   UNL     1     -12.150  13.255  68.287  1.00  0.00    -0.333 OA 
BRANCH   7   9
HETATM    9  O   UNL     1     -11.541  15.300  67.417  1.00  0.00    -0.303 OA 
BRANCH   9  10
HETATM   10  C   UNL     1     -10.212  15.413  67.949  1.00  0.00    -0.239 C  
BRANCH  10  11
HETATM   11  C   UNL     1      -9.400  16.147  66.887  1.00  0.00    -0.227 C  
BRANCH  11  12
HETATM   12  N   UNL     1      -9.713  17.549  66.753  1.00  0.00    -0.282 N  
HETATM   13  C   UNL     1      -9.261  18.513  67.604  1.00  0.00    -0.281 C  
HETATM   14  O   UNL     1      -8.437  18.376  68.492  1.00  0.00    -0.320 OA 
HETATM   15  C   UNL     1      -9.992  19.786  67.297  1.00  0.00    -0.530 C  
HETATM   16  C   UNL     1     -10.597  19.536  65.927  1.00  0.00    -0.572 C  
HETATM   17  C   UNL     1     -10.463  18.057  65.735  1.00  0.00    -0.198 C  
HETATM   18  O   UNL     1     -10.916  17.433  64.787  1.00  0.00    -0.964 OA 
ENDBRANCH  11  12
ENDBRANCH  10  11
ENDBRANCH   9  10
ENDBRANCH   7   9
ENDBRANCH   6   7
ENDBRANCH   3   5
ENDBRANCH   2   3
TORSDOF 7
ENDMDL
MODEL       10
REMARK 921   NORMALIZED FREE ENERGY PREDICTED BY IDOCK:   -5.42 KCAL/MOL
REMARK 922        TOTAL FREE ENERGY PREDICTED BY IDOCK:   -8.08 KCAL/MOL
REMARK 923 INTER-LIGAND FREE ENERGY PREDICTED BY IDOCK:   -7.64 KCAL/MOL
REMARK 924 INTRA-LIGAND FREE ENERGY PREDICTED BY IDOCK:   -0.44 KCAL/MOL
REMARK 927      BINDING AFFINITY PREDICTED BY RF-SCORE:    0.00 PKD
ROOT
HETATM    1  C   UNL     1     -12.619  11.108  71.039  1.00  0.00    -0.403 C  
HETATM    2  O   UNL     1     -13.403  11.729  72.057  1.00  0.00    -0.487 OA 
ENDROOT
BRANCH   2   3
HETATM    3  C   UNL     1     -13.462  13.077  71.947  1.00  0.00    -0.408 C  
HETATM    4  O   UNL     1     -14.214  13.827  72.550  1.00  0.00    -0.706 OA 
BRANCH   3   5
HETATM    5  C   UNL     1     -12.470  13.505  70.948  1.00  0.00    -0.448 C  
HETATM    6  C   UNL     1     -12.116  14.794  70.920  1.00  0.00    -0.387 C  
BRANCH   6   7
HETATM    7  C   UNL     1     -11.246  15.298  69.846  1.00  0.00    -0.288 C  
HETATM    8  O   UNL     1     -10.047  15.487  69.942  1.00  0.00    -0.286 OA 
BRANCH   7   9
HETATM    9  O   UNL     1     -11.993  15.337  68.718  1.00  0.00    -0.321 OA 
BRANCH   9  10
HETATM   10  C   UNL     1     -11.363  14.772  67.558  1.00  0.00    -0.344 C  
BRANCH  10  11
HETATM   11  C   UNL     1     -12.492  14.198  66.709  1.00  0.00    -0.165 C  
BRANCH  11  12
HETATM   12  N   UNL     1     -12.059  13.360  65.619  1.00  0.00    -0.407 N  
HETATM   13  C   UNL     1     -11.590  12.089  65.777  1.00  0.00    -0.290 C  
HETATM   14  O   UNL     1     -11.598  11.430  66.803  1.00  0.00    -0.465 OA 
HETATM   15  C   UNL     1     -11.008  11.641  64.469  1.00  0.00    -0.376 C  
HETATM   16  C   UNL     1     -11.566  12.632  63.464  1.00  0.00    -0.584 C  
HETATM   17  C   UNL     1     -12.112  13.741  64.311  1.00  0.00    -0.440 C  
HETATM   18  O   UNL     1     -12.571  14.787  63.878  1.00  0.00    -0.834 OA 
ENDBRANCH  11  12
ENDBRANCH  10  11
ENDBRANCH   9  10
ENDBRANCH   7   9
ENDBRANCH   6   7
ENDBRANCH   3   5
ENDBRANCH   2   3
TORSDOF 7
ENDMDL
MODEL       11
REMARK 921   NORMALIZED FREE ENERGY PREDICTED BY IDOCK:   -5.40 KCAL/MOL
REMARK 922        TOTAL FREE ENERGY PREDICTED BY IDOCK:   -8.05 KCAL/MOL
REMARK 923 INTER-LIGAND FREE ENERGY PREDICTED BY IDOCK:   -7.45 KCAL/MOL
REMARK 924 INTRA-LIGAND FREE ENERGY PREDICTED BY IDOCK:   -0.60 KCAL/MOL
REMARK 927      BINDING AFFINITY PREDICTED BY RF-SCORE:    0.00 PKD
ROOT
HETATM    1  C   UNL     1     -12.290  12.058  63.775  1.00  0.00    -0.496 C  
HETATM    2  O   UNL     1     -13.005  12.958  64.621  1.00  0.00    -0.734 OA 
ENDROOT
BRANCH   2   3
HETATM    3  C   UNL     1     -12.501  14.215  64.623  1.00  0.00    -0.350 C  
HETATM    4  O   UNL     1     -12.742  15.100  63.817  1.00  0.00    -0.722 OA 
BRANCH   3   5
HETATM    5  C   UNL     1     -11.581  14.343  65.764  1.00  0.00    -0.353 C  
HETATM    6  C   UNL     1     -12.033  14.019  66.980  1.00  0.00    -0.472 C  
BRANCH   6   7
HETATM    7  C   UNL     1     -11.203  14.272  68.168  1.00  0.00    -0.275 C  
HETATM    8  O   UNL     1     -11.433  13.858  69.289  1.00  0.00    -0.265 OA 
BRANCH   7   9
HETATM    9  O   UNL     1     -10.076  14.889  67.739  1.00  0.00    -0.232 OA 
BRANCH   9  10
HETATM   10  C   UNL     1      -9.716  16.068  68.475  1.00  0.00    -0.214 C  
BRANCH  10  11
HETATM   11  C   UNL     1      -8.832  16.887  67.541  1.00  0.00    -0.209 C  
BRANCH  11  12
HETATM   12  N   UNL     1      -9.357  18.188  67.204  1.00  0.00    -0.259 N  
HETATM   13  C   UNL     1     -10.117  18.438  66.100  1.00  0.00    -0.360 C  
HETATM   14  O   UNL     1     -10.579  17.613  65.330  1.00  0.00    -0.663 OA 
HETATM   15  C   UNL     1     -10.254  19.924  65.955  1.00  0.00    -0.591 C  
HETATM   16  C   UNL     1      -9.840  20.461  67.314  1.00  0.00    -0.597 C  
HETATM   17  C   UNL     1      -9.178  19.294  67.980  1.00  0.00    -0.321 C  
HETATM   18  O   UNL     1      -8.618  19.337  69.065  1.00  0.00    -0.334 OA 
ENDBRANCH  11  12
ENDBRANCH  10  11
ENDBRANCH   9  10
ENDBRANCH   7   9
ENDBRANCH   6   7
ENDBRANCH   3   5
ENDBRANCH   2   3
TORSDOF 7
ENDMDL
MODEL       12
REMARK 921   NORMALIZED FREE ENERGY PREDICTED BY IDOCK:   -5.40 KCAL/MOL
REMARK 922        TOTAL FREE ENERGY PREDICTED BY IDOCK:   -8.05 KCAL/MOL
REMARK 923 INTER-LIGAND FREE ENERGY PREDICTED BY IDOCK:   -7.69 KCAL/MOL
REMARK 924 INTRA-LIGAND FREE ENERGY PREDICTED BY IDOCK:   -0.36 KCAL/MOL
REMARK 927      BINDING AFFINITY PREDICTED BY RF-SCORE:    0.00 PKD
ROOT
HETATM    1  C   UNL     1     -12.353  12.729  63.510  1.00  0.00    -0.467 C  
HETATM    2  O   UNL     1     -13.050  12.674  64.754  1.00  0.00    -0.852 OA 
ENDROOT
BRANCH   2   3
HETATM    3  C   UNL     1     -12.243  12.808  65.833  1.00  0.00    -0.359 C  
HETATM    4  O   UNL     1     -12.101  12.007  66.743  1.00  0.00    -0.613 OA 
BRANCH   3   5
HETATM    5  C   UNL     1     -11.565  14.111  65.745  1.00  0.00    -0.343 C  
HETATM    6  C   UNL     1     -11.178  14.700  66.881  1.00  0.00    -0.345 C  
BRANCH   6   7
HETATM    7  C   UNL     1     -10.634  16.067  66.857  1.00  0.00    -0.300 C  
HETATM    8  O   UNL     1     -10.468  16.741  65.857  1.00  0.00    -0.346 OA 
BRANCH   7   9
HETATM    9  O   UNL     1     -10.528  16.473  68.144  1.00  0.00    -0.285 OA 
BRANCH   9  10
HETATM   10  C   UNL     1     -11.582  16.020  69.008  1.00  0.00    -0.349 C  
BRANCH  10  11
HETATM   11  C   UNL     1     -10.894  15.483  70.258  1.00  0.00    -0.339 C  
BRANCH  11  12
HETATM   12  N   UNL     1     -11.791  14.979  71.269  1.00  0.00    -0.315 N  
HETATM   13  C   UNL     1     -12.118  15.662  72.403  1.00  0.00    -0.459 C  
HETATM   14  O   UNL     1     -11.835  16.818  72.667  1.00  0.00    -0.442 OA 
HETATM   15  C   UNL     1     -12.857  14.727  73.313  1.00  0.00    -0.621 C  
HETATM   16  C   UNL     1     -13.263  13.580  72.404  1.00  0.00    -0.577 C  
HETATM   17  C   UNL     1     -12.435  13.782  71.172  1.00  0.00    -0.370 C  
HETATM   18  O   UNL     1     -12.397  13.012  70.224  1.00  0.00    -0.310 OA 
ENDBRANCH  11  12
ENDBRANCH  10  11
ENDBRANCH   9  10
ENDBRANCH   7   9
ENDBRANCH   6   7
ENDBRANCH   3   5
ENDBRANCH   2   3
TORSDOF 7
ENDMDL
MODEL       13
REMARK 921   NORMALIZED FREE ENERGY PREDICTED BY IDOCK:   -5.40 KCAL/MOL
REMARK 922        TOTAL FREE ENERGY PREDICTED BY IDOCK:   -8.04 KCAL/MOL
REMARK 923 INTER-LIGAND FREE ENERGY PREDICTED BY IDOCK:   -7.18 KCAL/MOL
REMARK 924 INTRA-LIGAND FREE ENERGY PREDICTED BY IDOCK:   -0.87 KCAL/MOL
REMARK 927      BINDING AFFINITY PREDICTED BY RF-SCORE:    0.00 PKD
ROOT
HETATM    1  C   UNL     1      -9.881  11.345  63.151  1.00  0.00    -0.388 C  
HETATM    2  O   UNL     1     -11.088  11.119  63.879  1.00  0.00    -0.335 OA 
ENDROOT
BRANCH   2   3
HETATM    3  C   UNL     1     -11.953  12.159  63.828  1.00  0.00    -0.513 C  
HETATM    4  O   UNL     1     -13.161  12.097  63.658  1.00  0.00    -0.787 OA 
BRANCH   3   5
HETATM    5  C   UNL     1     -11.189  13.406  63.992  1.00  0.00    -0.318 C  
HETATM    6  C   UNL     1     -11.712  14.372  64.755  1.00  0.00    -0.420 C  
BRANCH   6   7
HETATM    7  C   UNL     1     -11.061  15.689  64.828  1.00  0.00    -0.412 C  
HETATM    8  O   UNL     1     -11.401  16.677  64.203  1.00  0.00    -1.141 OA 
BRANCH   7   9
HETATM    9  O   UNL     1     -10.153  15.626  65.830  1.00  0.00    -0.302 OA 
BRANCH   9  10
HETATM   10  C   UNL     1     -10.707  15.717  67.152  1.00  0.00    -0.312 C  
BRANCH  10  11
HETATM   11  C   UNL     1      -9.958  14.685  67.988  1.00  0.00    -0.220 C  
BRANCH  11  12
HETATM   12  N   UNL     1     -10.575  13.382  68.027  1.00  0.00    -0.237 N  
HETATM   13  C   UNL     1     -11.660  13.077  68.794  1.00  0.00    -0.309 C  
HETATM   14  O   UNL     1     -12.346  13.858  69.431  1.00  0.00    -0.329 OA 
HETATM   15  C   UNL     1     -11.849  11.590  68.764  1.00  0.00    -0.394 C  
HETATM   16  C   UNL     1     -11.011  11.140  67.581  1.00  0.00    -0.323 C  
HETATM   17  C   UNL     1     -10.156  12.330  67.268  1.00  0.00    -0.204 C  
HETATM   18  O   UNL     1      -9.268  12.349  66.429  1.00  0.00    -0.231 OA 
ENDBRANCH  11  12
ENDBRANCH  10  11
ENDBRANCH   9  10
ENDBRANCH   7   9
ENDBRANCH   6   7
ENDBRANCH   3   5
ENDBRANCH   2   3
TORSDOF 7
ENDMDL
MODEL       14
REMARK 921   NORMALIZED FREE ENERGY PREDICTED BY IDOCK:   -5.40 KCAL/MOL
REMARK 922        TOTAL FREE ENERGY PREDICTED BY IDOCK:   -8.04 KCAL/MOL
REMARK 923 INTER-LIGAND FREE ENERGY PREDICTED BY IDOCK:   -7.69 KCAL/MOL
REMARK 924 INTRA-LIGAND FREE ENERGY PREDICTED BY IDOCK:   -0.35 KCAL/MOL
REMARK 927      BINDING AFFINITY PREDICTED BY RF-SCORE:    0.00 PKD
ROOT
HETATM    1  C   UNL     1     -10.310  11.137  63.504  1.00  0.00    -0.387 C  
HETATM    2  O   UNL     1     -11.134  11.852  64.424  1.00  0.00    -0.306 OA 
ENDROOT
BRANCH   2   3
HETATM    3  C   UNL     1     -12.178  12.483  63.837  1.00  0.00    -0.503 C  
HETATM    4  O   UNL     1     -13.064  11.968  63.173  1.00  0.00    -0.624 OA 
BRANCH   3   5
HETATM    5  C   UNL     1     -12.064  13.923  64.115  1.00  0.00    -0.464 C  
HETATM    6  C   UNL     1     -10.888  14.392  64.547  1.00  0.00    -0.271 C  
BRANCH   6   7
HETATM    7  C   UNL     1     -10.766  15.793  64.981  1.00  0.00    -0.421 C  
HETATM    8  O   UNL     1     -11.206  16.756  64.382  1.00  0.00    -1.112 OA 
BRANCH   7   9
HETATM    9  O   UNL     1     -10.239  15.774  66.228  1.00  0.00    -0.273 OA 
BRANCH   9  10
HETATM   10  C   UNL     1      -8.804  15.730  66.276  1.00  0.00    -0.343 C  
BRANCH  10  11
HETATM   11  C   UNL     1      -8.395  16.699  67.380  1.00  0.00    -0.173 C  
BRANCH  11  12
HETATM   12  N   UNL     1      -9.108  17.953  67.374  1.00  0.00    -0.244 N  
HETATM   13  C   UNL     1     -10.128  18.251  68.229  1.00  0.00    -0.386 C  
HETATM   14  O   UNL     1     -10.491  17.594  69.190  1.00  0.00    -0.331 OA 
HETATM   15  C   UNL     1     -10.775  19.519  67.758  1.00  0.00    -0.487 C  
HETATM   16  C   UNL     1      -9.758  20.111  66.798  1.00  0.00    -0.577 C  
HETATM   17  C   UNL     1      -8.806  18.985  66.537  1.00  0.00    -0.327 C  
HETATM   18  O   UNL     1      -7.883  19.024  65.737  1.00  0.00    -0.462 OA 
ENDBRANCH  11  12
ENDBRANCH  10  11
ENDBRANCH   9  10
ENDBRANCH   7   9
ENDBRANCH   6   7
ENDBRANCH   3   5
ENDBRANCH   2   3
TORSDOF 7
ENDMDL
MODEL       15
REMARK 921   NORMALIZED FREE ENERGY PREDICTED BY IDOCK:   -5.31 KCAL/MOL
REMARK 922        TOTAL FREE ENERGY PREDICTED BY IDOCK:   -7.93 KCAL/MOL
REMARK 923 INTER-LIGAND FREE ENERGY PREDICTED BY IDOCK:   -7.53 KCAL/MOL
REMARK 924 INTRA-LIGAND FREE ENERGY PREDICTED BY IDOCK:   -0.40 KCAL/MOL
REMARK 927      BINDING AFFINITY PREDICTED BY RF-SCORE:    0.00 PKD
ROOT
HETATM    1  C   UNL     1     -12.386  11.826  63.260  1.00  0.00    -0.294 C  
HETATM    2  O   UNL     1     -13.195  12.244  64.359  1.00  0.00    -0.806 OA 
ENDROOT
BRANCH   2   3
HETATM    3  C   UNL     1     -12.482  12.727  65.404  1.00  0.00    -0.416 C  
HETATM    4  O   UNL     1     -12.091  12.098  66.375  1.00  0.00    -0.630 OA 
BRANCH   3   5
HETATM    5  C   UNL     1     -12.265  14.166  65.191  1.00  0.00    -0.439 C  
HETATM    6  C   UNL     1     -11.011  14.630  65.231  1.00  0.00    -0.374 C  
BRANCH   6   7
HETATM    7  C   UNL     1     -10.756  16.078  65.176  1.00  0.00    -0.409 C  
HETATM    8  O   UNL     1     -11.257  16.850  64.379  1.00  0.00    -1.159 OA 
BRANCH   7   9
HETATM    9  O   UNL     1     -10.017  16.391  66.266  1.00  0.00    -0.286 OA 
BRANCH   9  10
HETATM   10  C   UNL     1      -8.597  16.383  66.053  1.00  0.00    -0.211 C  
BRANCH  10  11
HETATM   11  C   UNL     1      -8.138  17.823  66.259  1.00  0.00    -0.234 C  
BRANCH  11  12
HETATM   12  N   UNL     1      -8.981  18.603  67.132  1.00  0.00    -0.276 N  
HETATM   13  C   UNL     1      -8.879  18.597  68.492  1.00  0.00    -0.331 C  
HETATM   14  O   UNL     1      -8.005  18.068  69.156  1.00  0.00    -0.120 OA 
HETATM   15  C   UNL     1     -10.068  19.320  69.051  1.00  0.00    -0.384 C  
HETATM   16  C   UNL     1     -10.625  20.079  67.860  1.00  0.00    -0.379 C  
HETATM   17  C   UNL     1      -9.940  19.460  66.681  1.00  0.00    -0.390 C  
HETATM   18  O   UNL     1     -10.182  19.729  65.514  1.00  0.00    -0.387 OA 
ENDBRANCH  11  12
ENDBRANCH  10  11
ENDBRANCH   9  10
ENDBRANCH   7   9
ENDBRANCH   6   7
ENDBRANCH   3   5
ENDBRANCH   2   3
TORSDOF 7
ENDMDL
MODEL       16
REMARK 921   NORMALIZED FREE ENERGY PREDICTED BY IDOCK:   -5.31 KCAL/MOL
REMARK 922        TOTAL FREE ENERGY PREDICTED BY IDOCK:   -7.92 KCAL/MOL
REMARK 923 INTER-LIGAND FREE ENERGY PREDICTED BY IDOCK:   -7.45 KCAL/MOL
REMARK 924 INTRA-LIGAND FREE ENERGY PREDICTED BY IDOCK:   -0.48 KCAL/MOL
REMARK 927      BINDING AFFINITY PREDICTED BY RF-SCORE:    0.00 PKD
ROOT
HETATM    1  C   UNL     1     -10.154  11.599  63.232  1.00  0.00    -0.423 C  
HETATM    2  O   UNL     1     -10.783  12.682  63.917  1.00  0.00    -0.391 OA 
ENDROOT
BRANCH   2   3
HETATM    3  C   UNL     1     -12.098  12.476  64.163  1.00  0.00    -0.447 C  
HETATM    4  O   UNL     1     -12.938  12.085  63.367  1.00  0.00    -0.772 OA 
BRANCH   3   5
HETATM    5  C   UNL     1     -12.367  12.827  65.566  1.00  0.00    -0.495 C  
HETATM    6  C   UNL     1     -11.577  12.305  66.511  1.00  0.00    -0.440 C  
BRANCH   6   7
HETATM    7  C   UNL     1     -11.896  12.503  67.933  1.00  0.00    -0.323 C  
HETATM    8  O   UNL     1     -11.964  13.580  68.496  1.00  0.00    -0.351 OA 
BRANCH   7   9
HETATM    9  O   UNL     1     -12.261  11.296  68.427  1.00  0.00    -0.604 OA 
BRANCH   9  10
HETATM   10  C   UNL     1     -11.175  10.383  68.651  1.00  0.00    -0.248 C  
BRANCH  10  11
HETATM   11  C   UNL     1     -10.959  10.357  70.160  1.00  0.00    -0.300 C  
BRANCH  11  12
HETATM   12  N   UNL     1     -11.926   9.577  70.892  1.00  0.00    -0.295 N  
HETATM   13  C   UNL     1     -11.897   8.217  70.980  1.00  0.00    -0.260 C  
HETATM   14  O   UNL     1     -11.007   7.479  70.594  1.00  0.00    -0.240 OA 
HETATM   15  C   UNL     1     -13.185   7.762  71.598  1.00  0.00    -0.381 C  
HETATM   16  C   UNL     1     -13.758   9.024  72.216  1.00  0.00    -0.550 C  
HETATM   17  C   UNL     1     -12.948  10.128  71.607  1.00  0.00    -0.456 C  
HETATM   18  O   UNL     1     -13.156  11.320  71.776  1.00  0.00    -0.472 OA 
ENDBRANCH  11  12
ENDBRANCH  10  11
ENDBRANCH   9  10
ENDBRANCH   7   9
ENDBRANCH   6   7
ENDBRANCH   3   5
ENDBRANCH   2   3
TORSDOF 7
ENDMDL
MODEL       17
REMARK 921   NORMALIZED FREE ENERGY PREDICTED BY IDOCK:   -5.31 KCAL/MOL
REMARK 922        TOTAL FREE ENERGY PREDICTED BY IDOCK:   -7.92 KCAL/MOL
REMARK 923 INTER-LIGAND FREE ENERGY PREDICTED BY IDOCK:   -6.94 KCAL/MOL
REMARK 924 INTRA-LIGAND FREE ENERGY PREDICTED BY IDOCK:   -0.98 KCAL/MOL
REMARK 927      BINDING AFFINITY PREDICTED BY RF-SCORE:    0.00 PKD
ROOT
HETATM    1  C   UNL     1      -9.896  11.633  63.227  1.00  0.00    -0.405 C  
HETATM    2  O   UNL     1     -11.120  11.279  63.869  1.00  0.00    -0.380 OA 
ENDROOT
BRANCH   2   3
HETATM    3  C   UNL     1     -12.054  12.259  63.834  1.00  0.00    -0.506 C  
HETATM    4  O   UNL     1     -13.258  12.116  63.694  1.00  0.00    -0.770 OA 
BRANCH   3   5
HETATM    5  C   UNL     1     -11.370  13.554  63.972  1.00  0.00    -0.306 C  
HETATM    6  C   UNL     1     -11.827  14.416  64.887  1.00  0.00    -0.419 C  
BRANCH   6   7
HETATM    7  C   UNL     1     -11.276  15.778  64.959  1.00  0.00    -0.308 C  
HETATM    8  O   UNL     1     -11.355  16.617  64.081  1.00  0.00    -1.141 OA 
BRANCH   7   9
HETATM    9  O   UNL     1     -10.836  15.959  66.227  1.00  0.00    -0.292 OA 
BRANCH   9  10
HETATM   10  C   UNL     1      -9.471  15.573  66.451  1.00  0.00    -0.291 C  
BRANCH  10  11
HETATM   11  C   UNL     1      -9.458  14.853  67.795  1.00  0.00    -0.203 C  
BRANCH  11  12
HETATM   12  N   UNL     1     -10.139  13.582  67.803  1.00  0.00    -0.231 N  
HETATM   13  C   UNL     1      -9.597  12.426  67.325  1.00  0.00    -0.199 C  
HETATM   14  O   UNL     1      -8.445  12.254  66.963  1.00  0.00    -0.180 OA 
HETATM   15  C   UNL     1     -10.681  11.391  67.269  1.00  0.00    -0.283 C  
HETATM   16  C   UNL     1     -11.779  11.967  68.144  1.00  0.00    -0.398 C  
HETATM   17  C   UNL     1     -11.384  13.401  68.327  1.00  0.00    -0.295 C  
HETATM   18  O   UNL     1     -12.060  14.242  68.900  1.00  0.00    -0.330 OA 
ENDBRANCH  11  12
ENDBRANCH  10  11
ENDBRANCH   9  10
ENDBRANCH   7   9
ENDBRANCH   6   7
ENDBRANCH   3   5
ENDBRANCH   2   3
TORSDOF 7
ENDMDL
MODEL       18
REMARK 921   NORMALIZED FREE ENERGY PREDICTED BY IDOCK:   -5.31 KCAL/MOL
REMARK 922        TOTAL FREE ENERGY PREDICTED BY IDOCK:   -7.91 KCAL/MOL
REMARK 923 INTER-LIGAND FREE ENERGY PREDICTED BY IDOCK:   -7.12 KCAL/MOL
REMARK 924 INTRA-LIGAND FREE ENERGY PREDICTED BY IDOCK:   -0.80 KCAL/MOL
REMARK 927      BINDING AFFINITY PREDICTED BY RF-SCORE:    0.00 PKD
ROOT
HETATM    1  C   UNL     1     -10.594  19.316  66.081  1.00  0.00    -0.459 C  
HETATM    2  O   UNL     1      -9.782  18.149  65.950  1.00  0.00    -0.521 OA 
ENDROOT
BRANCH   2   3
HETATM    3  C   UNL     1     -10.466  17.058  65.531  1.00  0.00    -0.166 C  
HETATM    4  O   UNL     1     -11.167  16.974  64.535  1.00  0.00    -1.091 OA 
BRANCH   3   5
HETATM    5  C   UNL     1     -10.243  15.972  66.498  1.00  0.00    -0.301 C  
HETATM    6  C   UNL     1     -11.088  15.860  67.528  1.00  0.00    -0.235 C  
BRANCH   6   7
HETATM    7  C   UNL     1     -10.821  14.889  68.601  1.00  0.00    -0.251 C  
HETATM    8  O   UNL     1     -10.148  15.103  69.592  1.00  0.00    -0.232 OA 
BRANCH   7   9
HETATM    9  O   UNL     1     -11.597  13.807  68.356  1.00  0.00    -0.291 OA 
BRANCH   9  10
HETATM   10  C   UNL     1     -10.879  12.629  67.956  1.00  0.00    -0.225 C  
BRANCH  10  11
HETATM   11  C   UNL     1     -11.819  11.864  67.031  1.00  0.00    -0.113 C  
BRANCH  11  12
HETATM   12  N   UNL     1     -11.619  12.118  65.626  1.00  0.00    -0.368 N  
HETATM   13  C   UNL     1     -12.297  13.069  64.921  1.00  0.00    -0.459 C  
HETATM   14  O   UNL     1     -13.044  13.919  65.374  1.00  0.00    -0.752 OA 
HETATM   15  C   UNL     1     -12.007  12.864  63.465  1.00  0.00    -0.629 C  
HETATM   16  C   UNL     1     -10.783  11.966  63.460  1.00  0.00    -0.504 C  
HETATM   17  C   UNL     1     -10.699  11.458  64.867  1.00  0.00    -0.286 C  
HETATM   18  O   UNL     1      -9.897  10.625  65.260  1.00  0.00    -0.235 OA 
ENDBRANCH  11  12
ENDBRANCH  10  11
ENDBRANCH   9  10
ENDBRANCH   7   9
ENDBRANCH   6   7
ENDBRANCH   3   5
ENDBRANCH   2   3
TORSDOF 7
ENDMDL
MODEL       19
REMARK 921   NORMALIZED FREE ENERGY PREDICTED BY IDOCK:   -5.30 KCAL/MOL
REMARK 922        TOTAL FREE ENERGY PREDICTED BY IDOCK:   -7.90 KCAL/MOL
REMARK 923 INTER-LIGAND FREE ENERGY PREDICTED BY IDOCK:   -7.60 KCAL/MOL
REMARK 924 INTRA-LIGAND FREE ENERGY PREDICTED BY IDOCK:   -0.30 KCAL/MOL
REMARK 927      BINDING AFFINITY PREDICTED BY RF-SCORE:    0.00 PKD
ROOT
HETATM    1  C   UNL     1     -13.329  15.958  73.266  1.00  0.00    -0.564 C  
HETATM    2  O   UNL     1     -12.517  14.899  72.758  1.00  0.00    -0.349 OA 
ENDROOT
BRANCH   2   3
HETATM    3  C   UNL     1     -13.229  13.892  72.200  1.00  0.00    -0.444 C  
HETATM    4  O   UNL     1     -14.245  13.381  72.645  1.00  0.00    -0.747 OA 
BRANCH   3   5
HETATM    5  C   UNL     1     -12.558  13.485  70.955  1.00  0.00    -0.438 C  
HETATM    6  C   UNL     1     -12.478  14.375  69.960  1.00  0.00    -0.353 C  
BRANCH   6   7
HETATM    7  C   UNL     1     -11.953  13.970  68.647  1.00  0.00    -0.354 C  
HETATM    8  O   UNL     1     -11.898  12.826  68.233  1.00  0.00    -0.319 OA 
BRANCH   7   9
HETATM    9  O   UNL     1     -11.719  15.106  67.948  1.00  0.00    -0.338 OA 
BRANCH   9  10
HETATM   10  C   UNL     1     -10.838  14.951  66.824  1.00  0.00    -0.320 C  
BRANCH  10  11
HETATM   11  C   UNL     1      -9.694  15.932  67.055  1.00  0.00    -0.228 C  
BRANCH  11  12
HETATM   12  N   UNL     1     -10.066  17.322  66.963  1.00  0.00    -0.294 N  
HETATM   13  C   UNL     1     -10.590  17.896  65.843  1.00  0.00    -0.215 C  
HETATM   14  O   UNL     1     -10.950  17.323  64.829  1.00  0.00    -0.950 OA 
HETATM   15  C   UNL     1     -10.608  19.382  66.045  1.00  0.00    -0.573 C  
HETATM   16  C   UNL     1     -10.422  19.547  67.543  1.00  0.00    -0.596 C  
HETATM   17  C   UNL     1      -9.968  18.197  68.004  1.00  0.00    -0.345 C  
HETATM   18  O   UNL     1      -9.619  17.931  69.145  1.00  0.00    -0.175 OA 
ENDBRANCH  11  12
ENDBRANCH  10  11
ENDBRANCH   9  10
ENDBRANCH   7   9
ENDBRANCH   6   7
ENDBRANCH   3   5
ENDBRANCH   2   3
TORSDOF 7
ENDMDL
MODEL       20
REMARK 921   NORMALIZED FREE ENERGY PREDICTED BY IDOCK:   -5.29 KCAL/MOL
REMARK 922        TOTAL FREE ENERGY PREDICTED BY IDOCK:   -7.89 KCAL/MOL
REMARK 923 INTER-LIGAND FREE ENERGY PREDICTED BY IDOCK:   -7.33 KCAL/MOL
REMARK 924 INTRA-LIGAND FREE ENERGY PREDICTED BY IDOCK:   -0.56 KCAL/MOL
REMARK 927      BINDING AFFINITY PREDICTED BY RF-SCORE:    0.00 PKD
ROOT
HETATM    1  C   UNL     1     -10.969  11.571  63.670  1.00  0.00    -0.404 C  
HETATM    2  O   UNL     1     -12.260  12.172  63.765  1.00  0.00    -0.474 OA 
ENDROOT
BRANCH   2   3
HETATM    3  C   UNL     1     -12.286  13.279  64.543  1.00  0.00    -0.368 C  
HETATM    4  O   UNL     1     -12.580  14.411  64.193  1.00  0.00    -0.692 OA 
BRANCH   3   5
HETATM    5  C   UNL     1     -11.875  12.899  65.903  1.00  0.00    -0.476 C  
HETATM    6  C   UNL     1     -11.205  13.796  66.635  1.00  0.00    -0.327 C  
BRANCH   6   7
HETATM    7  C   UNL     1     -10.641  13.413  67.939  1.00  0.00    -0.245 C  
HETATM    8  O   UNL     1      -9.661  13.916  68.457  1.00  0.00    -0.221 OA 
BRANCH   7   9
HETATM    9  O   UNL     1     -11.510  12.542  68.504  1.00  0.00    -0.257 OA 
BRANCH   9  10
HETATM   10  C   UNL     1     -11.684  12.698  69.921  1.00  0.00    -0.250 C  
BRANCH  10  11
HETATM   11  C   UNL     1     -12.762  13.762  70.093  1.00  0.00    -0.091 C  
BRANCH  11  12
HETATM   12  N   UNL     1     -12.598  14.602  71.255  1.00  0.00    -0.310 N  
HETATM   13  C   UNL     1     -13.193  14.360  72.457  1.00  0.00    -0.469 C  
HETATM   14  O   UNL     1     -13.816  13.361  72.776  1.00  0.00    -0.720 OA 
HETATM   15  C   UNL     1     -12.996  15.566  73.326  1.00  0.00    -0.654 C  
HETATM   16  C   UNL     1     -11.885  16.335  72.633  1.00  0.00    -0.596 C  
HETATM   17  C   UNL     1     -11.796  15.704  71.278  1.00  0.00    -0.419 C  
HETATM   18  O   UNL     1     -11.078  16.098  70.371  1.00  0.00    -0.353 OA 
ENDBRANCH  11  12
ENDBRANCH  10  11
ENDBRANCH   9  10
ENDBRANCH   7   9
ENDBRANCH   6   7
ENDBRANCH   3   5
ENDBRANCH   2   3
TORSDOF 7
ENDMDL
MODEL       21
REMARK 921   NORMALIZED FREE ENERGY PREDICTED BY IDOCK:   -5.28 KCAL/MOL
REMARK 922        TOTAL FREE ENERGY PREDICTED BY IDOCK:   -7.87 KCAL/MOL
REMARK 923 INTER-LIGAND FREE ENERGY PREDICTED BY IDOCK:   -7.52 KCAL/MOL
REMARK 924 INTRA-LIGAND FREE ENERGY PREDICTED BY IDOCK:   -0.35 KCAL/MOL
REMARK 927      BINDING AFFINITY PREDICTED BY RF-SCORE:    0.00 PKD
ROOT
HETATM    1  C   UNL     1     -12.511  12.029  63.480  1.00  0.00    -0.540 C  
HETATM    2  O   UNL     1     -13.031  12.259  64.789  1.00  0.00    -0.713 OA 
ENDROOT
BRANCH   2   3
HETATM    3  C   UNL     1     -12.084  12.596  65.696  1.00  0.00    -0.443 C  
HETATM    4  O   UNL     1     -11.928  12.109  66.805  1.00  0.00    -0.606 OA 
BRANCH   3   5
HETATM    5  C   UNL     1     -11.268  13.682  65.131  1.00  0.00    -0.318 C  
HETATM    6  C   UNL     1     -11.503  14.931  65.546  1.00  0.00    -0.307 C  
BRANCH   6   7
HETATM    7  C   UNL     1     -10.819  16.065  64.902  1.00  0.00    -0.372 C  
HETATM    8  O   UNL     1     -11.349  16.883  64.173  1.00  0.00    -1.208 OA 
BRANCH   7   9
HETATM    9  O   UNL     1      -9.566  16.111  65.413  1.00  0.00    -0.428 OA 
BRANCH   9  10
HETATM   10  C   UNL     1      -9.358  17.124  66.409  1.00  0.00    -0.262 C  
BRANCH  10  11
HETATM   11  C   UNL     1      -7.847  17.244  66.571  1.00  0.00    -0.287 C  
BRANCH  11  12
HETATM   12  N   UNL     1      -7.411  18.412  67.297  1.00  0.00    -0.211 N  
HETATM   13  C   UNL     1      -7.004  18.390  68.598  1.00  0.00    -0.269 C  
HETATM   14  O   UNL     1      -6.811  17.402  69.286  1.00  0.00    -0.244 OA 
HETATM   15  C   UNL     1      -6.875  19.807  69.070  1.00  0.00    -0.372 C  
HETATM   16  C   UNL     1      -6.856  20.618  67.786  1.00  0.00    -0.367 C  
HETATM   17  C   UNL     1      -7.324  19.653  66.740  1.00  0.00    -0.228 C  
HETATM   18  O   UNL     1      -7.538  19.941  65.572  1.00  0.00    -0.347 OA 
ENDBRANCH  11  12
ENDBRANCH  10  11
ENDBRANCH   9  10
ENDBRANCH   7   9
ENDBRANCH   6   7
ENDBRANCH   3   5
ENDBRANCH   2   3
TORSDOF 7
ENDMDL
MODEL       22
REMARK 921   NORMALIZED FREE ENERGY PREDICTED BY IDOCK:   -5.27 KCAL/MOL
REMARK 922        TOTAL FREE ENERGY PREDICTED BY IDOCK:   -7.87 KCAL/MOL
REMARK 923 INTER-LIGAND FREE ENERGY PREDICTED BY IDOCK:   -7.33 KCAL/MOL
REMARK 924 INTRA-LIGAND FREE ENERGY PREDICTED BY IDOCK:   -0.54 KCAL/MOL
REMARK 927      BINDING AFFINITY PREDICTED BY RF-SCORE:    0.00 PKD
ROOT
HETATM    1  C   UNL     1     -10.158  18.185  66.322  1.00  0.00    -0.371 C  
HETATM    2  O   UNL     1      -9.808  17.046  65.536  1.00  0.00    -0.551 OA 
ENDROOT
BRANCH   2   3
HETATM    3  C   UNL     1     -10.873  16.436  64.964  1.00  0.00    -0.273 C  
HETATM    4  O   UNL     1     -11.485  16.808  63.976  1.00  0.00    -1.198 OA 
BRANCH   3   5
HETATM    5  C   UNL     1     -11.197  15.236  65.752  1.00  0.00    -0.247 C  
HETATM    6  C   UNL     1     -11.199  14.052  65.130  1.00  0.00    -0.329 C  
BRANCH   6   7
HETATM    7  C   UNL     1     -11.662  12.847  65.835  1.00  0.00    -0.399 C  
HETATM    8  O   UNL     1     -12.354  11.970  65.351  1.00  0.00    -0.457 OA 
BRANCH   7   9
HETATM    9  O   UNL     1     -11.036  12.827  67.035  1.00  0.00    -0.260 OA 
BRANCH   9  10
HETATM   10  C   UNL     1     -11.859  12.416  68.138  1.00  0.00    -0.315 C  
BRANCH  10  11
HETATM   11  C   UNL     1     -11.207  13.002  69.385  1.00  0.00    -0.145 C  
BRANCH  11  12
HETATM   12  N   UNL     1     -12.092  13.777  70.219  1.00  0.00    -0.339 N  
HETATM   13  C   UNL     1     -12.301  15.116  70.067  1.00  0.00    -0.315 C  
HETATM   14  O   UNL     1     -11.905  15.817  69.152  1.00  0.00    -0.381 OA 
HETATM   15  C   UNL     1     -13.072  15.605  71.257  1.00  0.00    -0.542 C  
HETATM   16  C   UNL     1     -13.621  14.335  71.882  1.00  0.00    -0.501 C  
HETATM   17  C   UNL     1     -12.842  13.239  71.222  1.00  0.00    -0.312 C  
HETATM   18  O   UNL     1     -12.919  12.055  71.516  1.00  0.00    -0.397 OA 
ENDBRANCH  11  12
ENDBRANCH  10  11
ENDBRANCH   9  10
ENDBRANCH   7   9
ENDBRANCH   6   7
ENDBRANCH   3   5
ENDBRANCH   2   3
TORSDOF 7
ENDMDL
MODEL       23
REMARK 921   NORMALIZED FREE ENERGY PREDICTED BY IDOCK:   -5.26 KCAL/MOL
REMARK 922        TOTAL FREE ENERGY PREDICTED BY IDOCK:   -7.85 KCAL/MOL
REMARK 923 INTER-LIGAND FREE ENERGY PREDICTED BY IDOCK:   -7.46 KCAL/MOL
REMARK 924 INTRA-LIGAND FREE ENERGY PREDICTED BY IDOCK:   -0.38 KCAL/MOL
REMARK 927      BINDING AFFINITY PREDICTED BY RF-SCORE:    0.00 PKD
ROOT
HETATM    1  C   UNL     1     -10.329  10.834  64.290  1.00  0.00    -0.331 C  
HETATM    2  O   UNL     1     -11.291  11.392  63.396  1.00  0.00    -0.337 OA 
ENDROOT
BRANCH   2   3
HETATM    3  C   UNL     1     -12.059  12.354  63.959  1.00  0.00    -0.475 C  
HETATM    4  O   UNL     1     -13.234  12.259  64.277  1.00  0.00    -0.785 OA 
BRANCH   3   5
HETATM    5  C   UNL     1     -11.243  13.569  64.110  1.00  0.00    -0.341 C  
HETATM    6  C   UNL     1     -11.813  14.651  64.650  1.00  0.00    -0.459 C  
BRANCH   6   7
HETATM    7  C   UNL     1     -11.087  15.930  64.684  1.00  0.00    -0.354 C  
HETATM    8  O   UNL     1     -11.449  16.959  64.143  1.00  0.00    -1.174 OA 
BRANCH   7   9
HETATM    9  O   UNL     1     -10.063  15.780  65.556  1.00  0.00    -0.344 OA 
BRANCH   9  10
HETATM   10  C   UNL     1     -10.355  16.184  66.903  1.00  0.00    -0.297 C  
BRANCH  10  11
HETATM   11  C   UNL     1      -9.028  16.645  67.496  1.00  0.00    -0.200 C  
BRANCH  11  12
HETATM   12  N   UNL     1      -8.739  18.045  67.305  1.00  0.00    -0.240 N  
HETATM   13  C   UNL     1      -7.806  18.516  66.429  1.00  0.00    -0.271 C  
HETATM   14  O   UNL     1      -7.195  17.869  65.596  1.00  0.00    -0.514 OA 
HETATM   15  C   UNL     1      -7.614  19.979  66.694  1.00  0.00    -0.314 C  
HETATM   16  C   UNL     1      -8.825  20.360  67.527  1.00  0.00    -0.386 C  
HETATM   17  C   UNL     1      -9.400  19.044  67.955  1.00  0.00    -0.317 C  
HETATM   18  O   UNL     1     -10.340  18.911  68.724  1.00  0.00    -0.325 OA 
ENDBRANCH  11  12
ENDBRANCH  10  11
ENDBRANCH   9  10
ENDBRANCH   7   9
ENDBRANCH   6   7
ENDBRANCH   3   5
ENDBRANCH   2   3
TORSDOF 7
ENDMDL
MODEL       24
REMARK 921   NORMALIZED FREE ENERGY PREDICTED BY IDOCK:   -5.23 KCAL/MOL
REMARK 922        TOTAL FREE ENERGY PREDICTED BY IDOCK:   -7.81 KCAL/MOL
REMARK 923 INTER-LIGAND FREE ENERGY PREDICTED BY IDOCK:   -7.35 KCAL/MOL
REMARK 924 INTRA-LIGAND FREE ENERGY PREDICTED BY IDOCK:   -0.46 KCAL/MOL
REMARK 927      BINDING AFFINITY PREDICTED BY RF-SCORE:    0.00 PKD
ROOT
HETATM    1  C   UNL     1     -12.538  15.912  73.944  1.00  0.00    -0.623 C  
HETATM    2  O   UNL     1     -12.347  16.190  72.557  1.00  0.00    -0.460 OA 
ENDROOT
BRANCH   2   3
HETATM    3  C   UNL     1     -13.121  15.436  71.742  1.00  0.00    -0.445 C  
HETATM    4  O   UNL     1     -14.241  15.708  71.340  1.00  0.00    -0.535 OA 
BRANCH   3   5
HETATM    5  C   UNL     1     -12.391  14.199  71.425  1.00  0.00    -0.425 C  
HETATM    6  C   UNL     1     -12.387  13.774  70.157  1.00  0.00    -0.390 C  
BRANCH   6   7
HETATM    7  C   UNL     1     -11.802  12.467  69.818  1.00  0.00    -0.310 C  
HETATM    8  O   UNL     1     -11.939  11.445  70.465  1.00  0.00    -0.348 OA 
BRANCH   7   9
HETATM    9  O   UNL     1     -11.249  12.590  68.588  1.00  0.00    -0.241 OA 
BRANCH   9  10
HETATM   10  C   UNL     1     -11.818  13.627  67.772  1.00  0.00    -0.368 C  
BRANCH  10  11
HETATM   11  C   UNL     1     -10.865  13.799  66.595  1.00  0.00    -0.288 C  
BRANCH  11  12
HETATM   12  N   UNL     1     -11.216  13.038  65.421  1.00  0.00    -0.286 N  
HETATM   13  C   UNL     1     -10.725  11.796  65.145  1.00  0.00    -0.291 C  
HETATM   14  O   UNL     1     -10.054  11.096  65.884  1.00  0.00    -0.229 OA 
HETATM   15  C   UNL     1     -11.112  11.443  63.740  1.00  0.00    -0.417 C  
HETATM   16  C   UNL     1     -12.210  12.437  63.405  1.00  0.00    -0.623 C  
HETATM   17  C   UNL     1     -12.108  13.469  64.486  1.00  0.00    -0.416 C  
HETATM   18  O   UNL     1     -12.764  14.500  64.529  1.00  0.00    -0.653 OA 
ENDBRANCH  11  12
ENDBRANCH  10  11
ENDBRANCH   9  10
ENDBRANCH   7   9
ENDBRANCH   6   7
ENDBRANCH   3   5
ENDBRANCH   2   3
TORSDOF 7
ENDMDL
MODEL       25
REMARK 921   NORMALIZED FREE ENERGY PREDICTED BY IDOCK:   -5.23 KCAL/MOL
REMARK 922        TOTAL FREE ENERGY PREDICTED BY IDOCK:   -7.80 KCAL/MOL
REMARK 923 INTER-LIGAND FREE ENERGY PREDICTED BY IDOCK:   -7.45 KCAL/MOL
REMARK 924 INTRA-LIGAND FREE ENERGY PREDICTED BY IDOCK:   -0.36 KCAL/MOL
REMARK 927      BINDING AFFINITY PREDICTED BY RF-SCORE:    0.00 PKD
ROOT
HETATM    1  C   UNL     1     -10.400  10.806  64.964  1.00  0.00    -0.287 C  
HETATM    2  O   UNL     1     -10.928  11.007  63.653  1.00  0.00    -0.277 OA 
ENDROOT
BRANCH   2   3
HETATM    3  C   UNL     1     -11.834  12.010  63.582  1.00  0.00    -0.506 C  
HETATM    4  O   UNL     1     -12.992  11.924  63.206  1.00  0.00    -0.707 OA 
BRANCH   3   5
HETATM    5  C   UNL     1     -11.182  13.254  64.020  1.00  0.00    -0.374 C  
HETATM    6  C   UNL     1     -11.935  14.188  64.612  1.00  0.00    -0.459 C  
BRANCH   6   7
HETATM    7  C   UNL     1     -11.363  15.506  64.930  1.00  0.00    -0.335 C  
HETATM    8  O   UNL     1     -11.391  16.480  64.200  1.00  0.00    -1.060 OA 
BRANCH   7   9
HETATM    9  O   UNL     1     -10.972  15.464  66.225  1.00  0.00    -0.324 OA 
BRANCH   9  10
HETATM   10  C   UNL     1     -11.752  14.598  67.063  1.00  0.00    -0.362 C  
BRANCH  10  11
HETATM   11  C   UNL     1     -10.896  14.329  68.296  1.00  0.00    -0.246 C  
BRANCH  11  12
HETATM   12  N   UNL     1     -11.545  14.610  69.552  1.00  0.00    -0.292 N  
HETATM   13  C   UNL     1     -12.208  13.674  70.291  1.00  0.00    -0.353 C  
HETATM   14  O   UNL     1     -12.234  12.472  70.093  1.00  0.00    -0.302 OA 
HETATM   15  C   UNL     1     -12.954  14.384  71.381  1.00  0.00    -0.405 C  
HETATM   16  C   UNL     1     -12.315  15.761  71.422  1.00  0.00    -0.505 C  
HETATM   17  C   UNL     1     -11.528  15.834  70.150  1.00  0.00    -0.361 C  
HETATM   18  O   UNL     1     -10.933  16.826  69.755  1.00  0.00    -0.293 OA 
ENDBRANCH  11  12
ENDBRANCH  10  11
ENDBRANCH   9  10
ENDBRANCH   7   9
ENDBRANCH   6   7
ENDBRANCH   3   5
ENDBRANCH   2   3
TORSDOF 7
ENDMDL
MODEL       26
REMARK 921   NORMALIZED FREE ENERGY PREDICTED BY IDOCK:   -5.20 KCAL/MOL
REMARK 922        TOTAL FREE ENERGY PREDICTED BY IDOCK:   -7.76 KCAL/MOL
REMARK 923 INTER-LIGAND FREE ENERGY PREDICTED BY IDOCK:   -7.29 KCAL/MOL
REMARK 924 INTRA-LIGAND FREE ENERGY PREDICTED BY IDOCK:   -0.48 KCAL/MOL
REMARK 927      BINDING AFFINITY PREDICTED BY RF-SCORE:    0.00 PKD
ROOT
HETATM    1  C   UNL     1     -12.502  12.706  64.249  1.00  0.00    -0.411 C  
HETATM    2  O   UNL     1     -12.644  13.948  63.559  1.00  0.00    -0.842 OA 
ENDROOT
BRANCH   2   3
HETATM    3  C   UNL     1     -12.109  15.000  64.222  1.00  0.00    -0.306 C  
HETATM    4  O   UNL     1     -12.151  16.173  63.887  1.00  0.00    -0.956 OA 
BRANCH   3   5
HETATM    5  C   UNL     1     -11.433  14.493  65.427  1.00  0.00    -0.348 C  
HETATM    6  C   UNL     1     -10.589  15.308  66.068  1.00  0.00    -0.327 C  
BRANCH   6   7
HETATM    7  C   UNL     1      -9.777  14.800  67.185  1.00  0.00    -0.233 C  
HETATM    8  O   UNL     1      -8.903  13.957  67.094  1.00  0.00    -0.209 OA 
BRANCH   7   9
HETATM    9  O   UNL     1     -10.068  15.564  68.264  1.00  0.00    -0.215 OA 
BRANCH   9  10
HETATM   10  C   UNL     1     -10.390  14.828  69.455  1.00  0.00    -0.160 C  
BRANCH  10  11
HETATM   11  C   UNL     1     -11.797  14.281  69.238  1.00  0.00    -0.330 C  
BRANCH  11  12
HETATM   12  N   UNL     1     -12.439  13.784  70.430  1.00  0.00    -0.331 N  
HETATM   13  C   UNL     1     -12.336  12.497  70.868  1.00  0.00    -0.255 C  
HETATM   14  O   UNL     1     -11.600  11.632  70.426  1.00  0.00    -0.257 OA 
HETATM   15  C   UNL     1     -13.330  12.301  71.974  1.00  0.00    -0.491 C  
HETATM   16  C   UNL     1     -13.707  13.715  72.379  1.00  0.00    -0.697 C  
HETATM   17  C   UNL     1     -13.184  14.565  71.262  1.00  0.00    -0.357 C  
HETATM   18  O   UNL     1     -13.364  15.769  71.160  1.00  0.00    -0.564 OA 
ENDBRANCH  11  12
ENDBRANCH  10  11
ENDBRANCH   9  10
ENDBRANCH   7   9
ENDBRANCH   6   7
ENDBRANCH   3   5
ENDBRANCH   2   3
TORSDOF 7
ENDMDL
MODEL       27
REMARK 921   NORMALIZED FREE ENERGY PREDICTED BY IDOCK:   -5.18 KCAL/MOL
REMARK 922        TOTAL FREE ENERGY PREDICTED BY IDOCK:   -7.74 KCAL/MOL
REMARK 923 INTER-LIGAND FREE ENERGY PREDICTED BY IDOCK:   -7.05 KCAL/MOL
REMARK 924 INTRA-LIGAND FREE ENERGY PREDICTED BY IDOCK:   -0.69 KCAL/MOL
REMARK 927      BINDING AFFINITY PREDICTED BY RF-SCORE:    0.00 PKD
ROOT
HETATM    1  C   UNL     1     -12.107  13.035  63.560  1.00  0.00    -0.542 C  
HETATM    2  O   UNL     1     -12.901  13.145  64.740  1.00  0.00    -0.701 OA 
ENDROOT
BRANCH   2   3
HETATM    3  C   UNL     1     -12.231  12.835  65.875  1.00  0.00    -0.359 C  
HETATM    4  O   UNL     1     -12.084  11.722  66.355  1.00  0.00    -0.467 OA 
BRANCH   3   5
HETATM    5  C   UNL     1     -11.714  14.080  66.463  1.00  0.00    -0.412 C  
HETATM    6  C   UNL     1     -11.419  14.089  67.767  1.00  0.00    -0.351 C  
BRANCH   6   7
HETATM    7  C   UNL     1     -11.044  15.346  68.432  1.00  0.00    -0.301 C  
HETATM    8  O   UNL     1     -11.823  16.202  68.810  1.00  0.00    -0.339 OA 
BRANCH   7   9
HETATM    9  O   UNL     1      -9.716  15.277  68.688  1.00  0.00    -0.199 OA 
BRANCH   9  10
HETATM   10  C   UNL     1      -9.083  16.542  68.937  1.00  0.00    -0.245 C  
BRANCH  10  11
HETATM   11  C   UNL     1      -8.580  17.028  67.582  1.00  0.00    -0.210 C  
BRANCH  11  12
HETATM   12  N   UNL     1      -9.175  18.260  67.126  1.00  0.00    -0.260 N  
HETATM   13  C   UNL     1      -8.796  19.494  67.564  1.00  0.00    -0.307 C  
HETATM   14  O   UNL     1      -7.837  19.756  68.269  1.00  0.00    -0.316 OA 
HETATM   15  C   UNL     1      -9.797  20.493  67.066  1.00  0.00    -0.534 C  
HETATM   16  C   UNL     1     -10.541  19.749  65.972  1.00  0.00    -0.573 C  
HETATM   17  C   UNL     1     -10.154  18.316  66.179  1.00  0.00    -0.346 C  
HETATM   18  O   UNL     1     -10.615  17.373  65.555  1.00  0.00    -0.595 OA 
ENDBRANCH  11  12
ENDBRANCH  10  11
ENDBRANCH   9  10
ENDBRANCH   7   9
ENDBRANCH   6   7
ENDBRANCH   3   5
ENDBRANCH   2   3
TORSDOF 7
ENDMDL
MODEL       28
REMARK 921   NORMALIZED FREE ENERGY PREDICTED BY IDOCK:   -5.15 KCAL/MOL
REMARK 922        TOTAL FREE ENERGY PREDICTED BY IDOCK:   -7.69 KCAL/MOL
REMARK 923 INTER-LIGAND FREE ENERGY PREDICTED BY IDOCK:   -7.25 KCAL/MOL
REMARK 924 INTRA-LIGAND FREE ENERGY PREDICTED BY IDOCK:   -0.44 KCAL/MOL
REMARK 927      BINDING AFFINITY PREDICTED BY RF-SCORE:    0.00 PKD
ROOT
HETATM    1  C   UNL     1     -13.124   9.908  71.140  1.00  0.00    -0.370 C  
HETATM    2  O   UNL     1     -11.927  10.629  70.851  1.00  0.00    -0.332 OA 
ENDROOT
BRANCH   2   3
HETATM    3  C   UNL     1     -12.148  11.869  70.356  1.00  0.00    -0.333 C  
HETATM    4  O   UNL     1     -12.493  12.856  70.986  1.00  0.00    -0.371 OA 
BRANCH   3   5
HETATM    5  C   UNL     1     -11.922  11.835  68.903  1.00  0.00    -0.332 C  
HETATM    6  C   UNL     1     -11.813  12.998  68.252  1.00  0.00    -0.381 C  
BRANCH   6   7
HETATM    7  C   UNL     1     -11.739  13.020  66.783  1.00  0.00    -0.382 C  
HETATM    8  O   UNL     1     -11.992  12.080  66.052  1.00  0.00    -0.559 OA 
BRANCH   7   9
HETATM    9  O   UNL     1     -11.513  14.303  66.417  1.00  0.00    -0.333 OA 
BRANCH   9  10
HETATM   10  C   UNL     1     -11.223  15.197  67.504  1.00  0.00    -0.330 C  
BRANCH  10  11
HETATM   11  C   UNL     1     -10.036  16.037  67.045  1.00  0.00    -0.257 C  
BRANCH  11  12
HETATM   12  N   UNL     1     -10.317  17.444  66.897  1.00  0.00    -0.326 N  
HETATM   13  C   UNL     1     -10.664  18.029  65.715  1.00  0.00    -0.084 C  
HETATM   14  O   UNL     1     -10.925  17.462  64.668  1.00  0.00    -0.959 OA 
HETATM   15  C   UNL     1     -10.626  19.517  65.903  1.00  0.00    -0.572 C  
HETATM   16  C   UNL     1     -10.620  19.693  67.411  1.00  0.00    -0.589 C  
HETATM   17  C   UNL     1     -10.302  18.326  67.936  1.00  0.00    -0.399 C  
HETATM   18  O   UNL     1     -10.114  18.058  69.113  1.00  0.00    -0.337 OA 
ENDBRANCH  11  12
ENDBRANCH  10  11
ENDBRANCH   9  10
ENDBRANCH   7   9
ENDBRANCH   6   7
ENDBRANCH   3   5
ENDBRANCH   2   3
TORSDOF 7
ENDMDL
MODEL       29
REMARK 921   NORMALIZED FREE ENERGY PREDICTED BY IDOCK:   -5.14 KCAL/MOL
REMARK 922        TOTAL FREE ENERGY PREDICTED BY IDOCK:   -7.68 KCAL/MOL
REMARK 923 INTER-LIGAND FREE ENERGY PREDICTED BY IDOCK:   -7.13 KCAL/MOL
REMARK 924 INTRA-LIGAND FREE ENERGY PREDICTED BY IDOCK:   -0.54 KCAL/MOL
REMARK 927      BINDING AFFINITY PREDICTED BY RF-SCORE:    0.00 PKD
ROOT
HETATM    1  C   UNL     1     -10.219  17.705  66.416  1.00  0.00    -0.364 C  
HETATM    2  O   UNL     1     -10.202  16.351  65.963  1.00  0.00    -0.322 OA 
ENDROOT
BRANCH   2   3
HETATM    3  C   UNL     1     -10.995  16.130  64.888  1.00  0.00    -0.349 C  
HETATM    4  O   UNL     1     -11.508  16.975  64.172  1.00  0.00    -1.135 OA 
BRANCH   3   5
HETATM    5  C   UNL     1     -11.164  14.677  64.728  1.00  0.00    -0.395 C  
HETATM    6  C   UNL     1     -12.405  14.194  64.608  1.00  0.00    -0.432 C  
BRANCH   6   7
HETATM    7  C   UNL     1     -12.635  12.741  64.598  1.00  0.00    -0.419 C  
HETATM    8  O   UNL     1     -12.849  12.069  63.606  1.00  0.00    -0.713 OA 
BRANCH   7   9
HETATM    9  O   UNL     1     -12.390  12.294  65.852  1.00  0.00    -0.618 OA 
BRANCH   9  10
HETATM   10  C   UNL     1     -11.276  11.394  65.965  1.00  0.00    -0.112 C  
BRANCH  10  11
HETATM   11  C   UNL     1     -10.391  11.965  67.068  1.00  0.00    -0.212 C  
BRANCH  11  12
HETATM   12  N   UNL     1     -11.049  12.135  68.340  1.00  0.00    -0.227 N  
HETATM   13  C   UNL     1     -11.265  11.121  69.225  1.00  0.00    -0.267 C  
HETATM   14  O   UNL     1     -10.828   9.985  69.155  1.00  0.00    -0.209 OA 
HETATM   15  C   UNL     1     -12.186  11.625  70.296  1.00  0.00    -0.401 C  
HETATM   16  C   UNL     1     -12.133  13.134  70.140  1.00  0.00    -0.392 C  
HETATM   17  C   UNL     1     -11.488  13.339  68.803  1.00  0.00    -0.306 C  
HETATM   18  O   UNL     1     -11.343  14.423  68.259  1.00  0.00    -0.261 OA 
ENDBRANCH  11  12
ENDBRANCH  10  11
ENDBRANCH   9  10
ENDBRANCH   7   9
ENDBRANCH   6   7
ENDBRANCH   3   5
ENDBRANCH   2   3
TORSDOF 7
ENDMDL
MODEL       30
REMARK 921   NORMALIZED FREE ENERGY PREDICTED BY IDOCK:   -5.13 KCAL/MOL
REMARK 922        TOTAL FREE ENERGY PREDICTED BY IDOCK:   -7.67 KCAL/MOL
REMARK 923 INTER-LIGAND FREE ENERGY PREDICTED BY IDOCK:   -7.19 KCAL/MOL
REMARK 924 INTRA-LIGAND FREE ENERGY PREDICTED BY IDOCK:   -0.48 KCAL/MOL
REMARK 927      BINDING AFFINITY PREDICTED BY RF-SCORE:    0.00 PKD
ROOT
HETATM    1  C   UNL     1     -12.523  15.675  74.002  1.00  0.00    -0.651 C  
HETATM    2  O   UNL     1     -12.987  16.211  72.763  1.00  0.00    -0.442 OA 
ENDROOT
BRANCH   2   3
HETATM    3  C   UNL     1     -13.250  15.267  71.829  1.00  0.00    -0.424 C  
HETATM    4  O   UNL     1     -14.287  14.635  71.700  1.00  0.00    -0.457 OA 
BRANCH   3   5
HETATM    5  C   UNL     1     -12.055  15.103  70.987  1.00  0.00    -0.389 C  
HETATM    6  C   UNL     1     -11.711  16.107  70.173  1.00  0.00    -0.193 C  
BRANCH   6   7
HETATM    7  C   UNL     1     -10.617  15.933  69.205  1.00  0.00    -0.252 C  
HETATM    8  O   UNL     1      -9.479  15.601  69.482  1.00  0.00    -0.265 OA 
BRANCH   7   9
HETATM    9  O   UNL     1     -11.161  16.041  67.971  1.00  0.00    -0.344 OA 
BRANCH   9  10
HETATM   10  C   UNL     1     -10.511  16.985  67.105  1.00  0.00    -0.291 C  
BRANCH  10  11
HETATM   11  C   UNL     1      -9.750  16.152  66.079  1.00  0.00    -0.344 C  
BRANCH  11  12
HETATM   12  N   UNL     1     -10.544  15.149  65.412  1.00  0.00    -0.359 N  
HETATM   13  C   UNL     1     -11.424  15.421  64.406  1.00  0.00    -0.255 C  
HETATM   14  O   UNL     1     -11.570  16.487  63.833  1.00  0.00    -1.175 OA 
HETATM   15  C   UNL     1     -12.232  14.185  64.147  1.00  0.00    -0.423 C  
HETATM   16  C   UNL     1     -11.439  13.083  64.826  1.00  0.00    -0.363 C  
HETATM   17  C   UNL     1     -10.464  13.818  65.693  1.00  0.00    -0.305 C  
HETATM   18  O   UNL     1      -9.695  13.288  66.482  1.00  0.00    -0.261 OA 
ENDBRANCH  11  12
ENDBRANCH  10  11
ENDBRANCH   9  10
ENDBRANCH   7   9
ENDBRANCH   6   7
ENDBRANCH   3   5
ENDBRANCH   2   3
TORSDOF 7
ENDMDL
MODEL       31
REMARK 921   NORMALIZED FREE ENERGY PREDICTED BY IDOCK:   -5.12 KCAL/MOL
REMARK 922        TOTAL FREE ENERGY PREDICTED BY IDOCK:   -7.66 KCAL/MOL
REMARK 923 INTER-LIGAND FREE ENERGY PREDICTED BY IDOCK:   -7.22 KCAL/MOL
REMARK 924 INTRA-LIGAND FREE ENERGY PREDICTED BY IDOCK:   -0.44 KCAL/MOL
REMARK 927      BINDING AFFINITY PREDICTED BY RF-SCORE:    0.00 PKD
ROOT
HETATM    1  C   UNL     1     -11.323   8.268  72.327  1.00  0.00    -0.378 C  
HETATM    2  O   UNL     1     -11.766   9.368  71.531  1.00  0.00    -0.342 OA 
ENDROOT
BRANCH   2   3
HETATM    3  C   UNL     1     -12.993   9.825  71.875  1.00  0.00    -0.440 C  
HETATM    4  O   UNL     1     -13.927   9.164  72.300  1.00  0.00    -0.450 OA 
BRANCH   3   5
HETATM    5  C   UNL     1     -13.032  11.275  71.629  1.00  0.00    -0.537 C  
HETATM    6  C   UNL     1     -12.346  11.759  70.588  1.00  0.00    -0.421 C  
BRANCH   6   7
HETATM    7  C   UNL     1     -12.231  13.212  70.389  1.00  0.00    -0.316 C  
HETATM    8  O   UNL     1     -12.689  14.062  71.131  1.00  0.00    -0.326 OA 
BRANCH   7   9
HETATM    9  O   UNL     1     -11.387  13.402  69.348  1.00  0.00    -0.260 OA 
BRANCH   9  10
HETATM   10  C   UNL     1     -11.774  12.744  68.131  1.00  0.00    -0.345 C  
BRANCH  10  11
HETATM   11  C   UNL     1     -11.037  13.471  67.012  1.00  0.00    -0.296 C  
BRANCH  11  12
HETATM   12  N   UNL     1     -11.266  12.935  65.693  1.00  0.00    -0.289 N  
HETATM   13  C   UNL     1     -12.328  13.277  64.908  1.00  0.00    -0.425 C  
HETATM   14  O   UNL     1     -13.141  14.160  65.123  1.00  0.00    -0.757 OA 
HETATM   15  C   UNL     1     -12.363  12.339  63.738  1.00  0.00    -0.637 C  
HETATM   16  C   UNL     1     -10.983  11.707  63.738  1.00  0.00    -0.495 C  
HETATM   17  C   UNL     1     -10.420  12.060  65.080  1.00  0.00    -0.289 C  
HETATM   18  O   UNL     1      -9.351  11.659  65.515  1.00  0.00    -0.222 OA 
ENDBRANCH  11  12
ENDBRANCH  10  11
ENDBRANCH   9  10
ENDBRANCH   7   9
ENDBRANCH   6   7
ENDBRANCH   3   5
ENDBRANCH   2   3
TORSDOF 7
ENDMDL
MODEL       32
REMARK 921   NORMALIZED FREE ENERGY PREDICTED BY IDOCK:   -5.12 KCAL/MOL
REMARK 922        TOTAL FREE ENERGY PREDICTED BY IDOCK:   -7.66 KCAL/MOL
REMARK 923 INTER-LIGAND FREE ENERGY PREDICTED BY IDOCK:   -7.25 KCAL/MOL
REMARK 924 INTRA-LIGAND FREE ENERGY PREDICTED BY IDOCK:   -0.41 KCAL/MOL
REMARK 927      BINDING AFFINITY PREDICTED BY RF-SCORE:    0.00 PKD
ROOT
HETATM    1  C   UNL     1     -12.336   7.418  71.655  1.00  0.00    -0.341 C  
HETATM    2  O   UNL     1     -12.474   8.784  71.265  1.00  0.00    -0.304 OA 
ENDROOT
BRANCH   2   3
HETATM    3  C   UNL     1     -13.369   9.472  72.012  1.00  0.00    -0.452 C  
HETATM    4  O   UNL     1     -14.215   9.002  72.757  1.00  0.00    -0.572 OA 
BRANCH   3   5
HETATM    5  C   UNL     1     -13.173  10.909  71.763  1.00  0.00    -0.513 C  
HETATM    6  C   UNL     1     -12.509  11.275  70.662  1.00  0.00    -0.439 C  
BRANCH   6   7
HETATM    7  C   UNL     1     -12.156  12.687  70.446  1.00  0.00    -0.300 C  
HETATM    8  O   UNL     1     -12.474  13.611  71.172  1.00  0.00    -0.354 OA 
BRANCH   7   9
HETATM    9  O   UNL     1     -11.287  12.723  69.409  1.00  0.00    -0.250 OA 
BRANCH   9  10
HETATM   10  C   UNL     1     -11.875  12.483  68.121  1.00  0.00    -0.317 C  
BRANCH  10  11
HETATM   11  C   UNL     1     -11.173  13.436  67.160  1.00  0.00    -0.302 C  
BRANCH  11  12
HETATM   12  N   UNL     1     -11.240  13.049  65.772  1.00  0.00    -0.285 N  
HETATM   13  C   UNL     1     -10.305  12.272  65.154  1.00  0.00    -0.286 C  
HETATM   14  O   UNL     1      -9.378  11.684  65.684  1.00  0.00    -0.225 OA 
HETATM   15  C   UNL     1     -10.579  12.298  63.680  1.00  0.00    -0.501 C  
HETATM   16  C   UNL     1     -11.996  12.833  63.582  1.00  0.00    -0.616 C  
HETATM   17  C   UNL     1     -12.270  13.388  64.946  1.00  0.00    -0.408 C  
HETATM   18  O   UNL     1     -13.281  13.998  65.260  1.00  0.00    -0.782 OA 
ENDBRANCH  11  12
ENDBRANCH  10  11
ENDBRANCH   9  10
ENDBRANCH   7   9
ENDBRANCH   6   7
ENDBRANCH   3   5
ENDBRANCH   2   3
TORSDOF 7
ENDMDL
MODEL       33
REMARK 921   NORMALIZED FREE ENERGY PREDICTED BY IDOCK:   -5.12 KCAL/MOL
REMARK 922        TOTAL FREE ENERGY PREDICTED BY IDOCK:   -7.65 KCAL/MOL
REMARK 923 INTER-LIGAND FREE ENERGY PREDICTED BY IDOCK:   -7.45 KCAL/MOL
REMARK 924 INTRA-LIGAND FREE ENERGY PREDICTED BY IDOCK:   -0.20 KCAL/MOL
REMARK 927      BINDING AFFINITY PREDICTED BY RF-SCORE:    0.00 PKD
ROOT
HETATM    1  C   UNL     1     -10.513  17.479  66.267  1.00  0.00    -0.283 C  
HETATM    2  O   UNL     1     -10.594  16.086  65.965  1.00  0.00    -0.323 OA 
ENDROOT
BRANCH   2   3
HETATM    3  C   UNL     1     -11.207  15.822  64.787  1.00  0.00    -0.366 C  
HETATM    4  O   UNL     1     -11.492  16.628  63.915  1.00  0.00    -1.186 OA 
BRANCH   3   5
HETATM    5  C   UNL     1     -11.502  14.382  64.731  1.00  0.00    -0.402 C  
HETATM    6  C   UNL     1     -11.310  13.654  65.837  1.00  0.00    -0.317 C  
BRANCH   6   7
HETATM    7  C   UNL     1     -11.445  12.190  65.790  1.00  0.00    -0.361 C  
HETATM    8  O   UNL     1     -11.145  11.485  64.844  1.00  0.00    -0.284 OA 
BRANCH   7   9
HETATM    9  O   UNL     1     -11.790  11.785  67.035  1.00  0.00    -0.599 OA 
BRANCH   9  10
HETATM   10  C   UNL     1     -11.938  12.845  67.993  1.00  0.00    -0.275 C  
BRANCH  10  11
HETATM   11  C   UNL     1     -11.578  12.236  69.344  1.00  0.00    -0.314 C  
BRANCH  11  12
HETATM   12  N   UNL     1     -12.225  12.856  70.474  1.00  0.00    -0.361 N  
HETATM   13  C   UNL     1     -12.925  12.168  71.421  1.00  0.00    -0.257 C  
HETATM   14  O   UNL     1     -12.993  10.957  71.542  1.00  0.00    -0.412 OA 
HETATM   15  C   UNL     1     -13.652  13.162  72.277  1.00  0.00    -0.677 C  
HETATM   16  C   UNL     1     -12.964  14.479  71.969  1.00  0.00    -0.417 C  
HETATM   17  C   UNL     1     -12.167  14.193  70.733  1.00  0.00    -0.365 C  
HETATM   18  O   UNL     1     -11.534  15.027  70.103  1.00  0.00    -0.249 OA 
ENDBRANCH  11  12
ENDBRANCH  10  11
ENDBRANCH   9  10
ENDBRANCH   7   9
ENDBRANCH   6   7
ENDBRANCH   3   5
ENDBRANCH   2   3
TORSDOF 7
ENDMDL
MODEL       34
REMARK 921   NORMALIZED FREE ENERGY PREDICTED BY IDOCK:   -5.11 KCAL/MOL
REMARK 922        TOTAL FREE ENERGY PREDICTED BY IDOCK:   -7.64 KCAL/MOL
REMARK 923 INTER-LIGAND FREE ENERGY PREDICTED BY IDOCK:   -7.24 KCAL/MOL
REMARK 924 INTRA-LIGAND FREE ENERGY PREDICTED BY IDOCK:   -0.41 KCAL/MOL
REMARK 927      BINDING AFFINITY PREDICTED BY RF-SCORE:    0.00 PKD
ROOT
HETATM    1  C   UNL     1     -12.241  16.078  72.841  1.00  0.00    -0.517 C  
HETATM    2  O   UNL     1     -11.965  14.951  72.010  1.00  0.00    -0.360 OA 
ENDROOT
BRANCH   2   3
HETATM    3  C   UNL     1     -13.036  14.147  71.814  1.00  0.00    -0.357 C  
HETATM    4  O   UNL     1     -14.170  14.327  72.228  1.00  0.00    -0.502 OA 
BRANCH   3   5
HETATM    5  C   UNL     1     -12.604  12.984  71.023  1.00  0.00    -0.386 C  
HETATM    6  C   UNL     1     -12.149  13.197  69.783  1.00  0.00    -0.336 C  
BRANCH   6   7
HETATM    7  C   UNL     1     -11.849  12.058  68.901  1.00  0.00    -0.299 C  
HETATM    8  O   UNL     1     -11.596  10.927  69.273  1.00  0.00    -0.267 OA 
BRANCH   7   9
HETATM    9  O   UNL     1     -12.079  12.471  67.632  1.00  0.00    -0.436 OA 
BRANCH   9  10
HETATM   10  C   UNL     1     -11.975  13.889  67.431  1.00  0.00    -0.401 C  
BRANCH  10  11
HETATM   11  C   UNL     1     -10.946  14.077  66.322  1.00  0.00    -0.300 C  
BRANCH  11  12
HETATM   12  N   UNL     1     -11.160  13.254  65.157  1.00  0.00    -0.291 N  
HETATM   13  C   UNL     1     -12.033  13.566  64.157  1.00  0.00    -0.448 C  
HETATM   14  O   UNL     1     -12.640  14.614  64.017  1.00  0.00    -0.819 OA 
HETATM   15  C   UNL     1     -12.166  12.368  63.264  1.00  0.00    -0.520 C  
HETATM   16  C   UNL     1     -10.973  11.505  63.634  1.00  0.00    -0.482 C  
HETATM   17  C   UNL     1     -10.480  12.097  64.918  1.00  0.00    -0.288 C  
HETATM   18  O   UNL     1      -9.579  11.632  65.600  1.00  0.00    -0.228 OA 
ENDBRANCH  11  12
ENDBRANCH  10  11
ENDBRANCH   9  10
ENDBRANCH   7   9
ENDBRANCH   6   7
ENDBRANCH   3   5
ENDBRANCH   2   3
TORSDOF 7
ENDMDL
MODEL       35
REMARK 921   NORMALIZED FREE ENERGY PREDICTED BY IDOCK:   -5.09 KCAL/MOL
REMARK 922        TOTAL FREE ENERGY PREDICTED BY IDOCK:   -7.61 KCAL/MOL
REMARK 923 INTER-LIGAND FREE ENERGY PREDICTED BY IDOCK:   -7.14 KCAL/MOL
REMARK 924 INTRA-LIGAND FREE ENERGY PREDICTED BY IDOCK:   -0.47 KCAL/MOL
REMARK 927      BINDING AFFINITY PREDICTED BY RF-SCORE:    0.00 PKD
ROOT
HETATM    1  C   UNL     1     -12.199  11.796  63.627  1.00  0.00    -0.383 C  
HETATM    2  O   UNL     1     -13.163  12.401  64.489  1.00  0.00    -0.834 OA 
ENDROOT
BRANCH   2   3
HETATM    3  C   UNL     1     -12.717  13.528  65.093  1.00  0.00    -0.399 C  
HETATM    4  O   UNL     1     -12.795  14.668  64.663  1.00  0.00    -0.559 OA 
BRANCH   3   5
HETATM    5  C   UNL     1     -12.089  13.151  66.369  1.00  0.00    -0.447 C  
HETATM    6  C   UNL     1     -11.871  14.112  67.274  1.00  0.00    -0.452 C  
BRANCH   6   7
HETATM    7  C   UNL     1     -11.112  13.815  68.499  1.00  0.00    -0.267 C  
HETATM    8  O   UNL     1     -10.648  12.728  68.793  1.00  0.00    -0.240 OA 
BRANCH   7   9
HETATM    9  O   UNL     1     -10.890  14.996  69.122  1.00  0.00    -0.232 OA 
BRANCH   9  10
HETATM   10  C   UNL     1     -10.934  16.147  68.264  1.00  0.00    -0.340 C  
BRANCH  10  11
HETATM   11  C   UNL     1      -9.642  16.913  68.529  1.00  0.00    -0.262 C  
BRANCH  11  12
HETATM   12  N   UNL     1      -9.519  18.153  67.803  1.00  0.00    -0.264 N  
HETATM   13  C   UNL     1      -9.862  19.370  68.314  1.00  0.00    -0.410 C  
HETATM   14  O   UNL     1     -10.177  19.615  69.466  1.00  0.00    -0.270 OA 
HETATM   15  C   UNL     1      -9.835  20.369  67.196  1.00  0.00    -0.601 C  
HETATM   16  C   UNL     1      -9.050  19.669  66.102  1.00  0.00    -0.380 C  
HETATM   17  C   UNL     1      -9.007  18.238  66.543  1.00  0.00    -0.274 C  
HETATM   18  O   UNL     1      -8.540  17.320  65.886  1.00  0.00    -0.528 OA 
ENDBRANCH  11  12
ENDBRANCH  10  11
ENDBRANCH   9  10
ENDBRANCH   7   9
ENDBRANCH   6   7
ENDBRANCH   3   5
ENDBRANCH   2   3
TORSDOF 7
ENDMDL
MODEL       36
REMARK 921   NORMALIZED FREE ENERGY PREDICTED BY IDOCK:   -5.09 KCAL/MOL
REMARK 922        TOTAL FREE ENERGY PREDICTED BY IDOCK:   -7.61 KCAL/MOL
REMARK 923 INTER-LIGAND FREE ENERGY PREDICTED BY IDOCK:   -7.17 KCAL/MOL
REMARK 924 INTRA-LIGAND FREE ENERGY PREDICTED BY IDOCK:   -0.44 KCAL/MOL
REMARK 927      BINDING AFFINITY PREDICTED BY RF-SCORE:    0.00 PKD
ROOT
HETATM    1  C   UNL     1     -12.614  11.990  63.553  1.00  0.00    -0.507 C  
HETATM    2  O   UNL     1     -13.119  12.574  64.753  1.00  0.00    -0.853 OA 
ENDROOT
BRANCH   2   3
HETATM    3  C   UNL     1     -12.645  13.819  64.991  1.00  0.00    -0.389 C  
HETATM    4  O   UNL     1     -12.538  14.726  64.181  1.00  0.00    -0.784 OA 
BRANCH   3   5
HETATM    5  C   UNL     1     -12.251  13.903  66.406  1.00  0.00    -0.487 C  
HETATM    6  C   UNL     1     -11.845  12.784  67.016  1.00  0.00    -0.428 C  
BRANCH   6   7
HETATM    7  C   UNL     1     -11.585  12.785  68.464  1.00  0.00    -0.321 C  
HETATM    8  O   UNL     1     -11.666  13.756  69.193  1.00  0.00    -0.286 OA 
BRANCH   7   9
HETATM    9  O   UNL     1     -11.419  11.494  68.836  1.00  0.00    -0.234 OA 
BRANCH   9  10
HETATM   10  C   UNL     1     -12.283  11.056  69.896  1.00  0.00    -0.336 C  
BRANCH  10  11
HETATM   11  C   UNL     1     -11.401  10.253  70.847  1.00  0.00    -0.295 C  
BRANCH  11  12
HETATM   12  N   UNL     1     -11.650   8.833  70.843  1.00  0.00    -0.282 N  
HETATM   13  C   UNL     1     -12.519   8.212  71.691  1.00  0.00    -0.319 C  
HETATM   14  O   UNL     1     -13.301   8.748  72.457  1.00  0.00    -0.399 OA 
HETATM   15  C   UNL     1     -12.319   6.731  71.560  1.00  0.00    -0.407 C  
HETATM   16  C   UNL     1     -11.544   6.582  70.264  1.00  0.00    -0.473 C  
HETATM   17  C   UNL     1     -11.070   7.970  69.961  1.00  0.00    -0.154 C  
HETATM   18  O   UNL     1     -10.325   8.267  69.039  1.00  0.00    -0.218 OA 
ENDBRANCH  11  12
ENDBRANCH  10  11
ENDBRANCH   9  10
ENDBRANCH   7   9
ENDBRANCH   6   7
ENDBRANCH   3   5
ENDBRANCH   2   3
TORSDOF 7
ENDMDL
MODEL       37
REMARK 921   NORMALIZED FREE ENERGY PREDICTED BY IDOCK:   -5.08 KCAL/MOL
REMARK 922        TOTAL FREE ENERGY PREDICTED BY IDOCK:   -7.60 KCAL/MOL
REMARK 923 INTER-LIGAND FREE ENERGY PREDICTED BY IDOCK:   -7.07 KCAL/MOL
REMARK 924 INTRA-LIGAND FREE ENERGY PREDICTED BY IDOCK:   -0.53 KCAL/MOL
REMARK 927      BINDING AFFINITY PREDICTED BY RF-SCORE:    0.00 PKD
ROOT
HETATM    1  C   UNL     1     -10.445  11.839  63.264  1.00  0.00    -0.388 C  
HETATM    2  O   UNL     1     -11.458  11.474  64.202  1.00  0.00    -0.320 OA 
ENDROOT
BRANCH   2   3
HETATM    3  C   UNL     1     -11.713  12.433  65.123  1.00  0.00    -0.382 C  
HETATM    4  O   UNL     1     -12.187  12.269  66.236  1.00  0.00    -0.628 OA 
BRANCH   3   5
HETATM    5  C   UNL     1     -11.340  13.736  64.551  1.00  0.00    -0.393 C  
HETATM    6  C   UNL     1     -11.251  14.786  65.374  1.00  0.00    -0.347 C  
BRANCH   6   7
HETATM    7  C   UNL     1     -11.031  16.135  64.830  1.00  0.00    -0.349 C  
HETATM    8  O   UNL     1     -11.696  16.659  63.955  1.00  0.00    -1.153 OA 
BRANCH   7   9
HETATM    9  O   UNL     1     -10.084  16.721  65.600  1.00  0.00    -0.534 OA 
BRANCH   9  10
HETATM   10  C   UNL     1     -10.293  18.120  65.853  1.00  0.00    -0.277 C  
BRANCH  10  11
HETATM   11  C   UNL     1     -10.641  18.226  67.334  1.00  0.00    -0.401 C  
BRANCH  11  12
HETATM   12  N   UNL     1     -10.082  17.184  68.160  1.00  0.00    -0.294 N  
HETATM   13  C   UNL     1      -8.773  17.137  68.541  1.00  0.00    -0.261 C  
HETATM   14  O   UNL     1      -7.933  18.004  68.376  1.00  0.00    -0.282 OA 
HETATM   15  C   UNL     1      -8.518  15.798  69.166  1.00  0.00    -0.251 C  
HETATM   16  C   UNL     1      -9.908  15.264  69.462  1.00  0.00    -0.230 C  
HETATM   17  C   UNL     1     -10.817  16.160  68.677  1.00  0.00    -0.311 C  
HETATM   18  O   UNL     1     -12.025  16.008  68.571  1.00  0.00    -0.273 OA 
ENDBRANCH  11  12
ENDBRANCH  10  11
ENDBRANCH   9  10
ENDBRANCH   7   9
ENDBRANCH   6   7
ENDBRANCH   3   5
ENDBRANCH   2   3
TORSDOF 7
ENDMDL
MODEL       38
REMARK 921   NORMALIZED FREE ENERGY PREDICTED BY IDOCK:   -5.08 KCAL/MOL
REMARK 922        TOTAL FREE ENERGY PREDICTED BY IDOCK:   -7.60 KCAL/MOL
REMARK 923 INTER-LIGAND FREE ENERGY PREDICTED BY IDOCK:   -7.01 KCAL/MOL
REMARK 924 INTRA-LIGAND FREE ENERGY PREDICTED BY IDOCK:   -0.59 KCAL/MOL
REMARK 927      BINDING AFFINITY PREDICTED BY RF-SCORE:    0.00 PKD
ROOT
HETATM    1  C   UNL     1     -13.716   9.286  72.314  1.00  0.00    -0.462 C  
HETATM    2  O   UNL     1     -13.361  10.627  71.977  1.00  0.00    -0.440 OA 
ENDROOT
BRANCH   2   3
HETATM    3  C   UNL     1     -12.218  10.720  71.258  1.00  0.00    -0.321 C  
HETATM    4  O   UNL     1     -11.310   9.904  71.220  1.00  0.00    -0.368 OA 
BRANCH   3   5
HETATM    5  C   UNL     1     -12.232  11.998  70.529  1.00  0.00    -0.414 C  
HETATM    6  C   UNL     1     -12.563  13.106  71.202  1.00  0.00    -0.403 C  
BRANCH   6   7
HETATM    7  C   UNL     1     -12.738  14.380  70.487  1.00  0.00    -0.340 C  
HETATM    8  O   UNL     1     -12.919  15.462  71.013  1.00  0.00    -0.432 OA 
BRANCH   7   9
HETATM    9  O   UNL     1     -12.487  14.136  69.180  1.00  0.00    -0.231 OA 
BRANCH   9  10
HETATM   10  C   UNL     1     -11.714  15.149  68.516  1.00  0.00    -0.325 C  
BRANCH  10  11
HETATM   11  C   UNL     1     -10.757  14.403  67.592  1.00  0.00    -0.263 C  
BRANCH  11  12
HETATM   12  N   UNL     1     -11.335  13.985  66.338  1.00  0.00    -0.323 N  
HETATM   13  C   UNL     1     -11.438  14.791  65.243  1.00  0.00    -0.352 C  
HETATM   14  O   UNL     1     -10.949  15.899  65.103  1.00  0.00    -0.398 OA 
HETATM   15  C   UNL     1     -12.308  14.101  64.236  1.00  0.00    -0.398 C  
HETATM   16  C   UNL     1     -12.344  12.660  64.714  1.00  0.00    -0.556 C  
HETATM   17  C   UNL     1     -11.802  12.726  66.109  1.00  0.00    -0.425 C  
HETATM   18  O   UNL     1     -11.750  11.780  66.881  1.00  0.00    -0.557 OA 
ENDBRANCH  11  12
ENDBRANCH  10  11
ENDBRANCH   9  10
ENDBRANCH   7   9
ENDBRANCH   6   7
ENDBRANCH   3   5
ENDBRANCH   2   3
TORSDOF 7
ENDMDL
MODEL       39
REMARK 921   NORMALIZED FREE ENERGY PREDICTED BY IDOCK:   -5.05 KCAL/MOL
REMARK 922        TOTAL FREE ENERGY PREDICTED BY IDOCK:   -7.56 KCAL/MOL
REMARK 923 INTER-LIGAND FREE ENERGY PREDICTED BY IDOCK:   -7.41 KCAL/MOL
REMARK 924 INTRA-LIGAND FREE ENERGY PREDICTED BY IDOCK:   -0.15 KCAL/MOL
REMARK 927      BINDING AFFINITY PREDICTED BY RF-SCORE:    0.00 PKD
ROOT
HETATM    1  C   UNL     1     -11.690  11.652  68.424  1.00  0.00    -0.307 C  
HETATM    2  O   UNL     1     -12.348  12.476  67.461  1.00  0.00    -0.316 OA 
ENDROOT
BRANCH   2   3
HETATM    3  C   UNL     1     -11.764  12.454  66.240  1.00  0.00    -0.395 C  
HETATM    4  O   UNL     1     -11.104  11.545  65.762  1.00  0.00    -0.284 OA 
BRANCH   3   5
HETATM    5  C   UNL     1     -12.040  13.736  65.572  1.00  0.00    -0.434 C  
HETATM    6  C   UNL     1     -11.011  14.408  65.045  1.00  0.00    -0.398 C  
BRANCH   6   7
HETATM    7  C   UNL     1     -11.212  15.761  64.502  1.00  0.00    -0.322 C  
HETATM    8  O   UNL     1     -12.121  16.095  63.765  1.00  0.00    -0.946 OA 
BRANCH   7   9
HETATM    9  O   UNL     1     -10.314  16.568  65.113  1.00  0.00    -0.618 OA 
BRANCH   9  10
HETATM   10  C   UNL     1      -9.393  15.895  65.986  1.00  0.00    -0.349 C  
BRANCH  10  11
HETATM   11  C   UNL     1      -8.478  16.980  66.542  1.00  0.00    -0.271 C  
BRANCH  11  12
HETATM   12  N   UNL     1      -9.153  18.192  66.937  1.00  0.00    -0.267 N  
HETATM   13  C   UNL     1     -10.146  18.239  67.870  1.00  0.00    -0.361 C  
HETATM   14  O   UNL     1     -10.511  17.329  68.595  1.00  0.00    -0.335 OA 
HETATM   15  C   UNL     1     -10.764  19.604  67.824  1.00  0.00    -0.456 C  
HETATM   16  C   UNL     1      -9.749  20.437  67.062  1.00  0.00    -0.588 C  
HETATM   17  C   UNL     1      -8.836  19.423  66.445  1.00  0.00    -0.359 C  
HETATM   18  O   UNL     1      -7.929  19.683  65.669  1.00  0.00    -0.405 OA 
ENDBRANCH  11  12
ENDBRANCH  10  11
ENDBRANCH   9  10
ENDBRANCH   7   9
ENDBRANCH   6   7
ENDBRANCH   3   5
ENDBRANCH   2   3
TORSDOF 7
ENDMDL
MODEL       40
REMARK 921   NORMALIZED FREE ENERGY PREDICTED BY IDOCK:   -5.05 KCAL/MOL
REMARK 922        TOTAL FREE ENERGY PREDICTED BY IDOCK:   -7.55 KCAL/MOL
REMARK 923 INTER-LIGAND FREE ENERGY PREDICTED BY IDOCK:   -7.01 KCAL/MOL
REMARK 924 INTRA-LIGAND FREE ENERGY PREDICTED BY IDOCK:   -0.54 KCAL/MOL
REMARK 927      BINDING AFFINITY PREDICTED BY RF-SCORE:    0.00 PKD
ROOT
HETATM    1  C   UNL     1     -12.108  12.999  63.306  1.00  0.00    -0.422 C  
HETATM    2  O   UNL     1     -12.705  14.238  63.686  1.00  0.00    -0.783 OA 
ENDROOT
BRANCH   2   3
HETATM    3  C   UNL     1     -11.809  15.169  64.090  1.00  0.00    -0.148 C  
HETATM    4  O   UNL     1     -11.893  16.378  63.940  1.00  0.00    -1.034 OA 
BRANCH   3   5
HETATM    5  C   UNL     1     -10.681  14.478  64.735  1.00  0.00    -0.414 C  
HETATM    6  C   UNL     1     -10.502  14.650  66.049  1.00  0.00    -0.313 C  
BRANCH   6   7
HETATM    7  C   UNL     1      -9.305  14.104  66.709  1.00  0.00    -0.282 C  
HETATM    8  O   UNL     1      -8.839  12.997  66.516  1.00  0.00    -0.134 OA 
BRANCH   7   9
HETATM    9  O   UNL     1      -8.749  15.116  67.416  1.00  0.00    -0.171 OA 
BRANCH   9  10
HETATM   10  C   UNL     1      -7.946  16.022  66.642  1.00  0.00    -0.256 C  
BRANCH  10  11
HETATM   11  C   UNL     1      -7.792  17.274  67.497  1.00  0.00    -0.181 C  
BRANCH  11  12
HETATM   12  N   UNL     1      -8.800  18.282  67.275  1.00  0.00    -0.252 N  
HETATM   13  C   UNL     1      -9.962  18.362  67.984  1.00  0.00    -0.351 C  
HETATM   14  O   UNL     1     -10.261  17.715  68.973  1.00  0.00    -0.364 OA 
HETATM   15  C   UNL     1     -10.852  19.361  67.307  1.00  0.00    -0.561 C  
HETATM   16  C   UNL     1      -9.912  20.125  66.392  1.00  0.00    -0.573 C  
HETATM   17  C   UNL     1      -8.673  19.283  66.359  1.00  0.00    -0.348 C  
HETATM   18  O   UNL     1      -7.699  19.503  65.655  1.00  0.00    -0.423 OA 
ENDBRANCH  11  12
ENDBRANCH  10  11
ENDBRANCH   9  10
ENDBRANCH   7   9
ENDBRANCH   6   7
ENDBRANCH   3   5
ENDBRANCH   2   3
TORSDOF 7
ENDMDL
MODEL       41
REMARK 921   NORMALIZED FREE ENERGY PREDICTED BY IDOCK:   -5.04 KCAL/MOL
REMARK 922        TOTAL FREE ENERGY PREDICTED BY IDOCK:   -7.54 KCAL/MOL
REMARK 923 INTER-LIGAND FREE ENERGY PREDICTED BY IDOCK:   -7.13 KCAL/MOL
REMARK 924 INTRA-LIGAND FREE ENERGY PREDICTED BY IDOCK:   -0.41 KCAL/MOL
REMARK 927      BINDING AFFINITY PREDICTED BY RF-SCORE:    0.00 PKD
ROOT
HETATM    1  C   UNL     1     -11.328  10.630  67.976  1.00  0.00    -0.278 C  
HETATM    2  O   UNL     1     -10.870  11.940  67.644  1.00  0.00    -0.209 OA 
ENDROOT
BRANCH   2   3
HETATM    3  C   UNL     1     -11.740  12.640  66.879  1.00  0.00    -0.383 C  
HETATM    4  O   UNL     1     -12.282  12.259  65.853  1.00  0.00    -0.634 OA 
BRANCH   3   5
HETATM    5  C   UNL     1     -11.918  13.972  67.479  1.00  0.00    -0.430 C  
HETATM    6  C   UNL     1     -11.824  14.083  68.809  1.00  0.00    -0.396 C  
BRANCH   6   7
HETATM    7  C   UNL     1     -12.142  15.359  69.468  1.00  0.00    -0.305 C  
HETATM    8  O   UNL     1     -12.750  15.478  70.516  1.00  0.00    -0.434 OA 
BRANCH   7   9
HETATM    9  O   UNL     1     -11.488  16.329  68.787  1.00  0.00    -0.353 OA 
BRANCH   9  10
HETATM   10  C   UNL     1     -10.113  16.506  69.161  1.00  0.00    -0.287 C  
BRANCH  10  11
HETATM   11  C   UNL     1      -9.363  16.795  67.864  1.00  0.00    -0.229 C  
BRANCH  11  12
HETATM   12  N   UNL     1      -9.618  18.097  67.300  1.00  0.00    -0.275 N  
HETATM   13  C   UNL     1      -9.231  19.267  67.884  1.00  0.00    -0.315 C  
HETATM   14  O   UNL     1      -8.512  19.393  68.860  1.00  0.00    -0.367 OA 
HETATM   15  C   UNL     1      -9.886  20.396  67.145  1.00  0.00    -0.601 C  
HETATM   16  C   UNL     1     -10.347  19.760  65.845  1.00  0.00    -0.582 C  
HETATM   17  C   UNL     1     -10.238  18.288  66.102  1.00  0.00    -0.381 C  
HETATM   18  O   UNL     1     -10.605  17.417  65.327  1.00  0.00    -0.667 OA 
ENDBRANCH  11  12
ENDBRANCH  10  11
ENDBRANCH   9  10
ENDBRANCH   7   9
ENDBRANCH   6   7
ENDBRANCH   3   5
ENDBRANCH   2   3
TORSDOF 7
ENDMDL
MODEL       42
REMARK 921   NORMALIZED FREE ENERGY PREDICTED BY IDOCK:   -5.03 KCAL/MOL
REMARK 922        TOTAL FREE ENERGY PREDICTED BY IDOCK:   -7.53 KCAL/MOL
REMARK 923 INTER-LIGAND FREE ENERGY PREDICTED BY IDOCK:   -6.96 KCAL/MOL
REMARK 924 INTRA-LIGAND FREE ENERGY PREDICTED BY IDOCK:   -0.57 KCAL/MOL
REMARK 927      BINDING AFFINITY PREDICTED BY RF-SCORE:    0.00 PKD
ROOT
HETATM    1  C   UNL     1      -9.871   8.879  66.248  1.00  0.00    -0.285 C  
HETATM    2  O   UNL     1      -9.025   9.723  65.467  1.00  0.00    -0.154 OA 
ENDROOT
BRANCH   2   3
HETATM    3  C   UNL     1      -9.600  10.156  64.321  1.00  0.00    -0.290 C  
HETATM    4  O   UNL     1      -9.358   9.766  63.190  1.00  0.00    -0.263 OA 
BRANCH   3   5
HETATM    5  C   UNL     1     -10.571  11.208  64.659  1.00  0.00    -0.386 C  
HETATM    6  C   UNL     1     -11.316  11.722  63.674  1.00  0.00    -0.525 C  
BRANCH   6   7
HETATM    7  C   UNL     1     -12.189  12.877  63.933  1.00  0.00    -0.449 C  
HETATM    8  O   UNL     1     -12.508  13.717  63.111  1.00  0.00    -0.786 OA 
BRANCH   7   9
HETATM    9  O   UNL     1     -12.690  12.721  65.181  1.00  0.00    -0.626 OA 
BRANCH   9  10
HETATM   10  C   UNL     1     -12.853  13.941  65.923  1.00  0.00    -0.339 C  
BRANCH  10  11
HETATM   11  C   UNL     1     -11.553  14.134  66.696  1.00  0.00    -0.384 C  
BRANCH  11  12
HETATM   12  N   UNL     1     -11.724  14.392  68.104  1.00  0.00    -0.330 N  
HETATM   13  C   UNL     1     -11.990  13.425  69.028  1.00  0.00    -0.315 C  
HETATM   14  O   UNL     1     -11.982  12.219  68.846  1.00  0.00    -0.308 OA 
HETATM   15  C   UNL     1     -12.348  14.099  70.319  1.00  0.00    -0.421 C  
HETATM   16  C   UNL     1     -11.859  15.524  70.133  1.00  0.00    -0.378 C  
HETATM   17  C   UNL     1     -11.597  15.629  68.662  1.00  0.00    -0.382 C  
HETATM   18  O   UNL     1     -11.274  16.656  68.084  1.00  0.00    -0.339 OA 
ENDBRANCH  11  12
ENDBRANCH  10  11
ENDBRANCH   9  10
ENDBRANCH   7   9
ENDBRANCH   6   7
ENDBRANCH   3   5
ENDBRANCH   2   3
TORSDOF 7
ENDMDL
MODEL       43
REMARK 921   NORMALIZED FREE ENERGY PREDICTED BY IDOCK:   -5.02 KCAL/MOL
REMARK 922        TOTAL FREE ENERGY PREDICTED BY IDOCK:   -7.52 KCAL/MOL
REMARK 923 INTER-LIGAND FREE ENERGY PREDICTED BY IDOCK:   -7.04 KCAL/MOL
REMARK 924 INTRA-LIGAND FREE ENERGY PREDICTED BY IDOCK:   -0.48 KCAL/MOL
REMARK 927      BINDING AFFINITY PREDICTED BY RF-SCORE:    0.00 PKD
ROOT
HETATM    1  C   UNL     1     -12.415  12.307  63.643  1.00  0.00    -0.541 C  
HETATM    2  O   UNL     1     -12.850  13.199  64.669  1.00  0.00    -0.693 OA 
ENDROOT
BRANCH   2   3
HETATM    3  C   UNL     1     -12.287  12.954  65.875  1.00  0.00    -0.313 C  
HETATM    4  O   UNL     1     -11.950  11.867  66.317  1.00  0.00    -0.554 OA 
BRANCH   3   5
HETATM    5  C   UNL     1     -12.161  14.231  66.595  1.00  0.00    -0.448 C  
HETATM    6  C   UNL     1     -11.776  14.200  67.875  1.00  0.00    -0.402 C  
BRANCH   6   7
HETATM    7  C   UNL     1     -11.781  15.432  68.679  1.00  0.00    -0.354 C  
HETATM    8  O   UNL     1     -12.165  15.519  69.831  1.00  0.00    -0.355 OA 
BRANCH   7   9
HETATM    9  O   UNL     1     -11.129  16.375  67.959  1.00  0.00    -0.348 OA 
BRANCH   9  10
HETATM   10  C   UNL     1      -9.903  16.840  68.546  1.00  0.00    -0.257 C  
BRANCH  10  11
HETATM   11  C   UNL     1     -10.012  18.361  68.584  1.00  0.00    -0.387 C  
BRANCH  11  12
HETATM   12  N   UNL     1      -9.060  19.053  67.751  1.00  0.00    -0.288 N  
HETATM   13  C   UNL     1      -9.224  19.250  66.412  1.00  0.00    -0.352 C  
HETATM   14  O   UNL     1     -10.224  19.013  65.756  1.00  0.00    -0.517 OA 
HETATM   15  C   UNL     1      -7.933  19.771  65.856  1.00  0.00    -0.289 C  
HETATM   16  C   UNL     1      -7.166  20.228  67.083  1.00  0.00    -0.327 C  
HETATM   17  C   UNL     1      -7.914  19.617  68.228  1.00  0.00    -0.321 C  
HETATM   18  O   UNL     1      -7.564  19.670  69.397  1.00  0.00    -0.295 OA 
ENDBRANCH  11  12
ENDBRANCH  10  11
ENDBRANCH   9  10
ENDBRANCH   7   9
ENDBRANCH   6   7
ENDBRANCH   3   5
ENDBRANCH   2   3
TORSDOF 7
ENDMDL
MODEL       44
REMARK 921   NORMALIZED FREE ENERGY PREDICTED BY IDOCK:   -5.02 KCAL/MOL
REMARK 922        TOTAL FREE ENERGY PREDICTED BY IDOCK:   -7.51 KCAL/MOL
REMARK 923 INTER-LIGAND FREE ENERGY PREDICTED BY IDOCK:   -6.97 KCAL/MOL
REMARK 924 INTRA-LIGAND FREE ENERGY PREDICTED BY IDOCK:   -0.53 KCAL/MOL
REMARK 927      BINDING AFFINITY PREDICTED BY RF-SCORE:    0.00 PKD
ROOT
HETATM    1  C   UNL     1      -7.477  19.323  68.272  1.00  0.00    -0.300 C  
HETATM    2  O   UNL     1      -8.700  18.741  68.720  1.00  0.00    -0.331 OA 
ENDROOT
BRANCH   2   3
HETATM    3  C   UNL     1      -9.796  19.237  68.098  1.00  0.00    -0.379 C  
HETATM    4  O   UNL     1     -10.142  20.407  68.050  1.00  0.00    -0.369 OA 
BRANCH   3   5
HETATM    5  C   UNL     1     -10.532  18.116  67.492  1.00  0.00    -0.425 C  
HETATM    6  C   UNL     1      -9.831  17.075  67.030  1.00  0.00    -0.270 C  
BRANCH   6   7
HETATM    7  C   UNL     1     -10.506  16.002  66.283  1.00  0.00    -0.320 C  
HETATM    8  O   UNL     1     -10.456  15.846  65.077  1.00  0.00    -0.518 OA 
BRANCH   7   9
HETATM    9  O   UNL     1     -11.029  15.153  67.198  1.00  0.00    -0.315 OA 
BRANCH   9  10
HETATM   10  C   UNL     1     -10.305  13.923  67.361  1.00  0.00    -0.252 C  
BRANCH  10  11
HETATM   11  C   UNL     1     -11.286  12.812  67.000  1.00  0.00    -0.314 C  
BRANCH  11  12
HETATM   12  N   UNL     1     -11.359  12.509  65.592  1.00  0.00    -0.320 N  
HETATM   13  C   UNL     1     -12.350  12.955  64.768  1.00  0.00    -0.459 C  
HETATM   14  O   UNL     1     -13.218  13.766  65.043  1.00  0.00    -0.733 OA 
HETATM   15  C   UNL     1     -12.227  12.235  63.459  1.00  0.00    -0.669 C  
HETATM   16  C   UNL     1     -10.827  11.648  63.497  1.00  0.00    -0.497 C  
HETATM   17  C   UNL     1     -10.418  11.776  64.932  1.00  0.00    -0.287 C  
HETATM   18  O   UNL     1      -9.382  11.332  65.403  1.00  0.00    -0.216 OA 
ENDBRANCH  11  12
ENDBRANCH  10  11
ENDBRANCH   9  10
ENDBRANCH   7   9
ENDBRANCH   6   7
ENDBRANCH   3   5
ENDBRANCH   2   3
TORSDOF 7
ENDMDL
MODEL       45
REMARK 921   NORMALIZED FREE ENERGY PREDICTED BY IDOCK:   -5.00 KCAL/MOL
REMARK 922        TOTAL FREE ENERGY PREDICTED BY IDOCK:   -7.49 KCAL/MOL
REMARK 923 INTER-LIGAND FREE ENERGY PREDICTED BY IDOCK:   -7.05 KCAL/MOL
REMARK 924 INTRA-LIGAND FREE ENERGY PREDICTED BY IDOCK:   -0.44 KCAL/MOL
REMARK 927      BINDING AFFINITY PREDICTED BY RF-SCORE:    0.00 PKD
ROOT
HETATM    1  C   UNL     1      -8.125  19.882  66.195  1.00  0.00    -0.326 C  
HETATM    2  O   UNL     1      -8.796  19.660  67.435  1.00  0.00    -0.298 OA 
ENDROOT
BRANCH   2   3
HETATM    3  C   UNL     1     -10.083  19.267  67.291  1.00  0.00    -0.384 C  
HETATM    4  O   UNL     1     -10.876  19.656  66.448  1.00  0.00    -0.432 OA 
BRANCH   3   5
HETATM    5  C   UNL     1     -10.391  18.290  68.347  1.00  0.00    -0.366 C  
HETATM    6  C   UNL     1     -10.716  17.045  67.982  1.00  0.00    -0.365 C  
BRANCH   6   7
HETATM    7  C   UNL     1     -11.177  16.076  68.989  1.00  0.00    -0.347 C  
HETATM    8  O   UNL     1     -11.106  16.227  70.195  1.00  0.00    -0.347 OA 
BRANCH   7   9
HETATM    9  O   UNL     1     -11.834  15.098  68.323  1.00  0.00    -0.331 OA 
BRANCH   9  10
HETATM   10  C   UNL     1     -11.402  14.895  66.969  1.00  0.00    -0.342 C  
BRANCH  10  11
HETATM   11  C   UNL     1     -12.423  13.951  66.343  1.00  0.00    -0.370 C  
BRANCH  11  12
HETATM   12  N   UNL     1     -11.865  12.976  65.439  1.00  0.00    -0.364 N  
HETATM   13  C   UNL     1     -11.214  11.848  65.845  1.00  0.00    -0.322 C  
HETATM   14  O   UNL     1     -11.129  11.425  66.985  1.00  0.00    -0.281 OA 
HETATM   15  C   UNL     1     -10.567  11.226  64.644  1.00  0.00    -0.392 C  
HETATM   16  C   UNL     1     -11.261  11.893  63.470  1.00  0.00    -0.501 C  
HETATM   17  C   UNL     1     -11.968  13.063  64.083  1.00  0.00    -0.427 C  
HETATM   18  O   UNL     1     -12.576  13.917  63.455  1.00  0.00    -0.853 OA 
ENDBRANCH  11  12
ENDBRANCH  10  11
ENDBRANCH   9  10
ENDBRANCH   7   9
ENDBRANCH   6   7
ENDBRANCH   3   5
ENDBRANCH   2   3
TORSDOF 7
ENDMDL
MODEL       46
REMARK 921   NORMALIZED FREE ENERGY PREDICTED BY IDOCK:   -5.00 KCAL/MOL
REMARK 922        TOTAL FREE ENERGY PREDICTED BY IDOCK:   -7.48 KCAL/MOL
REMARK 923 INTER-LIGAND FREE ENERGY PREDICTED BY IDOCK:   -7.06 KCAL/MOL
REMARK 924 INTRA-LIGAND FREE ENERGY PREDICTED BY IDOCK:   -0.42 KCAL/MOL
REMARK 927      BINDING AFFINITY PREDICTED BY RF-SCORE:    0.00 PKD
ROOT
HETATM    1  C   UNL     1     -12.603  11.961  63.248  1.00  0.00    -0.344 C  
HETATM    2  O   UNL     1     -13.080  12.365  64.531  1.00  0.00    -0.823 OA 
ENDROOT
BRANCH   2   3
HETATM    3  C   UNL     1     -12.096  12.534  65.446  1.00  0.00    -0.435 C  
HETATM    4  O   UNL     1     -11.920  11.876  66.459  1.00  0.00    -0.588 OA 
BRANCH   3   5
HETATM    5  C   UNL     1     -11.267  13.674  65.028  1.00  0.00    -0.329 C  
HETATM    6  C   UNL     1     -11.665  14.905  65.370  1.00  0.00    -0.238 C  
BRANCH   6   7
HETATM    7  C   UNL     1     -10.955  16.083  64.849  1.00  0.00    -0.384 C  
HETATM    8  O   UNL     1     -11.438  16.933  64.125  1.00  0.00    -1.174 OA 
BRANCH   7   9
HETATM    9  O   UNL     1      -9.749  16.120  65.464  1.00  0.00    -0.455 OA 
BRANCH   9  10
HETATM   10  C   UNL     1      -9.430  17.373  66.090  1.00  0.00    -0.169 C  
BRANCH  10  11
HETATM   11  C   UNL     1      -9.183  17.051  67.560  1.00  0.00    -0.231 C  
BRANCH  11  12
HETATM   12  N   UNL     1      -8.266  17.944  68.225  1.00  0.00    -0.282 N  
HETATM   13  C   UNL     1      -8.635  19.126  68.795  1.00  0.00    -0.335 C  
HETATM   14  O   UNL     1      -9.772  19.535  68.958  1.00  0.00    -0.412 OA 
HETATM   15  C   UNL     1      -7.389  19.879  69.154  1.00  0.00    -0.223 C  
HETATM   16  C   UNL     1      -6.298  18.825  69.100  1.00  0.00    -0.285 C  
HETATM   17  C   UNL     1      -6.940  17.675  68.386  1.00  0.00    -0.222 C  
HETATM   18  O   UNL     1      -6.362  16.650  68.056  1.00  0.00    -0.128 OA 
ENDBRANCH  11  12
ENDBRANCH  10  11
ENDBRANCH   9  10
ENDBRANCH   7   9
ENDBRANCH   6   7
ENDBRANCH   3   5
ENDBRANCH   2   3
TORSDOF 7
ENDMDL
MODEL       47
REMARK 921   NORMALIZED FREE ENERGY PREDICTED BY IDOCK:   -4.99 KCAL/MOL
REMARK 922        TOTAL FREE ENERGY PREDICTED BY IDOCK:   -7.46 KCAL/MOL
REMARK 923 INTER-LIGAND FREE ENERGY PREDICTED BY IDOCK:   -6.99 KCAL/MOL
REMARK 924 INTRA-LIGAND FREE ENERGY PREDICTED BY IDOCK:   -0.47 KCAL/MOL
REMARK 927      BINDING AFFINITY PREDICTED BY RF-SCORE:    0.00 PKD
ROOT
HETATM    1  C   UNL     1     -12.604  11.974  63.485  1.00  0.00    -0.507 C  
HETATM    2  O   UNL     1     -13.119  12.571  64.675  1.00  0.00    -0.845 OA 
ENDROOT
BRANCH   2   3
HETATM    3  C   UNL     1     -12.675  13.833  64.884  1.00  0.00    -0.271 C  
HETATM    4  O   UNL     1     -12.543  14.709  64.044  1.00  0.00    -0.819 OA 
BRANCH   3   5
HETATM    5  C   UNL     1     -12.350  13.979  66.311  1.00  0.00    -0.482 C  
HETATM    6  C   UNL     1     -11.197  13.466  66.753  1.00  0.00    -0.332 C  
BRANCH   6   7
HETATM    7  C   UNL     1     -10.897  13.453  68.193  1.00  0.00    -0.255 C  
HETATM    8  O   UNL     1      -9.867  13.856  68.701  1.00  0.00    -0.224 OA 
BRANCH   7   9
HETATM    9  O   UNL     1     -12.032  13.080  68.829  1.00  0.00    -0.314 OA 
BRANCH   9  10
HETATM   10  C   UNL     1     -11.828  12.336  70.041  1.00  0.00    -0.296 C  
BRANCH  10  11
HETATM   11  C   UNL     1     -12.030  10.872  69.668  1.00  0.00    -0.343 C  
BRANCH  11  12
HETATM   12  N   UNL     1     -11.592   9.931  70.669  1.00  0.00    -0.311 N  
HETATM   13  C   UNL     1     -10.318   9.450  70.754  1.00  0.00    -0.298 C  
HETATM   14  O   UNL     1      -9.350   9.830  70.118  1.00  0.00    -0.234 OA 
HETATM   15  C   UNL     1     -10.311   8.322  71.742  1.00  0.00    -0.321 C  
HETATM   16  C   UNL     1     -11.617   8.491  72.497  1.00  0.00    -0.376 C  
HETATM   17  C   UNL     1     -12.399   9.456  71.659  1.00  0.00    -0.385 C  
HETATM   18  O   UNL     1     -13.555   9.788  71.875  1.00  0.00    -0.381 OA 
ENDBRANCH  11  12
ENDBRANCH  10  11
ENDBRANCH   9  10
ENDBRANCH   7   9
ENDBRANCH   6   7
ENDBRANCH   3   5
ENDBRANCH   2   3
TORSDOF 7
ENDMDL
MODEL       48
REMARK 921   NORMALIZED FREE ENERGY PREDICTED BY IDOCK:   -4.97 KCAL/MOL
REMARK 922        TOTAL FREE ENERGY PREDICTED BY IDOCK:   -7.44 KCAL/MOL
REMARK 923 INTER-LIGAND FREE ENERGY PREDICTED BY IDOCK:   -7.18 KCAL/MOL
REMARK 924 INTRA-LIGAND FREE ENERGY PREDICTED BY IDOCK:   -0.26 KCAL/MOL
REMARK 927      BINDING AFFINITY PREDICTED BY RF-SCORE:    0.00 PKD
ROOT
HETATM    1  C   UNL     1      -8.730   9.474  64.401  1.00  0.00    -0.208 C  
HETATM    2  O   UNL     1      -9.983  10.147  64.521  1.00  0.00    -0.326 OA 
ENDROOT
BRANCH   2   3
HETATM    3  C   UNL     1     -10.069  11.269  63.768  1.00  0.00    -0.361 C  
HETATM    4  O   UNL     1      -9.342  11.583  62.839  1.00  0.00    -0.363 OA 
BRANCH   3   5
HETATM    5  C   UNL     1     -11.189  12.079  64.272  1.00  0.00    -0.421 C  
HETATM    6  C   UNL     1     -10.934  12.994  65.214  1.00  0.00    -0.307 C  
BRANCH   6   7
HETATM    7  C   UNL     1     -12.040  13.722  65.855  1.00  0.00    -0.433 C  
HETATM    8  O   UNL     1     -13.098  14.006  65.324  1.00  0.00    -0.782 OA 
BRANCH   7   9
HETATM    9  O   UNL     1     -11.722  13.848  67.165  1.00  0.00    -0.345 OA 
BRANCH   9  10
HETATM   10  C   UNL     1     -11.754  15.194  67.666  1.00  0.00    -0.216 C  
BRANCH  10  11
HETATM   11  C   UNL     1     -10.484  15.861  67.148  1.00  0.00    -0.313 C  
BRANCH  11  12
HETATM   12  N   UNL     1     -10.517  17.302  67.152  1.00  0.00    -0.319 N  
HETATM   13  C   UNL     1     -10.667  18.063  66.030  1.00  0.00    -0.133 C  
HETATM   14  O   UNL     1     -10.933  17.665  64.909  1.00  0.00    -0.886 OA 
HETATM   15  C   UNL     1     -10.400  19.492  66.397  1.00  0.00    -0.594 C  
HETATM   16  C   UNL     1     -10.487  19.501  67.912  1.00  0.00    -0.552 C  
HETATM   17  C   UNL     1     -10.441  18.052  68.288  1.00  0.00    -0.343 C  
HETATM   18  O   UNL     1     -10.394  17.630  69.434  1.00  0.00    -0.273 OA 
ENDBRANCH  11  12
ENDBRANCH  10  11
ENDBRANCH   9  10
ENDBRANCH   7   9
ENDBRANCH   6   7
ENDBRANCH   3   5
ENDBRANCH   2   3
TORSDOF 7
ENDMDL
MODEL       49
REMARK 921   NORMALIZED FREE ENERGY PREDICTED BY IDOCK:   -4.97 KCAL/MOL
REMARK 922        TOTAL FREE ENERGY PREDICTED BY IDOCK:   -7.44 KCAL/MOL
REMARK 923 INTER-LIGAND FREE ENERGY PREDICTED BY IDOCK:   -7.08 KCAL/MOL
REMARK 924 INTRA-LIGAND FREE ENERGY PREDICTED BY IDOCK:   -0.36 KCAL/MOL
REMARK 927      BINDING AFFINITY PREDICTED BY RF-SCORE:    0.00 PKD
ROOT
HETATM    1  C   UNL     1      -9.727  11.476  62.995  1.00  0.00    -0.359 C  
HETATM    2  O   UNL     1     -10.991  10.986  63.444  1.00  0.00    -0.216 OA 
ENDROOT
BRANCH   2   3
HETATM    3  C   UNL     1     -11.872  11.966  63.755  1.00  0.00    -0.458 C  
HETATM    4  O   UNL     1     -13.035  12.044  63.394  1.00  0.00    -0.772 OA 
BRANCH   3   5
HETATM    5  C   UNL     1     -11.185  12.956  64.599  1.00  0.00    -0.353 C  
HETATM    6  C   UNL     1     -11.916  13.662  65.468  1.00  0.00    -0.409 C  
BRANCH   6   7
HETATM    7  C   UNL     1     -11.303  14.766  66.224  1.00  0.00    -0.334 C  
HETATM    8  O   UNL     1     -10.491  15.557  65.780  1.00  0.00    -0.315 OA 
BRANCH   7   9
HETATM    9  O   UNL     1     -11.939  14.828  67.417  1.00  0.00    -0.357 OA 
BRANCH   9  10
HETATM   10  C   UNL     1     -11.985  13.588  68.141  1.00  0.00    -0.341 C  
BRANCH  10  11
HETATM   11  C   UNL     1     -11.324  13.868  69.486  1.00  0.00    -0.237 C  
BRANCH  11  12
HETATM   12  N   UNL     1     -12.194  13.716  70.627  1.00  0.00    -0.358 N  
HETATM   13  C   UNL     1     -12.697  14.762  71.342  1.00  0.00    -0.329 C  
HETATM   14  O   UNL     1     -12.617  15.945  71.061  1.00  0.00    -0.443 OA 
HETATM   15  C   UNL     1     -13.337  14.213  72.582  1.00  0.00    -0.638 C  
HETATM   16  C   UNL     1     -13.498  12.733  72.284  1.00  0.00    -0.591 C  
HETATM   17  C   UNL     1     -12.634  12.509  71.081  1.00  0.00    -0.253 C  
HETATM   18  O   UNL     1     -12.414  11.419  70.574  1.00  0.00    -0.318 OA 
ENDBRANCH  11  12
ENDBRANCH  10  11
ENDBRANCH   9  10
ENDBRANCH   7   9
ENDBRANCH   6   7
ENDBRANCH   3   5
ENDBRANCH   2   3
TORSDOF 7
ENDMDL
MODEL       50
REMARK 921   NORMALIZED FREE ENERGY PREDICTED BY IDOCK:   -4.95 KCAL/MOL
REMARK 922        TOTAL FREE ENERGY PREDICTED BY IDOCK:   -7.41 KCAL/MOL
REMARK 923 INTER-LIGAND FREE ENERGY PREDICTED BY IDOCK:   -6.82 KCAL/MOL
REMARK 924 INTRA-LIGAND FREE ENERGY PREDICTED BY IDOCK:   -0.59 KCAL/MOL
REMARK 927      BINDING AFFINITY PREDICTED BY RF-SCORE:    0.00 PKD
ROOT
HETATM    1  C   UNL     1     -12.603  15.556  74.195  1.00  0.00    -0.595 C  
HETATM    2  O   UNL     1     -13.328  16.007  73.052  1.00  0.00    -0.532 OA 
ENDROOT
BRANCH   2   3
HETATM    3  C   UNL     1     -13.616  15.022  72.170  1.00  0.00    -0.427 C  
HETATM    4  O   UNL     1     -14.359  14.071  72.353  1.00  0.00    -0.614 OA 
BRANCH   3   5
HETATM    5  C   UNL     1     -12.857  15.271  70.934  1.00  0.00    -0.511 C  
HETATM    6  C   UNL     1     -11.576  14.892  70.891  1.00  0.00    -0.344 C  
BRANCH   6   7
HETATM    7  C   UNL     1     -10.736  15.254  69.739  1.00  0.00    -0.283 C  
HETATM    8  O   UNL     1      -9.524  15.150  69.691  1.00  0.00    -0.193 OA 
BRANCH   7   9
HETATM    9  O   UNL     1     -11.573  15.548  68.717  1.00  0.00    -0.342 OA 
BRANCH   9  10
HETATM   10  C   UNL     1     -11.044  15.283  67.408  1.00  0.00    -0.326 C  
BRANCH  10  11
HETATM   11  C   UNL     1     -11.995  14.274  66.772  1.00  0.00    -0.436 C  
BRANCH  11  12
HETATM   12  N   UNL     1     -11.408  12.987  66.493  1.00  0.00    -0.306 N  
HETATM   13  C   UNL     1     -10.827  12.658  65.304  1.00  0.00    -0.288 C  
HETATM   14  O   UNL     1     -10.589  13.411  64.375  1.00  0.00    -0.411 OA 
HETATM   15  C   UNL     1     -10.567  11.182  65.305  1.00  0.00    -0.303 C  
HETATM   16  C   UNL     1     -10.686  10.792  66.768  1.00  0.00    -0.291 C  
HETATM   17  C   UNL     1     -11.338  11.979  67.408  1.00  0.00    -0.327 C  
HETATM   18  O   UNL     1     -11.697  12.032  68.575  1.00  0.00    -0.295 OA 
ENDBRANCH  11  12
ENDBRANCH  10  11
ENDBRANCH   9  10
ENDBRANCH   7   9
ENDBRANCH   6   7
ENDBRANCH   3   5
ENDBRANCH   2   3
TORSDOF 7
ENDMDL
MODEL       51
REMARK 921   NORMALIZED FREE ENERGY PREDICTED BY IDOCK:   -4.94 KCAL/MOL
REMARK 922        TOTAL FREE ENERGY PREDICTED BY IDOCK:   -7.41 KCAL/MOL
REMARK 923 INTER-LIGAND FREE ENERGY PREDICTED BY IDOCK:   -7.11 KCAL/MOL
REMARK 924 INTRA-LIGAND FREE ENERGY PREDICTED BY IDOCK:   -0.30 KCAL/MOL
REMARK 927      BINDING AFFINITY PREDICTED BY RF-SCORE:    0.00 PKD
ROOT
HETATM    1  C   UNL     1     -10.452  10.756  67.027  1.00  0.00    -0.247 C  
HETATM    2  O   UNL     1     -11.751  11.347  67.032  1.00  0.00    -0.535 OA 
ENDROOT
BRANCH   2   3
HETATM    3  C   UNL     1     -11.768  12.611  67.518  1.00  0.00    -0.368 C  
HETATM    4  O   UNL     1     -11.488  12.961  68.653  1.00  0.00    -0.263 OA 
BRANCH   3   5
HETATM    5  C   UNL     1     -12.209  13.514  66.444  1.00  0.00    -0.454 C  
HETATM    6  C   UNL     1     -11.297  13.944  65.565  1.00  0.00    -0.310 C  
BRANCH   6   7
HETATM    7  C   UNL     1     -11.655  14.964  64.567  1.00  0.00    -0.352 C  
HETATM    8  O   UNL     1     -12.644  14.937  63.857  1.00  0.00    -0.831 OA 
BRANCH   7   9
HETATM    9  O   UNL     1     -10.786  15.990  64.721  1.00  0.00    -0.611 OA 
BRANCH   9  10
HETATM   10  C   UNL     1      -9.980  15.924  65.908  1.00  0.00    -0.349 C  
BRANCH  10  11
HETATM   11  C   UNL     1      -9.093  17.163  65.878  1.00  0.00     0.008 C  
BRANCH  11  12
HETATM   12  N   UNL     1      -9.501  18.217  66.773  1.00  0.00    -0.289 N  
HETATM   13  C   UNL     1     -10.250  19.291  66.391  1.00  0.00    -0.449 C  
HETATM   14  O   UNL     1     -10.795  19.455  65.312  1.00  0.00    -0.477 OA 
HETATM   15  C   UNL     1     -10.254  20.281  67.517  1.00  0.00    -0.486 C  
HETATM   16  C   UNL     1      -9.776  19.475  68.711  1.00  0.00    -0.513 C  
HETATM   17  C   UNL     1      -9.213  18.226  68.105  1.00  0.00    -0.301 C  
HETATM   18  O   UNL     1      -8.638  17.346  68.729  1.00  0.00    -0.275 OA 
ENDBRANCH  11  12
ENDBRANCH  10  11
ENDBRANCH   9  10
ENDBRANCH   7   9
ENDBRANCH   6   7
ENDBRANCH   3   5
ENDBRANCH   2   3
TORSDOF 7
ENDMDL
MODEL       52
REMARK 921   NORMALIZED FREE ENERGY PREDICTED BY IDOCK:   -4.88 KCAL/MOL
REMARK 922        TOTAL FREE ENERGY PREDICTED BY IDOCK:   -7.32 KCAL/MOL
REMARK 923 INTER-LIGAND FREE ENERGY PREDICTED BY IDOCK:   -6.64 KCAL/MOL
REMARK 924 INTRA-LIGAND FREE ENERGY PREDICTED BY IDOCK:   -0.68 KCAL/MOL
REMARK 927      BINDING AFFINITY PREDICTED BY RF-SCORE:    0.00 PKD
ROOT
HETATM    1  C   UNL     1     -12.932  11.312  71.508  1.00  0.00    -0.415 C  
HETATM    2  O   UNL     1     -12.679  10.457  70.394  1.00  0.00    -0.305 OA 
ENDROOT
BRANCH   2   3
HETATM    3  C   UNL     1     -12.151  11.100  69.326  1.00  0.00    -0.308 C  
HETATM    4  O   UNL     1     -11.991  10.645  68.204  1.00  0.00    -0.460 OA 
BRANCH   3   5
HETATM    5  C   UNL     1     -11.772  12.459  69.745  1.00  0.00    -0.361 C  
HETATM    6  C   UNL     1     -11.744  13.422  68.818  1.00  0.00    -0.377 C  
BRANCH   6   7
HETATM    7  C   UNL     1     -11.227  14.758  69.154  1.00  0.00    -0.271 C  
HETATM    8  O   UNL     1     -11.187  15.235  70.273  1.00  0.00    -0.257 OA 
BRANCH   7   9
HETATM    9  O   UNL     1     -10.662  15.257  68.030  1.00  0.00    -0.255 OA 
BRANCH   9  10
HETATM   10  C   UNL     1     -11.518  15.264  66.877  1.00  0.00    -0.143 C  
BRANCH  10  11
HETATM   11  C   UNL     1     -10.629  14.889  65.697  1.00  0.00    -0.344 C  
BRANCH  11  12
HETATM   12  N   UNL     1     -10.990  13.657  65.039  1.00  0.00    -0.328 N  
HETATM   13  C   UNL     1     -10.442  12.445  65.342  1.00  0.00    -0.277 C  
HETATM   14  O   UNL     1      -9.698  12.192  66.274  1.00  0.00    -0.228 OA 
HETATM   15  C   UNL     1     -10.873  11.464  64.293  1.00  0.00    -0.416 C  
HETATM   16  C   UNL     1     -12.041  12.153  63.609  1.00  0.00    -0.648 C  
HETATM   17  C   UNL     1     -11.948  13.574  64.074  1.00  0.00    -0.449 C  
HETATM   18  O   UNL     1     -12.659  14.485  63.676  1.00  0.00    -0.798 OA 
ENDBRANCH  11  12
ENDBRANCH  10  11
ENDBRANCH   9  10
ENDBRANCH   7   9
ENDBRANCH   6   7
ENDBRANCH   3   5
ENDBRANCH   2   3
TORSDOF 7
ENDMDL
MODEL       53
REMARK 921   NORMALIZED FREE ENERGY PREDICTED BY IDOCK:   -4.88 KCAL/MOL
REMARK 922        TOTAL FREE ENERGY PREDICTED BY IDOCK:   -7.32 KCAL/MOL
REMARK 923 INTER-LIGAND FREE ENERGY PREDICTED BY IDOCK:   -6.76 KCAL/MOL
REMARK 924 INTRA-LIGAND FREE ENERGY PREDICTED BY IDOCK:   -0.55 KCAL/MOL
REMARK 927      BINDING AFFINITY PREDICTED BY RF-SCORE:    0.00 PKD
ROOT
HETATM    1  C   UNL     1      -8.464   9.902  65.544  1.00  0.00    -0.140 C  
HETATM    2  O   UNL     1      -9.658   9.930  64.764  1.00  0.00    -0.289 OA 
ENDROOT
BRANCH   2   3
HETATM    3  C   UNL     1      -9.501  10.516  63.553  1.00  0.00    -0.312 C  
HETATM    4  O   UNL     1      -8.836  10.097  62.620  1.00  0.00    -0.182 OA 
BRANCH   3   5
HETATM    5  C   UNL     1     -10.257  11.778  63.548  1.00  0.00    -0.483 C  
HETATM    6  C   UNL     1     -11.543  11.746  63.916  1.00  0.00    -0.469 C  
BRANCH   6   7
HETATM    7  C   UNL     1     -12.380  12.949  63.783  1.00  0.00    -0.417 C  
HETATM    8  O   UNL     1     -12.500  13.614  62.771  1.00  0.00    -0.437 OA 
BRANCH   7   9
HETATM    9  O   UNL     1     -13.101  13.056  64.924  1.00  0.00    -0.745 OA 
BRANCH   9  10
HETATM   10  C   UNL     1     -12.883  14.268  65.664  1.00  0.00    -0.296 C  
BRANCH  10  11
HETATM   11  C   UNL     1     -11.581  14.058  66.429  1.00  0.00    -0.369 C  
BRANCH  11  12
HETATM   12  N   UNL     1     -11.750  13.681  67.811  1.00  0.00    -0.341 N  
HETATM   13  C   UNL     1     -11.856  14.575  68.835  1.00  0.00    -0.324 C  
HETATM   14  O   UNL     1     -11.968  15.785  68.740  1.00  0.00    -0.374 OA 
HETATM   15  C   UNL     1     -11.763  13.817  70.126  1.00  0.00    -0.303 C  
HETATM   16  C   UNL     1     -12.005  12.375  69.719  1.00  0.00    -0.359 C  
HETATM   17  C   UNL     1     -11.861  12.388  68.228  1.00  0.00    -0.309 C  
HETATM   18  O   UNL     1     -11.892  11.396  67.516  1.00  0.00    -0.614 OA 
ENDBRANCH  11  12
ENDBRANCH  10  11
ENDBRANCH   9  10
ENDBRANCH   7   9
ENDBRANCH   6   7
ENDBRANCH   3   5
ENDBRANCH   2   3
TORSDOF 7
ENDMDL
MODEL       54
REMARK 921   NORMALIZED FREE ENERGY PREDICTED BY IDOCK:   -4.88 KCAL/MOL
REMARK 922        TOTAL FREE ENERGY PREDICTED BY IDOCK:   -7.31 KCAL/MOL
REMARK 923 INTER-LIGAND FREE ENERGY PREDICTED BY IDOCK:   -6.85 KCAL/MOL
REMARK 924 INTRA-LIGAND FREE ENERGY PREDICTED BY IDOCK:   -0.46 KCAL/MOL
REMARK 927      BINDING AFFINITY PREDICTED BY RF-SCORE:    0.00 PKD
ROOT
HETATM    1  C   UNL     1     -12.900  10.015  71.053  1.00  0.00    -0.365 C  
HETATM    2  O   UNL     1     -11.813  10.938  71.015  1.00  0.00    -0.310 OA 
ENDROOT
BRANCH   2   3
HETATM    3  C   UNL     1     -12.152  12.154  70.527  1.00  0.00    -0.293 C  
HETATM    4  O   UNL     1     -12.531  13.120  71.171  1.00  0.00    -0.361 OA 
BRANCH   3   5
HETATM    5  C   UNL     1     -12.011  12.122  69.063  1.00  0.00    -0.302 C  
HETATM    6  C   UNL     1     -11.805  13.278  68.422  1.00  0.00    -0.395 C  
BRANCH   6   7
HETATM    7  C   UNL     1     -11.808  13.318  66.951  1.00  0.00    -0.392 C  
HETATM    8  O   UNL     1     -12.169  12.412  66.223  1.00  0.00    -0.620 OA 
BRANCH   7   9
HETATM    9  O   UNL     1     -11.506  14.587  66.590  1.00  0.00    -0.347 OA 
BRANCH   9  10
HETATM   10  C   UNL     1     -10.769  15.334  67.572  1.00  0.00    -0.285 C  
BRANCH  10  11
HETATM   11  C   UNL     1      -9.696  16.092  66.798  1.00  0.00    -0.239 C  
BRANCH  11  12
HETATM   12  N   UNL     1      -9.747  17.526  66.947  1.00  0.00    -0.279 N  
HETATM   13  C   UNL     1      -9.089  18.212  67.924  1.00  0.00    -0.265 C  
HETATM   14  O   UNL     1      -8.270  17.762  68.707  1.00  0.00    -0.289 OA 
HETATM   15  C   UNL     1      -9.582  19.628  67.911  1.00  0.00    -0.459 C  
HETATM   16  C   UNL     1     -10.276  19.759  66.567  1.00  0.00    -0.606 C  
HETATM   17  C   UNL     1     -10.429  18.345  66.098  1.00  0.00    -0.395 C  
HETATM   18  O   UNL     1     -11.028  18.007  65.088  1.00  0.00    -0.645 OA 
ENDBRANCH  11  12
ENDBRANCH  10  11
ENDBRANCH   9  10
ENDBRANCH   7   9
ENDBRANCH   6   7
ENDBRANCH   3   5
ENDBRANCH   2   3
TORSDOF 7
ENDMDL
MODEL       55
REMARK 921   NORMALIZED FREE ENERGY PREDICTED BY IDOCK:   -4.83 KCAL/MOL
REMARK 922        TOTAL FREE ENERGY PREDICTED BY IDOCK:   -7.25 KCAL/MOL
REMARK 923 INTER-LIGAND FREE ENERGY PREDICTED BY IDOCK:   -6.86 KCAL/MOL
REMARK 924 INTRA-LIGAND FREE ENERGY PREDICTED BY IDOCK:   -0.39 KCAL/MOL
REMARK 927      BINDING AFFINITY PREDICTED BY RF-SCORE:    0.00 PKD
ROOT
HETATM    1  C   UNL     1     -12.261  15.080  64.256  1.00  0.00    -0.293 C  
HETATM    2  O   UNL     1     -12.650  13.917  63.526  1.00  0.00    -0.842 OA 
ENDROOT
BRANCH   2   3
HETATM    3  C   UNL     1     -12.368  12.757  64.164  1.00  0.00    -0.407 C  
HETATM    4  O   UNL     1     -12.078  11.690  63.647  1.00  0.00    -0.409 OA 
BRANCH   3   5
HETATM    5  C   UNL     1     -12.490  12.985  65.613  1.00  0.00    -0.452 C  
HETATM    6  C   UNL     1     -11.606  12.391  66.423  1.00  0.00    -0.442 C  
BRANCH   6   7
HETATM    7  C   UNL     1     -11.775  12.465  67.882  1.00  0.00    -0.360 C  
HETATM    8  O   UNL     1     -11.767  13.488  68.541  1.00  0.00    -0.314 OA 
BRANCH   7   9
HETATM    9  O   UNL     1     -12.109  11.222  68.304  1.00  0.00    -0.619 OA 
BRANCH   9  10
HETATM   10  C   UNL     1     -11.017  10.290  68.358  1.00  0.00    -0.260 C  
BRANCH  10  11
HETATM   11  C   UNL     1     -10.690  10.119  69.837  1.00  0.00    -0.295 C  
BRANCH  11  12
HETATM   12  N   UNL     1     -11.329   8.990  70.467  1.00  0.00    -0.259 N  
HETATM   13  C   UNL     1     -10.911   7.700  70.321  1.00  0.00    -0.246 C  
HETATM   14  O   UNL     1      -9.887   7.322  69.776  1.00  0.00    -0.175 OA 
HETATM   15  C   UNL     1     -11.958   6.801  70.907  1.00  0.00    -0.437 C  
HETATM   16  C   UNL     1     -12.804   7.733  71.755  1.00  0.00    -0.352 C  
HETATM   17  C   UNL     1     -12.396   9.103  71.308  1.00  0.00    -0.315 C  
HETATM   18  O   UNL     1     -12.914  10.143  71.686  1.00  0.00    -0.385 OA 
ENDBRANCH  11  12
ENDBRANCH  10  11
ENDBRANCH   9  10
ENDBRANCH   7   9
ENDBRANCH   6   7
ENDBRANCH   3   5
ENDBRANCH   2   3
TORSDOF 7
ENDMDL
MODEL       56
REMARK 921   NORMALIZED FREE ENERGY PREDICTED BY IDOCK:   -4.82 KCAL/MOL
REMARK 922        TOTAL FREE ENERGY PREDICTED BY IDOCK:   -7.23 KCAL/MOL
REMARK 923 INTER-LIGAND FREE ENERGY PREDICTED BY IDOCK:   -6.64 KCAL/MOL
REMARK 924 INTRA-LIGAND FREE ENERGY PREDICTED BY IDOCK:   -0.59 KCAL/MOL
REMARK 927      BINDING AFFINITY PREDICTED BY RF-SCORE:    0.00 PKD
ROOT
HETATM    1  C   UNL     1     -12.153   8.801  72.072  1.00  0.00    -0.377 C  
HETATM    2  O   UNL     1     -11.720   9.584  70.960  1.00  0.00    -0.295 OA 
ENDROOT
BRANCH   2   3
HETATM    3  C   UNL     1     -12.353  10.776  70.858  1.00  0.00    -0.396 C  
HETATM    4  O   UNL     1     -13.025  11.323  71.718  1.00  0.00    -0.453 OA 
BRANCH   3   5
HETATM    5  C   UNL     1     -12.117  11.311  69.508  1.00  0.00    -0.386 C  
HETATM    6  C   UNL     1     -11.352  10.602  68.671  1.00  0.00    -0.345 C  
BRANCH   6   7
HETATM    7  C   UNL     1     -10.963  11.164  67.368  1.00  0.00    -0.290 C  
HETATM    8  O   UNL     1      -9.960  10.867  66.745  1.00  0.00    -0.193 OA 
BRANCH   7   9
HETATM    9  O   UNL     1     -12.001  11.918  66.938  1.00  0.00    -0.614 OA 
BRANCH   9  10
HETATM   10  C   UNL     1     -11.757  12.643  65.722  1.00  0.00    -0.419 C  
BRANCH  10  11
HETATM   11  C   UNL     1     -12.430  13.999  65.905  1.00  0.00    -0.481 C  
BRANCH  11  12
HETATM   12  N   UNL     1     -11.522  15.094  66.140  1.00  0.00    -0.229 N  
HETATM   13  C   UNL     1     -11.147  15.990  65.182  1.00  0.00    -0.283 C  
HETATM   14  O   UNL     1     -11.610  16.094  64.059  1.00  0.00    -0.790 OA 
HETATM   15  C   UNL     1     -10.017  16.810  65.728  1.00  0.00    -0.242 C  
HETATM   16  C   UNL     1     -10.073  16.557  67.224  1.00  0.00    -0.273 C  
HETATM   17  C   UNL     1     -10.976  15.369  67.358  1.00  0.00    -0.312 C  
HETATM   18  O   UNL     1     -11.210  14.787  68.406  1.00  0.00    -0.260 OA 
ENDBRANCH  11  12
ENDBRANCH  10  11
ENDBRANCH   9  10
ENDBRANCH   7   9
ENDBRANCH   6   7
ENDBRANCH   3   5
ENDBRANCH   2   3
TORSDOF 7
ENDMDL
MODEL       57
REMARK 921   NORMALIZED FREE ENERGY PREDICTED BY IDOCK:   -4.81 KCAL/MOL
REMARK 922        TOTAL FREE ENERGY PREDICTED BY IDOCK:   -7.22 KCAL/MOL
REMARK 923 INTER-LIGAND FREE ENERGY PREDICTED BY IDOCK:   -6.86 KCAL/MOL
REMARK 924 INTRA-LIGAND FREE ENERGY PREDICTED BY IDOCK:   -0.36 KCAL/MOL
REMARK 927      BINDING AFFINITY PREDICTED BY RF-SCORE:    0.00 PKD
ROOT
HETATM    1  C   UNL     1      -5.541  20.161  70.998  1.00  0.00    -0.307 C  
HETATM    2  O   UNL     1      -6.416  20.451  69.908  1.00  0.00    -0.293 OA 
ENDROOT
BRANCH   2   3
HETATM    3  C   UNL     1      -6.575  19.415  69.051  1.00  0.00    -0.312 C  
HETATM    4  O   UNL     1      -5.862  18.429  68.957  1.00  0.00    -0.203 OA 
BRANCH   3   5
HETATM    5  C   UNL     1      -7.758  19.681  68.218  1.00  0.00    -0.356 C  
HETATM    6  C   UNL     1      -8.892  19.032  68.504  1.00  0.00    -0.398 C  
BRANCH   6   7
HETATM    7  C   UNL     1     -10.056  19.148  67.612  1.00  0.00    -0.377 C  
HETATM    8  O   UNL     1     -10.299  20.099  66.892  1.00  0.00    -0.439 OA 
BRANCH   7   9
HETATM    9  O   UNL     1     -10.682  17.948  67.622  1.00  0.00    -0.399 OA 
BRANCH   9  10
HETATM   10  C   UNL     1      -9.806  16.810  67.616  1.00  0.00    -0.261 C  
BRANCH  10  11
HETATM   11  C   UNL     1      -9.520  16.512  66.148  1.00  0.00    -0.315 C  
BRANCH  11  12
HETATM   12  N   UNL     1     -10.330  15.463  65.579  1.00  0.00    -0.356 N  
HETATM   13  C   UNL     1     -11.342  15.681  64.692  1.00  0.00    -0.349 C  
HETATM   14  O   UNL     1     -11.622  16.735  64.148  1.00  0.00    -1.106 OA 
HETATM   15  C   UNL     1     -12.102  14.399  64.529  1.00  0.00    -0.498 C  
HETATM   16  C   UNL     1     -11.167  13.347  65.097  1.00  0.00    -0.321 C  
HETATM   17  C   UNL     1     -10.137  14.140  65.841  1.00  0.00    -0.321 C  
HETATM   18  O   UNL     1      -9.246  13.658  66.525  1.00  0.00    -0.248 OA 
ENDBRANCH  11  12
ENDBRANCH  10  11
ENDBRANCH   9  10
ENDBRANCH   7   9
ENDBRANCH   6   7
ENDBRANCH   3   5
ENDBRANCH   2   3
TORSDOF 7
ENDMDL
MODEL       58
REMARK 921   NORMALIZED FREE ENERGY PREDICTED BY IDOCK:   -4.80 KCAL/MOL
REMARK 922        TOTAL FREE ENERGY PREDICTED BY IDOCK:   -7.20 KCAL/MOL
REMARK 923 INTER-LIGAND FREE ENERGY PREDICTED BY IDOCK:   -6.79 KCAL/MOL
REMARK 924 INTRA-LIGAND FREE ENERGY PREDICTED BY IDOCK:   -0.42 KCAL/MOL
REMARK 927      BINDING AFFINITY PREDICTED BY RF-SCORE:    0.00 PKD
ROOT
HETATM    1  C   UNL     1     -11.826   6.728  71.907  1.00  0.00    -0.326 C  
HETATM    2  O   UNL     1     -11.846   7.870  72.765  1.00  0.00    -0.340 OA 
ENDROOT
BRANCH   2   3
HETATM    3  C   UNL     1     -12.297   8.993  72.160  1.00  0.00    -0.372 C  
HETATM    4  O   UNL     1     -13.410   9.483  72.264  1.00  0.00    -0.438 OA 
BRANCH   3   5
HETATM    5  C   UNL     1     -11.216   9.533  71.320  1.00  0.00    -0.452 C  
HETATM    6  C   UNL     1     -11.546  10.117  70.163  1.00  0.00    -0.350 C  
BRANCH   6   7
HETATM    7  C   UNL     1     -10.496  10.535  69.220  1.00  0.00    -0.235 C  
HETATM    8  O   UNL     1      -9.298  10.444  69.415  1.00  0.00    -0.205 OA 
BRANCH   7   9
HETATM    9  O   UNL     1     -11.114  10.865  68.062  1.00  0.00    -0.247 OA 
BRANCH   9  10
HETATM   10  C   UNL     1     -11.832  12.108  68.094  1.00  0.00    -0.299 C  
BRANCH  10  11
HETATM   11  C   UNL     1     -11.119  13.025  67.106  1.00  0.00    -0.273 C  
BRANCH  11  12
HETATM   12  N   UNL     1     -11.297  12.669  65.720  1.00  0.00    -0.318 N  
HETATM   13  C   UNL     1     -12.365  13.057  64.966  1.00  0.00    -0.473 C  
HETATM   14  O   UNL     1     -13.232  13.854  65.283  1.00  0.00    -0.774 OA 
HETATM   15  C   UNL     1     -12.327  12.294  63.676  1.00  0.00    -0.664 C  
HETATM   16  C   UNL     1     -10.912  11.747  63.618  1.00  0.00    -0.513 C  
HETATM   17  C   UNL     1     -10.391  11.938  65.010  1.00  0.00    -0.289 C  
HETATM   18  O   UNL     1      -9.307  11.541  65.409  1.00  0.00    -0.217 OA 
ENDBRANCH  11  12
ENDBRANCH  10  11
ENDBRANCH   9  10
ENDBRANCH   7   9
ENDBRANCH   6   7
ENDBRANCH   3   5
ENDBRANCH   2   3
TORSDOF 7
ENDMDL
MODEL       59
REMARK 921   NORMALIZED FREE ENERGY PREDICTED BY IDOCK:   -4.79 KCAL/MOL
REMARK 922        TOTAL FREE ENERGY PREDICTED BY IDOCK:   -7.19 KCAL/MOL
REMARK 923 INTER-LIGAND FREE ENERGY PREDICTED BY IDOCK:   -6.64 KCAL/MOL
REMARK 924 INTRA-LIGAND FREE ENERGY PREDICTED BY IDOCK:   -0.56 KCAL/MOL
REMARK 927      BINDING AFFINITY PREDICTED BY RF-SCORE:    0.00 PKD
ROOT
HETATM    1  C   UNL     1     -11.767  14.915  64.661  1.00  0.00    -0.404 C  
HETATM    2  O   UNL     1     -12.869  14.062  64.972  1.00  0.00    -0.695 OA 
ENDROOT
BRANCH   2   3
HETATM    3  C   UNL     1     -12.625  12.753  64.731  1.00  0.00    -0.446 C  
HETATM    4  O   UNL     1     -13.043  12.092  63.793  1.00  0.00    -0.774 OA 
BRANCH   3   5
HETATM    5  C   UNL     1     -11.775  12.233  65.814  1.00  0.00    -0.445 C  
HETATM    6  C   UNL     1     -10.767  11.416  65.489  1.00  0.00    -0.313 C  
BRANCH   6   7
HETATM    7  C   UNL     1      -9.985  10.752  66.544  1.00  0.00    -0.213 C  
HETATM    8  O   UNL     1      -8.797  10.498  66.485  1.00  0.00    -0.140 OA 
BRANCH   7   9
HETATM    9  O   UNL     1     -10.792  10.647  67.626  1.00  0.00    -0.248 OA 
BRANCH   9  10
HETATM   10  C   UNL     1     -10.581   9.472  68.425  1.00  0.00    -0.219 C  
BRANCH  10  11
HETATM   11  C   UNL     1     -10.330   9.972  69.843  1.00  0.00    -0.272 C  
BRANCH  11  12
HETATM   12  N   UNL     1     -11.516  10.103  70.653  1.00  0.00    -0.326 N  
HETATM   13  C   UNL     1     -12.074   9.076  71.354  1.00  0.00    -0.327 C  
HETATM   14  O   UNL     1     -11.602   7.964  71.522  1.00  0.00    -0.257 OA 
HETATM   15  C   UNL     1     -13.413   9.527  71.856  1.00  0.00    -0.502 C  
HETATM   16  C   UNL     1     -13.366  11.038  71.711  1.00  0.00    -0.400 C  
HETATM   17  C   UNL     1     -12.178  11.281  70.831  1.00  0.00    -0.356 C  
HETATM   18  O   UNL     1     -11.846  12.373  70.396  1.00  0.00    -0.299 OA 
ENDBRANCH  11  12
ENDBRANCH  10  11
ENDBRANCH   9  10
ENDBRANCH   7   9
ENDBRANCH   6   7
ENDBRANCH   3   5
ENDBRANCH   2   3
TORSDOF 7
ENDMDL
MODEL       60
REMARK 921   NORMALIZED FREE ENERGY PREDICTED BY IDOCK:   -4.79 KCAL/MOL
REMARK 922        TOTAL FREE ENERGY PREDICTED BY IDOCK:   -7.19 KCAL/MOL
REMARK 923 INTER-LIGAND FREE ENERGY PREDICTED BY IDOCK:   -6.68 KCAL/MOL
REMARK 924 INTRA-LIGAND FREE ENERGY PREDICTED BY IDOCK:   -0.51 KCAL/MOL
REMARK 927      BINDING AFFINITY PREDICTED BY RF-SCORE:    0.00 PKD
ROOT
HETATM    1  C   UNL     1     -13.067  12.945  71.608  1.00  0.00    -0.335 C  
HETATM    2  O   UNL     1     -12.216  14.038  71.263  1.00  0.00    -0.350 OA 
ENDROOT
BRANCH   2   3
HETATM    3  C   UNL     1     -12.888  15.140  70.857  1.00  0.00    -0.419 C  
HETATM    4  O   UNL     1     -14.050  15.421  71.107  1.00  0.00    -0.489 OA 
BRANCH   3   5
HETATM    5  C   UNL     1     -11.984  15.955  70.030  1.00  0.00    -0.297 C  
HETATM    6  C   UNL     1     -10.856  15.393  69.584  1.00  0.00    -0.288 C  
BRANCH   6   7
HETATM    7  C   UNL     1      -9.851  16.208  68.883  1.00  0.00    -0.239 C  
HETATM    8  O   UNL     1      -8.687  16.329  69.217  1.00  0.00    -0.236 OA 
BRANCH   7   9
HETATM    9  O   UNL     1     -10.422  16.634  67.732  1.00  0.00    -0.296 OA 
BRANCH   9  10
HETATM   10  C   UNL     1      -9.493  17.009  66.702  1.00  0.00    -0.263 C  
BRANCH  10  11
HETATM   11  C   UNL     1      -9.201  15.733  65.922  1.00  0.00    -0.302 C  
BRANCH  11  12
HETATM   12  N   UNL     1     -10.372  15.014  65.483  1.00  0.00    -0.343 N  
HETATM   13  C   UNL     1     -10.711  13.771  65.928  1.00  0.00    -0.285 C  
HETATM   14  O   UNL     1     -10.184  13.151  66.836  1.00  0.00    -0.240 OA 
HETATM   15  C   UNL     1     -11.828  13.258  65.070  1.00  0.00    -0.384 C  
HETATM   16  C   UNL     1     -12.348  14.500  64.369  1.00  0.00    -0.437 C  
HETATM   17  C   UNL     1     -11.282  15.525  64.607  1.00  0.00    -0.371 C  
HETATM   18  O   UNL     1     -11.274  16.647  64.124  1.00  0.00    -1.103 OA 
ENDBRANCH  11  12
ENDBRANCH  10  11
ENDBRANCH   9  10
ENDBRANCH   7   9
ENDBRANCH   6   7
ENDBRANCH   3   5
ENDBRANCH   2   3
TORSDOF 7
ENDMDL
MODEL       61
REMARK 921   NORMALIZED FREE ENERGY PREDICTED BY IDOCK:   -4.77 KCAL/MOL
REMARK 922        TOTAL FREE ENERGY PREDICTED BY IDOCK:   -7.17 KCAL/MOL
REMARK 923 INTER-LIGAND FREE ENERGY PREDICTED BY IDOCK:   -6.71 KCAL/MOL
REMARK 924 INTRA-LIGAND FREE ENERGY PREDICTED BY IDOCK:   -0.45 KCAL/MOL
REMARK 927      BINDING AFFINITY PREDICTED BY RF-SCORE:    0.00 PKD
ROOT
HETATM    1  C   UNL     1     -10.400  17.855  66.025  1.00  0.00    -0.318 C  
HETATM    2  O   UNL     1     -10.358  16.452  65.765  1.00  0.00    -0.355 OA 
ENDROOT
BRANCH   2   3
HETATM    3  C   UNL     1     -11.240  16.049  64.821  1.00  0.00    -0.339 C  
HETATM    4  O   UNL     1     -11.617  16.690  63.853  1.00  0.00    -1.204 OA 
BRANCH   3   5
HETATM    5  C   UNL     1     -11.699  14.695  65.164  1.00  0.00    -0.364 C  
HETATM    6  C   UNL     1     -11.930  13.834  64.167  1.00  0.00    -0.473 C  
BRANCH   6   7
HETATM    7  C   UNL     1     -12.534  12.521  64.449  1.00  0.00    -0.446 C  
HETATM    8  O   UNL     1     -13.197  11.869  63.664  1.00  0.00    -0.675 OA 
BRANCH   7   9
HETATM    9  O   UNL     1     -12.066  12.123  65.655  1.00  0.00    -0.545 OA 
BRANCH   9  10
HETATM   10  C   UNL     1     -10.872  11.326  65.604  1.00  0.00    -0.177 C  
BRANCH  10  11
HETATM   11  C   UNL     1     -10.116  11.628  66.894  1.00  0.00    -0.211 C  
BRANCH  11  12
HETATM   12  N   UNL     1     -10.163  10.575  67.878  1.00  0.00    -0.175 N  
HETATM   13  C   UNL     1     -11.141  10.459  68.822  1.00  0.00    -0.250 C  
HETATM   14  O   UNL     1     -12.168  11.111  68.893  1.00  0.00    -0.522 OA 
HETATM   15  C   UNL     1     -10.717   9.410  69.806  1.00  0.00    -0.250 C  
HETATM   16  C   UNL     1      -9.601   8.670  69.091  1.00  0.00    -0.163 C  
HETATM   17  C   UNL     1      -9.252   9.563  67.939  1.00  0.00    -0.125 C  
HETATM   18  O   UNL     1      -8.328   9.370  67.163  1.00  0.00    -0.122 OA 
ENDBRANCH  11  12
ENDBRANCH  10  11
ENDBRANCH   9  10
ENDBRANCH   7   9
ENDBRANCH   6   7
ENDBRANCH   3   5
ENDBRANCH   2   3
TORSDOF 7
ENDMDL
MODEL       62
REMARK 921   NORMALIZED FREE ENERGY PREDICTED BY IDOCK:   -4.77 KCAL/MOL
REMARK 922        TOTAL FREE ENERGY PREDICTED BY IDOCK:   -7.16 KCAL/MOL
REMARK 923 INTER-LIGAND FREE ENERGY PREDICTED BY IDOCK:   -6.59 KCAL/MOL
REMARK 924 INTRA-LIGAND FREE ENERGY PREDICTED BY IDOCK:   -0.57 KCAL/MOL
REMARK 927      BINDING AFFINITY PREDICTED BY RF-SCORE:    0.00 PKD
ROOT
HETATM    1  C   UNL     1     -10.958   9.330  70.644  1.00  0.00    -0.276 C  
HETATM    2  O   UNL     1     -11.612   9.417  71.909  1.00  0.00    -0.378 OA 
ENDROOT
BRANCH   2   3
HETATM    3  C   UNL     1     -12.889   9.860  71.830  1.00  0.00    -0.442 C  
HETATM    4  O   UNL     1     -13.898   9.239  72.126  1.00  0.00    -0.427 OA 
BRANCH   3   5
HETATM    5  C   UNL     1     -12.871  11.232  71.298  1.00  0.00    -0.491 C  
HETATM    6  C   UNL     1     -13.164  12.237  72.131  1.00  0.00    -0.466 C  
BRANCH   6   7
HETATM    7  C   UNL     1     -13.307  13.607  71.615  1.00  0.00    -0.346 C  
HETATM    8  O   UNL     1     -13.605  14.582  72.280  1.00  0.00    -0.366 OA 
BRANCH   7   9
HETATM    9  O   UNL     1     -12.880  13.591  70.330  1.00  0.00    -0.152 OA 
BRANCH   9  10
HETATM   10  C   UNL     1     -11.919  14.607  70.002  1.00  0.00    -0.320 C  
BRANCH  10  11
HETATM   11  C   UNL     1     -10.905  13.937  69.081  1.00  0.00    -0.189 C  
BRANCH  11  12
HETATM   12  N   UNL     1     -11.346  13.773  67.718  1.00  0.00    -0.288 N  
HETATM   13  C   UNL     1     -11.858  12.612  67.219  1.00  0.00    -0.328 C  
HETATM   14  O   UNL     1     -12.150  11.612  67.852  1.00  0.00    -0.613 OA 
HETATM   15  C   UNL     1     -11.962  12.750  65.730  1.00  0.00    -0.502 C  
HETATM   16  C   UNL     1     -11.840  14.245  65.494  1.00  0.00    -0.363 C  
HETATM   17  C   UNL     1     -11.333  14.779  66.798  1.00  0.00    -0.346 C  
HETATM   18  O   UNL     1     -11.012  15.941  66.998  1.00  0.00    -0.291 OA 
ENDBRANCH  11  12
ENDBRANCH  10  11
ENDBRANCH   9  10
ENDBRANCH   7   9
ENDBRANCH   6   7
ENDBRANCH   3   5
ENDBRANCH   2   3
TORSDOF 7
ENDMDL
MODEL       63
REMARK 921   NORMALIZED FREE ENERGY PREDICTED BY IDOCK:   -4.76 KCAL/MOL
REMARK 922        TOTAL FREE ENERGY PREDICTED BY IDOCK:   -7.14 KCAL/MOL
REMARK 923 INTER-LIGAND FREE ENERGY PREDICTED BY IDOCK:   -6.45 KCAL/MOL
REMARK 924 INTRA-LIGAND FREE ENERGY PREDICTED BY IDOCK:   -0.69 KCAL/MOL
REMARK 927      BINDING AFFINITY PREDICTED BY RF-SCORE:    0.00 PKD
ROOT
HETATM    1  C   UNL     1      -7.724  10.156  65.268  1.00  0.00    -0.144 C  
HETATM    2  O   UNL     1      -8.882   9.813  64.507  1.00  0.00    -0.185 OA 
ENDROOT
BRANCH   2   3
HETATM    3  C   UNL     1      -9.071  10.603  63.423  1.00  0.00    -0.241 C  
HETATM    4  O   UNL     1      -8.255  10.852  62.550  1.00  0.00    -0.198 OA 
BRANCH   3   5
HETATM    5  C   UNL     1     -10.438  11.143  63.476  1.00  0.00    -0.422 C  
HETATM    6  C   UNL     1     -10.603  12.408  63.876  1.00  0.00    -0.470 C  
BRANCH   6   7
HETATM    7  C   UNL     1     -11.956  12.946  64.090  1.00  0.00    -0.423 C  
HETATM    8  O   UNL     1     -12.579  13.622  63.293  1.00  0.00    -0.816 OA 
BRANCH   7   9
HETATM    9  O   UNL     1     -12.418  12.403  65.241  1.00  0.00    -0.611 OA 
BRANCH   9  10
HETATM   10  C   UNL     1     -11.686  12.776  66.420  1.00  0.00    -0.403 C  
BRANCH  10  11
HETATM   11  C   UNL     1     -12.173  14.173  66.787  1.00  0.00    -0.394 C  
BRANCH  11  12
HETATM   12  N   UNL     1     -11.125  15.107  67.119  1.00  0.00    -0.335 N  
HETATM   13  C   UNL     1     -10.518  15.923  66.211  1.00  0.00    -0.318 C  
HETATM   14  O   UNL     1     -10.846  16.094  65.050  1.00  0.00    -0.516 OA 
HETATM   15  C   UNL     1      -9.328  16.551  66.872  1.00  0.00    -0.248 C  
HETATM   16  C   UNL     1      -9.570  16.321  68.353  1.00  0.00    -0.216 C  
HETATM   17  C   UNL     1     -10.663  15.297  68.388  1.00  0.00    -0.250 C  
HETATM   18  O   UNL     1     -11.091  14.768  69.403  1.00  0.00    -0.261 OA 
ENDBRANCH  11  12
ENDBRANCH  10  11
ENDBRANCH   9  10
ENDBRANCH   7   9
ENDBRANCH   6   7
ENDBRANCH   3   5
ENDBRANCH   2   3
TORSDOF 7
ENDMDL
MODEL       64
REMARK 921   NORMALIZED FREE ENERGY PREDICTED BY IDOCK:   -4.75 KCAL/MOL
REMARK 922        TOTAL FREE ENERGY PREDICTED BY IDOCK:   -7.13 KCAL/MOL
REMARK 923 INTER-LIGAND FREE ENERGY PREDICTED BY IDOCK:   -6.75 KCAL/MOL
REMARK 924 INTRA-LIGAND FREE ENERGY PREDICTED BY IDOCK:   -0.38 KCAL/MOL
REMARK 927      BINDING AFFINITY PREDICTED BY RF-SCORE:    0.00 PKD
ROOT
HETATM    1  C   UNL     1     -12.193   8.071  72.196  1.00  0.00    -0.331 C  
HETATM    2  O   UNL     1     -11.428   8.980  71.406  1.00  0.00    -0.279 OA 
ENDROOT
BRANCH   2   3
HETATM    3  C   UNL     1     -12.035  10.176  71.217  1.00  0.00    -0.382 C  
HETATM    4  O   UNL     1     -12.898  10.676  71.920  1.00  0.00    -0.445 OA 
BRANCH   3   5
HETATM    5  C   UNL     1     -11.494  10.781  69.990  1.00  0.00    -0.412 C  
HETATM    6  C   UNL     1     -12.143  11.823  69.459  1.00  0.00    -0.314 C  
BRANCH   6   7
HETATM    7  C   UNL     1     -11.729  12.365  68.155  1.00  0.00    -0.353 C  
HETATM    8  O   UNL     1     -11.972  11.861  67.075  1.00  0.00    -0.615 OA 
BRANCH   7   9
HETATM    9  O   UNL     1     -11.199  13.589  68.387  1.00  0.00    -0.249 OA 
BRANCH   9  10
HETATM   10  C   UNL     1     -11.630  14.615  67.480  1.00  0.00    -0.375 C  
BRANCH  10  11
HETATM   11  C   UNL     1     -10.358  15.196  66.874  1.00  0.00    -0.272 C  
BRANCH  11  12
HETATM   12  N   UNL     1     -10.219  16.624  67.021  1.00  0.00    -0.285 N  
HETATM   13  C   UNL     1      -9.777  17.231  68.159  1.00  0.00    -0.284 C  
HETATM   14  O   UNL     1      -9.309  16.685  69.143  1.00  0.00    -0.250 OA 
HETATM   15  C   UNL     1     -10.009  18.706  68.021  1.00  0.00    -0.389 C  
HETATM   16  C   UNL     1     -10.246  18.899  66.534  1.00  0.00    -0.470 C  
HETATM   17  C   UNL     1     -10.479  17.512  66.020  1.00  0.00    -0.274 C  
HETATM   18  O   UNL     1     -10.801  17.238  64.873  1.00  0.00    -0.773 OA 
ENDBRANCH  11  12
ENDBRANCH  10  11
ENDBRANCH   9  10
ENDBRANCH   7   9
ENDBRANCH   6   7
ENDBRANCH   3   5
ENDBRANCH   2   3
TORSDOF 7
ENDMDL
MODEL       65
REMARK 921   NORMALIZED FREE ENERGY PREDICTED BY IDOCK:   -4.73 KCAL/MOL
REMARK 922        TOTAL FREE ENERGY PREDICTED BY IDOCK:   -7.10 KCAL/MOL
REMARK 923 INTER-LIGAND FREE ENERGY PREDICTED BY IDOCK:   -6.36 KCAL/MOL
REMARK 924 INTRA-LIGAND FREE ENERGY PREDICTED BY IDOCK:   -0.75 KCAL/MOL
REMARK 927      BINDING AFFINITY PREDICTED BY RF-SCORE:    0.00 PKD
ROOT
HETATM    1  C   UNL     1      -7.265  15.454  68.403  1.00  0.00    -0.114 C  
HETATM    2  O   UNL     1      -8.443  16.255  68.302  1.00  0.00    -0.176 OA 
ENDROOT
BRANCH   2   3
HETATM    3  C   UNL     1      -8.442  17.086  67.234  1.00  0.00    -0.194 C  
HETATM    4  O   UNL     1      -8.011  18.228  67.197  1.00  0.00    -0.215 OA 
BRANCH   3   5
HETATM    5  C   UNL     1      -9.077  16.389  66.104  1.00  0.00    -0.362 C  
HETATM    6  C   UNL     1     -10.311  16.759  65.745  1.00  0.00    -0.322 C  
BRANCH   6   7
HETATM    7  C   UNL     1     -11.045  15.995  64.725  1.00  0.00    -0.365 C  
HETATM    8  O   UNL     1     -11.724  16.477  63.837  1.00  0.00    -1.148 OA 
BRANCH   7   9
HETATM    9  O   UNL     1     -10.678  14.699  64.863  1.00  0.00    -0.402 OA 
BRANCH   9  10
HETATM   10  C   UNL     1     -11.745  13.751  64.706  1.00  0.00    -0.381 C  
BRANCH  10  11
HETATM   11  C   UNL     1     -12.625  13.906  65.941  1.00  0.00    -0.456 C  
BRANCH  11  12
HETATM   12  N   UNL     1     -11.989  13.541  67.183  1.00  0.00    -0.389 N  
HETATM   13  C   UNL     1     -11.692  14.428  68.175  1.00  0.00    -0.342 C  
HETATM   14  O   UNL     1     -12.033  15.598  68.234  1.00  0.00    -0.246 OA 
HETATM   15  C   UNL     1     -10.821  13.733  69.177  1.00  0.00    -0.205 C  
HETATM   16  C   UNL     1     -11.000  12.260  68.854  1.00  0.00    -0.265 C  
HETATM   17  C   UNL     1     -11.655  12.260  67.507  1.00  0.00    -0.353 C  
HETATM   18  O   UNL     1     -11.888  11.260  66.846  1.00  0.00    -0.423 OA 
ENDBRANCH  11  12
ENDBRANCH  10  11
ENDBRANCH   9  10
ENDBRANCH   7   9
ENDBRANCH   6   7
ENDBRANCH   3   5
ENDBRANCH   2   3
TORSDOF 7
ENDMDL
MODEL       66
REMARK 921   NORMALIZED FREE ENERGY PREDICTED BY IDOCK:   -4.73 KCAL/MOL
REMARK 922        TOTAL FREE ENERGY PREDICTED BY IDOCK:   -7.10 KCAL/MOL
REMARK 923 INTER-LIGAND FREE ENERGY PREDICTED BY IDOCK:   -6.55 KCAL/MOL
REMARK 924 INTRA-LIGAND FREE ENERGY PREDICTED BY IDOCK:   -0.55 KCAL/MOL
REMARK 927      BINDING AFFINITY PREDICTED BY RF-SCORE:    0.00 PKD
ROOT
HETATM    1  C   UNL     1     -11.678   7.020  71.129  1.00  0.00    -0.325 C  
HETATM    2  O   UNL     1     -11.836   7.877  72.259  1.00  0.00    -0.319 OA 
ENDROOT
BRANCH   2   3
HETATM    3  C   UNL     1     -12.394   9.074  71.957  1.00  0.00    -0.384 C  
HETATM    4  O   UNL     1     -13.466   9.501  72.355  1.00  0.00    -0.453 OA 
BRANCH   3   5
HETATM    5  C   UNL     1     -11.494   9.784  71.035  1.00  0.00    -0.458 C  
HETATM    6  C   UNL     1     -12.031  10.655  70.174  1.00  0.00    -0.417 C  
BRANCH   6   7
HETATM    7  C   UNL     1     -11.196  11.276  69.134  1.00  0.00    -0.273 C  
HETATM    8  O   UNL     1     -10.161  10.812  68.693  1.00  0.00    -0.168 OA 
BRANCH   7   9
HETATM    9  O   UNL     1     -11.884  12.341  68.658  1.00  0.00    -0.310 OA 
BRANCH   9  10
HETATM   10  C   UNL     1     -11.399  13.618  69.100  1.00  0.00    -0.285 C  
BRANCH  10  11
HETATM   11  C   UNL     1     -12.616  14.361  69.641  1.00  0.00    -0.062 C  
BRANCH  11  12
HETATM   12  N   UNL     1     -12.525  14.731  71.032  1.00  0.00    -0.306 N  
HETATM   13  C   UNL     1     -13.095  14.020  72.046  1.00  0.00    -0.401 C  
HETATM   14  O   UNL     1     -13.627  12.926  71.962  1.00  0.00    -0.478 OA 
HETATM   15  C   UNL     1     -13.004  14.839  73.298  1.00  0.00    -0.608 C  
HETATM   16  C   UNL     1     -11.967  15.897  72.966  1.00  0.00    -0.596 C  
HETATM   17  C   UNL     1     -11.824  15.811  71.478  1.00  0.00    -0.446 C  
HETATM   18  O   UNL     1     -11.144  16.566  70.798  1.00  0.00    -0.260 OA 
ENDBRANCH  11  12
ENDBRANCH  10  11
ENDBRANCH   9  10
ENDBRANCH   7   9
ENDBRANCH   6   7
ENDBRANCH   3   5
ENDBRANCH   2   3
TORSDOF 7
ENDMDL
MODEL       67
REMARK 921   NORMALIZED FREE ENERGY PREDICTED BY IDOCK:   -4.72 KCAL/MOL
REMARK 922        TOTAL FREE ENERGY PREDICTED BY IDOCK:   -7.09 KCAL/MOL
REMARK 923 INTER-LIGAND FREE ENERGY PREDICTED BY IDOCK:   -6.51 KCAL/MOL
REMARK 924 INTRA-LIGAND FREE ENERGY PREDICTED BY IDOCK:   -0.58 KCAL/MOL
REMARK 927      BINDING AFFINITY PREDICTED BY RF-SCORE:    0.00 PKD
ROOT
HETATM    1  C   UNL     1     -13.781   8.857  71.783  1.00  0.00    -0.422 C  
HETATM    2  O   UNL     1     -12.619   9.530  71.299  1.00  0.00    -0.316 OA 
ENDROOT
BRANCH   2   3
HETATM    3  C   UNL     1     -12.742  10.878  71.281  1.00  0.00    -0.437 C  
HETATM    4  O   UNL     1     -13.340  11.568  72.091  1.00  0.00    -0.477 OA 
BRANCH   3   5
HETATM    5  C   UNL     1     -12.046  11.390  70.091  1.00  0.00    -0.439 C  
HETATM    6  C   UNL     1     -11.297  10.539  69.381  1.00  0.00    -0.331 C  
BRANCH   6   7
HETATM    7  C   UNL     1     -10.463  11.034  68.274  1.00  0.00    -0.186 C  
HETATM    8  O   UNL     1      -9.328  11.460  68.385  1.00  0.00    -0.183 OA 
BRANCH   7   9
HETATM    9  O   UNL     1     -11.127  10.761  67.127  1.00  0.00    -0.291 OA 
BRANCH   9  10
HETATM   10  C   UNL     1     -10.920  11.711  66.070  1.00  0.00    -0.286 C  
BRANCH  10  11
HETATM   11  C   UNL     1     -11.887  12.857  66.347  1.00  0.00    -0.415 C  
BRANCH  11  12
HETATM   12  N   UNL     1     -11.441  14.146  65.877  1.00  0.00    -0.331 N  
HETATM   13  C   UNL     1     -10.547  14.931  66.544  1.00  0.00    -0.306 C  
HETATM   14  O   UNL     1      -9.896  14.622  67.527  1.00  0.00    -0.217 OA 
HETATM   15  C   UNL     1     -10.529  16.279  65.887  1.00  0.00    -0.359 C  
HETATM   16  C   UNL     1     -11.197  16.038  64.545  1.00  0.00    -0.309 C  
HETATM   17  C   UNL     1     -11.841  14.694  64.695  1.00  0.00    -0.452 C  
HETATM   18  O   UNL     1     -12.563  14.170  63.860  1.00  0.00    -0.752 OA 
ENDBRANCH  11  12
ENDBRANCH  10  11
ENDBRANCH   9  10
ENDBRANCH   7   9
ENDBRANCH   6   7
ENDBRANCH   3   5
ENDBRANCH   2   3
TORSDOF 7
ENDMDL
MODEL       68
REMARK 921   NORMALIZED FREE ENERGY PREDICTED BY IDOCK:   -4.70 KCAL/MOL
REMARK 922        TOTAL FREE ENERGY PREDICTED BY IDOCK:   -7.06 KCAL/MOL
REMARK 923 INTER-LIGAND FREE ENERGY PREDICTED BY IDOCK:   -6.63 KCAL/MOL
REMARK 924 INTRA-LIGAND FREE ENERGY PREDICTED BY IDOCK:   -0.43 KCAL/MOL
REMARK 927      BINDING AFFINITY PREDICTED BY RF-SCORE:    0.00 PKD
ROOT
HETATM    1  C   UNL     1     -12.785   7.620  71.515  1.00  0.00    -0.345 C  
HETATM    2  O   UNL     1     -13.291   8.876  71.966  1.00  0.00    -0.361 OA 
ENDROOT
BRANCH   2   3
HETATM    3  C   UNL     1     -12.475   9.920  71.686  1.00  0.00    -0.415 C  
HETATM    4  O   UNL     1     -11.329   9.860  71.270  1.00  0.00    -0.368 OA 
BRANCH   3   5
HETATM    5  C   UNL     1     -13.197  11.166  71.989  1.00  0.00    -0.428 C  
HETATM    6  C   UNL     1     -12.835  12.279  71.343  1.00  0.00    -0.373 C  
BRANCH   6   7
HETATM    7  C   UNL     1     -13.421  13.576  71.719  1.00  0.00    -0.380 C  
HETATM    8  O   UNL     1     -13.709  13.916  72.852  1.00  0.00    -0.680 OA 
BRANCH   7   9
HETATM    9  O   UNL     1     -13.408  14.351  70.609  1.00  0.00    -0.274 OA 
BRANCH   9  10
HETATM   10  C   UNL     1     -12.664  15.573  70.736  1.00  0.00    -0.457 C  
BRANCH  10  11
HETATM   11  C   UNL     1     -11.264  15.262  70.216  1.00  0.00    -0.297 C  
BRANCH  11  12
HETATM   12  N   UNL     1     -11.041  15.625  68.838  1.00  0.00    -0.270 N  
HETATM   13  C   UNL     1     -11.324  14.809  67.782  1.00  0.00    -0.330 C  
HETATM   14  O   UNL     1     -11.920  13.746  67.820  1.00  0.00    -0.361 OA 
HETATM   15  C   UNL     1     -10.729  15.420  66.549  1.00  0.00    -0.308 C  
HETATM   16  C   UNL     1     -10.441  16.854  66.956  1.00  0.00    -0.281 C  
HETATM   17  C   UNL     1     -10.561  16.839  68.449  1.00  0.00    -0.354 C  
HETATM   18  O   UNL     1     -10.311  17.788  69.177  1.00  0.00    -0.350 OA 
ENDBRANCH  11  12
ENDBRANCH  10  11
ENDBRANCH   9  10
ENDBRANCH   7   9
ENDBRANCH   6   7
ENDBRANCH   3   5
ENDBRANCH   2   3
TORSDOF 7
ENDMDL
MODEL       69
REMARK 921   NORMALIZED FREE ENERGY PREDICTED BY IDOCK:   -4.70 KCAL/MOL
REMARK 922        TOTAL FREE ENERGY PREDICTED BY IDOCK:   -7.06 KCAL/MOL
REMARK 923 INTER-LIGAND FREE ENERGY PREDICTED BY IDOCK:   -6.68 KCAL/MOL
REMARK 924 INTRA-LIGAND FREE ENERGY PREDICTED BY IDOCK:   -0.38 KCAL/MOL
REMARK 927      BINDING AFFINITY PREDICTED BY RF-SCORE:    0.00 PKD
ROOT
HETATM    1  C   UNL     1     -10.285  11.331  63.304  1.00  0.00    -0.368 C  
HETATM    2  O   UNL     1     -10.808  12.659  63.331  1.00  0.00    -0.410 OA 
ENDROOT
BRANCH   2   3
HETATM    3  C   UNL     1     -12.076  12.733  63.800  1.00  0.00    -0.517 C  
HETATM    4  O   UNL     1     -13.056  12.161  63.349  1.00  0.00    -0.752 OA 
BRANCH   3   5
HETATM    5  C   UNL     1     -12.091  13.647  64.952  1.00  0.00    -0.426 C  
HETATM    6  C   UNL     1     -11.682  13.179  66.137  1.00  0.00    -0.428 C  
BRANCH   6   7
HETATM    7  C   UNL     1     -11.820  14.005  67.346  1.00  0.00    -0.409 C  
HETATM    8  O   UNL     1     -12.031  13.581  68.467  1.00  0.00    -0.351 OA 
BRANCH   7   9
HETATM    9  O   UNL     1     -11.498  15.273  66.997  1.00  0.00    -0.286 OA 
BRANCH   9  10
HETATM   10  C   UNL     1     -10.099  15.585  67.081  1.00  0.00    -0.254 C  
BRANCH  10  11
HETATM   11  C   UNL     1      -9.957  16.541  68.260  1.00  0.00    -0.250 C  
BRANCH  11  12
HETATM   12  N   UNL     1      -9.248  17.762  67.962  1.00  0.00    -0.266 N  
HETATM   13  C   UNL     1      -9.805  18.825  67.315  1.00  0.00    -0.317 C  
HETATM   14  O   UNL     1     -10.980  18.969  67.025  1.00  0.00    -0.399 OA 
HETATM   15  C   UNL     1      -8.707  19.785  66.967  1.00  0.00    -0.386 C  
HETATM   16  C   UNL     1      -7.548  19.345  67.842  1.00  0.00    -0.316 C  
HETATM   17  C   UNL     1      -7.957  17.991  68.334  1.00  0.00    -0.300 C  
HETATM   18  O   UNL     1      -7.252  17.249  69.001  1.00  0.00    -0.244 OA 
ENDBRANCH  11  12
ENDBRANCH  10  11
ENDBRANCH   9  10
ENDBRANCH   7   9
ENDBRANCH   6   7
ENDBRANCH   3   5
ENDBRANCH   2   3
TORSDOF 7
ENDMDL
MODEL       70
REMARK 921   NORMALIZED FREE ENERGY PREDICTED BY IDOCK:   -4.69 KCAL/MOL
REMARK 922        TOTAL FREE ENERGY PREDICTED BY IDOCK:   -7.05 KCAL/MOL
REMARK 923 INTER-LIGAND FREE ENERGY PREDICTED BY IDOCK:   -6.30 KCAL/MOL
REMARK 924 INTRA-LIGAND FREE ENERGY PREDICTED BY IDOCK:   -0.75 KCAL/MOL
REMARK 927      BINDING AFFINITY PREDICTED BY RF-SCORE:    0.00 PKD
ROOT
HETATM    1  C   UNL     1      -7.651  16.891  66.342  1.00  0.00    -0.304 C  
HETATM    2  O   UNL     1      -8.694  15.916  66.339  1.00  0.00    -0.275 OA 
ENDROOT
BRANCH   2   3
HETATM    3  C   UNL     1      -9.902  16.417  65.990  1.00  0.00    -0.335 C  
HETATM    4  O   UNL     1     -10.173  17.587  65.771  1.00  0.00    -0.561 OA 
BRANCH   3   5
HETATM    5  C   UNL     1     -10.865  15.306  65.934  1.00  0.00    -0.345 C  
HETATM    6  C   UNL     1     -11.499  15.076  64.778  1.00  0.00    -0.403 C  
BRANCH   6   7
HETATM    7  C   UNL     1     -12.577  14.077  64.713  1.00  0.00    -0.296 C  
HETATM    8  O   UNL     1     -13.524  14.013  65.476  1.00  0.00    -0.677 OA 
BRANCH   7   9
HETATM    9  O   UNL     1     -12.402  13.381  63.565  1.00  0.00    -0.711 OA 
BRANCH   9  10
HETATM   10  C   UNL     1     -11.154  12.678  63.472  1.00  0.00    -0.395 C  
BRANCH  10  11
HETATM   11  C   UNL     1     -11.326  11.412  64.305  1.00  0.00    -0.168 C  
BRANCH  11  12
HETATM   12  N   UNL     1     -10.404  11.288  65.407  1.00  0.00    -0.262 N  
HETATM   13  C   UNL     1     -10.722  11.580  66.700  1.00  0.00    -0.268 C  
HETATM   14  O   UNL     1     -11.829  11.841  67.139  1.00  0.00    -0.599 OA 
HETATM   15  C   UNL     1      -9.456  11.573  67.504  1.00  0.00    -0.173 C  
HETATM   16  C   UNL     1      -8.463  10.850  66.612  1.00  0.00    -0.151 C  
HETATM   17  C   UNL     1      -9.129  10.826  65.271  1.00  0.00    -0.195 C  
HETATM   18  O   UNL     1      -8.614  10.408  64.244  1.00  0.00    -0.180 OA 
ENDBRANCH  11  12
ENDBRANCH  10  11
ENDBRANCH   9  10
ENDBRANCH   7   9
ENDBRANCH   6   7
ENDBRANCH   3   5
ENDBRANCH   2   3
TORSDOF 7
ENDMDL
MODEL       71
REMARK 921   NORMALIZED FREE ENERGY PREDICTED BY IDOCK:   -4.69 KCAL/MOL
REMARK 922        TOTAL FREE ENERGY PREDICTED BY IDOCK:   -7.04 KCAL/MOL
REMARK 923 INTER-LIGAND FREE ENERGY PREDICTED BY IDOCK:   -6.66 KCAL/MOL
REMARK 924 INTRA-LIGAND FREE ENERGY PREDICTED BY IDOCK:   -0.38 KCAL/MOL
REMARK 927      BINDING AFFINITY PREDICTED BY RF-SCORE:    0.00 PKD
ROOT
HETATM    1  C   UNL     1      -9.395   9.373  65.966  1.00  0.00    -0.220 C  
HETATM    2  O   UNL     1      -8.603   9.670  64.816  1.00  0.00    -0.154 OA 
ENDROOT
BRANCH   2   3
HETATM    3  C   UNL     1      -9.316  10.181  63.785  1.00  0.00    -0.288 C  
HETATM    4  O   UNL     1      -9.171   9.927  62.600  1.00  0.00    -0.271 OA 
BRANCH   3   5
HETATM    5  C   UNL     1     -10.303  11.128  64.328  1.00  0.00    -0.413 C  
HETATM    6  C   UNL     1     -11.051  11.824  63.466  1.00  0.00    -0.503 C  
BRANCH   6   7
HETATM    7  C   UNL     1     -11.942  12.890  63.953  1.00  0.00    -0.480 C  
HETATM    8  O   UNL     1     -12.584  13.646  63.249  1.00  0.00    -0.816 OA 
BRANCH   7   9
HETATM    9  O   UNL     1     -12.034  12.743  65.296  1.00  0.00    -0.377 OA 
BRANCH   9  10
HETATM   10  C   UNL     1     -12.193  13.970  66.026  1.00  0.00    -0.458 C  
BRANCH  10  11
HETATM   11  C   UNL     1     -10.855  14.221  66.714  1.00  0.00    -0.298 C  
BRANCH  11  12
HETATM   12  N   UNL     1     -10.629  15.590  67.107  1.00  0.00    -0.296 N  
HETATM   13  C   UNL     1     -10.381  15.981  68.390  1.00  0.00    -0.251 C  
HETATM   14  O   UNL     1     -10.175  15.255  69.347  1.00  0.00    -0.230 OA 
HETATM   15  C   UNL     1     -10.453  17.477  68.443  1.00  0.00    -0.372 C  
HETATM   16  C   UNL     1     -10.361  17.898  66.987  1.00  0.00    -0.366 C  
HETATM   17  C   UNL     1     -10.600  16.629  66.226  1.00  0.00    -0.205 C  
HETATM   18  O   UNL     1     -10.699  16.554  65.011  1.00  0.00    -0.662 OA 
ENDBRANCH  11  12
ENDBRANCH  10  11
ENDBRANCH   9  10
ENDBRANCH   7   9
ENDBRANCH   6   7
ENDBRANCH   3   5
ENDBRANCH   2   3
TORSDOF 7
ENDMDL
MODEL       72
REMARK 921   NORMALIZED FREE ENERGY PREDICTED BY IDOCK:   -4.68 KCAL/MOL
REMARK 922        TOTAL FREE ENERGY PREDICTED BY IDOCK:   -7.04 KCAL/MOL
REMARK 923 INTER-LIGAND FREE ENERGY PREDICTED BY IDOCK:   -6.50 KCAL/MOL
REMARK 924 INTRA-LIGAND FREE ENERGY PREDICTED BY IDOCK:   -0.54 KCAL/MOL
REMARK 927      BINDING AFFINITY PREDICTED BY RF-SCORE:    0.00 PKD
ROOT
HETATM    1  C   UNL     1     -13.045  10.552  71.454  1.00  0.00    -0.410 C  
HETATM    2  O   UNL     1     -12.511  11.776  70.949  1.00  0.00    -0.372 OA 
ENDROOT
BRANCH   2   3
HETATM    3  C   UNL     1     -12.963  12.874  71.600  1.00  0.00    -0.313 C  
HETATM    4  O   UNL     1     -13.728  12.895  72.551  1.00  0.00    -0.557 OA 
BRANCH   3   5
HETATM    5  C   UNL     1     -12.392  14.064  70.952  1.00  0.00    -0.443 C  
HETATM    6  C   UNL     1     -11.865  13.928  69.730  1.00  0.00    -0.390 C  
BRANCH   6   7
HETATM    7  C   UNL     1     -11.149  15.051  69.104  1.00  0.00    -0.270 C  
HETATM    8  O   UNL     1     -11.407  16.229  69.268  1.00  0.00    -0.325 OA 
BRANCH   7   9
HETATM    9  O   UNL     1     -10.071  14.528  68.474  1.00  0.00    -0.228 OA 
BRANCH   9  10
HETATM   10  C   UNL     1     -10.283  13.234  67.888  1.00  0.00    -0.233 C  
BRANCH  10  11
HETATM   11  C   UNL     1      -9.571  13.266  66.540  1.00  0.00    -0.264 C  
BRANCH  11  12
HETATM   12  N   UNL     1     -10.393  12.889  65.417  1.00  0.00    -0.293 N  
HETATM   13  C   UNL     1     -10.579  11.600  65.011  1.00  0.00    -0.289 C  
HETATM   14  O   UNL     1     -10.217  10.592  65.592  1.00  0.00    -0.262 OA 
HETATM   15  C   UNL     1     -11.274  11.627  63.682  1.00  0.00    -0.497 C  
HETATM   16  C   UNL     1     -11.818  13.041  63.584  1.00  0.00    -0.580 C  
HETATM   17  C   UNL     1     -11.101  13.782  64.670  1.00  0.00    -0.388 C  
HETATM   18  O   UNL     1     -11.189  14.985  64.868  1.00  0.00    -0.387 OA 
ENDBRANCH  11  12
ENDBRANCH  10  11
ENDBRANCH   9  10
ENDBRANCH   7   9
ENDBRANCH   6   7
ENDBRANCH   3   5
ENDBRANCH   2   3
TORSDOF 7
ENDMDL
MODEL       73
REMARK 921   NORMALIZED FREE ENERGY PREDICTED BY IDOCK:   -4.68 KCAL/MOL
REMARK 922        TOTAL FREE ENERGY PREDICTED BY IDOCK:   -7.03 KCAL/MOL
REMARK 923 INTER-LIGAND FREE ENERGY PREDICTED BY IDOCK:   -6.54 KCAL/MOL
REMARK 924 INTRA-LIGAND FREE ENERGY PREDICTED BY IDOCK:   -0.49 KCAL/MOL
REMARK 927      BINDING AFFINITY PREDICTED BY RF-SCORE:    0.00 PKD
ROOT
HETATM    1  C   UNL     1     -11.694  12.398  66.846  1.00  0.00    -0.362 C  
HETATM    2  O   UNL     1     -12.380  12.375  65.595  1.00  0.00    -0.639 OA 
ENDROOT
BRANCH   2   3
HETATM    3  C   UNL     1     -12.177  13.484  64.845  1.00  0.00    -0.410 C  
HETATM    4  O   UNL     1     -12.423  13.618  63.657  1.00  0.00    -0.728 OA 
BRANCH   3   5
HETATM    5  C   UNL     1     -11.578  14.519  65.702  1.00  0.00    -0.344 C  
HETATM    6  C   UNL     1     -10.898  15.510  65.115  1.00  0.00    -0.452 C  
BRANCH   6   7
HETATM    7  C   UNL     1     -10.155  16.482  65.933  1.00  0.00    -0.337 C  
HETATM    8  O   UNL     1     -10.640  17.198  66.789  1.00  0.00    -0.286 OA 
BRANCH   7   9
HETATM    9  O   UNL     1      -8.840  16.295  65.671  1.00  0.00    -0.374 OA 
BRANCH   9  10
HETATM   10  C   UNL     1      -8.054  15.880  66.798  1.00  0.00    -0.266 C  
BRANCH  10  11
HETATM   11  C   UNL     1      -6.818  16.774  66.795  1.00  0.00    -0.230 C  
BRANCH  11  12
HETATM   12  N   UNL     1      -7.099  18.188  66.821  1.00  0.00    -0.198 N  
HETATM   13  C   UNL     1      -6.827  19.036  65.789  1.00  0.00    -0.277 C  
HETATM   14  O   UNL     1      -6.454  18.728  64.669  1.00  0.00    -0.482 OA 
HETATM   15  C   UNL     1      -7.018  20.441  66.277  1.00  0.00    -0.291 C  
HETATM   16  C   UNL     1      -7.815  20.275  67.558  1.00  0.00    -0.340 C  
HETATM   17  C   UNL     1      -7.703  18.814  67.870  1.00  0.00    -0.256 C  
HETATM   18  O   UNL     1      -8.134  18.283  68.882  1.00  0.00    -0.272 OA 
ENDBRANCH  11  12
ENDBRANCH  10  11
ENDBRANCH   9  10
ENDBRANCH   7   9
ENDBRANCH   6   7
ENDBRANCH   3   5
ENDBRANCH   2   3
TORSDOF 7
ENDMDL
MODEL       74
REMARK 921   NORMALIZED FREE ENERGY PREDICTED BY IDOCK:   -4.67 KCAL/MOL
REMARK 922        TOTAL FREE ENERGY PREDICTED BY IDOCK:   -7.01 KCAL/MOL
REMARK 923 INTER-LIGAND FREE ENERGY PREDICTED BY IDOCK:   -6.68 KCAL/MOL
REMARK 924 INTRA-LIGAND FREE ENERGY PREDICTED BY IDOCK:   -0.33 KCAL/MOL
REMARK 927      BINDING AFFINITY PREDICTED BY RF-SCORE:    0.00 PKD
ROOT
HETATM    1  C   UNL     1     -10.492  11.098  64.788  1.00  0.00    -0.323 C  
HETATM    2  O   UNL     1     -11.815  11.381  65.243  1.00  0.00     0.003 OA 
ENDROOT
BRANCH   2   3
HETATM    3  C   UNL     1     -12.455  12.315  64.500  1.00  0.00    -0.377 C  
HETATM    4  O   UNL     1     -13.157  12.115  63.522  1.00  0.00    -0.785 OA 
BRANCH   3   5
HETATM    5  C   UNL     1     -12.146  13.641  65.058  1.00  0.00    -0.418 C  
HETATM    6  C   UNL     1     -11.720  14.595  64.222  1.00  0.00    -0.291 C  
BRANCH   6   7
HETATM    7  C   UNL     1     -11.256  15.887  64.750  1.00  0.00    -0.355 C  
HETATM    8  O   UNL     1     -11.406  16.965  64.205  1.00  0.00    -1.208 OA 
BRANCH   7   9
HETATM    9  O   UNL     1     -10.804  15.661  66.006  1.00  0.00    -0.318 OA 
BRANCH   9  10
HETATM   10  C   UNL     1      -9.374  15.607  66.131  1.00  0.00    -0.347 C  
BRANCH  10  11
HETATM   11  C   UNL     1      -9.095  15.354  67.609  1.00  0.00    -0.182 C  
BRANCH  11  12
HETATM   12  N   UNL     1     -10.274  15.193  68.424  1.00  0.00    -0.218 N  
HETATM   13  C   UNL     1     -10.927  16.225  69.029  1.00  0.00    -0.325 C  
HETATM   14  O   UNL     1     -10.718  17.416  68.869  1.00  0.00    -0.284 OA 
HETATM   15  C   UNL     1     -11.933  15.648  69.979  1.00  0.00    -0.384 C  
HETATM   16  C   UNL     1     -12.056  14.199  69.543  1.00  0.00    -0.388 C  
HETATM   17  C   UNL     1     -10.879  13.991  68.639  1.00  0.00    -0.258 C  
HETATM   18  O   UNL     1     -10.561  12.919  68.146  1.00  0.00    -0.223 OA 
ENDBRANCH  11  12
ENDBRANCH  10  11
ENDBRANCH   9  10
ENDBRANCH   7   9
ENDBRANCH   6   7
ENDBRANCH   3   5
ENDBRANCH   2   3
TORSDOF 7
ENDMDL
MODEL       75
REMARK 921   NORMALIZED FREE ENERGY PREDICTED BY IDOCK:   -4.66 KCAL/MOL
REMARK 922        TOTAL FREE ENERGY PREDICTED BY IDOCK:   -7.01 KCAL/MOL
REMARK 923 INTER-LIGAND FREE ENERGY PREDICTED BY IDOCK:   -6.61 KCAL/MOL
REMARK 924 INTRA-LIGAND FREE ENERGY PREDICTED BY IDOCK:   -0.40 KCAL/MOL
REMARK 927      BINDING AFFINITY PREDICTED BY RF-SCORE:    0.00 PKD
ROOT
HETATM    1  C   UNL     1      -6.588  20.241  68.353  1.00  0.00    -0.300 C  
HETATM    2  O   UNL     1      -7.305  20.813  67.259  1.00  0.00    -0.330 OA 
ENDROOT
BRANCH   2   3
HETATM    3  C   UNL     1      -7.833  19.893  66.418  1.00  0.00    -0.316 C  
HETATM    4  O   UNL     1      -7.522  19.705  65.253  1.00  0.00    -0.382 OA 
BRANCH   3   5
HETATM    5  C   UNL     1      -8.881  19.154  67.139  1.00  0.00    -0.314 C  
HETATM    6  C   UNL     1      -9.154  17.903  66.750  1.00  0.00    -0.276 C  
BRANCH   6   7
HETATM    7  C   UNL     1     -10.292  17.178  67.338  1.00  0.00    -0.333 C  
HETATM    8  O   UNL     1     -10.981  17.578  68.258  1.00  0.00    -0.290 OA 
BRANCH   7   9
HETATM    9  O   UNL     1     -10.517  16.097  66.555  1.00  0.00    -0.299 OA 
BRANCH   9  10
HETATM   10  C   UNL     1     -10.718  14.867  67.268  1.00  0.00    -0.294 C  
BRANCH  10  11
HETATM   11  C   UNL     1     -12.040  14.303  66.760  1.00  0.00    -0.417 C  
BRANCH  11  12
HETATM   12  N   UNL     1     -11.928  13.470  65.588  1.00  0.00    -0.373 N  
HETATM   13  C   UNL     1     -12.044  13.935  64.312  1.00  0.00    -0.440 C  
HETATM   14  O   UNL     1     -12.112  15.102  63.963  1.00  0.00    -0.546 OA 
HETATM   15  C   UNL     1     -12.123  12.755  63.391  1.00  0.00    -0.619 C  
HETATM   16  C   UNL     1     -11.631  11.597  64.241  1.00  0.00    -0.306 C  
HETATM   17  C   UNL     1     -11.654  12.136  65.638  1.00  0.00    -0.351 C  
HETATM   18  O   UNL     1     -11.413  11.482  66.641  1.00  0.00    -0.423 OA 
ENDBRANCH  11  12
ENDBRANCH  10  11
ENDBRANCH   9  10
ENDBRANCH   7   9
ENDBRANCH   6   7
ENDBRANCH   3   5
ENDBRANCH   2   3
TORSDOF 7
ENDMDL
MODEL       76
REMARK 921   NORMALIZED FREE ENERGY PREDICTED BY IDOCK:   -4.66 KCAL/MOL
REMARK 922        TOTAL FREE ENERGY PREDICTED BY IDOCK:   -7.01 KCAL/MOL
REMARK 923 INTER-LIGAND FREE ENERGY PREDICTED BY IDOCK:   -6.60 KCAL/MOL
REMARK 924 INTRA-LIGAND FREE ENERGY PREDICTED BY IDOCK:   -0.40 KCAL/MOL
REMARK 927      BINDING AFFINITY PREDICTED BY RF-SCORE:    0.00 PKD
ROOT
HETATM    1  C   UNL     1     -13.697   8.791  71.799  1.00  0.00    -0.419 C  
HETATM    2  O   UNL     1     -13.075   9.977  72.294  1.00  0.00    -0.413 OA 
ENDROOT
BRANCH   2   3
HETATM    3  C   UNL     1     -12.936  10.946  71.360  1.00  0.00    -0.424 C  
HETATM    4  O   UNL     1     -12.618  10.795  70.191  1.00  0.00    -0.327 OA 
BRANCH   3   5
HETATM    5  C   UNL     1     -13.215  12.244  71.995  1.00  0.00    -0.508 C  
HETATM    6  C   UNL     1     -12.865  13.356  71.339  1.00  0.00    -0.420 C  
BRANCH   6   7
HETATM    7  C   UNL     1     -12.984  14.669  71.994  1.00  0.00    -0.334 C  
HETATM    8  O   UNL     1     -13.674  14.909  72.967  1.00  0.00    -0.497 OA 
BRANCH   7   9
HETATM    9  O   UNL     1     -12.063  15.480  71.422  1.00  0.00    -0.320 OA 
BRANCH   9  10
HETATM   10  C   UNL     1     -12.104  15.521  69.987  1.00  0.00    -0.368 C  
BRANCH  10  11
HETATM   11  C   UNL     1     -10.662  15.725  69.536  1.00  0.00    -0.278 C  
BRANCH  11  12
HETATM   12  N   UNL     1     -10.513  16.510  68.335  1.00  0.00    -0.289 N  
HETATM   13  C   UNL     1     -10.269  17.851  68.330  1.00  0.00    -0.394 C  
HETATM   14  O   UNL     1     -10.003  18.549  69.294  1.00  0.00    -0.265 OA 
HETATM   15  C   UNL     1     -10.431  18.349  66.925  1.00  0.00    -0.419 C  
HETATM   16  C   UNL     1     -10.389  17.086  66.084  1.00  0.00    -0.326 C  
HETATM   17  C   UNL     1     -10.562  15.980  67.080  1.00  0.00    -0.305 C  
HETATM   18  O   UNL     1     -10.677  14.798  66.796  1.00  0.00    -0.297 OA 
ENDBRANCH  11  12
ENDBRANCH  10  11
ENDBRANCH   9  10
ENDBRANCH   7   9
ENDBRANCH   6   7
ENDBRANCH   3   5
ENDBRANCH   2   3
TORSDOF 7
ENDMDL
MODEL       77
REMARK 921   NORMALIZED FREE ENERGY PREDICTED BY IDOCK:   -4.66 KCAL/MOL
REMARK 922        TOTAL FREE ENERGY PREDICTED BY IDOCK:   -7.00 KCAL/MOL
REMARK 923 INTER-LIGAND FREE ENERGY PREDICTED BY IDOCK:   -6.39 KCAL/MOL
REMARK 924 INTRA-LIGAND FREE ENERGY PREDICTED BY IDOCK:   -0.62 KCAL/MOL
REMARK 927      BINDING AFFINITY PREDICTED BY RF-SCORE:    0.00 PKD
ROOT
HETATM    1  C   UNL     1     -10.120  19.664  66.431  1.00  0.00    -0.470 C  
HETATM    2  O   UNL     1      -9.076  18.935  67.076  1.00  0.00    -0.281 OA 
ENDROOT
BRANCH   2   3
HETATM    3  C   UNL     1      -8.685  17.833  66.394  1.00  0.00    -0.228 C  
HETATM    4  O   UNL     1      -7.739  17.745  65.627  1.00  0.00    -0.545 OA 
BRANCH   3   5
HETATM    5  C   UNL     1      -9.614  16.737  66.714  1.00  0.00    -0.261 C  
HETATM    6  C   UNL     1     -10.182  16.074  65.701  1.00  0.00    -0.412 C  
BRANCH   6   7
HETATM    7  C   UNL     1     -11.229  15.075  65.967  1.00  0.00    -0.310 C  
HETATM    8  O   UNL     1     -11.523  14.151  65.231  1.00  0.00    -0.311 OA 
BRANCH   7   9
HETATM    9  O   UNL     1     -11.661  15.283  67.233  1.00  0.00    -0.286 OA 
BRANCH   9  10
HETATM   10  C   UNL     1     -11.967  14.088  67.969  1.00  0.00    -0.350 C  
BRANCH  10  11
HETATM   11  C   UNL     1     -11.020  14.082  69.164  1.00  0.00    -0.230 C  
BRANCH  11  12
HETATM   12  N   UNL     1     -11.579  14.626  70.377  1.00  0.00    -0.275 N  
HETATM   13  C   UNL     1     -11.452  15.930  70.755  1.00  0.00    -0.407 C  
HETATM   14  O   UNL     1     -10.991  16.841  70.089  1.00  0.00    -0.264 OA 
HETATM   15  C   UNL     1     -11.936  16.055  72.169  1.00  0.00    -0.629 C  
HETATM   16  C   UNL     1     -12.722  14.777  72.398  1.00  0.00    -0.432 C  
HETATM   17  C   UNL     1     -12.329  13.897  71.252  1.00  0.00    -0.335 C  
HETATM   18  O   UNL     1     -12.676  12.733  71.116  1.00  0.00    -0.359 OA 
ENDBRANCH  11  12
ENDBRANCH  10  11
ENDBRANCH   9  10
ENDBRANCH   7   9
ENDBRANCH   6   7
ENDBRANCH   3   5
ENDBRANCH   2   3
TORSDOF 7
ENDMDL
MODEL       78
REMARK 921   NORMALIZED FREE ENERGY PREDICTED BY IDOCK:   -4.65 KCAL/MOL
REMARK 922        TOTAL FREE ENERGY PREDICTED BY IDOCK:   -6.99 KCAL/MOL
REMARK 923 INTER-LIGAND FREE ENERGY PREDICTED BY IDOCK:   -6.53 KCAL/MOL
REMARK 924 INTRA-LIGAND FREE ENERGY PREDICTED BY IDOCK:   -0.45 KCAL/MOL
REMARK 927      BINDING AFFINITY PREDICTED BY RF-SCORE:    0.00 PKD
ROOT
HETATM    1  C   UNL     1     -12.744  15.812  73.807  1.00  0.00    -0.608 C  
HETATM    2  O   UNL     1     -13.717  15.566  72.792  1.00  0.00    -0.520 OA 
ENDROOT
BRANCH   2   3
HETATM    3  C   UNL     1     -13.605  14.345  72.219  1.00  0.00    -0.454 C  
HETATM    4  O   UNL     1     -14.241  13.343  72.505  1.00  0.00    -0.721 OA 
BRANCH   3   5
HETATM    5  C   UNL     1     -12.557  14.411  71.189  1.00  0.00    -0.422 C  
HETATM    6  C   UNL     1     -12.871  14.939  70.001  1.00  0.00    -0.113 C  
BRANCH   6   7
HETATM    7  C   UNL     1     -11.905  14.890  68.892  1.00  0.00    -0.301 C  
HETATM    8  O   UNL     1     -11.797  13.978  68.092  1.00  0.00    -0.338 OA 
BRANCH   7   9
HETATM    9  O   UNL     1     -11.304  16.102  68.839  1.00  0.00    -0.341 OA 
BRANCH   9  10
HETATM   10  C   UNL     1     -10.087  16.138  68.076  1.00  0.00    -0.242 C  
BRANCH  10  11
HETATM   11  C   UNL     1     -10.228  17.321  67.125  1.00  0.00    -0.319 C  
BRANCH  11  12
HETATM   12  N   UNL     1      -9.236  18.354  67.298  1.00  0.00    -0.267 N  
HETATM   13  C   UNL     1      -8.142  18.499  66.498  1.00  0.00    -0.280 C  
HETATM   14  O   UNL     1      -7.909  17.897  65.464  1.00  0.00    -0.459 OA 
HETATM   15  C   UNL     1      -7.229  19.503  67.135  1.00  0.00    -0.231 C  
HETATM   16  C   UNL     1      -8.111  20.201  68.155  1.00  0.00    -0.164 C  
HETATM   17  C   UNL     1      -9.315  19.317  68.259  1.00  0.00    -0.351 C  
HETATM   18  O   UNL     1     -10.232  19.479  69.051  1.00  0.00    -0.401 OA 
ENDBRANCH  11  12
ENDBRANCH  10  11
ENDBRANCH   9  10
ENDBRANCH   7   9
ENDBRANCH   6   7
ENDBRANCH   3   5
ENDBRANCH   2   3
TORSDOF 7
ENDMDL
MODEL       79
REMARK 921   NORMALIZED FREE ENERGY PREDICTED BY IDOCK:   -4.64 KCAL/MOL
REMARK 922        TOTAL FREE ENERGY PREDICTED BY IDOCK:   -6.98 KCAL/MOL
REMARK 923 INTER-LIGAND FREE ENERGY PREDICTED BY IDOCK:   -6.57 KCAL/MOL
REMARK 924 INTRA-LIGAND FREE ENERGY PREDICTED BY IDOCK:   -0.41 KCAL/MOL
REMARK 927      BINDING AFFINITY PREDICTED BY RF-SCORE:    0.00 PKD
ROOT
HETATM    1  C   UNL     1     -10.206   8.380  71.454  1.00  0.00    -0.220 C  
HETATM    2  O   UNL     1     -10.919   9.383  70.732  1.00  0.00    -0.253 OA 
ENDROOT
BRANCH   2   3
HETATM    3  C   UNL     1     -12.054   9.790  71.348  1.00  0.00    -0.400 C  
HETATM    4  O   UNL     1     -12.670   9.190  72.214  1.00  0.00    -0.383 OA 
BRANCH   3   5
HETATM    5  C   UNL     1     -12.447  11.090  70.783  1.00  0.00    -0.491 C  
HETATM    6  C   UNL     1     -11.738  11.574  69.756  1.00  0.00    -0.426 C  
BRANCH   6   7
HETATM    7  C   UNL     1     -11.996  12.933  69.255  1.00  0.00    -0.260 C  
HETATM    8  O   UNL     1     -12.334  13.882  69.938  1.00  0.00    -0.332 OA 
BRANCH   7   9
HETATM    9  O   UNL     1     -11.620  12.952  67.955  1.00  0.00    -0.298 OA 
BRANCH   9  10
HETATM   10  C   UNL     1     -11.955  14.157  67.248  1.00  0.00    -0.414 C  
BRANCH  10  11
HETATM   11  C   UNL     1     -10.625  14.781  66.838  1.00  0.00    -0.294 C  
BRANCH  11  12
HETATM   12  N   UNL     1     -10.623  16.223  66.806  1.00  0.00    -0.290 N  
HETATM   13  C   UNL     1     -10.708  16.957  65.660  1.00  0.00    -0.167 C  
HETATM   14  O   UNL     1     -10.936  16.537  64.539  1.00  0.00    -0.827 OA 
HETATM   15  C   UNL     1     -10.421  18.389  66.002  1.00  0.00    -0.400 C  
HETATM   16  C   UNL     1     -10.571  18.439  67.512  1.00  0.00    -0.447 C  
HETATM   17  C   UNL     1     -10.576  17.000  67.925  1.00  0.00    -0.365 C  
HETATM   18  O   UNL     1     -10.588  16.607  69.082  1.00  0.00    -0.302 OA 
ENDBRANCH  11  12
ENDBRANCH  10  11
ENDBRANCH   9  10
ENDBRANCH   7   9
ENDBRANCH   6   7
ENDBRANCH   3   5
ENDBRANCH   2   3
TORSDOF 7
ENDMDL
MODEL       80
REMARK 921   NORMALIZED FREE ENERGY PREDICTED BY IDOCK:   -4.64 KCAL/MOL
REMARK 922        TOTAL FREE ENERGY PREDICTED BY IDOCK:   -6.98 KCAL/MOL
REMARK 923 INTER-LIGAND FREE ENERGY PREDICTED BY IDOCK:   -6.54 KCAL/MOL
REMARK 924 INTRA-LIGAND FREE ENERGY PREDICTED BY IDOCK:   -0.44 KCAL/MOL
REMARK 927      BINDING AFFINITY PREDICTED BY RF-SCORE:    0.00 PKD
ROOT
HETATM    1  C   UNL     1     -14.331   8.245  71.598  1.00  0.00    -0.467 C  
HETATM    2  O   UNL     1     -13.991   9.338  72.449  1.00  0.00    -0.460 OA 
ENDROOT
BRANCH   2   3
HETATM    3  C   UNL     1     -13.152  10.232  71.874  1.00  0.00    -0.463 C  
HETATM    4  O   UNL     1     -13.242  11.449  71.915  1.00  0.00    -0.484 OA 
BRANCH   3   5
HETATM    5  C   UNL     1     -12.104   9.488  71.158  1.00  0.00    -0.429 C  
HETATM    6  C   UNL     1     -11.442  10.114  70.179  1.00  0.00    -0.368 C  
BRANCH   6   7
HETATM    7  C   UNL     1     -10.494   9.370  69.335  1.00  0.00    -0.220 C  
HETATM    8  O   UNL     1     -10.379   8.159  69.305  1.00  0.00    -0.211 OA 
BRANCH   7   9
HETATM    9  O   UNL     1      -9.922  10.268  68.498  1.00  0.00    -0.155 OA 
BRANCH   9  10
HETATM   10  C   UNL     1     -10.229  10.078  67.108  1.00  0.00    -0.228 C  
BRANCH  10  11
HETATM   11  C   UNL     1      -9.823  11.372  66.412  1.00  0.00    -0.211 C  
BRANCH  11  12
HETATM   12  N   UNL     1     -10.814  11.907  65.511  1.00  0.00    -0.288 N  
HETATM   13  C   UNL     1     -10.881  11.598  64.184  1.00  0.00    -0.372 C  
HETATM   14  O   UNL     1     -10.234  10.746  63.600  1.00  0.00    -0.333 OA 
HETATM   15  C   UNL     1     -11.863  12.528  63.538  1.00  0.00    -0.616 C  
HETATM   16  C   UNL     1     -12.636  13.111  64.708  1.00  0.00    -0.426 C  
HETATM   17  C   UNL     1     -11.812  12.747  65.905  1.00  0.00    -0.437 C  
HETATM   18  O   UNL     1     -12.044  13.112  67.048  1.00  0.00    -0.376 OA 
ENDBRANCH  11  12
ENDBRANCH  10  11
ENDBRANCH   9  10
ENDBRANCH   7   9
ENDBRANCH   6   7
ENDBRANCH   3   5
ENDBRANCH   2   3
TORSDOF 7
ENDMDL
MODEL       81
REMARK 921   NORMALIZED FREE ENERGY PREDICTED BY IDOCK:   -4.64 KCAL/MOL
REMARK 922        TOTAL FREE ENERGY PREDICTED BY IDOCK:   -6.97 KCAL/MOL
REMARK 923 INTER-LIGAND FREE ENERGY PREDICTED BY IDOCK:   -6.46 KCAL/MOL
REMARK 924 INTRA-LIGAND FREE ENERGY PREDICTED BY IDOCK:   -0.52 KCAL/MOL
REMARK 927      BINDING AFFINITY PREDICTED BY RF-SCORE:    0.00 PKD
ROOT
HETATM    1  C   UNL     1     -11.816   7.014  71.598  1.00  0.00    -0.313 C  
HETATM    2  O   UNL     1     -12.155   7.800  72.740  1.00  0.00    -0.210 OA 
ENDROOT
BRANCH   2   3
HETATM    3  C   UNL     1     -12.788   8.956  72.433  1.00  0.00    -0.380 C  
HETATM    4  O   UNL     1     -13.898   9.303  72.806  1.00  0.00    -0.403 OA 
BRANCH   3   5
HETATM    5  C   UNL     1     -11.918   9.738  71.541  1.00  0.00    -0.488 C  
HETATM    6  C   UNL     1     -12.448  10.784  70.897  1.00  0.00    -0.500 C  
BRANCH   6   7
HETATM    7  C   UNL     1     -11.663  11.502  69.882  1.00  0.00    -0.343 C  
HETATM    8  O   UNL     1     -11.010  10.980  68.997  1.00  0.00    -0.201 OA 
BRANCH   7   9
HETATM    9  O   UNL     1     -11.949  12.818  70.020  1.00  0.00    -0.332 OA 
BRANCH   9  10
HETATM   10  C   UNL     1     -11.105  13.701  69.265  1.00  0.00    -0.193 C  
BRANCH  10  11
HETATM   11  C   UNL     1     -12.003  14.328  68.203  1.00  0.00    -0.308 C  
BRANCH  11  12
HETATM   12  N   UNL     1     -11.440  14.347  66.875  1.00  0.00    -0.351 N  
HETATM   13  C   UNL     1     -11.571  13.328  65.979  1.00  0.00    -0.349 C  
HETATM   14  O   UNL     1     -12.275  12.339  66.095  1.00  0.00    -0.647 OA 
HETATM   15  C   UNL     1     -10.652  13.600  64.826  1.00  0.00    -0.436 C  
HETATM   16  C   UNL     1     -10.304  15.070  64.978  1.00  0.00    -0.390 C  
HETATM   17  C   UNL     1     -10.753  15.409  66.366  1.00  0.00    -0.311 C  
HETATM   18  O   UNL     1     -10.567  16.484  66.916  1.00  0.00    -0.302 OA 
ENDBRANCH  11  12
ENDBRANCH  10  11
ENDBRANCH   9  10
ENDBRANCH   7   9
ENDBRANCH   6   7
ENDBRANCH   3   5
ENDBRANCH   2   3
TORSDOF 7
ENDMDL
MODEL       82
REMARK 921   NORMALIZED FREE ENERGY PREDICTED BY IDOCK:   -4.63 KCAL/MOL
REMARK 922        TOTAL FREE ENERGY PREDICTED BY IDOCK:   -6.97 KCAL/MOL
REMARK 923 INTER-LIGAND FREE ENERGY PREDICTED BY IDOCK:   -6.30 KCAL/MOL
REMARK 924 INTRA-LIGAND FREE ENERGY PREDICTED BY IDOCK:   -0.67 KCAL/MOL
REMARK 927      BINDING AFFINITY PREDICTED BY RF-SCORE:    0.00 PKD
ROOT
HETATM    1  C   UNL     1      -9.964  20.346  67.640  1.00  0.00    -0.374 C  
HETATM    2  O   UNL     1      -9.628  19.402  68.657  1.00  0.00    -0.381 OA 
ENDROOT
BRANCH   2   3
HETATM    3  C   UNL     1      -8.414  18.828  68.483  1.00  0.00    -0.345 C  
HETATM    4  O   UNL     1      -7.327  19.369  68.604  1.00  0.00    -0.312 OA 
BRANCH   3   5
HETATM    5  C   UNL     1      -8.617  17.423  68.096  1.00  0.00    -0.248 C  
HETATM    6  C   UNL     1      -8.492  17.099  66.804  1.00  0.00    -0.264 C  
BRANCH   6   7
HETATM    7  C   UNL     1      -8.833  15.743  66.347  1.00  0.00    -0.336 C  
HETATM    8  O   UNL     1      -8.436  14.709  66.853  1.00  0.00    -0.217 OA 
BRANCH   7   9
HETATM    9  O   UNL     1      -9.784  15.875  65.393  1.00  0.00    -0.397 OA 
BRANCH   9  10
HETATM   10  C   UNL     1     -10.468  14.659  65.051  1.00  0.00    -0.421 C  
BRANCH  10  11
HETATM   11  C   UNL     1     -11.777  14.685  65.833  1.00  0.00    -0.301 C  
BRANCH  11  12
HETATM   12  N   UNL     1     -11.718  14.044  67.124  1.00  0.00    -0.371 N  
HETATM   13  C   UNL     1     -11.637  14.721  68.305  1.00  0.00    -0.323 C  
HETATM   14  O   UNL     1     -11.743  15.925  68.466  1.00  0.00    -0.383 OA 
HETATM   15  C   UNL     1     -11.341  13.729  69.391  1.00  0.00    -0.306 C  
HETATM   16  C   UNL     1     -11.671  12.389  68.759  1.00  0.00    -0.379 C  
HETATM   17  C   UNL     1     -11.779  12.693  67.296  1.00  0.00    -0.370 C  
HETATM   18  O   UNL     1     -11.944  11.857  66.421  1.00  0.00    -0.572 OA 
ENDBRANCH  11  12
ENDBRANCH  10  11
ENDBRANCH   9  10
ENDBRANCH   7   9
ENDBRANCH   6   7
ENDBRANCH   3   5
ENDBRANCH   2   3
TORSDOF 7
ENDMDL
MODEL       83
REMARK 921   NORMALIZED FREE ENERGY PREDICTED BY IDOCK:   -4.63 KCAL/MOL
REMARK 922        TOTAL FREE ENERGY PREDICTED BY IDOCK:   -6.96 KCAL/MOL
REMARK 923 INTER-LIGAND FREE ENERGY PREDICTED BY IDOCK:   -6.16 KCAL/MOL
REMARK 924 INTRA-LIGAND FREE ENERGY PREDICTED BY IDOCK:   -0.80 KCAL/MOL
REMARK 927      BINDING AFFINITY PREDICTED BY RF-SCORE:    0.00 PKD
ROOT
HETATM    1  C   UNL     1     -12.609  11.928  63.461  1.00  0.00    -0.459 C  
HETATM    2  O   UNL     1     -12.740  13.210  64.076  1.00  0.00    -0.653 OA 
ENDROOT
BRANCH   2   3
HETATM    3  C   UNL     1     -11.635  13.600  64.754  1.00  0.00    -0.355 C  
HETATM    4  O   UNL     1     -10.478  13.521  64.373  1.00  0.00    -0.430 OA 
BRANCH   3   5
HETATM    5  C   UNL     1     -12.056  14.126  66.062  1.00  0.00    -0.449 C  
HETATM    6  C   UNL     1     -11.375  13.742  67.147  1.00  0.00    -0.344 C  
BRANCH   6   7
HETATM    7  C   UNL     1     -11.848  14.119  68.489  1.00  0.00    -0.355 C  
HETATM    8  O   UNL     1     -12.047  13.345  69.407  1.00  0.00    -0.309 OA 
BRANCH   7   9
HETATM    9  O   UNL     1     -11.845  15.471  68.543  1.00  0.00    -0.354 OA 
BRANCH   9  10
HETATM   10  C   UNL     1     -11.231  16.026  69.717  1.00  0.00    -0.344 C  
BRANCH  10  11
HETATM   11  C   UNL     1     -10.378  17.191  69.228  1.00  0.00    -0.257 C  
BRANCH  11  12
HETATM   12  N   UNL     1      -9.431  16.851  68.194  1.00  0.00    -0.245 N  
HETATM   13  C   UNL     1      -9.630  17.103  66.869  1.00  0.00    -0.262 C  
HETATM   14  O   UNL     1     -10.533  17.759  66.378  1.00  0.00    -0.348 OA 
HETATM   15  C   UNL     1      -8.564  16.389  66.094  1.00  0.00    -0.343 C  
HETATM   16  C   UNL     1      -7.518  16.051  67.140  1.00  0.00    -0.253 C  
HETATM   17  C   UNL     1      -8.221  16.277  68.444  1.00  0.00    -0.185 C  
HETATM   18  O   UNL     1      -7.748  16.027  69.542  1.00  0.00    -0.217 OA 
ENDBRANCH  11  12
ENDBRANCH  10  11
ENDBRANCH   9  10
ENDBRANCH   7   9
ENDBRANCH   6   7
ENDBRANCH   3   5
ENDBRANCH   2   3
TORSDOF 7
ENDMDL
MODEL       84
REMARK 921   NORMALIZED FREE ENERGY PREDICTED BY IDOCK:   -4.62 KCAL/MOL
REMARK 922        TOTAL FREE ENERGY PREDICTED BY IDOCK:   -6.95 KCAL/MOL
REMARK 923 INTER-LIGAND FREE ENERGY PREDICTED BY IDOCK:   -6.55 KCAL/MOL
REMARK 924 INTRA-LIGAND FREE ENERGY PREDICTED BY IDOCK:   -0.40 KCAL/MOL
REMARK 927      BINDING AFFINITY PREDICTED BY RF-SCORE:    0.00 PKD
ROOT
HETATM    1  C   UNL     1     -13.887   8.885  72.171  1.00  0.00    -0.473 C  
HETATM    2  O   UNL     1     -12.682   9.644  72.073  1.00  0.00    -0.383 OA 
ENDROOT
BRANCH   2   3
HETATM    3  C   UNL     1     -11.579   8.885  71.869  1.00  0.00    -0.371 C  
HETATM    4  O   UNL     1     -10.920   8.311  72.721  1.00  0.00    -0.354 OA 
BRANCH   3   5
HETATM    5  C   UNL     1     -11.282   8.879  70.428  1.00  0.00    -0.259 C  
HETATM    6  C   UNL     1     -11.233  10.052  69.787  1.00  0.00    -0.307 C  
BRANCH   6   7
HETATM    7  C   UNL     1     -11.089  10.088  68.323  1.00  0.00    -0.190 C  
HETATM    8  O   UNL     1     -10.459   9.288  67.657  1.00  0.00    -0.238 OA 
BRANCH   7   9
HETATM    9  O   UNL     1     -11.920  11.056  67.870  1.00  0.00    -0.620 OA 
BRANCH   9  10
HETATM   10  C   UNL     1     -11.350  12.374  67.839  1.00  0.00    -0.289 C  
BRANCH  10  11
HETATM   11  C   UNL     1     -10.683  12.508  66.475  1.00  0.00    -0.240 C  
BRANCH  11  12
HETATM   12  N   UNL     1     -11.095  13.662  65.714  1.00  0.00    -0.287 N  
HETATM   13  C   UNL     1     -12.242  13.717  64.978  1.00  0.00    -0.421 C  
HETATM   14  O   UNL     1     -13.138  12.891  64.959  1.00  0.00    -0.794 OA 
HETATM   15  C   UNL     1     -12.198  14.960  64.140  1.00  0.00    -0.280 C  
HETATM   16  C   UNL     1     -11.107  15.795  64.786  1.00  0.00    -0.413 C  
HETATM   17  C   UNL     1     -10.397  14.832  65.688  1.00  0.00    -0.349 C  
HETATM   18  O   UNL     1      -9.388  15.089  66.326  1.00  0.00    -0.282 OA 
ENDBRANCH  11  12
ENDBRANCH  10  11
ENDBRANCH   9  10
ENDBRANCH   7   9
ENDBRANCH   6   7
ENDBRANCH   3   5
ENDBRANCH   2   3
TORSDOF 7
ENDMDL
MODEL       85
REMARK 921   NORMALIZED FREE ENERGY PREDICTED BY IDOCK:   -4.62 KCAL/MOL
REMARK 922        TOTAL FREE ENERGY PREDICTED BY IDOCK:   -6.94 KCAL/MOL
REMARK 923 INTER-LIGAND FREE ENERGY PREDICTED BY IDOCK:   -6.63 KCAL/MOL
REMARK 924 INTRA-LIGAND FREE ENERGY PREDICTED BY IDOCK:   -0.31 KCAL/MOL
REMARK 927      BINDING AFFINITY PREDICTED BY RF-SCORE:    0.00 PKD
ROOT
HETATM    1  C   UNL     1     -13.236   9.526  71.850  1.00  0.00    -0.439 C  
HETATM    2  O   UNL     1     -13.236  10.949  71.965  1.00  0.00    -0.492 OA 
ENDROOT
BRANCH   2   3
HETATM    3  C   UNL     1     -12.534  11.571  70.988  1.00  0.00    -0.356 C  
HETATM    4  O   UNL     1     -11.816  11.042  70.154  1.00  0.00    -0.294 OA 
BRANCH   3   5
HETATM    5  C   UNL     1     -12.759  13.020  71.107  1.00  0.00    -0.372 C  
HETATM    6  C   UNL     1     -12.380  13.804  70.092  1.00  0.00    -0.390 C  
BRANCH   6   7
HETATM    7  C   UNL     1     -12.444  15.268  70.225  1.00  0.00    -0.363 C  
HETATM    8  O   UNL     1     -12.834  15.869  71.209  1.00  0.00    -0.471 OA 
BRANCH   7   9
HETATM    9  O   UNL     1     -11.836  15.790  69.134  1.00  0.00    -0.381 OA 
BRANCH   9  10
HETATM   10  C   UNL     1     -10.709  16.633  69.418  1.00  0.00    -0.331 C  
BRANCH  10  11
HETATM   11  C   UNL     1     -10.047  16.911  68.072  1.00  0.00    -0.293 C  
BRANCH  11  12
HETATM   12  N   UNL     1      -9.308  18.147  68.009  1.00  0.00    -0.276 N  
HETATM   13  C   UNL     1      -9.818  19.314  67.521  1.00  0.00    -0.340 C  
HETATM   14  O   UNL     1     -10.977  19.529  67.207  1.00  0.00    -0.499 OA 
HETATM   15  C   UNL     1      -8.692  20.294  67.384  1.00  0.00    -0.428 C  
HETATM   16  C   UNL     1      -7.582  19.692  68.226  1.00  0.00    -0.351 C  
HETATM   17  C   UNL     1      -8.033  18.285  68.471  1.00  0.00    -0.308 C  
HETATM   18  O   UNL     1      -7.371  17.429  69.039  1.00  0.00    -0.250 OA 
ENDBRANCH  11  12
ENDBRANCH  10  11
ENDBRANCH   9  10
ENDBRANCH   7   9
ENDBRANCH   6   7
ENDBRANCH   3   5
ENDBRANCH   2   3
TORSDOF 7
ENDMDL
MODEL       86
REMARK 921   NORMALIZED FREE ENERGY PREDICTED BY IDOCK:   -4.61 KCAL/MOL
REMARK 922        TOTAL FREE ENERGY PREDICTED BY IDOCK:   -6.94 KCAL/MOL
REMARK 923 INTER-LIGAND FREE ENERGY PREDICTED BY IDOCK:   -6.54 KCAL/MOL
REMARK 924 INTRA-LIGAND FREE ENERGY PREDICTED BY IDOCK:   -0.40 KCAL/MOL
REMARK 927      BINDING AFFINITY PREDICTED BY RF-SCORE:    0.00 PKD
ROOT
HETATM    1  C   UNL     1     -12.247   7.803  71.558  1.00  0.00    -0.318 C  
HETATM    2  O   UNL     1     -12.477   8.944  72.385  1.00  0.00    -0.375 OA 
ENDROOT
BRANCH   2   3
HETATM    3  C   UNL     1     -12.645  10.093  71.689  1.00  0.00    -0.434 C  
HETATM    4  O   UNL     1     -13.344  11.042  72.005  1.00  0.00    -0.455 OA 
BRANCH   3   5
HETATM    5  C   UNL     1     -11.851  10.006  70.454  1.00  0.00    -0.343 C  
HETATM    6  C   UNL     1     -12.019  10.955  69.526  1.00  0.00    -0.401 C  
BRANCH   6   7
HETATM    7  C   UNL     1     -11.363  10.831  68.215  1.00  0.00    -0.309 C  
HETATM    8  O   UNL     1     -10.518  10.004  67.926  1.00  0.00    -0.199 OA 
BRANCH   7   9
HETATM    9  O   UNL     1     -11.999  11.680  67.374  1.00  0.00    -0.621 OA 
BRANCH   9  10
HETATM   10  C   UNL     1     -11.174  12.724  66.834  1.00  0.00    -0.296 C  
BRANCH  10  11
HETATM   11  C   UNL     1     -12.049  13.972  66.802  1.00  0.00    -0.447 C  
BRANCH  11  12
HETATM   12  N   UNL     1     -11.330  15.214  66.947  1.00  0.00    -0.307 N  
HETATM   13  C   UNL     1     -11.095  15.820  68.146  1.00  0.00    -0.341 C  
HETATM   14  O   UNL     1     -11.316  15.360  69.253  1.00  0.00    -0.273 OA 
HETATM   15  C   UNL     1     -10.555  17.193  67.876  1.00  0.00    -0.376 C  
HETATM   16  C   UNL     1     -10.131  17.137  66.419  1.00  0.00    -0.326 C  
HETATM   17  C   UNL     1     -10.777  15.889  65.900  1.00  0.00    -0.296 C  
HETATM   18  O   UNL     1     -10.757  15.527  64.733  1.00  0.00    -0.421 OA 
ENDBRANCH  11  12
ENDBRANCH  10  11
ENDBRANCH   9  10
ENDBRANCH   7   9
ENDBRANCH   6   7
ENDBRANCH   3   5
ENDBRANCH   2   3
TORSDOF 7
ENDMDL
MODEL       87
REMARK 921   NORMALIZED FREE ENERGY PREDICTED BY IDOCK:   -4.58 KCAL/MOL
REMARK 922        TOTAL FREE ENERGY PREDICTED BY IDOCK:   -6.90 KCAL/MOL
REMARK 923 INTER-LIGAND FREE ENERGY PREDICTED BY IDOCK:   -6.28 KCAL/MOL
REMARK 924 INTRA-LIGAND FREE ENERGY PREDICTED BY IDOCK:   -0.62 KCAL/MOL
REMARK 927      BINDING AFFINITY PREDICTED BY RF-SCORE:    0.00 PKD
ROOT
HETATM    1  C   UNL     1     -10.644  10.144  69.621  1.00  0.00    -0.257 C  
HETATM    2  O   UNL     1     -11.205  11.451  69.495  1.00  0.00    -0.254 OA 
ENDROOT
BRANCH   2   3
HETATM    3  C   UNL     1     -10.637  12.191  68.514  1.00  0.00    -0.233 C  
HETATM    4  O   UNL     1      -9.470  12.543  68.446  1.00  0.00    -0.214 OA 
BRANCH   3   5
HETATM    5  C   UNL     1     -11.677  12.531  67.530  1.00  0.00    -0.439 C  
HETATM    6  C   UNL     1     -11.300  12.780  66.271  1.00  0.00    -0.365 C  
BRANCH   6   7
HETATM    7  C   UNL     1     -12.279  13.270  65.289  1.00  0.00    -0.448 C  
HETATM    8  O   UNL     1     -13.202  12.621  64.832  1.00  0.00    -0.819 OA 
BRANCH   7   9
HETATM    9  O   UNL     1     -12.058  14.597  65.140  1.00  0.00    -0.363 OA 
BRANCH   9  10
HETATM   10  C   UNL     1     -10.675  14.971  65.044  1.00  0.00    -0.427 C  
BRANCH  10  11
HETATM   11  C   UNL     1     -10.613  16.443  65.436  1.00  0.00    -0.320 C  
BRANCH  11  12
HETATM   12  N   UNL     1      -9.897  16.711  66.658  1.00  0.00    -0.261 N  
HETATM   13  C   UNL     1     -10.401  16.471  67.902  1.00  0.00    -0.294 C  
HETATM   14  O   UNL     1     -11.435  15.882  68.170  1.00  0.00    -0.350 OA 
HETATM   15  C   UNL     1      -9.485  17.103  68.907  1.00  0.00    -0.217 C  
HETATM   16  C   UNL     1      -8.212  17.365  68.123  1.00  0.00    -0.238 C  
HETATM   17  C   UNL     1      -8.624  17.195  66.693  1.00  0.00    -0.253 C  
HETATM   18  O   UNL     1      -7.904  17.411  65.729  1.00  0.00    -0.526 OA 
ENDBRANCH  11  12
ENDBRANCH  10  11
ENDBRANCH   9  10
ENDBRANCH   7   9
ENDBRANCH   6   7
ENDBRANCH   3   5
ENDBRANCH   2   3
TORSDOF 7
ENDMDL
MODEL       88
REMARK 921   NORMALIZED FREE ENERGY PREDICTED BY IDOCK:   -4.54 KCAL/MOL
REMARK 922        TOTAL FREE ENERGY PREDICTED BY IDOCK:   -6.84 KCAL/MOL
REMARK 923 INTER-LIGAND FREE ENERGY PREDICTED BY IDOCK:   -6.25 KCAL/MOL
REMARK 924 INTRA-LIGAND FREE ENERGY PREDICTED BY IDOCK:   -0.58 KCAL/MOL
REMARK 927      BINDING AFFINITY PREDICTED BY RF-SCORE:    0.00 PKD
ROOT
HETATM    1  C   UNL     1     -10.989  16.916  64.743  1.00  0.00     0.091 C  
HETATM    2  O   UNL     1     -11.842  16.125  63.916  1.00  0.00    -0.921 OA 
ENDROOT
BRANCH   2   3
HETATM    3  C   UNL     1     -11.970  14.845  64.338  1.00  0.00    -0.394 C  
HETATM    4  O   UNL     1     -12.687  13.984  63.854  1.00  0.00    -0.670 OA 
BRANCH   3   5
HETATM    5  C   UNL     1     -11.105  14.657  65.513  1.00  0.00    -0.345 C  
HETATM    6  C   UNL     1     -11.623  14.056  66.590  1.00  0.00    -0.400 C  
BRANCH   6   7
HETATM    7  C   UNL     1     -10.849  13.980  67.839  1.00  0.00    -0.244 C  
HETATM    8  O   UNL     1     -10.877  13.055  68.629  1.00  0.00    -0.247 OA 
BRANCH   7   9
HETATM    9  O   UNL     1      -9.994  15.030  67.838  1.00  0.00    -0.220 OA 
BRANCH   9  10
HETATM   10  C   UNL     1     -10.307  16.062  68.786  1.00  0.00    -0.237 C  
BRANCH  10  11
HETATM   11  C   UNL     1      -9.043  16.905  68.915  1.00  0.00    -0.223 C  
BRANCH  11  12
HETATM   12  N   UNL     1      -9.012  18.075  68.072  1.00  0.00    -0.266 N  
HETATM   13  C   UNL     1      -9.613  19.257  68.389  1.00  0.00    -0.385 C  
HETATM   14  O   UNL     1     -10.127  19.552  69.455  1.00  0.00    -0.356 OA 
HETATM   15  C   UNL     1      -9.580  20.137  67.176  1.00  0.00    -0.554 C  
HETATM   16  C   UNL     1      -8.544  19.484  66.280  1.00  0.00    -0.382 C  
HETATM   17  C   UNL     1      -8.341  18.129  66.886  1.00  0.00    -0.245 C  
HETATM   18  O   UNL     1      -7.645  17.247  66.406  1.00  0.00    -0.257 OA 
ENDBRANCH  11  12
ENDBRANCH  10  11
ENDBRANCH   9  10
ENDBRANCH   7   9
ENDBRANCH   6   7
ENDBRANCH   3   5
ENDBRANCH   2   3
TORSDOF 7
ENDMDL
MODEL       89
REMARK 921   NORMALIZED FREE ENERGY PREDICTED BY IDOCK:   -4.54 KCAL/MOL
REMARK 922        TOTAL FREE ENERGY PREDICTED BY IDOCK:   -6.83 KCAL/MOL
REMARK 923 INTER-LIGAND FREE ENERGY PREDICTED BY IDOCK:   -6.29 KCAL/MOL
REMARK 924 INTRA-LIGAND FREE ENERGY PREDICTED BY IDOCK:   -0.54 KCAL/MOL
REMARK 927      BINDING AFFINITY PREDICTED BY RF-SCORE:    0.00 PKD
ROOT
HETATM    1  C   UNL     1     -13.594  15.094  72.181  1.00  0.00    -0.455 C  
HETATM    2  O   UNL     1     -12.938  14.357  71.149  1.00  0.00    -0.321 OA 
ENDROOT
BRANCH   2   3
HETATM    3  C   UNL     1     -13.028  13.015  71.303  1.00  0.00    -0.243 C  
HETATM    4  O   UNL     1     -13.613  12.418  72.193  1.00  0.00    -0.483 OA 
BRANCH   3   5
HETATM    5  C   UNL     1     -12.273  12.373  70.215  1.00  0.00    -0.345 C  
HETATM    6  C   UNL     1     -11.852  11.116  70.393  1.00  0.00    -0.462 C  
BRANCH   6   7
HETATM    7  C   UNL     1     -10.967  10.486  69.400  1.00  0.00    -0.250 C  
HETATM    8  O   UNL     1      -9.969   9.839  69.658  1.00  0.00    -0.195 OA 
BRANCH   7   9
HETATM    9  O   UNL     1     -11.570  10.617  68.195  1.00  0.00    -0.429 OA 
BRANCH   9  10
HETATM   10  C   UNL     1     -10.751  10.261  67.070  1.00  0.00    -0.216 C  
BRANCH  10  11
HETATM   11  C   UNL     1     -10.123  11.563  66.584  1.00  0.00    -0.210 C  
BRANCH  11  12
HETATM   12  N   UNL     1     -10.924  12.299  65.637  1.00  0.00    -0.289 N  
HETATM   13  C   UNL     1     -10.993  12.002  64.308  1.00  0.00    -0.346 C  
HETATM   14  O   UNL     1     -10.527  11.022  63.753  1.00  0.00    -0.363 OA 
HETATM   15  C   UNL     1     -11.709  13.124  63.617  1.00  0.00    -0.505 C  
HETATM   16  C   UNL     1     -12.387  13.875  64.749  1.00  0.00    -0.429 C  
HETATM   17  C   UNL     1     -11.726  13.345  65.984  1.00  0.00    -0.362 C  
HETATM   18  O   UNL     1     -11.925  13.763  67.115  1.00  0.00    -0.385 OA 
ENDBRANCH  11  12
ENDBRANCH  10  11
ENDBRANCH   9  10
ENDBRANCH   7   9
ENDBRANCH   6   7
ENDBRANCH   3   5
ENDBRANCH   2   3
TORSDOF 7
ENDMDL
MODEL       90
REMARK 921   NORMALIZED FREE ENERGY PREDICTED BY IDOCK:   -4.53 KCAL/MOL
REMARK 922        TOTAL FREE ENERGY PREDICTED BY IDOCK:   -6.82 KCAL/MOL
REMARK 923 INTER-LIGAND FREE ENERGY PREDICTED BY IDOCK:   -6.44 KCAL/MOL
REMARK 924 INTRA-LIGAND FREE ENERGY PREDICTED BY IDOCK:   -0.38 KCAL/MOL
REMARK 927      BINDING AFFINITY PREDICTED BY RF-SCORE:    0.00 PKD
ROOT
HETATM    1  C   UNL     1     -10.182  19.464  68.361  1.00  0.00    -0.418 C  
HETATM    2  O   UNL     1     -10.045  19.895  67.007  1.00  0.00    -0.389 OA 
ENDROOT
BRANCH   2   3
HETATM    3  C   UNL     1     -10.436  18.968  66.101  1.00  0.00    -0.467 C  
HETATM    4  O   UNL     1     -10.803  19.176  64.956  1.00  0.00    -0.372 OA 
BRANCH   3   5
HETATM    5  C   UNL     1     -10.367  17.643  66.736  1.00  0.00    -0.331 C  
HETATM    6  C   UNL     1     -10.298  16.566  65.946  1.00  0.00    -0.365 C  
BRANCH   6   7
HETATM    7  C   UNL     1     -10.380  15.217  66.527  1.00  0.00    -0.282 C  
HETATM    8  O   UNL     1     -10.692  14.963  67.675  1.00  0.00    -0.261 OA 
BRANCH   7   9
HETATM    9  O   UNL     1     -10.217  14.339  65.509  1.00  0.00    -0.322 OA 
BRANCH   9  10
HETATM   10  C   UNL     1     -11.238  14.389  64.500  1.00  0.00    -0.306 C  
BRANCH  10  11
HETATM   11  C   UNL     1     -11.930  13.031  64.541  1.00  0.00    -0.394 C  
BRANCH  11  12
HETATM   12  N   UNL     1     -11.092  11.942  64.978  1.00  0.00    -0.310 N  
HETATM   13  C   UNL     1     -10.157  11.339  64.189  1.00  0.00    -0.320 C  
HETATM   14  O   UNL     1      -9.790  11.701  63.084  1.00  0.00    -0.393 OA 
HETATM   15  C   UNL     1      -9.677  10.107  64.895  1.00  0.00    -0.392 C  
HETATM   16  C   UNL     1     -10.138  10.305  66.328  1.00  0.00    -0.300 C  
HETATM   17  C   UNL     1     -11.123  11.430  66.240  1.00  0.00    -0.221 C  
HETATM   18  O   UNL     1     -11.798  11.840  67.173  1.00  0.00    -0.599 OA 
ENDBRANCH  11  12
ENDBRANCH  10  11
ENDBRANCH   9  10
ENDBRANCH   7   9
ENDBRANCH   6   7
ENDBRANCH   3   5
ENDBRANCH   2   3
TORSDOF 7
ENDMDL
MODEL       91
REMARK 921   NORMALIZED FREE ENERGY PREDICTED BY IDOCK:   -4.52 KCAL/MOL
REMARK 922        TOTAL FREE ENERGY PREDICTED BY IDOCK:   -6.81 KCAL/MOL
REMARK 923 INTER-LIGAND FREE ENERGY PREDICTED BY IDOCK:   -6.20 KCAL/MOL
REMARK 924 INTRA-LIGAND FREE ENERGY PREDICTED BY IDOCK:   -0.61 KCAL/MOL
REMARK 927      BINDING AFFINITY PREDICTED BY RF-SCORE:    0.00 PKD
ROOT
HETATM    1  C   UNL     1     -10.602   9.591  67.738  1.00  0.00    -0.261 C  
HETATM    2  O   UNL     1     -11.704  10.498  67.718  1.00  0.00    -0.438 OA 
ENDROOT
BRANCH   2   3
HETATM    3  C   UNL     1     -11.890  11.150  68.890  1.00  0.00    -0.337 C  
HETATM    4  O   UNL     1     -12.409  10.704  69.900  1.00  0.00    -0.309 OA 
BRANCH   3   5
HETATM    5  C   UNL     1     -11.375  12.521  68.743  1.00  0.00    -0.337 C  
HETATM    6  C   UNL     1     -11.698  13.203  67.639  1.00  0.00    -0.414 C  
BRANCH   6   7
HETATM    7  C   UNL     1     -11.087  14.515  67.376  1.00  0.00    -0.314 C  
HETATM    8  O   UNL     1     -11.293  15.203  66.392  1.00  0.00    -0.320 OA 
BRANCH   7   9
HETATM    9  O   UNL     1     -10.413  14.869  68.495  1.00  0.00    -0.231 OA 
BRANCH   9  10
HETATM   10  C   UNL     1     -10.681  16.199  68.966  1.00  0.00    -0.287 C  
BRANCH  10  11
HETATM   11  C   UNL     1      -9.395  16.986  68.741  1.00  0.00    -0.257 C  
BRANCH  11  12
HETATM   12  N   UNL     1      -9.537  18.138  67.885  1.00  0.00    -0.280 N  
HETATM   13  C   UNL     1      -9.964  19.359  68.318  1.00  0.00    -0.422 C  
HETATM   14  O   UNL     1     -10.148  19.700  69.474  1.00  0.00    -0.326 OA 
HETATM   15  C   UNL     1     -10.223  20.215  67.115  1.00  0.00    -0.554 C  
HETATM   16  C   UNL     1      -9.510  19.488  65.990  1.00  0.00    -0.309 C  
HETATM   17  C   UNL     1      -9.219  18.133  66.560  1.00  0.00    -0.281 C  
HETATM   18  O   UNL     1      -8.729  17.205  65.934  1.00  0.00    -0.526 OA 
ENDBRANCH  11  12
ENDBRANCH  10  11
ENDBRANCH   9  10
ENDBRANCH   7   9
ENDBRANCH   6   7
ENDBRANCH   3   5
ENDBRANCH   2   3
TORSDOF 7
ENDMDL
MODEL       92
REMARK 921   NORMALIZED FREE ENERGY PREDICTED BY IDOCK:   -4.52 KCAL/MOL
REMARK 922        TOTAL FREE ENERGY PREDICTED BY IDOCK:   -6.80 KCAL/MOL
REMARK 923 INTER-LIGAND FREE ENERGY PREDICTED BY IDOCK:   -6.40 KCAL/MOL
REMARK 924 INTRA-LIGAND FREE ENERGY PREDICTED BY IDOCK:   -0.40 KCAL/MOL
REMARK 927      BINDING AFFINITY PREDICTED BY RF-SCORE:    0.00 PKD
ROOT
HETATM    1  C   UNL     1      -9.260   8.951  65.980  1.00  0.00    -0.228 C  
HETATM    2  O   UNL     1     -10.294   9.927  66.104  1.00  0.00    -0.230 OA 
ENDROOT
BRANCH   2   3
HETATM    3  C   UNL     1     -10.174  10.956  65.232  1.00  0.00    -0.288 C  
HETATM    4  O   UNL     1      -9.298  11.107  64.395  1.00  0.00    -0.208 OA 
BRANCH   3   5
HETATM    5  C   UNL     1     -11.279  11.897  65.472  1.00  0.00    -0.353 C  
HETATM    6  C   UNL     1     -11.159  13.146  65.008  1.00  0.00    -0.322 C  
BRANCH   6   7
HETATM    7  C   UNL     1     -12.165  14.162  65.352  1.00  0.00    -0.433 C  
HETATM    8  O   UNL     1     -13.369  14.028  65.235  1.00  0.00    -0.741 OA 
BRANCH   7   9
HETATM    9  O   UNL     1     -11.510  15.173  65.969  1.00  0.00    -0.285 OA 
BRANCH   9  10
HETATM   10  C   UNL     1     -10.350  15.654  65.272  1.00  0.00    -0.375 C  
BRANCH  10  11
HETATM   11  C   UNL     1      -9.343  16.032  66.353  1.00  0.00    -0.298 C  
BRANCH  11  12
HETATM   12  N   UNL     1      -9.442  17.394  66.818  1.00  0.00    -0.264 N  
HETATM   13  C   UNL     1     -10.310  17.805  67.786  1.00  0.00    -0.380 C  
HETATM   14  O   UNL     1     -11.010  17.095  68.488  1.00  0.00    -0.317 OA 
HETATM   15  C   UNL     1     -10.300  19.304  67.814  1.00  0.00    -0.531 C  
HETATM   16  C   UNL     1      -9.042  19.674  67.049  1.00  0.00    -0.402 C  
HETATM   17  C   UNL     1      -8.647  18.403  66.363  1.00  0.00    -0.247 C  
HETATM   18  O   UNL     1      -7.727  18.299  65.566  1.00  0.00    -0.498 OA 
ENDBRANCH  11  12
ENDBRANCH  10  11
ENDBRANCH   9  10
ENDBRANCH   7   9
ENDBRANCH   6   7
ENDBRANCH   3   5
ENDBRANCH   2   3
TORSDOF 7
ENDMDL
MODEL       93
REMARK 921   NORMALIZED FREE ENERGY PREDICTED BY IDOCK:   -4.50 KCAL/MOL
REMARK 922        TOTAL FREE ENERGY PREDICTED BY IDOCK:   -6.78 KCAL/MOL
REMARK 923 INTER-LIGAND FREE ENERGY PREDICTED BY IDOCK:   -6.21 KCAL/MOL
REMARK 924 INTRA-LIGAND FREE ENERGY PREDICTED BY IDOCK:   -0.57 KCAL/MOL
REMARK 927      BINDING AFFINITY PREDICTED BY RF-SCORE:    0.00 PKD
ROOT
HETATM    1  C   UNL     1     -10.192  11.804  63.281  1.00  0.00    -0.416 C  
HETATM    2  O   UNL     1     -11.087  12.864  63.617  1.00  0.00    -0.419 OA 
ENDROOT
BRANCH   2   3
HETATM    3  C   UNL     1     -12.296  12.436  64.050  1.00  0.00    -0.488 C  
HETATM    4  O   UNL     1     -13.202  11.992  63.364  1.00  0.00    -0.687 OA 
BRANCH   3   5
HETATM    5  C   UNL     1     -12.354  12.613  65.510  1.00  0.00    -0.455 C  
HETATM    6  C   UNL     1     -11.822  13.722  66.034  1.00  0.00    -0.415 C  
BRANCH   6   7
HETATM    7  C   UNL     1     -11.720  13.875  67.494  1.00  0.00    -0.380 C  
HETATM    8  O   UNL     1     -11.310  13.025  68.263  1.00  0.00    -0.251 OA 
BRANCH   7   9
HETATM    9  O   UNL     1     -11.998  15.169  67.776  1.00  0.00    -0.250 OA 
BRANCH   9  10
HETATM   10  C   UNL     1     -11.707  15.569  69.124  1.00  0.00    -0.365 C  
BRANCH  10  11
HETATM   11  C   UNL     1     -10.766  16.764  69.010  1.00  0.00    -0.331 C  
BRANCH  11  12
HETATM   12  N   UNL     1      -9.673  16.582  68.087  1.00  0.00    -0.230 N  
HETATM   13  C   UNL     1      -8.596  15.782  68.332  1.00  0.00    -0.171 C  
HETATM   14  O   UNL     1      -8.458  15.010  69.266  1.00  0.00    -0.200 OA 
HETATM   15  C   UNL     1      -7.569  16.045  67.273  1.00  0.00    -0.227 C  
HETATM   16  C   UNL     1      -8.344  16.770  66.187  1.00  0.00    -0.301 C  
HETATM   17  C   UNL     1      -9.625  17.163  66.855  1.00  0.00    -0.262 C  
HETATM   18  O   UNL     1     -10.495  17.852  66.343  1.00  0.00    -0.362 OA 
ENDBRANCH  11  12
ENDBRANCH  10  11
ENDBRANCH   9  10
ENDBRANCH   7   9
ENDBRANCH   6   7
ENDBRANCH   3   5
ENDBRANCH   2   3
TORSDOF 7
ENDMDL
MODEL       94
REMARK 921   NORMALIZED FREE ENERGY PREDICTED BY IDOCK:   -4.50 KCAL/MOL
REMARK 922        TOTAL FREE ENERGY PREDICTED BY IDOCK:   -6.77 KCAL/MOL
REMARK 923 INTER-LIGAND FREE ENERGY PREDICTED BY IDOCK:   -6.25 KCAL/MOL
REMARK 924 INTRA-LIGAND FREE ENERGY PREDICTED BY IDOCK:   -0.53 KCAL/MOL
REMARK 927      BINDING AFFINITY PREDICTED BY RF-SCORE:    0.00 PKD
ROOT
HETATM    1  C   UNL     1     -11.209   6.356  69.942  1.00  0.00    -0.420 C  
HETATM    2  O   UNL     1     -10.628   6.772  71.177  1.00  0.00    -0.220 OA 
ENDROOT
BRANCH   2   3
HETATM    3  C   UNL     1     -10.495   8.115  71.287  1.00  0.00    -0.209 C  
HETATM    4  O   UNL     1     -10.258   8.745  72.306  1.00  0.00    -0.313 OA 
BRANCH   3   5
HETATM    5  C   UNL     1     -10.706   8.711  69.959  1.00  0.00    -0.233 C  
HETATM    6  C   UNL     1     -10.577  10.037  69.833  1.00  0.00    -0.324 C  
BRANCH   6   7
HETATM    7  C   UNL     1     -10.925  10.696  68.565  1.00  0.00    -0.248 C  
HETATM    8  O   UNL     1     -11.376  10.137  67.582  1.00  0.00    -0.282 OA 
BRANCH   7   9
HETATM    9  O   UNL     1     -10.814  12.030  68.770  1.00  0.00    -0.219 OA 
BRANCH   9  10
HETATM   10  C   UNL     1     -11.714  12.836  67.994  1.00  0.00    -0.356 C  
BRANCH  10  11
HETATM   11  C   UNL     1     -10.863  13.481  66.906  1.00  0.00    -0.282 C  
BRANCH  11  12
HETATM   12  N   UNL     1     -11.117  12.992  65.574  1.00  0.00    -0.274 N  
HETATM   13  C   UNL     1     -10.302  12.119  64.916  1.00  0.00    -0.289 C  
HETATM   14  O   UNL     1      -9.344  11.523  65.380  1.00  0.00    -0.217 OA 
HETATM   15  C   UNL     1     -10.753  12.046  63.488  1.00  0.00    -0.513 C  
HETATM   16  C   UNL     1     -12.146  12.649  63.515  1.00  0.00    -0.648 C  
HETATM   17  C   UNL     1     -12.225  13.322  64.851  1.00  0.00    -0.420 C  
HETATM   18  O   UNL     1     -13.161  14.010  65.231  1.00  0.00    -0.782 OA 
ENDBRANCH  11  12
ENDBRANCH  10  11
ENDBRANCH   9  10
ENDBRANCH   7   9
ENDBRANCH   6   7
ENDBRANCH   3   5
ENDBRANCH   2   3
TORSDOF 7
ENDMDL
MODEL       95
REMARK 921   NORMALIZED FREE ENERGY PREDICTED BY IDOCK:   -4.49 KCAL/MOL
REMARK 922        TOTAL FREE ENERGY PREDICTED BY IDOCK:   -6.77 KCAL/MOL
REMARK 923 INTER-LIGAND FREE ENERGY PREDICTED BY IDOCK:   -6.25 KCAL/MOL
REMARK 924 INTRA-LIGAND FREE ENERGY PREDICTED BY IDOCK:   -0.52 KCAL/MOL
REMARK 927      BINDING AFFINITY PREDICTED BY RF-SCORE:    0.00 PKD
ROOT
HETATM    1  C   UNL     1     -10.096  19.648  68.855  1.00  0.00    -0.401 C  
HETATM    2  O   UNL     1     -10.134  20.362  67.620  1.00  0.00    -0.402 OA 
ENDROOT
BRANCH   2   3
HETATM    3  C   UNL     1     -10.378  19.575  66.547  1.00  0.00    -0.482 C  
HETATM    4  O   UNL     1     -10.794  19.934  65.457  1.00  0.00    -0.426 OA 
BRANCH   3   5
HETATM    5  C   UNL     1     -10.075  18.183  66.915  1.00  0.00    -0.362 C  
HETATM    6  C   UNL     1     -10.045  17.264  65.944  1.00  0.00    -0.226 C  
BRANCH   6   7
HETATM    7  C   UNL     1      -9.898  15.839  66.279  1.00  0.00    -0.297 C  
HETATM    8  O   UNL     1      -9.666  15.397  67.389  1.00  0.00    -0.214 OA 
BRANCH   7   9
HETATM    9  O   UNL     1     -10.238  15.136  65.173  1.00  0.00    -0.372 OA 
BRANCH   9  10
HETATM   10  C   UNL     1     -11.598  15.308  64.744  1.00  0.00    -0.322 C  
BRANCH  10  11
HETATM   11  C   UNL     1     -12.362  14.109  65.295  1.00  0.00    -0.460 C  
BRANCH  11  12
HETATM   12  N   UNL     1     -11.632  12.865  65.265  1.00  0.00    -0.326 N  
HETATM   13  C   UNL     1     -11.174  12.226  66.379  1.00  0.00    -0.324 C  
HETATM   14  O   UNL     1     -11.422  12.511  67.539  1.00  0.00    -0.293 OA 
HETATM   15  C   UNL     1     -10.259  11.122  65.940  1.00  0.00    -0.303 C  
HETATM   16  C   UNL     1     -10.574  10.954  64.465  1.00  0.00    -0.335 C  
HETATM   17  C   UNL     1     -11.360  12.181  64.118  1.00  0.00    -0.380 C  
HETATM   18  O   UNL     1     -11.729  12.477  62.992  1.00  0.00    -0.326 OA 
ENDBRANCH  11  12
ENDBRANCH  10  11
ENDBRANCH   9  10
ENDBRANCH   7   9
ENDBRANCH   6   7
ENDBRANCH   3   5
ENDBRANCH   2   3
TORSDOF 7
ENDMDL
MODEL       96
REMARK 921   NORMALIZED FREE ENERGY PREDICTED BY IDOCK:   -4.49 KCAL/MOL
REMARK 922        TOTAL FREE ENERGY PREDICTED BY IDOCK:   -6.77 KCAL/MOL
REMARK 923 INTER-LIGAND FREE ENERGY PREDICTED BY IDOCK:   -6.08 KCAL/MOL
REMARK 924 INTRA-LIGAND FREE ENERGY PREDICTED BY IDOCK:   -0.68 KCAL/MOL
REMARK 927      BINDING AFFINITY PREDICTED BY RF-SCORE:    0.00 PKD
ROOT
HETATM    1  C   UNL     1     -11.532  11.840  63.503  1.00  0.00    -0.394 C  
HETATM    2  O   UNL     1     -12.441  12.913  63.256  1.00  0.00    -0.685 OA 
ENDROOT
BRANCH   2   3
HETATM    3  C   UNL     1     -12.394  13.888  64.194  1.00  0.00    -0.335 C  
HETATM    4  O   UNL     1     -12.698  15.061  64.044  1.00  0.00    -0.772 OA 
BRANCH   3   5
HETATM    5  C   UNL     1     -11.886  13.304  65.445  1.00  0.00    -0.392 C  
HETATM    6  C   UNL     1     -12.235  13.882  66.600  1.00  0.00    -0.465 C  
BRANCH   6   7
HETATM    7  C   UNL     1     -11.634  13.429  67.864  1.00  0.00    -0.339 C  
HETATM    8  O   UNL     1     -12.092  13.633  68.973  1.00  0.00    -0.344 OA 
BRANCH   7   9
HETATM    9  O   UNL     1     -10.600  12.617  67.541  1.00  0.00    -0.218 OA 
BRANCH   9  10
HETATM   10  C   UNL     1      -9.361  12.927  68.198  1.00  0.00    -0.214 C  
BRANCH  10  11
HETATM   11  C   UNL     1      -8.585  13.809  67.226  1.00  0.00    -0.212 C  
BRANCH  11  12
HETATM   12  N   UNL     1      -8.690  15.224  67.485  1.00  0.00    -0.171 N  
HETATM   13  C   UNL     1      -8.321  15.812  68.659  1.00  0.00    -0.183 C  
HETATM   14  O   UNL     1      -7.732  15.283  69.586  1.00  0.00    -0.219 OA 
HETATM   15  C   UNL     1      -8.808  17.230  68.644  1.00  0.00    -0.261 C  
HETATM   16  C   UNL     1      -9.126  17.490  67.182  1.00  0.00    -0.247 C  
HETATM   17  C   UNL     1      -9.133  16.126  66.563  1.00  0.00    -0.277 C  
HETATM   18  O   UNL     1      -9.441  15.888  65.405  1.00  0.00    -0.355 OA 
ENDBRANCH  11  12
ENDBRANCH  10  11
ENDBRANCH   9  10
ENDBRANCH   7   9
ENDBRANCH   6   7
ENDBRANCH   3   5
ENDBRANCH   2   3
TORSDOF 7
ENDMDL
MODEL       97
REMARK 921   NORMALIZED FREE ENERGY PREDICTED BY IDOCK:   -4.48 KCAL/MOL
REMARK 922        TOTAL FREE ENERGY PREDICTED BY IDOCK:   -6.76 KCAL/MOL
REMARK 923 INTER-LIGAND FREE ENERGY PREDICTED BY IDOCK:   -6.19 KCAL/MOL
REMARK 924 INTRA-LIGAND FREE ENERGY PREDICTED BY IDOCK:   -0.57 KCAL/MOL
REMARK 927      BINDING AFFINITY PREDICTED BY RF-SCORE:    0.00 PKD
ROOT
HETATM    1  C   UNL     1      -8.025  18.517  66.367  1.00  0.00    -0.267 C  
HETATM    2  O   UNL     1      -9.274  18.069  66.893  1.00  0.00    -0.255 OA 
ENDROOT
BRANCH   2   3
HETATM    3  C   UNL     1     -10.232  17.906  65.950  1.00  0.00    -0.224 C  
HETATM    4  O   UNL     1     -10.868  18.788  65.395  1.00  0.00    -0.563 OA 
BRANCH   3   5
HETATM    5  C   UNL     1     -10.404  16.465  65.708  1.00  0.00    -0.388 C  
HETATM    6  C   UNL     1     -11.266  16.082  64.761  1.00  0.00    -0.348 C  
BRANCH   6   7
HETATM    7  C   UNL     1     -11.585  14.656  64.585  1.00  0.00    -0.402 C  
HETATM    8  O   UNL     1     -12.560  14.220  64.001  1.00  0.00    -0.724 OA 
BRANCH   7   9
HETATM    9  O   UNL     1     -10.518  13.955  65.034  1.00  0.00    -0.363 OA 
BRANCH   9  10
HETATM   10  C   UNL     1     -10.842  12.843  65.885  1.00  0.00    -0.272 C  
BRANCH  10  11
HETATM   11  C   UNL     1     -10.135  13.114  67.209  1.00  0.00    -0.233 C  
BRANCH  11  12
HETATM   12  N   UNL     1     -10.980  13.012  68.373  1.00  0.00    -0.251 N  
HETATM   13  C   UNL     1     -11.674  14.060  68.902  1.00  0.00    -0.340 C  
HETATM   14  O   UNL     1     -11.803  15.170  68.415  1.00  0.00    -0.328 OA 
HETATM   15  C   UNL     1     -12.222  13.633  70.230  1.00  0.00    -0.423 C  
HETATM   16  C   UNL     1     -12.110  12.119  70.200  1.00  0.00    -0.368 C  
HETATM   17  C   UNL     1     -11.203  11.845  69.040  1.00  0.00    -0.258 C  
HETATM   18  O   UNL     1     -10.783  10.740  68.730  1.00  0.00    -0.181 OA 
ENDBRANCH  11  12
ENDBRANCH  10  11
ENDBRANCH   9  10
ENDBRANCH   7   9
ENDBRANCH   6   7
ENDBRANCH   3   5
ENDBRANCH   2   3
TORSDOF 7
ENDMDL
MODEL       98
REMARK 921   NORMALIZED FREE ENERGY PREDICTED BY IDOCK:   -4.47 KCAL/MOL
REMARK 922        TOTAL FREE ENERGY PREDICTED BY IDOCK:   -6.74 KCAL/MOL
REMARK 923 INTER-LIGAND FREE ENERGY PREDICTED BY IDOCK:   -6.31 KCAL/MOL
REMARK 924 INTRA-LIGAND FREE ENERGY PREDICTED BY IDOCK:   -0.43 KCAL/MOL
REMARK 927      BINDING AFFINITY PREDICTED BY RF-SCORE:    0.00 PKD
ROOT
HETATM    1  C   UNL     1     -12.149  12.751  63.536  1.00  0.00    -0.559 C  
HETATM    2  O   UNL     1     -11.220  12.885  64.612  1.00  0.00    -0.297 OA 
ENDROOT
BRANCH   2   3
HETATM    3  C   UNL     1     -11.506  13.909  65.450  1.00  0.00    -0.312 C  
HETATM    4  O   UNL     1     -12.508  14.035  66.135  1.00  0.00    -0.467 OA 
BRANCH   3   5
HETATM    5  C   UNL     1     -10.402  14.880  65.386  1.00  0.00    -0.413 C  
HETATM    6  C   UNL     1      -9.568  14.959  66.428  1.00  0.00    -0.317 C  
BRANCH   6   7
HETATM    7  C   UNL     1      -8.544  16.014  66.478  1.00  0.00    -0.309 C  
HETATM    8  O   UNL     1      -8.386  16.881  65.638  1.00  0.00    -0.379 OA 
BRANCH   7   9
HETATM    9  O   UNL     1      -7.953  15.934  67.693  1.00  0.00    -0.135 OA 
BRANCH   9  10
HETATM   10  C   UNL     1      -6.981  16.957  67.959  1.00  0.00    -0.152 C  
BRANCH  10  11
HETATM   11  C   UNL     1      -7.657  17.932  68.918  1.00  0.00    -0.217 C  
BRANCH  11  12
HETATM   12  N   UNL     1      -8.673  18.760  68.316  1.00  0.00    -0.322 N  
HETATM   13  C   UNL     1      -8.405  19.847  67.538  1.00  0.00    -0.324 C  
HETATM   14  O   UNL     1      -7.313  20.196  67.122  1.00  0.00    -0.245 OA 
HETATM   15  C   UNL     1      -9.689  20.587  67.312  1.00  0.00    -0.600 C  
HETATM   16  C   UNL     1     -10.760  19.583  67.699  1.00  0.00    -0.527 C  
HETATM   17  C   UNL     1     -10.008  18.514  68.432  1.00  0.00    -0.380 C  
HETATM   18  O   UNL     1     -10.524  17.559  68.993  1.00  0.00    -0.350 OA 
ENDBRANCH  11  12
ENDBRANCH  10  11
ENDBRANCH   9  10
ENDBRANCH   7   9
ENDBRANCH   6   7
ENDBRANCH   3   5
ENDBRANCH   2   3
TORSDOF 7
ENDMDL
MODEL       99
REMARK 921   NORMALIZED FREE ENERGY PREDICTED BY IDOCK:   -4.47 KCAL/MOL
REMARK 922        TOTAL FREE ENERGY PREDICTED BY IDOCK:   -6.73 KCAL/MOL
REMARK 923 INTER-LIGAND FREE ENERGY PREDICTED BY IDOCK:   -6.23 KCAL/MOL
REMARK 924 INTRA-LIGAND FREE ENERGY PREDICTED BY IDOCK:   -0.50 KCAL/MOL
REMARK 927      BINDING AFFINITY PREDICTED BY RF-SCORE:    0.00 PKD
ROOT
HETATM    1  C   UNL     1     -12.421  12.862  65.322  1.00  0.00    -0.493 C  
HETATM    2  O   UNL     1     -11.658  13.525  66.330  1.00  0.00    -0.320 OA 
ENDROOT
BRANCH   2   3
HETATM    3  C   UNL     1     -11.701  12.910  67.535  1.00  0.00    -0.367 C  
HETATM    4  O   UNL     1     -12.128  11.791  67.769  1.00  0.00    -0.595 OA 
BRANCH   3   5
HETATM    5  C   UNL     1     -11.161  13.833  68.545  1.00  0.00    -0.292 C  
HETATM    6  C   UNL     1     -12.004  14.683  69.140  1.00  0.00    -0.329 C  
BRANCH   6   7
HETATM    7  C   UNL     1     -11.488  15.725  70.043  1.00  0.00    -0.356 C  
HETATM    8  O   UNL     1     -11.939  15.988  71.143  1.00  0.00    -0.411 OA 
BRANCH   7   9
HETATM    9  O   UNL     1     -10.341  16.190  69.495  1.00  0.00    -0.252 OA 
BRANCH   9  10
HETATM   10  C   UNL     1     -10.471  17.437  68.794  1.00  0.00    -0.333 C  
BRANCH  10  11
HETATM   11  C   UNL     1      -9.373  17.434  67.735  1.00  0.00    -0.255 C  
BRANCH  11  12
HETATM   12  N   UNL     1      -8.494  18.576  67.778  1.00  0.00    -0.267 N  
HETATM   13  C   UNL     1      -7.414  18.674  68.604  1.00  0.00    -0.307 C  
HETATM   14  O   UNL     1      -6.949  17.792  69.306  1.00  0.00    -0.238 OA 
HETATM   15  C   UNL     1      -6.908  20.084  68.545  1.00  0.00    -0.336 C  
HETATM   16  C   UNL     1      -7.561  20.653  67.298  1.00  0.00    -0.381 C  
HETATM   17  C   UNL     1      -8.632  19.661  66.964  1.00  0.00    -0.312 C  
HETATM   18  O   UNL     1      -9.455  19.798  66.071  1.00  0.00    -0.383 OA 
ENDBRANCH  11  12
ENDBRANCH  10  11
ENDBRANCH   9  10
ENDBRANCH   7   9
ENDBRANCH   6   7
ENDBRANCH   3   5
ENDBRANCH   2   3
TORSDOF 7
ENDMDL
MODEL      100
REMARK 921   NORMALIZED FREE ENERGY PREDICTED BY IDOCK:   -4.45 KCAL/MOL
REMARK 922        TOTAL FREE ENERGY PREDICTED BY IDOCK:   -6.71 KCAL/MOL
REMARK 923 INTER-LIGAND FREE ENERGY PREDICTED BY IDOCK:   -6.18 KCAL/MOL
REMARK 924 INTRA-LIGAND FREE ENERGY PREDICTED BY IDOCK:   -0.53 KCAL/MOL
REMARK 927      BINDING AFFINITY PREDICTED BY RF-SCORE:    0.00 PKD
ROOT
HETATM    1  C   UNL     1     -12.503  11.736  63.615  1.00  0.00    -0.370 C  
HETATM    2  O   UNL     1     -12.999  12.583  64.651  1.00  0.00    -0.803 OA 
ENDROOT
BRANCH   2   3
HETATM    3  C   UNL     1     -12.190  12.646  65.734  1.00  0.00    -0.361 C  
HETATM    4  O   UNL     1     -11.821  11.710  66.426  1.00  0.00    -0.470 OA 
BRANCH   3   5
HETATM    5  C   UNL     1     -11.834  14.054  65.965  1.00  0.00    -0.401 C  
HETATM    6  C   UNL     1     -11.760  14.869  64.907  1.00  0.00    -0.371 C  
BRANCH   6   7
HETATM    7  C   UNL     1     -11.262  16.245  65.067  1.00  0.00    -0.176 C  
HETATM    8  O   UNL     1     -11.409  17.144  64.260  1.00  0.00    -1.126 OA 
BRANCH   7   9
HETATM    9  O   UNL     1     -10.780  16.346  66.328  1.00  0.00    -0.266 OA 
BRANCH   9  10
HETATM   10  C   UNL     1      -9.963  17.502  66.570  1.00  0.00    -0.321 C  
BRANCH  10  11
HETATM   11  C   UNL     1      -8.522  17.039  66.386  1.00  0.00    -0.283 C  
BRANCH  11  12
HETATM   12  N   UNL     1      -7.959  16.357  67.525  1.00  0.00    -0.148 N  
HETATM   13  C   UNL     1      -8.020  15.007  67.709  1.00  0.00    -0.143 C  
HETATM   14  O   UNL     1      -8.413  14.178  66.906  1.00  0.00    -0.185 OA 
HETATM   15  C   UNL     1      -7.561  14.706  69.104  1.00  0.00    -0.126 C  
HETATM   16  C   UNL     1      -6.855  15.977  69.537  1.00  0.00    -0.193 C  
HETATM   17  C   UNL     1      -7.272  16.991  68.517  1.00  0.00    -0.209 C  
HETATM   18  O   UNL     1      -6.990  18.179  68.558  1.00  0.00    -0.228 OA 
ENDBRANCH  11  12
ENDBRANCH  10  11
ENDBRANCH   9  10
ENDBRANCH   7   9
ENDBRANCH   6   7
ENDBRANCH   3   5
ENDBRANCH   2   3
TORSDOF 7
ENDMDL
MODEL      101
REMARK 921   NORMALIZED FREE ENERGY PREDICTED BY IDOCK:   -4.45 KCAL/MOL
REMARK 922        TOTAL FREE ENERGY PREDICTED BY IDOCK:   -6.71 KCAL/MOL
REMARK 923 INTER-LIGAND FREE ENERGY PREDICTED BY IDOCK:   -6.26 KCAL/MOL
REMARK 924 INTRA-LIGAND FREE ENERGY PREDICTED BY IDOCK:   -0.46 KCAL/MOL
REMARK 927      BINDING AFFINITY PREDICTED BY RF-SCORE:    0.00 PKD
ROOT
HETATM    1  C   UNL     1     -12.474  16.340  74.026  1.00  0.00    -0.551 C  
HETATM    2  O   UNL     1     -12.162  15.055  73.489  1.00  0.00    -0.428 OA 
ENDROOT
BRANCH   2   3
HETATM    3  C   UNL     1     -13.029  14.642  72.535  1.00  0.00    -0.404 C  
HETATM    4  O   UNL     1     -14.234  14.490  72.659  1.00  0.00    -0.499 OA 
BRANCH   3   5
HETATM    5  C   UNL     1     -12.270  14.378  71.303  1.00  0.00    -0.429 C  
HETATM    6  C   UNL     1     -12.909  13.804  70.278  1.00  0.00    -0.093 C  
BRANCH   6   7
HETATM    7  C   UNL     1     -12.160  13.382  69.083  1.00  0.00    -0.261 C  
HETATM    8  O   UNL     1     -12.134  13.979  68.023  1.00  0.00    -0.362 OA 
BRANCH   7   9
HETATM    9  O   UNL     1     -11.393  12.329  69.450  1.00  0.00    -0.258 OA 
BRANCH   9  10
HETATM   10  C   UNL     1     -12.110  11.100  69.645  1.00  0.00    -0.336 C  
BRANCH  10  11
HETATM   11  C   UNL     1     -11.479  10.440  70.866  1.00  0.00    -0.297 C  
BRANCH  11  12
HETATM   12  N   UNL     1     -11.686   9.016  70.955  1.00  0.00    -0.284 N  
HETATM   13  C   UNL     1     -10.957   8.097  70.259  1.00  0.00    -0.240 C  
HETATM   14  O   UNL     1      -9.960   8.310  69.591  1.00  0.00    -0.185 OA 
HETATM   15  C   UNL     1     -11.622   6.762  70.413  1.00  0.00    -0.422 C  
HETATM   16  C   UNL     1     -12.558   6.955  71.592  1.00  0.00    -0.410 C  
HETATM   17  C   UNL     1     -12.609   8.440  71.776  1.00  0.00    -0.342 C  
HETATM   18  O   UNL     1     -13.332   9.019  72.574  1.00  0.00    -0.453 OA 
ENDBRANCH  11  12
ENDBRANCH  10  11
ENDBRANCH   9  10
ENDBRANCH   7   9
ENDBRANCH   6   7
ENDBRANCH   3   5
ENDBRANCH   2   3
TORSDOF 7
ENDMDL
MODEL      102
REMARK 921   NORMALIZED FREE ENERGY PREDICTED BY IDOCK:   -4.44 KCAL/MOL
REMARK 922        TOTAL FREE ENERGY PREDICTED BY IDOCK:   -6.70 KCAL/MOL
REMARK 923 INTER-LIGAND FREE ENERGY PREDICTED BY IDOCK:   -6.42 KCAL/MOL
REMARK 924 INTRA-LIGAND FREE ENERGY PREDICTED BY IDOCK:   -0.28 KCAL/MOL
REMARK 927      BINDING AFFINITY PREDICTED BY RF-SCORE:    0.00 PKD
ROOT
HETATM    1  C   UNL     1     -10.832  17.421  65.246  1.00  0.00     0.056 C  
HETATM    2  O   UNL     1     -11.241  16.681  64.096  1.00  0.00    -1.103 OA 
ENDROOT
BRANCH   2   3
HETATM    3  C   UNL     1     -11.631  15.415  64.377  1.00  0.00    -0.264 C  
HETATM    4  O   UNL     1     -12.436  14.743  63.752  1.00  0.00    -0.782 OA 
BRANCH   3   5
HETATM    5  C   UNL     1     -10.932  14.975  65.595  1.00  0.00    -0.357 C  
HETATM    6  C   UNL     1     -11.609  14.235  66.480  1.00  0.00    -0.390 C  
BRANCH   6   7
HETATM    7  C   UNL     1     -11.004  13.900  67.779  1.00  0.00    -0.256 C  
HETATM    8  O   UNL     1      -9.935  14.316  68.186  1.00  0.00    -0.218 OA 
BRANCH   7   9
HETATM    9  O   UNL     1     -11.931  13.201  68.476  1.00  0.00    -0.337 OA 
BRANCH   9  10
HETATM   10  C   UNL     1     -11.804  11.773  68.385  1.00  0.00    -0.282 C  
BRANCH  10  11
HETATM   11  C   UNL     1     -11.054  11.342  69.641  1.00  0.00    -0.206 C  
BRANCH  11  12
HETATM   12  N   UNL     1     -11.862  10.652  70.616  1.00  0.00    -0.339 N  
HETATM   13  C   UNL     1     -11.758   9.319  70.883  1.00  0.00    -0.296 C  
HETATM   14  O   UNL     1     -10.904   8.555  70.466  1.00  0.00    -0.220 OA 
HETATM   15  C   UNL     1     -12.915   8.926  71.752  1.00  0.00    -0.418 C  
HETATM   16  C   UNL     1     -13.444  10.250  72.275  1.00  0.00    -0.240 C  
HETATM   17  C   UNL     1     -12.787  11.274  71.400  1.00  0.00    -0.410 C  
HETATM   18  O   UNL     1     -13.021  12.473  71.435  1.00  0.00    -0.358 OA 
ENDBRANCH  11  12
ENDBRANCH  10  11
ENDBRANCH   9  10
ENDBRANCH   7   9
ENDBRANCH   6   7
ENDBRANCH   3   5
ENDBRANCH   2   3
TORSDOF 7
ENDMDL
MODEL      103
REMARK 921   NORMALIZED FREE ENERGY PREDICTED BY IDOCK:   -4.44 KCAL/MOL
REMARK 922        TOTAL FREE ENERGY PREDICTED BY IDOCK:   -6.70 KCAL/MOL
REMARK 923 INTER-LIGAND FREE ENERGY PREDICTED BY IDOCK:   -6.14 KCAL/MOL
REMARK 924 INTRA-LIGAND FREE ENERGY PREDICTED BY IDOCK:   -0.55 KCAL/MOL
REMARK 927      BINDING AFFINITY PREDICTED BY RF-SCORE:    0.00 PKD
ROOT
HETATM    1  C   UNL     1     -12.472  15.805  74.046  1.00  0.00    -0.645 C  
HETATM    2  O   UNL     1     -13.558  15.771  73.120  1.00  0.00    -0.567 OA 
ENDROOT
BRANCH   2   3
HETATM    3  C   UNL     1     -13.520  14.710  72.280  1.00  0.00    -0.408 C  
HETATM    4  O   UNL     1     -13.881  13.570  72.526  1.00  0.00    -0.660 OA 
BRANCH   3   5
HETATM    5  C   UNL     1     -12.943  15.153  71.001  1.00  0.00    -0.494 C  
HETATM    6  C   UNL     1     -12.291  14.253  70.257  1.00  0.00    -0.418 C  
BRANCH   6   7
HETATM    7  C   UNL     1     -11.569  14.679  69.047  1.00  0.00    -0.298 C  
HETATM    8  O   UNL     1     -11.956  15.517  68.255  1.00  0.00    -0.262 OA 
BRANCH   7   9
HETATM    9  O   UNL     1     -10.347  14.097  69.092  1.00  0.00    -0.195 OA 
BRANCH   9  10
HETATM   10  C   UNL     1      -9.339  14.751  68.306  1.00  0.00    -0.199 C  
BRANCH  10  11
HETATM   11  C   UNL     1      -8.675  15.759  69.238  1.00  0.00    -0.261 C  
BRANCH  11  12
HETATM   12  N   UNL     1      -8.289  16.997  68.607  1.00  0.00    -0.259 N  
HETATM   13  C   UNL     1      -9.107  18.082  68.499  1.00  0.00    -0.284 C  
HETATM   14  O   UNL     1     -10.198  18.229  69.022  1.00  0.00    -0.376 OA 
HETATM   15  C   UNL     1      -8.456  19.066  67.574  1.00  0.00    -0.307 C  
HETATM   16  C   UNL     1      -7.013  18.599  67.503  1.00  0.00    -0.210 C  
HETATM   17  C   UNL     1      -7.048  17.221  68.089  1.00  0.00    -0.190 C  
HETATM   18  O   UNL     1      -6.095  16.458  68.133  1.00  0.00    -0.110 OA 
ENDBRANCH  11  12
ENDBRANCH  10  11
ENDBRANCH   9  10
ENDBRANCH   7   9
ENDBRANCH   6   7
ENDBRANCH   3   5
ENDBRANCH   2   3
TORSDOF 7
ENDMDL
MODEL      104
REMARK 921   NORMALIZED FREE ENERGY PREDICTED BY IDOCK:   -4.43 KCAL/MOL
REMARK 922        TOTAL FREE ENERGY PREDICTED BY IDOCK:   -6.68 KCAL/MOL
REMARK 923 INTER-LIGAND FREE ENERGY PREDICTED BY IDOCK:   -6.25 KCAL/MOL
REMARK 924 INTRA-LIGAND FREE ENERGY PREDICTED BY IDOCK:   -0.44 KCAL/MOL
REMARK 927      BINDING AFFINITY PREDICTED BY RF-SCORE:    0.00 PKD
ROOT
HETATM    1  C   UNL     1     -11.278   6.240  69.035  1.00  0.00    -0.343 C  
HETATM    2  O   UNL     1     -11.190   7.027  70.223  1.00  0.00    -0.275 OA 
ENDROOT
BRANCH   2   3
HETATM    3  C   UNL     1     -10.687   8.267  70.015  1.00  0.00    -0.239 C  
HETATM    4  O   UNL     1      -9.682   8.551  69.382  1.00  0.00    -0.172 OA 
BRANCH   3   5
HETATM    5  C   UNL     1     -11.550   9.238  70.705  1.00  0.00    -0.345 C  
HETATM    6  C   UNL     1     -11.738  10.434  70.136  1.00  0.00    -0.394 C  
BRANCH   6   7
HETATM    7  C   UNL     1     -12.466  11.490  70.857  1.00  0.00    -0.366 C  
HETATM    8  O   UNL     1     -13.168  11.317  71.836  1.00  0.00    -0.482 OA 
BRANCH   7   9
HETATM    9  O   UNL     1     -12.065  12.672  70.334  1.00  0.00    -0.364 OA 
BRANCH   9  10
HETATM   10  C   UNL     1     -11.555  12.597  68.993  1.00  0.00    -0.317 C  
BRANCH  10  11
HETATM   11  C   UNL     1     -12.115  13.815  68.267  1.00  0.00    -0.279 C  
BRANCH  11  12
HETATM   12  N   UNL     1     -11.442  14.142  67.034  1.00  0.00    -0.335 N  
HETATM   13  C   UNL     1     -10.452  15.074  66.932  1.00  0.00    -0.279 C  
HETATM   14  O   UNL     1      -9.898  15.654  67.851  1.00  0.00    -0.216 OA 
HETATM   15  C   UNL     1     -10.183  15.312  65.477  1.00  0.00    -0.417 C  
HETATM   16  C   UNL     1     -10.834  14.125  64.788  1.00  0.00    -0.426 C  
HETATM   17  C   UNL     1     -11.701  13.520  65.849  1.00  0.00    -0.352 C  
HETATM   18  O   UNL     1     -12.471  12.588  65.672  1.00  0.00    -0.648 OA 
ENDBRANCH  11  12
ENDBRANCH  10  11
ENDBRANCH   9  10
ENDBRANCH   7   9
ENDBRANCH   6   7
ENDBRANCH   3   5
ENDBRANCH   2   3
TORSDOF 7
ENDMDL
MODEL      105
REMARK 921   NORMALIZED FREE ENERGY PREDICTED BY IDOCK:   -4.42 KCAL/MOL
REMARK 922        TOTAL FREE ENERGY PREDICTED BY IDOCK:   -6.66 KCAL/MOL
REMARK 923 INTER-LIGAND FREE ENERGY PREDICTED BY IDOCK:   -6.11 KCAL/MOL
REMARK 924 INTRA-LIGAND FREE ENERGY PREDICTED BY IDOCK:   -0.55 KCAL/MOL
REMARK 927      BINDING AFFINITY PREDICTED BY RF-SCORE:    0.00 PKD
ROOT
HETATM    1  C   UNL     1     -11.095  15.335  66.612  1.00  0.00    -0.276 C  
HETATM    2  O   UNL     1     -11.647  14.070  66.978  1.00  0.00    -0.331 OA 
ENDROOT
BRANCH   2   3
HETATM    3  C   UNL     1     -12.231  13.416  65.947  1.00  0.00    -0.450 C  
HETATM    4  O   UNL     1     -13.004  13.886  65.128  1.00  0.00    -0.744 OA 
BRANCH   3   5
HETATM    5  C   UNL     1     -11.796  12.011  65.984  1.00  0.00    -0.223 C  
HETATM    6  C   UNL     1     -10.567  11.742  66.440  1.00  0.00    -0.293 C  
BRANCH   6   7
HETATM    7  C   UNL     1     -10.031  10.374  66.355  1.00  0.00    -0.221 C  
HETATM    8  O   UNL     1      -9.849   9.752  65.325  1.00  0.00    -0.313 OA 
BRANCH   7   9
HETATM    9  O   UNL     1      -9.628  10.031  67.601  1.00  0.00    -0.146 OA 
BRANCH   9  10
HETATM   10  C   UNL     1     -10.604   9.313  68.373  1.00  0.00    -0.190 C  
BRANCH  10  11
HETATM   11  C   UNL     1     -10.290   9.624  69.833  1.00  0.00    -0.249 C  
BRANCH  11  12
HETATM   12  N   UNL     1     -11.444   9.928  70.644  1.00  0.00    -0.308 N  
HETATM   13  C   UNL     1     -12.060  11.144  70.663  1.00  0.00    -0.379 C  
HETATM   14  O   UNL     1     -11.838  12.087  69.923  1.00  0.00    -0.320 OA 
HETATM   15  C   UNL     1     -13.042  11.151  71.796  1.00  0.00    -0.536 C  
HETATM   16  C   UNL     1     -13.202   9.683  72.147  1.00  0.00    -0.535 C  
HETATM   17  C   UNL     1     -12.060   9.015  71.446  1.00  0.00    -0.327 C  
HETATM   18  O   UNL     1     -11.775   7.831  71.550  1.00  0.00    -0.265 OA 
ENDBRANCH  11  12
ENDBRANCH  10  11
ENDBRANCH   9  10
ENDBRANCH   7   9
ENDBRANCH   6   7
ENDBRANCH   3   5
ENDBRANCH   2   3
TORSDOF 7
ENDMDL
MODEL      106
REMARK 921   NORMALIZED FREE ENERGY PREDICTED BY IDOCK:   -4.41 KCAL/MOL
REMARK 922        TOTAL FREE ENERGY PREDICTED BY IDOCK:   -6.65 KCAL/MOL
REMARK 923 INTER-LIGAND FREE ENERGY PREDICTED BY IDOCK:   -6.77 KCAL/MOL
REMARK 924 INTRA-LIGAND FREE ENERGY PREDICTED BY IDOCK:    0.12 KCAL/MOL
REMARK 927      BINDING AFFINITY PREDICTED BY RF-SCORE:    0.00 PKD
ROOT
HETATM    1  C   UNL     1     -10.098  11.133  63.134  1.00  0.00    -0.330 C  
HETATM    2  O   UNL     1     -10.734  12.357  63.500  1.00  0.00    -0.442 OA 
ENDROOT
BRANCH   2   3
HETATM    3  C   UNL     1     -12.027  12.206  63.871  1.00  0.00    -0.486 C  
HETATM    4  O   UNL     1     -12.955  11.855  63.159  1.00  0.00    -0.640 OA 
BRANCH   3   5
HETATM    5  C   UNL     1     -12.145  12.559  65.294  1.00  0.00    -0.500 C  
HETATM    6  C   UNL     1     -11.371  11.911  66.172  1.00  0.00    -0.383 C  
BRANCH   6   7
HETATM    7  C   UNL     1     -11.559  12.119  67.617  1.00  0.00    -0.343 C  
HETATM    8  O   UNL     1     -12.348  11.513  68.318  1.00  0.00    -0.468 OA 
BRANCH   7   9
HETATM    9  O   UNL     1     -10.584  12.966  68.023  1.00  0.00    -0.216 OA 
BRANCH   9  10
HETATM   10  C   UNL     1     -11.046  14.106  68.764  1.00  0.00    -0.262 C  
BRANCH  10  11
HETATM   11  C   UNL     1     -11.507  15.120  67.722  1.00  0.00    -0.318 C  
BRANCH  11  12
HETATM   12  N   UNL     1     -10.761  16.354  67.712  1.00  0.00    -0.331 N  
HETATM   13  C   UNL     1     -10.343  16.979  66.575  1.00  0.00    -0.298 C  
HETATM   14  O   UNL     1     -10.642  16.689  65.429  1.00  0.00    -0.537 OA 
HETATM   15  C   UNL     1      -9.396  18.074  66.967  1.00  0.00    -0.265 C  
HETATM   16  C   UNL     1      -9.648  18.257  68.453  1.00  0.00    -0.350 C  
HETATM   17  C   UNL     1     -10.433  17.042  68.841  1.00  0.00    -0.347 C  
HETATM   18  O   UNL     1     -10.759  16.760  69.984  1.00  0.00    -0.256 OA 
ENDBRANCH  11  12
ENDBRANCH  10  11
ENDBRANCH   9  10
ENDBRANCH   7   9
ENDBRANCH   6   7
ENDBRANCH   3   5
ENDBRANCH   2   3
TORSDOF 7
ENDMDL
MODEL      107
REMARK 921   NORMALIZED FREE ENERGY PREDICTED BY IDOCK:   -4.40 KCAL/MOL
REMARK 922        TOTAL FREE ENERGY PREDICTED BY IDOCK:   -6.65 KCAL/MOL
REMARK 923 INTER-LIGAND FREE ENERGY PREDICTED BY IDOCK:   -6.26 KCAL/MOL
REMARK 924 INTRA-LIGAND FREE ENERGY PREDICTED BY IDOCK:   -0.38 KCAL/MOL
REMARK 927      BINDING AFFINITY PREDICTED BY RF-SCORE:    0.00 PKD
ROOT
HETATM    1  C   UNL     1     -11.323   6.369  69.674  1.00  0.00    -0.412 C  
HETATM    2  O   UNL     1     -11.975   6.561  70.930  1.00  0.00    -0.369 OA 
ENDROOT
BRANCH   2   3
HETATM    3  C   UNL     1     -11.418   7.536  71.685  1.00  0.00    -0.261 C  
HETATM    4  O   UNL     1     -11.244   7.516  72.894  1.00  0.00    -0.344 OA 
BRANCH   3   5
HETATM    5  C   UNL     1     -11.066   8.661  70.804  1.00  0.00    -0.295 C  
HETATM    6  C   UNL     1     -11.716   9.819  70.967  1.00  0.00    -0.453 C  
BRANCH   6   7
HETATM    7  C   UNL     1     -11.509  10.922  70.015  1.00  0.00    -0.329 C  
HETATM    8  O   UNL     1     -11.987  12.037  70.116  1.00  0.00    -0.333 OA 
BRANCH   7   9
HETATM    9  O   UNL     1     -10.568  10.511  69.133  1.00  0.00    -0.201 OA 
BRANCH   9  10
HETATM   10  C   UNL     1     -11.044  10.309  67.793  1.00  0.00    -0.269 C  
BRANCH  10  11
HETATM   11  C   UNL     1     -10.228  11.252  66.915  1.00  0.00    -0.219 C  
BRANCH  11  12
HETATM   12  N   UNL     1     -10.960  11.836  65.819  1.00  0.00    -0.303 N  
HETATM   13  C   UNL     1     -11.872  12.840  65.962  1.00  0.00    -0.439 C  
HETATM   14  O   UNL     1     -12.101  13.479  66.975  1.00  0.00    -0.384 OA 
HETATM   15  C   UNL     1     -12.596  13.001  64.659  1.00  0.00    -0.425 C  
HETATM   16  C   UNL     1     -11.718  12.268  63.662  1.00  0.00    -0.591 C  
HETATM   17  C   UNL     1     -10.783  11.470  64.518  1.00  0.00    -0.329 C  
HETATM   18  O   UNL     1      -9.968  10.663  64.095  1.00  0.00    -0.308 OA 
ENDBRANCH  11  12
ENDBRANCH  10  11
ENDBRANCH   9  10
ENDBRANCH   7   9
ENDBRANCH   6   7
ENDBRANCH   3   5
ENDBRANCH   2   3
TORSDOF 7
ENDMDL
MODEL      108
REMARK 921   NORMALIZED FREE ENERGY PREDICTED BY IDOCK:   -4.39 KCAL/MOL
REMARK 922        TOTAL FREE ENERGY PREDICTED BY IDOCK:   -6.63 KCAL/MOL
REMARK 923 INTER-LIGAND FREE ENERGY PREDICTED BY IDOCK:   -6.23 KCAL/MOL
REMARK 924 INTRA-LIGAND FREE ENERGY PREDICTED BY IDOCK:   -0.40 KCAL/MOL
REMARK 927      BINDING AFFINITY PREDICTED BY RF-SCORE:    0.00 PKD
ROOT
HETATM    1  C   UNL     1     -12.620  15.520  74.038  1.00  0.00    -0.625 C  
HETATM    2  O   UNL     1     -13.403  15.530  72.845  1.00  0.00    -0.457 OA 
ENDROOT
BRANCH   2   3
HETATM    3  C   UNL     1     -13.457  14.328  72.222  1.00  0.00    -0.457 C  
HETATM    4  O   UNL     1     -14.180  13.388  72.510  1.00  0.00    -0.721 OA 
BRANCH   3   5
HETATM    5  C   UNL     1     -12.468  14.327  71.133  1.00  0.00    -0.433 C  
HETATM    6  C   UNL     1     -12.407  15.398  70.334  1.00  0.00    -0.443 C  
BRANCH   6   7
HETATM    7  C   UNL     1     -11.543  15.382  69.142  1.00  0.00    -0.339 C  
HETATM    8  O   UNL     1     -11.222  16.360  68.493  1.00  0.00    -0.358 OA 
BRANCH   7   9
HETATM    9  O   UNL     1     -11.052  14.126  69.027  1.00  0.00    -0.247 OA 
BRANCH   9  10
HETATM   10  C   UNL     1     -10.173  13.922  67.910  1.00  0.00    -0.241 C  
BRANCH  10  11
HETATM   11  C   UNL     1      -9.430  12.622  68.197  1.00  0.00    -0.218 C  
BRANCH  11  12
HETATM   12  N   UNL     1      -9.422  11.680  67.105  1.00  0.00    -0.175 N  
HETATM   13  C   UNL     1      -8.312  11.375  66.374  1.00  0.00    -0.140 C  
HETATM   14  O   UNL     1      -7.166  11.721  66.606  1.00  0.00    -0.089 OA 
HETATM   15  C   UNL     1      -8.744  10.567  65.186  1.00  0.00    -0.197 C  
HETATM   16  C   UNL     1     -10.146  10.110  65.548  1.00  0.00    -0.338 C  
HETATM   17  C   UNL     1     -10.518  10.968  66.718  1.00  0.00    -0.251 C  
HETATM   18  O   UNL     1     -11.615  10.976  67.255  1.00  0.00    -0.496 OA 
ENDBRANCH  11  12
ENDBRANCH  10  11
ENDBRANCH   9  10
ENDBRANCH   7   9
ENDBRANCH   6   7
ENDBRANCH   3   5
ENDBRANCH   2   3
TORSDOF 7
ENDMDL
MODEL      109
REMARK 921   NORMALIZED FREE ENERGY PREDICTED BY IDOCK:   -4.38 KCAL/MOL
REMARK 922        TOTAL FREE ENERGY PREDICTED BY IDOCK:   -6.61 KCAL/MOL
REMARK 923 INTER-LIGAND FREE ENERGY PREDICTED BY IDOCK:   -6.24 KCAL/MOL
REMARK 924 INTRA-LIGAND FREE ENERGY PREDICTED BY IDOCK:   -0.37 KCAL/MOL
REMARK 927      BINDING AFFINITY PREDICTED BY RF-SCORE:    0.00 PKD
ROOT
HETATM    1  C   UNL     1     -11.098   9.364  71.047  1.00  0.00    -0.344 C  
HETATM    2  O   UNL     1     -11.905  10.477  70.663  1.00  0.00    -0.305 OA 
ENDROOT
BRANCH   2   3
HETATM    3  C   UNL     1     -12.881  10.771  71.555  1.00  0.00    -0.462 C  
HETATM    4  O   UNL     1     -13.544   9.975  72.201  1.00  0.00    -0.395 OA 
BRANCH   3   5
HETATM    5  C   UNL     1     -13.033  12.233  71.609  1.00  0.00    -0.416 C  
HETATM    6  C   UNL     1     -12.304  12.976  70.769  1.00  0.00    -0.394 C  
BRANCH   6   7
HETATM    7  C   UNL     1     -12.307  14.443  70.887  1.00  0.00    -0.349 C  
HETATM    8  O   UNL     1     -12.989  15.085  71.664  1.00  0.00    -0.309 OA 
BRANCH   7   9
HETATM    9  O   UNL     1     -11.302  14.904  70.106  1.00  0.00    -0.248 OA 
BRANCH   9  10
HETATM   10  C   UNL     1     -11.258  16.332  69.959  1.00  0.00    -0.319 C  
BRANCH  10  11
HETATM   11  C   UNL     1     -10.818  16.589  68.522  1.00  0.00    -0.349 C  
BRANCH  11  12
HETATM   12  N   UNL     1      -9.815  17.614  68.375  1.00  0.00    -0.315 N  
HETATM   13  C   UNL     1      -8.499  17.441  68.690  1.00  0.00    -0.257 C  
HETATM   14  O   UNL     1      -7.953  16.395  68.996  1.00  0.00    -0.224 OA 
HETATM   15  C   UNL     1      -7.830  18.782  68.646  1.00  0.00    -0.361 C  
HETATM   16  C   UNL     1      -8.808  19.653  67.879  1.00  0.00    -0.379 C  
HETATM   17  C   UNL     1     -10.074  18.851  67.866  1.00  0.00    -0.371 C  
HETATM   18  O   UNL     1     -11.142  19.244  67.420  1.00  0.00    -0.444 OA 
ENDBRANCH  11  12
ENDBRANCH  10  11
ENDBRANCH   9  10
ENDBRANCH   7   9
ENDBRANCH   6   7
ENDBRANCH   3   5
ENDBRANCH   2   3
TORSDOF 7
ENDMDL
MODEL      110
REMARK 921   NORMALIZED FREE ENERGY PREDICTED BY IDOCK:   -4.37 KCAL/MOL
REMARK 922        TOTAL FREE ENERGY PREDICTED BY IDOCK:   -6.60 KCAL/MOL
REMARK 923 INTER-LIGAND FREE ENERGY PREDICTED BY IDOCK:   -6.16 KCAL/MOL
REMARK 924 INTRA-LIGAND FREE ENERGY PREDICTED BY IDOCK:   -0.44 KCAL/MOL
REMARK 927      BINDING AFFINITY PREDICTED BY RF-SCORE:    0.00 PKD
ROOT
HETATM    1  C   UNL     1      -8.052  17.875  68.480  1.00  0.00    -0.301 C  
HETATM    2  O   UNL     1      -9.292  18.483  68.117  1.00  0.00    -0.294 OA 
ENDROOT
BRANCH   2   3
HETATM    3  C   UNL     1      -9.347  18.866  66.820  1.00  0.00    -0.322 C  
HETATM    4  O   UNL     1      -8.634  19.692  66.271  1.00  0.00    -0.349 OA 
BRANCH   3   5
HETATM    5  C   UNL     1     -10.439  18.130  66.165  1.00  0.00    -0.377 C  
HETATM    6  C   UNL     1     -10.184  16.904  65.696  1.00  0.00    -0.227 C  
BRANCH   6   7
HETATM    7  C   UNL     1     -11.196  16.190  64.902  1.00  0.00    -0.285 C  
HETATM    8  O   UNL     1     -11.558  16.498  63.782  1.00  0.00    -1.109 OA 
BRANCH   7   9
HETATM    9  O   UNL     1     -11.501  15.058  65.579  1.00  0.00    -0.336 OA 
BRANCH   9  10
HETATM   10  C   UNL     1     -11.623  13.882  64.763  1.00  0.00    -0.374 C  
BRANCH  10  11
HETATM   11  C   UNL     1     -10.220  13.292  64.671  1.00  0.00    -0.313 C  
BRANCH  11  12
HETATM   12  N   UNL     1     -10.068  12.003  65.300  1.00  0.00    -0.256 N  
HETATM   13  C   UNL     1      -9.964  11.823  66.648  1.00  0.00    -0.200 C  
HETATM   14  O   UNL     1     -10.123  12.668  67.512  1.00  0.00    -0.208 OA 
HETATM   15  C   UNL     1      -9.568  10.399  66.898  1.00  0.00    -0.207 C  
HETATM   16  C   UNL     1      -9.859   9.703  65.581  1.00  0.00    -0.369 C  
HETATM   17  C   UNL     1     -10.052  10.828  64.611  1.00  0.00    -0.344 C  
HETATM   18  O   UNL     1     -10.217  10.690  63.408  1.00  0.00    -0.291 OA 
ENDBRANCH  11  12
ENDBRANCH  10  11
ENDBRANCH   9  10
ENDBRANCH   7   9
ENDBRANCH   6   7
ENDBRANCH   3   5
ENDBRANCH   2   3
TORSDOF 7
ENDMDL
MODEL      111
REMARK 921   NORMALIZED FREE ENERGY PREDICTED BY IDOCK:   -4.37 KCAL/MOL
REMARK 922        TOTAL FREE ENERGY PREDICTED BY IDOCK:   -6.60 KCAL/MOL
REMARK 923 INTER-LIGAND FREE ENERGY PREDICTED BY IDOCK:   -6.14 KCAL/MOL
REMARK 924 INTRA-LIGAND FREE ENERGY PREDICTED BY IDOCK:   -0.46 KCAL/MOL
REMARK 927      BINDING AFFINITY PREDICTED BY RF-SCORE:    0.00 PKD
ROOT
HETATM    1  C   UNL     1      -7.785  15.014  69.179  1.00  0.00    -0.179 C  
HETATM    2  O   UNL     1      -8.973  15.804  69.212  1.00  0.00    -0.243 OA 
ENDROOT
BRANCH   2   3
HETATM    3  C   UNL     1      -8.932  16.879  68.391  1.00  0.00    -0.244 C  
HETATM    4  O   UNL     1      -8.607  18.017  68.692  1.00  0.00    -0.303 OA 
BRANCH   3   5
HETATM    5  C   UNL     1      -9.370  16.456  67.052  1.00  0.00    -0.241 C  
HETATM    6  C   UNL     1     -10.597  16.804  66.649  1.00  0.00    -0.198 C  
BRANCH   6   7
HETATM    7  C   UNL     1     -11.136  16.278  65.384  1.00  0.00    -0.087 C  
HETATM    8  O   UNL     1     -11.150  16.875  64.323  1.00  0.00    -1.135 OA 
BRANCH   7   9
HETATM    9  O   UNL     1     -11.440  14.976  65.596  1.00  0.00    -0.331 OA 
BRANCH   9  10
HETATM   10  C   UNL     1     -11.628  14.199  64.402  1.00  0.00    -0.362 C  
BRANCH  10  11
HETATM   11  C   UNL     1     -12.288  12.900  64.852  1.00  0.00    -0.475 C  
BRANCH  11  12
HETATM   12  N   UNL     1     -11.370  11.892  65.322  1.00  0.00    -0.306 N  
HETATM   13  C   UNL     1     -10.586  11.136  64.502  1.00  0.00    -0.328 C  
HETATM   14  O   UNL     1     -10.430  11.283  63.302  1.00  0.00    -0.362 OA 
HETATM   15  C   UNL     1      -9.970  10.043  65.324  1.00  0.00    -0.368 C  
HETATM   16  C   UNL     1     -10.167  10.509  66.755  1.00  0.00    -0.288 C  
HETATM   17  C   UNL     1     -11.166  11.619  66.642  1.00  0.00    -0.299 C  
HETATM   18  O   UNL     1     -11.666  12.206  67.590  1.00  0.00    -0.386 OA 
ENDBRANCH  11  12
ENDBRANCH  10  11
ENDBRANCH   9  10
ENDBRANCH   7   9
ENDBRANCH   6   7
ENDBRANCH   3   5
ENDBRANCH   2   3
TORSDOF 7
ENDMDL
MODEL      112
REMARK 921   NORMALIZED FREE ENERGY PREDICTED BY IDOCK:   -4.36 KCAL/MOL
REMARK 922        TOTAL FREE ENERGY PREDICTED BY IDOCK:   -6.59 KCAL/MOL
REMARK 923 INTER-LIGAND FREE ENERGY PREDICTED BY IDOCK:   -6.20 KCAL/MOL
REMARK 924 INTRA-LIGAND FREE ENERGY PREDICTED BY IDOCK:   -0.39 KCAL/MOL
REMARK 927      BINDING AFFINITY PREDICTED BY RF-SCORE:    0.00 PKD
ROOT
HETATM    1  C   UNL     1      -8.251   9.359  64.762  1.00  0.00    -0.145 C  
HETATM    2  O   UNL     1      -8.525   9.178  66.151  1.00  0.00    -0.122 OA 
ENDROOT
BRANCH   2   3
HETATM    3  C   UNL     1      -9.841   9.258  66.459  1.00  0.00    -0.263 C  
HETATM    4  O   UNL     1     -10.517   8.401  67.005  1.00  0.00    -0.307 OA 
BRANCH   3   5
HETATM    5  C   UNL     1     -10.345  10.562  66.001  1.00  0.00    -0.279 C  
HETATM    6  C   UNL     1     -10.935  11.362  66.896  1.00  0.00    -0.355 C  
BRANCH   6   7
HETATM    7  C   UNL     1     -11.588  12.606  66.460  1.00  0.00    -0.381 C  
HETATM    8  O   UNL     1     -12.492  12.678  65.648  1.00  0.00    -0.622 OA 
BRANCH   7   9
HETATM    9  O   UNL     1     -11.115  13.598  67.250  1.00  0.00    -0.283 OA 
BRANCH   9  10
HETATM   10  C   UNL     1     -12.035  14.064  68.249  1.00  0.00    -0.349 C  
BRANCH  10  11
HETATM   11  C   UNL     1     -11.252  14.089  69.556  1.00  0.00    -0.199 C  
BRANCH  11  12
HETATM   12  N   UNL     1     -12.067  14.114  70.746  1.00  0.00    -0.340 N  
HETATM   13  C   UNL     1     -12.757  13.036  71.217  1.00  0.00    -0.293 C  
HETATM   14  O   UNL     1     -12.684  11.889  70.812  1.00  0.00    -0.255 OA 
HETATM   15  C   UNL     1     -13.674  13.509  72.305  1.00  0.00    -0.700 C  
HETATM   16  C   UNL     1     -13.131  14.879  72.668  1.00  0.00    -0.520 C  
HETATM   17  C   UNL     1     -12.199  15.211  71.543  1.00  0.00    -0.340 C  
HETATM   18  O   UNL     1     -11.622  16.280  71.409  1.00  0.00    -0.448 OA 
ENDBRANCH  11  12
ENDBRANCH  10  11
ENDBRANCH   9  10
ENDBRANCH   7   9
ENDBRANCH   6   7
ENDBRANCH   3   5
ENDBRANCH   2   3
TORSDOF 7
ENDMDL
MODEL      113
REMARK 921   NORMALIZED FREE ENERGY PREDICTED BY IDOCK:   -4.35 KCAL/MOL
REMARK 922        TOTAL FREE ENERGY PREDICTED BY IDOCK:   -6.57 KCAL/MOL
REMARK 923 INTER-LIGAND FREE ENERGY PREDICTED BY IDOCK:   -6.02 KCAL/MOL
REMARK 924 INTRA-LIGAND FREE ENERGY PREDICTED BY IDOCK:   -0.56 KCAL/MOL
REMARK 927      BINDING AFFINITY PREDICTED BY RF-SCORE:    0.00 PKD
ROOT
HETATM    1  C   UNL     1     -10.348   8.553  66.878  1.00  0.00    -0.297 C  
HETATM    2  O   UNL     1      -9.560   9.734  67.025  1.00  0.00    -0.161 OA 
ENDROOT
BRANCH   2   3
HETATM    3  C   UNL     1     -10.203  10.737  67.668  1.00  0.00    -0.189 C  
HETATM    4  O   UNL     1      -9.993  11.130  68.805  1.00  0.00    -0.196 OA 
BRANCH   3   5
HETATM    5  C   UNL     1     -11.233  11.279  66.768  1.00  0.00    -0.265 C  
HETATM    6  C   UNL     1     -10.844  11.769  65.586  1.00  0.00    -0.342 C  
BRANCH   6   7
HETATM    7  C   UNL     1     -11.812  12.457  64.717  1.00  0.00    -0.382 C  
HETATM    8  O   UNL     1     -13.019  12.302  64.747  1.00  0.00    -0.713 OA 
BRANCH   7   9
HETATM    9  O   UNL     1     -11.125  13.396  64.026  1.00  0.00    -0.365 OA 
BRANCH   9  10
HETATM   10  C   UNL     1     -10.300  14.254  64.830  1.00  0.00    -0.401 C  
BRANCH  10  11
HETATM   11  C   UNL     1     -11.170  15.455  65.183  1.00  0.00    -0.350 C  
BRANCH  11  12
HETATM   12  N   UNL     1     -10.895  16.038  66.474  1.00  0.00    -0.230 N  
HETATM   13  C   UNL     1     -10.225  17.212  66.650  1.00  0.00    -0.319 C  
HETATM   14  O   UNL     1      -9.891  18.000  65.781  1.00  0.00    -0.539 OA 
HETATM   15  C   UNL     1      -9.916  17.358  68.110  1.00  0.00    -0.308 C  
HETATM   16  C   UNL     1     -10.836  16.352  68.778  1.00  0.00    -0.338 C  
HETATM   17  C   UNL     1     -11.315  15.492  67.650  1.00  0.00    -0.260 C  
HETATM   18  O   UNL     1     -12.011  14.495  67.779  1.00  0.00    -0.363 OA 
ENDBRANCH  11  12
ENDBRANCH  10  11
ENDBRANCH   9  10
ENDBRANCH   7   9
ENDBRANCH   6   7
ENDBRANCH   3   5
ENDBRANCH   2   3
TORSDOF 7
ENDMDL
MODEL      114
REMARK 921   NORMALIZED FREE ENERGY PREDICTED BY IDOCK:   -4.35 KCAL/MOL
REMARK 922        TOTAL FREE ENERGY PREDICTED BY IDOCK:   -6.57 KCAL/MOL
REMARK 923 INTER-LIGAND FREE ENERGY PREDICTED BY IDOCK:   -5.94 KCAL/MOL
REMARK 924 INTRA-LIGAND FREE ENERGY PREDICTED BY IDOCK:   -0.63 KCAL/MOL
REMARK 927      BINDING AFFINITY PREDICTED BY RF-SCORE:    0.00 PKD
ROOT
HETATM    1  C   UNL     1      -6.333  17.667  66.163  1.00  0.00    -0.239 C  
HETATM    2  O   UNL     1      -5.984  16.401  66.722  1.00  0.00    -0.326 OA 
ENDROOT
BRANCH   2   3
HETATM    3  C   UNL     1      -7.040  15.725  67.233  1.00  0.00    -0.210 C  
HETATM    4  O   UNL     1      -7.047  15.029  68.236  1.00  0.00    -0.102 OA 
BRANCH   3   5
HETATM    5  C   UNL     1      -8.200  15.948  66.356  1.00  0.00    -0.264 C  
HETATM    6  C   UNL     1      -9.418  15.677  66.837  1.00  0.00    -0.245 C  
BRANCH   6   7
HETATM    7  C   UNL     1     -10.593  15.739  65.954  1.00  0.00    -0.339 C  
HETATM    8  O   UNL     1     -10.605  16.209  64.831  1.00  0.00    -0.622 OA 
BRANCH   7   9
HETATM    9  O   UNL     1     -11.578  15.031  66.556  1.00  0.00    -0.302 OA 
BRANCH   9  10
HETATM   10  C   UNL     1     -11.121  14.005  67.451  1.00  0.00    -0.303 C  
BRANCH  10  11
HETATM   11  C   UNL     1     -11.704  12.700  66.920  1.00  0.00    -0.383 C  
BRANCH  11  12
HETATM   12  N   UNL     1     -11.368  12.406  65.549  1.00  0.00    -0.332 N  
HETATM   13  C   UNL     1     -10.101  12.145  65.116  1.00  0.00    -0.261 C  
HETATM   14  O   UNL     1      -9.112  11.980  65.809  1.00  0.00    -0.133 OA 
HETATM   15  C   UNL     1     -10.113  12.141  63.616  1.00  0.00    -0.410 C  
HETATM   16  C   UNL     1     -11.585  12.021  63.264  1.00  0.00    -0.409 C  
HETATM   17  C   UNL     1     -12.292  12.320  64.550  1.00  0.00    -0.384 C  
HETATM   18  O   UNL     1     -13.504  12.418  64.673  1.00  0.00    -0.671 OA 
ENDBRANCH  11  12
ENDBRANCH  10  11
ENDBRANCH   9  10
ENDBRANCH   7   9
ENDBRANCH   6   7
ENDBRANCH   3   5
ENDBRANCH   2   3
TORSDOF 7
ENDMDL
MODEL      115
REMARK 921   NORMALIZED FREE ENERGY PREDICTED BY IDOCK:   -4.32 KCAL/MOL
REMARK 922        TOTAL FREE ENERGY PREDICTED BY IDOCK:   -6.53 KCAL/MOL
REMARK 923 INTER-LIGAND FREE ENERGY PREDICTED BY IDOCK:   -5.97 KCAL/MOL
REMARK 924 INTRA-LIGAND FREE ENERGY PREDICTED BY IDOCK:   -0.56 KCAL/MOL
REMARK 927      BINDING AFFINITY PREDICTED BY RF-SCORE:    0.00 PKD
ROOT
HETATM    1  C   UNL     1     -12.534  13.721  65.202  1.00  0.00    -0.450 C  
HETATM    2  O   UNL     1     -12.190  12.434  65.714  1.00  0.00    -0.620 OA 
ENDROOT
BRANCH   2   3
HETATM    3  C   UNL     1     -11.147  12.455  66.577  1.00  0.00    -0.301 C  
HETATM    4  O   UNL     1     -10.012  12.838  66.342  1.00  0.00    -0.252 OA 
BRANCH   3   5
HETATM    5  C   UNL     1     -11.602  11.912  67.867  1.00  0.00    -0.393 C  
HETATM    6  C   UNL     1     -11.865  12.772  68.857  1.00  0.00    -0.351 C  
BRANCH   6   7
HETATM    7  C   UNL     1     -12.175  12.272  70.206  1.00  0.00    -0.262 C  
HETATM    8  O   UNL     1     -12.445  12.967  71.169  1.00  0.00    -0.353 OA 
BRANCH   7   9
HETATM    9  O   UNL     1     -12.271  10.925  70.116  1.00  0.00    -0.300 OA 
BRANCH   9  10
HETATM   10  C   UNL     1     -12.211  10.231  71.371  1.00  0.00    -0.383 C  
BRANCH  10  11
HETATM   11  C   UNL     1     -10.839   9.566  71.413  1.00  0.00    -0.312 C  
BRANCH  11  12
HETATM   12  N   UNL     1     -10.860   8.133  71.249  1.00  0.00    -0.232 N  
HETATM   13  C   UNL     1     -10.659   7.502  70.057  1.00  0.00    -0.237 C  
HETATM   14  O   UNL     1     -10.300   8.015  69.011  1.00  0.00    -0.214 OA 
HETATM   15  C   UNL     1     -11.004   6.054  70.233  1.00  0.00    -0.412 C  
HETATM   16  C   UNL     1     -11.025   5.865  71.739  1.00  0.00    -0.327 C  
HETATM   17  C   UNL     1     -11.044   7.261  72.280  1.00  0.00    -0.260 C  
HETATM   18  O   UNL     1     -11.156   7.549  73.462  1.00  0.00    -0.312 OA 
ENDBRANCH  11  12
ENDBRANCH  10  11
ENDBRANCH   9  10
ENDBRANCH   7   9
ENDBRANCH   6   7
ENDBRANCH   3   5
ENDBRANCH   2   3
TORSDOF 7
ENDMDL
MODEL      116
REMARK 921   NORMALIZED FREE ENERGY PREDICTED BY IDOCK:   -4.32 KCAL/MOL
REMARK 922        TOTAL FREE ENERGY PREDICTED BY IDOCK:   -6.52 KCAL/MOL
REMARK 923 INTER-LIGAND FREE ENERGY PREDICTED BY IDOCK:   -5.98 KCAL/MOL
REMARK 924 INTRA-LIGAND FREE ENERGY PREDICTED BY IDOCK:   -0.54 KCAL/MOL
REMARK 927      BINDING AFFINITY PREDICTED BY RF-SCORE:    0.00 PKD
ROOT
HETATM    1  C   UNL     1     -12.316  15.159  73.795  1.00  0.00    -0.578 C  
HETATM    2  O   UNL     1     -12.819  16.134  72.881  1.00  0.00    -0.452 OA 
ENDROOT
BRANCH   2   3
HETATM    3  C   UNL     1     -12.997  15.659  71.626  1.00  0.00    -0.476 C  
HETATM    4  O   UNL     1     -14.063  15.471  71.060  1.00  0.00    -0.513 OA 
BRANCH   3   5
HETATM    5  C   UNL     1     -11.675  15.378  71.045  1.00  0.00    -0.408 C  
HETATM    6  C   UNL     1     -11.160  16.264  70.186  1.00  0.00    -0.346 C  
BRANCH   6   7
HETATM    7  C   UNL     1      -9.915  15.957  69.465  1.00  0.00    -0.274 C  
HETATM    8  O   UNL     1      -9.108  15.105  69.786  1.00  0.00    -0.148 OA 
BRANCH   7   9
HETATM    9  O   UNL     1      -9.940  16.669  68.314  1.00  0.00    -0.244 OA 
BRANCH   9  10
HETATM   10  C   UNL     1     -10.336  18.042  68.462  1.00  0.00    -0.349 C  
BRANCH  10  11
HETATM   11  C   UNL     1      -9.043  18.831  68.636  1.00  0.00    -0.330 C  
BRANCH  11  12
HETATM   12  N   UNL     1      -7.985  18.459  67.729  1.00  0.00    -0.246 N  
HETATM   13  C   UNL     1      -7.968  18.788  66.406  1.00  0.00    -0.282 C  
HETATM   14  O   UNL     1      -8.735  19.541  65.830  1.00  0.00    -0.417 OA 
HETATM   15  C   UNL     1      -6.859  18.021  65.749  1.00  0.00    -0.281 C  
HETATM   16  C   UNL     1      -6.006  17.548  66.912  1.00  0.00    -0.197 C  
HETATM   17  C   UNL     1      -6.872  17.772  68.113  1.00  0.00    -0.206 C  
HETATM   18  O   UNL     1      -6.586  17.433  69.252  1.00  0.00    -0.236 OA 
ENDBRANCH  11  12
ENDBRANCH  10  11
ENDBRANCH   9  10
ENDBRANCH   7   9
ENDBRANCH   6   7
ENDBRANCH   3   5
ENDBRANCH   2   3
TORSDOF 7
ENDMDL
MODEL      117
REMARK 921   NORMALIZED FREE ENERGY PREDICTED BY IDOCK:   -4.29 KCAL/MOL
REMARK 922        TOTAL FREE ENERGY PREDICTED BY IDOCK:   -6.48 KCAL/MOL
REMARK 923 INTER-LIGAND FREE ENERGY PREDICTED BY IDOCK:   -5.57 KCAL/MOL
REMARK 924 INTRA-LIGAND FREE ENERGY PREDICTED BY IDOCK:   -0.91 KCAL/MOL
REMARK 927      BINDING AFFINITY PREDICTED BY RF-SCORE:    0.00 PKD
ROOT
HETATM    1  C   UNL     1      -9.413  10.386  63.173  1.00  0.00    -0.327 C  
HETATM    2  O   UNL     1     -10.248  10.326  64.330  1.00  0.00    -0.269 OA 
ENDROOT
BRANCH   2   3
HETATM    3  C   UNL     1      -9.691   9.653  65.364  1.00  0.00    -0.295 C  
HETATM    4  O   UNL     1      -8.602   9.102  65.376  1.00  0.00    -0.148 OA 
BRANCH   3   5
HETATM    5  C   UNL     1     -10.637   9.672  66.491  1.00  0.00    -0.142 C  
HETATM    6  C   UNL     1     -10.366  10.468  67.531  1.00  0.00    -0.265 C  
BRANCH   6   7
HETATM    7  C   UNL     1     -11.198  10.410  68.743  1.00  0.00    -0.241 C  
HETATM    8  O   UNL     1     -11.043   9.632  69.666  1.00  0.00    -0.236 OA 
BRANCH   7   9
HETATM    9  O   UNL     1     -12.028  11.479  68.703  1.00  0.00    -0.424 OA 
BRANCH   9  10
HETATM   10  C   UNL     1     -11.389  12.747  68.915  1.00  0.00    -0.296 C  
BRANCH  10  11
HETATM   11  C   UNL     1     -12.135  13.741  68.032  1.00  0.00    -0.280 C  
BRANCH  11  12
HETATM   12  N   UNL     1     -11.524  13.982  66.748  1.00  0.00    -0.347 N  
HETATM   13  C   UNL     1     -10.528  14.889  66.538  1.00  0.00    -0.297 C  
HETATM   14  O   UNL     1      -9.918  15.514  67.389  1.00  0.00    -0.231 OA 
HETATM   15  C   UNL     1     -10.335  15.034  65.058  1.00  0.00    -0.390 C  
HETATM   16  C   UNL     1     -11.037  13.820  64.478  1.00  0.00    -0.388 C  
HETATM   17  C   UNL     1     -11.854  13.294  65.618  1.00  0.00    -0.380 C  
HETATM   18  O   UNL     1     -12.645  12.366  65.539  1.00  0.00    -0.616 OA 
ENDBRANCH  11  12
ENDBRANCH  10  11
ENDBRANCH   9  10
ENDBRANCH   7   9
ENDBRANCH   6   7
ENDBRANCH   3   5
ENDBRANCH   2   3
TORSDOF 7
ENDMDL
MODEL      118
REMARK 921   NORMALIZED FREE ENERGY PREDICTED BY IDOCK:   -4.29 KCAL/MOL
REMARK 922        TOTAL FREE ENERGY PREDICTED BY IDOCK:   -6.48 KCAL/MOL
REMARK 923 INTER-LIGAND FREE ENERGY PREDICTED BY IDOCK:   -6.33 KCAL/MOL
REMARK 924 INTRA-LIGAND FREE ENERGY PREDICTED BY IDOCK:   -0.15 KCAL/MOL
REMARK 927      BINDING AFFINITY PREDICTED BY RF-SCORE:    0.00 PKD
ROOT
HETATM    1  C   UNL     1     -11.016   6.279  67.416  1.00  0.00    -0.356 C  
HETATM    2  O   UNL     1     -11.390   6.221  68.792  1.00  0.00    -0.356 OA 
ENDROOT
BRANCH   2   3
HETATM    3  C   UNL     1     -10.541   5.491  69.553  1.00  0.00    -0.296 C  
HETATM    4  O   UNL     1      -9.940   4.484  69.216  1.00  0.00    -0.194 OA 
BRANCH   3   5
HETATM    5  C   UNL     1     -10.472   6.106  70.888  1.00  0.00    -0.282 C  
HETATM    6  C   UNL     1     -11.536   6.789  71.326  1.00  0.00    -0.347 C  
BRANCH   6   7
HETATM    7  C   UNL     1     -11.461   7.546  72.585  1.00  0.00    -0.319 C  
HETATM    8  O   UNL     1     -10.662   7.344  73.481  1.00  0.00    -0.385 OA 
BRANCH   7   9
HETATM    9  O   UNL     1     -12.315   8.590  72.469  1.00  0.00    -0.388 OA 
BRANCH   9  10
HETATM   10  C   UNL     1     -11.801   9.710  71.732  1.00  0.00    -0.320 C  
BRANCH  10  11
HETATM   11  C   UNL     1     -12.994  10.628  71.485  1.00  0.00    -0.461 C  
BRANCH  11  12
HETATM   12  N   UNL     1     -12.648  11.965  71.070  1.00  0.00    -0.340 N  
HETATM   13  C   UNL     1     -13.036  13.091  71.734  1.00  0.00    -0.373 C  
HETATM   14  O   UNL     1     -13.590  13.144  72.818  1.00  0.00    -0.598 OA 
HETATM   15  C   UNL     1     -12.708  14.275  70.874  1.00  0.00    -0.427 C  
HETATM   16  C   UNL     1     -11.732  13.723  69.851  1.00  0.00    -0.353 C  
HETATM   17  C   UNL     1     -11.861  12.237  69.990  1.00  0.00    -0.296 C  
HETATM   18  O   UNL     1     -11.305  11.419  69.274  1.00  0.00    -0.242 OA 
ENDBRANCH  11  12
ENDBRANCH  10  11
ENDBRANCH   9  10
ENDBRANCH   7   9
ENDBRANCH   6   7
ENDBRANCH   3   5
ENDBRANCH   2   3
TORSDOF 7
ENDMDL
MODEL      119
REMARK 921   NORMALIZED FREE ENERGY PREDICTED BY IDOCK:   -4.27 KCAL/MOL
REMARK 922        TOTAL FREE ENERGY PREDICTED BY IDOCK:   -6.46 KCAL/MOL
REMARK 923 INTER-LIGAND FREE ENERGY PREDICTED BY IDOCK:   -6.14 KCAL/MOL
REMARK 924 INTRA-LIGAND FREE ENERGY PREDICTED BY IDOCK:   -0.32 KCAL/MOL
REMARK 927      BINDING AFFINITY PREDICTED BY RF-SCORE:    0.00 PKD
ROOT
HETATM    1  C   UNL     1     -13.014  15.522  71.114  1.00  0.00    -0.496 C  
HETATM    2  O   UNL     1     -12.421  14.280  71.493  1.00  0.00    -0.334 OA 
ENDROOT
BRANCH   2   3
HETATM    3  C   UNL     1     -13.322  13.340  71.862  1.00  0.00    -0.451 C  
HETATM    4  O   UNL     1     -14.219  13.469  72.680  1.00  0.00    -0.751 OA 
BRANCH   3   5
HETATM    5  C   UNL     1     -13.030  12.103  71.121  1.00  0.00    -0.240 C  
HETATM    6  C   UNL     1     -11.937  12.070  70.351  1.00  0.00    -0.379 C  
BRANCH   6   7
HETATM    7  C   UNL     1     -11.684  10.915  69.475  1.00  0.00    -0.328 C  
HETATM    8  O   UNL     1     -12.179  10.743  68.377  1.00  0.00    -0.470 OA 
BRANCH   7   9
HETATM    9  O   UNL     1     -10.687  10.199  70.046  1.00  0.00    -0.268 OA 
BRANCH   9  10
HETATM   10  C   UNL     1     -11.040   9.548  71.276  1.00  0.00    -0.379 C  
BRANCH  10  11
HETATM   11  C   UNL     1     -11.925   8.369  70.884  1.00  0.00    -0.177 C  
BRANCH  11  12
HETATM   12  N   UNL     1     -11.226   7.117  70.731  1.00  0.00    -0.268 N  
HETATM   13  C   UNL     1     -10.728   6.665  69.545  1.00  0.00    -0.260 C  
HETATM   14  O   UNL     1     -10.666   7.283  68.496  1.00  0.00    -0.194 OA 
HETATM   15  C   UNL     1     -10.305   5.239  69.730  1.00  0.00    -0.369 C  
HETATM   16  C   UNL     1     -10.239   5.072  71.238  1.00  0.00    -0.273 C  
HETATM   17  C   UNL     1     -10.957   6.275  71.768  1.00  0.00    -0.258 C  
HETATM   18  O   UNL     1     -11.206   6.474  72.948  1.00  0.00    -0.242 OA 
ENDBRANCH  11  12
ENDBRANCH  10  11
ENDBRANCH   9  10
ENDBRANCH   7   9
ENDBRANCH   6   7
ENDBRANCH   3   5
ENDBRANCH   2   3
TORSDOF 7
ENDMDL
MODEL      120
REMARK 921   NORMALIZED FREE ENERGY PREDICTED BY IDOCK:   -4.27 KCAL/MOL
REMARK 922        TOTAL FREE ENERGY PREDICTED BY IDOCK:   -6.45 KCAL/MOL
REMARK 923 INTER-LIGAND FREE ENERGY PREDICTED BY IDOCK:   -6.22 KCAL/MOL
REMARK 924 INTRA-LIGAND FREE ENERGY PREDICTED BY IDOCK:   -0.23 KCAL/MOL
REMARK 927      BINDING AFFINITY PREDICTED BY RF-SCORE:    0.00 PKD
ROOT
HETATM    1  C   UNL     1     -10.456   9.962  70.064  1.00  0.00    -0.284 C  
HETATM    2  O   UNL     1     -10.247  11.097  69.224  1.00  0.00    -0.184 OA 
ENDROOT
BRANCH   2   3
HETATM    3  C   UNL     1     -11.361  11.496  68.566  1.00  0.00    -0.277 C  
HETATM    4  O   UNL     1     -12.477  11.010  68.657  1.00  0.00    -0.462 OA 
BRANCH   3   5
HETATM    5  C   UNL     1     -11.002  12.621  67.688  1.00  0.00    -0.275 C  
HETATM    6  C   UNL     1     -11.001  12.416  66.367  1.00  0.00    -0.315 C  
BRANCH   6   7
HETATM    7  C   UNL     1     -10.504  13.460  65.457  1.00  0.00    -0.291 C  
HETATM    8  O   UNL     1     -10.744  13.528  64.265  1.00  0.00    -0.403 OA 
BRANCH   7   9
HETATM    9  O   UNL     1      -9.896  14.395  66.224  1.00  0.00    -0.279 OA 
BRANCH   9  10
HETATM   10  C   UNL     1     -10.174  15.754  65.852  1.00  0.00    -0.355 C  
BRANCH  10  11
HETATM   11  C   UNL     1      -9.000  16.576  66.373  1.00  0.00    -0.305 C  
BRANCH  11  12
HETATM   12  N   UNL     1      -9.339  17.918  66.779  1.00  0.00    -0.267 N  
HETATM   13  C   UNL     1     -10.292  18.213  67.708  1.00  0.00    -0.399 C  
HETATM   14  O   UNL     1     -10.886  17.423  68.422  1.00  0.00    -0.336 OA 
HETATM   15  C   UNL     1     -10.533  19.693  67.675  1.00  0.00    -0.579 C  
HETATM   16  C   UNL     1      -9.331  20.240  66.926  1.00  0.00    -0.505 C  
HETATM   17  C   UNL     1      -8.709  19.029  66.302  1.00  0.00    -0.273 C  
HETATM   18  O   UNL     1      -7.760  19.051  65.532  1.00  0.00    -0.436 OA 
ENDBRANCH  11  12
ENDBRANCH  10  11
ENDBRANCH   9  10
ENDBRANCH   7   9
ENDBRANCH   6   7
ENDBRANCH   3   5
ENDBRANCH   2   3
TORSDOF 7
ENDMDL
MODEL      121
REMARK 921   NORMALIZED FREE ENERGY PREDICTED BY IDOCK:   -4.26 KCAL/MOL
REMARK 922        TOTAL FREE ENERGY PREDICTED BY IDOCK:   -6.45 KCAL/MOL
REMARK 923 INTER-LIGAND FREE ENERGY PREDICTED BY IDOCK:   -5.78 KCAL/MOL
REMARK 924 INTRA-LIGAND FREE ENERGY PREDICTED BY IDOCK:   -0.67 KCAL/MOL
REMARK 927      BINDING AFFINITY PREDICTED BY RF-SCORE:    0.00 PKD
ROOT
HETATM    1  C   UNL     1     -10.325   9.059  71.190  1.00  0.00    -0.291 C  
HETATM    2  O   UNL     1     -11.710   8.792  71.404  1.00  0.00    -0.274 OA 
ENDROOT
BRANCH   2   3
HETATM    3  C   UNL     1     -12.481   9.904  71.417  1.00  0.00    -0.398 C  
HETATM    4  O   UNL     1     -13.519  10.067  72.039  1.00  0.00    -0.407 OA 
BRANCH   3   5
HETATM    5  C   UNL     1     -11.868  10.902  70.526  1.00  0.00    -0.457 C  
HETATM    6  C   UNL     1     -12.348  12.151  70.550  1.00  0.00    -0.358 C  
BRANCH   6   7
HETATM    7  C   UNL     1     -11.873  13.144  69.574  1.00  0.00    -0.322 C  
HETATM    8  O   UNL     1     -12.250  14.299  69.505  1.00  0.00    -0.323 OA 
BRANCH   7   9
HETATM    9  O   UNL     1     -10.838  12.579  68.908  1.00  0.00    -0.234 OA 
BRANCH   9  10
HETATM   10  C   UNL     1     -10.557  13.161  67.626  1.00  0.00    -0.228 C  
BRANCH  10  11
HETATM   11  C   UNL     1     -11.435  12.413  66.628  1.00  0.00    -0.370 C  
BRANCH  11  12
HETATM   12  N   UNL     1     -10.731  11.461  65.804  1.00  0.00    -0.267 N  
HETATM   13  C   UNL     1     -10.401  10.202  66.211  1.00  0.00    -0.175 C  
HETATM   14  O   UNL     1     -10.757   9.648  67.237  1.00  0.00    -0.263 OA 
HETATM   15  C   UNL     1      -9.469   9.613  65.194  1.00  0.00    -0.332 C  
HETATM   16  C   UNL     1      -9.638  10.512  63.982  1.00  0.00    -0.367 C  
HETATM   17  C   UNL     1     -10.360  11.711  64.517  1.00  0.00    -0.300 C  
HETATM   18  O   UNL     1     -10.609  12.720  63.873  1.00  0.00    -0.414 OA 
ENDBRANCH  11  12
ENDBRANCH  10  11
ENDBRANCH   9  10
ENDBRANCH   7   9
ENDBRANCH   6   7
ENDBRANCH   3   5
ENDBRANCH   2   3
TORSDOF 7
ENDMDL
MODEL      122
REMARK 921   NORMALIZED FREE ENERGY PREDICTED BY IDOCK:   -4.25 KCAL/MOL
REMARK 922        TOTAL FREE ENERGY PREDICTED BY IDOCK:   -6.43 KCAL/MOL
REMARK 923 INTER-LIGAND FREE ENERGY PREDICTED BY IDOCK:   -5.86 KCAL/MOL
REMARK 924 INTRA-LIGAND FREE ENERGY PREDICTED BY IDOCK:   -0.57 KCAL/MOL
REMARK 927      BINDING AFFINITY PREDICTED BY RF-SCORE:    0.00 PKD
ROOT
HETATM    1  C   UNL     1     -12.575   9.887  71.645  1.00  0.00    -0.424 C  
HETATM    2  O   UNL     1     -11.490  10.404  70.875  1.00  0.00    -0.344 OA 
ENDROOT
BRANCH   2   3
HETATM    3  C   UNL     1     -11.859  11.368  69.999  1.00  0.00    -0.359 C  
HETATM    4  O   UNL     1     -12.332  12.460  70.271  1.00  0.00    -0.275 OA 
BRANCH   3   5
HETATM    5  C   UNL     1     -11.613  10.873  68.635  1.00  0.00    -0.373 C  
HETATM    6  C   UNL     1     -10.889   9.758  68.488  1.00  0.00    -0.227 C  
BRANCH   6   7
HETATM    7  C   UNL     1     -10.489   9.308  67.145  1.00  0.00    -0.249 C  
HETATM    8  O   UNL     1     -10.046   8.207  66.875  1.00  0.00    -0.242 OA 
BRANCH   7   9
HETATM    9  O   UNL     1     -10.869  10.274  66.276  1.00  0.00    -0.068 OA 
BRANCH   9  10
HETATM   10  C   UNL     1     -10.059  10.375  65.095  1.00  0.00    -0.308 C  
BRANCH  10  11
HETATM   11  C   UNL     1     -10.182  11.822  64.629  1.00  0.00    -0.284 C  
BRANCH  11  12
HETATM   12  N   UNL     1     -10.692  12.733  65.624  1.00  0.00    -0.269 N  
HETATM   13  C   UNL     1     -11.994  13.131  65.694  1.00  0.00    -0.415 C  
HETATM   14  O   UNL     1     -12.928  12.691  65.047  1.00  0.00    -0.812 OA 
HETATM   15  C   UNL     1     -12.084  14.256  66.681  1.00  0.00    -0.448 C  
HETATM   16  C   UNL     1     -10.779  14.170  67.452  1.00  0.00    -0.284 C  
HETATM   17  C   UNL     1      -9.928  13.257  66.623  1.00  0.00    -0.272 C  
HETATM   18  O   UNL     1      -8.755  12.999  66.852  1.00  0.00    -0.207 OA 
ENDBRANCH  11  12
ENDBRANCH  10  11
ENDBRANCH   9  10
ENDBRANCH   7   9
ENDBRANCH   6   7
ENDBRANCH   3   5
ENDBRANCH   2   3
TORSDOF 7
ENDMDL
MODEL      123
REMARK 921   NORMALIZED FREE ENERGY PREDICTED BY IDOCK:   -4.24 KCAL/MOL
REMARK 922        TOTAL FREE ENERGY PREDICTED BY IDOCK:   -6.41 KCAL/MOL
REMARK 923 INTER-LIGAND FREE ENERGY PREDICTED BY IDOCK:   -5.59 KCAL/MOL
REMARK 924 INTRA-LIGAND FREE ENERGY PREDICTED BY IDOCK:   -0.83 KCAL/MOL
REMARK 927      BINDING AFFINITY PREDICTED BY RF-SCORE:    0.00 PKD
ROOT
HETATM    1  C   UNL     1      -9.770  11.255  63.026  1.00  0.00    -0.366 C  
HETATM    2  O   UNL     1     -10.232  10.551  64.178  1.00  0.00    -0.342 OA 
ENDROOT
BRANCH   2   3
HETATM    3  C   UNL     1      -9.253   9.886  64.835  1.00  0.00    -0.246 C  
HETATM    4  O   UNL     1      -8.445   9.110  64.351  1.00  0.00    -0.169 OA 
BRANCH   3   5
HETATM    5  C   UNL     1      -9.332  10.237  66.262  1.00  0.00    -0.206 C  
HETATM    6  C   UNL     1      -8.721  11.353  66.673  1.00  0.00    -0.178 C  
BRANCH   6   7
HETATM    7  C   UNL     1      -8.642  11.667  68.108  1.00  0.00    -0.158 C  
HETATM    8  O   UNL     1      -8.445  10.858  68.996  1.00  0.00    -0.152 OA 
BRANCH   7   9
HETATM    9  O   UNL     1      -8.656  13.016  68.218  1.00  0.00    -0.177 OA 
BRANCH   9  10
HETATM   10  C   UNL     1      -8.804  13.721  66.976  1.00  0.00    -0.218 C  
BRANCH  10  11
HETATM   11  C   UNL     1     -10.104  14.509  67.096  1.00  0.00    -0.252 C  
BRANCH  11  12
HETATM   12  N   UNL     1     -11.094  14.192  66.096  1.00  0.00    -0.308 N  
HETATM   13  C   UNL     1     -11.940  13.126  66.176  1.00  0.00    -0.422 C  
HETATM   14  O   UNL     1     -12.092  12.383  67.131  1.00  0.00    -0.532 OA 
HETATM   15  C   UNL     1     -12.634  12.982  64.854  1.00  0.00    -0.490 C  
HETATM   16  C   UNL     1     -12.392  14.316  64.170  1.00  0.00    -0.361 C  
HETATM   17  C   UNL     1     -11.311  14.953  64.987  1.00  0.00    -0.398 C  
HETATM   18  O   UNL     1     -10.760  16.009  64.712  1.00  0.00    -0.611 OA 
ENDBRANCH  11  12
ENDBRANCH  10  11
ENDBRANCH   9  10
ENDBRANCH   7   9
ENDBRANCH   6   7
ENDBRANCH   3   5
ENDBRANCH   2   3
TORSDOF 7
ENDMDL
MODEL      124
REMARK 921   NORMALIZED FREE ENERGY PREDICTED BY IDOCK:   -4.24 KCAL/MOL
REMARK 922        TOTAL FREE ENERGY PREDICTED BY IDOCK:   -6.41 KCAL/MOL
REMARK 923 INTER-LIGAND FREE ENERGY PREDICTED BY IDOCK:   -5.87 KCAL/MOL
REMARK 924 INTRA-LIGAND FREE ENERGY PREDICTED BY IDOCK:   -0.54 KCAL/MOL
REMARK 927      BINDING AFFINITY PREDICTED BY RF-SCORE:    0.00 PKD
ROOT
HETATM    1  C   UNL     1     -11.391  11.415  68.731  1.00  0.00    -0.271 C  
HETATM    2  O   UNL     1     -12.023  12.632  69.127  1.00  0.00    -0.291 OA 
ENDROOT
BRANCH   2   3
HETATM    3  C   UNL     1     -11.285  13.736  68.863  1.00  0.00    -0.272 C  
HETATM    4  O   UNL     1     -10.906  14.571  69.668  1.00  0.00    -0.229 OA 
BRANCH   3   5
HETATM    5  C   UNL     1     -11.024  13.782  67.415  1.00  0.00    -0.296 C  
HETATM    6  C   UNL     1     -10.417  14.865  66.917  1.00  0.00    -0.280 C  
BRANCH   6   7
HETATM    7  C   UNL     1     -10.270  15.026  65.462  1.00  0.00    -0.378 C  
HETATM    8  O   UNL     1     -10.259  14.118  64.651  1.00  0.00    -0.408 OA 
BRANCH   7   9
HETATM    9  O   UNL     1     -10.329  16.353  65.204  1.00  0.00    -0.610 OA 
BRANCH   9  10
HETATM   10  C   UNL     1     -10.783  17.161  66.301  1.00  0.00    -0.079 C  
BRANCH  10  11
HETATM   11  C   UNL     1     -10.097  18.513  66.134  1.00  0.00    -0.368 C  
BRANCH  11  12
HETATM   12  N   UNL     1      -8.915  18.691  66.940  1.00  0.00    -0.285 N  
HETATM   13  C   UNL     1      -8.931  19.166  68.219  1.00  0.00    -0.336 C  
HETATM   14  O   UNL     1      -9.915  19.370  68.909  1.00  0.00    -0.434 OA 
HETATM   15  C   UNL     1      -7.517  19.447  68.629  1.00  0.00    -0.385 C  
HETATM   16  C   UNL     1      -6.685  18.700  67.603  1.00  0.00    -0.208 C  
HETATM   17  C   UNL     1      -7.661  18.363  66.518  1.00  0.00    -0.252 C  
HETATM   18  O   UNL     1      -7.368  17.835  65.456  1.00  0.00    -0.489 OA 
ENDBRANCH  11  12
ENDBRANCH  10  11
ENDBRANCH   9  10
ENDBRANCH   7   9
ENDBRANCH   6   7
ENDBRANCH   3   5
ENDBRANCH   2   3
TORSDOF 7
ENDMDL
MODEL      125
REMARK 921   NORMALIZED FREE ENERGY PREDICTED BY IDOCK:   -4.23 KCAL/MOL
REMARK 922        TOTAL FREE ENERGY PREDICTED BY IDOCK:   -6.40 KCAL/MOL
REMARK 923 INTER-LIGAND FREE ENERGY PREDICTED BY IDOCK:   -5.63 KCAL/MOL
REMARK 924 INTRA-LIGAND FREE ENERGY PREDICTED BY IDOCK:   -0.77 KCAL/MOL
REMARK 927      BINDING AFFINITY PREDICTED BY RF-SCORE:    0.00 PKD
ROOT
HETATM    1  C   UNL     1     -10.740   9.466  68.978  1.00  0.00    -0.187 C  
HETATM    2  O   UNL     1     -11.098  10.831  69.191  1.00  0.00    -0.212 OA 
ENDROOT
BRANCH   2   3
HETATM    3  C   UNL     1     -10.569  11.678  68.277  1.00  0.00    -0.205 C  
HETATM    4  O   UNL     1      -9.410  12.057  68.216  1.00  0.00    -0.194 OA 
BRANCH   3   5
HETATM    5  C   UNL     1     -11.641  12.097  67.360  1.00  0.00    -0.410 C  
HETATM    6  C   UNL     1     -11.298  12.530  66.142  1.00  0.00    -0.388 C  
BRANCH   6   7
HETATM    7  C   UNL     1     -12.316  13.101  65.247  1.00  0.00    -0.481 C  
HETATM    8  O   UNL     1     -13.185  12.468  64.676  1.00  0.00    -0.848 OA 
BRANCH   7   9
HETATM    9  O   UNL     1     -12.202  14.448  65.327  1.00  0.00    -0.393 OA 
BRANCH   9  10
HETATM   10  C   UNL     1     -10.889  14.959  65.052  1.00  0.00    -0.423 C  
BRANCH  10  11
HETATM   11  C   UNL     1     -10.700  16.145  65.991  1.00  0.00    -0.241 C  
BRANCH  11  12
HETATM   12  N   UNL     1     -10.105  15.816  67.263  1.00  0.00    -0.243 N  
HETATM   13  C   UNL     1      -8.786  15.512  67.430  1.00  0.00    -0.190 C  
HETATM   14  O   UNL     1      -7.904  15.607  66.594  1.00  0.00    -0.221 OA 
HETATM   15  C   UNL     1      -8.601  14.986  68.822  1.00  0.00    -0.182 C  
HETATM   16  C   UNL     1      -9.868  15.411  69.542  1.00  0.00    -0.262 C  
HETATM   17  C   UNL     1     -10.796  15.816  68.438  1.00  0.00    -0.297 C  
HETATM   18  O   UNL     1     -11.965  16.138  68.593  1.00  0.00    -0.254 OA 
ENDBRANCH  11  12
ENDBRANCH  10  11
ENDBRANCH   9  10
ENDBRANCH   7   9
ENDBRANCH   6   7
ENDBRANCH   3   5
ENDBRANCH   2   3
TORSDOF 7
ENDMDL
MODEL      126
REMARK 921   NORMALIZED FREE ENERGY PREDICTED BY IDOCK:   -4.22 KCAL/MOL
REMARK 922        TOTAL FREE ENERGY PREDICTED BY IDOCK:   -6.38 KCAL/MOL
REMARK 923 INTER-LIGAND FREE ENERGY PREDICTED BY IDOCK:   -6.06 KCAL/MOL
REMARK 924 INTRA-LIGAND FREE ENERGY PREDICTED BY IDOCK:   -0.32 KCAL/MOL
REMARK 927      BINDING AFFINITY PREDICTED BY RF-SCORE:    0.00 PKD
ROOT
HETATM    1  C   UNL     1     -10.255  15.248  65.453  1.00  0.00    -0.383 C  
HETATM    2  O   UNL     1     -10.746  13.938  65.737  1.00  0.00    -0.279 OA 
ENDROOT
BRANCH   2   3
HETATM    3  C   UNL     1     -12.048  13.917  66.108  1.00  0.00    -0.448 C  
HETATM    4  O   UNL     1     -13.019  13.958  65.370  1.00  0.00    -0.722 OA 
BRANCH   3   5
HETATM    5  C   UNL     1     -12.110  13.857  67.577  1.00  0.00    -0.366 C  
HETATM    6  C   UNL     1     -11.762  12.715  68.179  1.00  0.00    -0.396 C  
BRANCH   6   7
HETATM    7  C   UNL     1     -11.950  12.556  69.629  1.00  0.00    -0.272 C  
HETATM    8  O   UNL     1     -12.312  13.432  70.392  1.00  0.00    -0.336 OA 
BRANCH   7   9
HETATM    9  O   UNL     1     -11.815  11.237  69.902  1.00  0.00    -0.297 OA 
BRANCH   9  10
HETATM   10  C   UNL     1     -10.572  10.657  69.477  1.00  0.00    -0.230 C  
BRANCH  10  11
HETATM   11  C   UNL     1     -10.731   9.152  69.661  1.00  0.00    -0.225 C  
BRANCH  11  12
HETATM   12  N   UNL     1     -10.601   8.695  71.023  1.00  0.00    -0.210 N  
HETATM   13  C   UNL     1      -9.440   8.753  71.736  1.00  0.00    -0.293 C  
HETATM   14  O   UNL     1      -8.407   9.308  71.405  1.00  0.00    -0.323 OA 
HETATM   15  C   UNL     1      -9.630   7.965  72.998  1.00  0.00    -0.341 C  
HETATM   16  C   UNL     1     -11.136   7.807  73.106  1.00  0.00    -0.336 C  
HETATM   17  C   UNL     1     -11.640   8.195  71.749  1.00  0.00    -0.291 C  
HETATM   18  O   UNL     1     -12.805   8.116  71.390  1.00  0.00    -0.308 OA 
ENDBRANCH  11  12
ENDBRANCH  10  11
ENDBRANCH   9  10
ENDBRANCH   7   9
ENDBRANCH   6   7
ENDBRANCH   3   5
ENDBRANCH   2   3
TORSDOF 7
ENDMDL
MODEL      127
REMARK 921   NORMALIZED FREE ENERGY PREDICTED BY IDOCK:   -4.21 KCAL/MOL
REMARK 922        TOTAL FREE ENERGY PREDICTED BY IDOCK:   -6.37 KCAL/MOL
REMARK 923 INTER-LIGAND FREE ENERGY PREDICTED BY IDOCK:   -5.87 KCAL/MOL
REMARK 924 INTRA-LIGAND FREE ENERGY PREDICTED BY IDOCK:   -0.50 KCAL/MOL
REMARK 927      BINDING AFFINITY PREDICTED BY RF-SCORE:    0.00 PKD
ROOT
HETATM    1  C   UNL     1     -11.823  11.028  70.030  1.00  0.00    -0.355 C  
HETATM    2  O   UNL     1     -12.202  11.021  68.654  1.00  0.00    -0.571 OA 
ENDROOT
BRANCH   2   3
HETATM    3  C   UNL     1     -11.167  10.805  67.808  1.00  0.00    -0.316 C  
HETATM    4  O   UNL     1     -10.993   9.825  67.101  1.00  0.00    -0.202 OA 
BRANCH   3   5
HETATM    5  C   UNL     1     -10.253  11.955  67.893  1.00  0.00    -0.203 C  
HETATM    6  C   UNL     1      -9.469  12.218  66.841  1.00  0.00    -0.217 C  
BRANCH   6   7
HETATM    7  C   UNL     1      -8.434  13.260  66.933  1.00  0.00    -0.060 C  
HETATM    8  O   UNL     1      -7.295  13.087  67.324  1.00  0.00    -0.138 OA 
BRANCH   7   9
HETATM    9  O   UNL     1      -8.939  14.370  66.346  1.00  0.00    -0.205 OA 
BRANCH   9  10
HETATM   10  C   UNL     1      -8.839  15.567  67.134  1.00  0.00    -0.212 C  
BRANCH  10  11
HETATM   11  C   UNL     1     -10.260  16.110  67.246  1.00  0.00    -0.277 C  
BRANCH  11  12
HETATM   12  N   UNL     1     -10.398  17.506  66.910  1.00  0.00    -0.323 N  
HETATM   13  C   UNL     1     -10.676  17.961  65.655  1.00  0.00    -0.052 C  
HETATM   14  O   UNL     1     -10.983  17.289  64.686  1.00  0.00    -1.013 OA 
HETATM   15  C   UNL     1     -10.491  19.449  65.648  1.00  0.00    -0.355 C  
HETATM   16  C   UNL     1     -10.480  19.822  67.120  1.00  0.00    -0.592 C  
HETATM   17  C   UNL     1     -10.304  18.512  67.825  1.00  0.00    -0.402 C  
HETATM   18  O   UNL     1     -10.153  18.385  69.031  1.00  0.00    -0.379 OA 
ENDBRANCH  11  12
ENDBRANCH  10  11
ENDBRANCH   9  10
ENDBRANCH   7   9
ENDBRANCH   6   7
ENDBRANCH   3   5
ENDBRANCH   2   3
TORSDOF 7
ENDMDL
MODEL      128
REMARK 921   NORMALIZED FREE ENERGY PREDICTED BY IDOCK:   -4.21 KCAL/MOL
REMARK 922        TOTAL FREE ENERGY PREDICTED BY IDOCK:   -6.37 KCAL/MOL
REMARK 923 INTER-LIGAND FREE ENERGY PREDICTED BY IDOCK:   -5.88 KCAL/MOL
REMARK 924 INTRA-LIGAND FREE ENERGY PREDICTED BY IDOCK:   -0.49 KCAL/MOL
REMARK 927      BINDING AFFINITY PREDICTED BY RF-SCORE:    0.00 PKD
ROOT
HETATM    1  C   UNL     1     -12.070  12.743  69.644  1.00  0.00    -0.222 C  
HETATM    2  O   UNL     1     -12.756  13.857  70.217  1.00  0.00    -0.296 OA 
ENDROOT
BRANCH   2   3
HETATM    3  C   UNL     1     -11.936  14.870  70.579  1.00  0.00    -0.309 C  
HETATM    4  O   UNL     1     -11.546  15.127  71.707  1.00  0.00    -0.377 OA 
BRANCH   3   5
HETATM    5  C   UNL     1     -11.597  15.645  69.375  1.00  0.00    -0.378 C  
HETATM    6  C   UNL     1     -10.608  16.541  69.457  1.00  0.00    -0.321 C  
BRANCH   6   7
HETATM    7  C   UNL     1     -10.333  17.444  68.328  1.00  0.00    -0.374 C  
HETATM    8  O   UNL     1     -11.100  18.284  67.896  1.00  0.00    -0.182 OA 
BRANCH   7   9
HETATM    9  O   UNL     1      -9.031  17.277  67.997  1.00  0.00    -0.231 OA 
BRANCH   9  10
HETATM   10  C   UNL     1      -8.698  15.970  67.502  1.00  0.00    -0.182 C  
BRANCH  10  11
HETATM   11  C   UNL     1      -9.074  15.977  66.025  1.00  0.00    -0.326 C  
BRANCH  11  12
HETATM   12  N   UNL     1     -10.214  15.160  65.690  1.00  0.00    -0.331 N  
HETATM   13  C   UNL     1     -11.324  15.628  65.051  1.00  0.00    -0.253 C  
HETATM   14  O   UNL     1     -11.467  16.730  64.550  1.00  0.00    -0.866 OA 
HETATM   15  C   UNL     1     -12.378  14.564  65.108  1.00  0.00    -0.324 C  
HETATM   16  C   UNL     1     -11.609  13.309  65.482  1.00  0.00    -0.351 C  
HETATM   17  C   UNL     1     -10.280  13.822  65.945  1.00  0.00    -0.313 C  
HETATM   18  O   UNL     1      -9.394  13.130  66.423  1.00  0.00    -0.246 OA 
ENDBRANCH  11  12
ENDBRANCH  10  11
ENDBRANCH   9  10
ENDBRANCH   7   9
ENDBRANCH   6   7
ENDBRANCH   3   5
ENDBRANCH   2   3
TORSDOF 7
ENDMDL
MODEL      129
REMARK 921   NORMALIZED FREE ENERGY PREDICTED BY IDOCK:   -4.21 KCAL/MOL
REMARK 922        TOTAL FREE ENERGY PREDICTED BY IDOCK:   -6.36 KCAL/MOL
REMARK 923 INTER-LIGAND FREE ENERGY PREDICTED BY IDOCK:   -5.80 KCAL/MOL
REMARK 924 INTRA-LIGAND FREE ENERGY PREDICTED BY IDOCK:   -0.56 KCAL/MOL
REMARK 927      BINDING AFFINITY PREDICTED BY RF-SCORE:    0.00 PKD
ROOT
HETATM    1  C   UNL     1     -10.370  17.106  68.694  1.00  0.00    -0.359 C  
HETATM    2  O   UNL     1     -11.341  16.236  68.111  1.00  0.00    -0.337 OA 
ENDROOT
BRANCH   2   3
HETATM    3  C   UNL     1     -11.888  15.367  68.993  1.00  0.00    -0.335 C  
HETATM    4  O   UNL     1     -12.326  15.630  70.102  1.00  0.00    -0.395 OA 
BRANCH   3   5
HETATM    5  C   UNL     1     -11.851  14.021  68.400  1.00  0.00    -0.397 C  
HETATM    6  C   UNL     1     -10.675  13.384  68.352  1.00  0.00    -0.271 C  
BRANCH   6   7
HETATM    7  C   UNL     1     -10.558  12.105  67.635  1.00  0.00    -0.210 C  
HETATM    8  O   UNL     1      -9.719  11.845  66.792  1.00  0.00    -0.197 OA 
BRANCH   7   9
HETATM    9  O   UNL     1     -11.430  11.247  68.214  1.00  0.00    -0.266 OA 
BRANCH   9  10
HETATM   10  C   UNL     1     -10.885   9.957  68.535  1.00  0.00    -0.217 C  
BRANCH  10  11
HETATM   11  C   UNL     1     -10.685   9.956  70.047  1.00  0.00    -0.292 C  
BRANCH  11  12
HETATM   12  N   UNL     1     -11.798   9.432  70.800  1.00  0.00    -0.274 N  
HETATM   13  C   UNL     1     -12.759  10.209  71.375  1.00  0.00    -0.425 C  
HETATM   14  O   UNL     1     -12.910  11.410  71.231  1.00  0.00    -0.403 OA 
HETATM   15  C   UNL     1     -13.588   9.338  72.271  1.00  0.00    -0.544 C  
HETATM   16  C   UNL     1     -13.249   7.928  71.822  1.00  0.00    -0.360 C  
HETATM   17  C   UNL     1     -12.023   8.100  70.979  1.00  0.00    -0.240 C  
HETATM   18  O   UNL     1     -11.374   7.183  70.498  1.00  0.00    -0.279 OA 
ENDBRANCH  11  12
ENDBRANCH  10  11
ENDBRANCH   9  10
ENDBRANCH   7   9
ENDBRANCH   6   7
ENDBRANCH   3   5
ENDBRANCH   2   3
TORSDOF 7
ENDMDL
MODEL      130
REMARK 921   NORMALIZED FREE ENERGY PREDICTED BY IDOCK:   -4.20 KCAL/MOL
REMARK 922        TOTAL FREE ENERGY PREDICTED BY IDOCK:   -6.36 KCAL/MOL
REMARK 923 INTER-LIGAND FREE ENERGY PREDICTED BY IDOCK:   -5.84 KCAL/MOL
REMARK 924 INTRA-LIGAND FREE ENERGY PREDICTED BY IDOCK:   -0.52 KCAL/MOL
REMARK 927      BINDING AFFINITY PREDICTED BY RF-SCORE:    0.00 PKD
ROOT
HETATM    1  C   UNL     1      -8.194   7.029  70.837  1.00  0.00    -0.121 C  
HETATM    2  O   UNL     1      -8.831   8.245  71.226  1.00  0.00    -0.134 OA 
ENDROOT
BRANCH   2   3
HETATM    3  C   UNL     1      -9.485   8.160  72.408  1.00  0.00    -0.251 C  
HETATM    4  O   UNL     1      -9.032   7.751  73.466  1.00  0.00    -0.215 OA 
BRANCH   3   5
HETATM    5  C   UNL     1     -10.866   8.627  72.209  1.00  0.00    -0.392 C  
HETATM    6  C   UNL     1     -11.066   9.691  71.424  1.00  0.00    -0.397 C  
BRANCH   6   7
HETATM    7  C   UNL     1     -12.407  10.287  71.315  1.00  0.00    -0.403 C  
HETATM    8  O   UNL     1     -13.242  10.308  72.200  1.00  0.00    -0.452 OA 
BRANCH   7   9
HETATM    9  O   UNL     1     -12.453  10.940  70.130  1.00  0.00    -0.314 OA 
BRANCH   9  10
HETATM   10  C   UNL     1     -11.680  12.149  70.077  1.00  0.00    -0.252 C  
BRANCH  10  11
HETATM   11  C   UNL     1     -12.692  13.289  70.063  1.00  0.00     0.157 C  
BRANCH  11  12
HETATM   12  N   UNL     1     -12.470  14.303  71.064  1.00  0.00    -0.338 N  
HETATM   13  C   UNL     1     -11.829  15.482  70.822  1.00  0.00    -0.367 C  
HETATM   14  O   UNL     1     -11.483  15.916  69.737  1.00  0.00    -0.308 OA 
HETATM   15  C   UNL     1     -11.569  16.150  72.139  1.00  0.00    -0.459 C  
HETATM   16  C   UNL     1     -12.490  15.423  73.103  1.00  0.00    -0.572 C  
HETATM   17  C   UNL     1     -12.916  14.202  72.348  1.00  0.00    -0.391 C  
HETATM   18  O   UNL     1     -13.596  13.298  72.811  1.00  0.00    -0.634 OA 
ENDBRANCH  11  12
ENDBRANCH  10  11
ENDBRANCH   9  10
ENDBRANCH   7   9
ENDBRANCH   6   7
ENDBRANCH   3   5
ENDBRANCH   2   3
TORSDOF 7
ENDMDL
MODEL      131
REMARK 921   NORMALIZED FREE ENERGY PREDICTED BY IDOCK:   -4.18 KCAL/MOL
REMARK 922        TOTAL FREE ENERGY PREDICTED BY IDOCK:   -6.32 KCAL/MOL
REMARK 923 INTER-LIGAND FREE ENERGY PREDICTED BY IDOCK:   -5.81 KCAL/MOL
REMARK 924 INTRA-LIGAND FREE ENERGY PREDICTED BY IDOCK:   -0.51 KCAL/MOL
REMARK 927      BINDING AFFINITY PREDICTED BY RF-SCORE:    0.00 PKD
ROOT
HETATM    1  C   UNL     1     -13.271   9.851  72.158  1.00  0.00    -0.415 C  
HETATM    2  O   UNL     1     -12.507   8.654  72.012  1.00  0.00    -0.326 OA 
ENDROOT
BRANCH   2   3
HETATM    3  C   UNL     1     -11.183   8.876  71.834  1.00  0.00    -0.377 C  
HETATM    4  O   UNL     1     -10.311   8.814  72.685  1.00  0.00    -0.176 OA 
BRANCH   3   5
HETATM    5  C   UNL     1     -10.960   9.233  70.424  1.00  0.00    -0.302 C  
HETATM    6  C   UNL     1      -9.878   9.957  70.119  1.00  0.00    -0.272 C  
BRANCH   6   7
HETATM    7  C   UNL     1      -9.690  10.466  68.751  1.00  0.00    -0.183 C  
HETATM    8  O   UNL     1      -8.624  10.789  68.260  1.00  0.00    -0.124 OA 
BRANCH   7   9
HETATM    9  O   UNL     1     -10.879  10.338  68.116  1.00  0.00    -0.227 OA 
BRANCH   9  10
HETATM   10  C   UNL     1     -10.983  11.060  66.879  1.00  0.00    -0.249 C  
BRANCH  10  11
HETATM   11  C   UNL     1     -11.611  12.403  67.233  1.00  0.00    -0.365 C  
BRANCH  11  12
HETATM   12  N   UNL     1     -11.374  13.450  66.269  1.00  0.00    -0.300 N  
HETATM   13  C   UNL     1     -10.260  14.236  66.259  1.00  0.00    -0.301 C  
HETATM   14  O   UNL     1      -9.260  14.094  66.942  1.00  0.00    -0.237 OA 
HETATM   15  C   UNL     1     -10.489  15.355  65.288  1.00  0.00    -0.440 C  
HETATM   16  C   UNL     1     -11.672  14.884  64.461  1.00  0.00    -0.388 C  
HETATM   17  C   UNL     1     -12.226  13.732  65.243  1.00  0.00    -0.439 C  
HETATM   18  O   UNL     1     -13.249  13.127  64.961  1.00  0.00    -0.694 OA 
ENDBRANCH  11  12
ENDBRANCH  10  11
ENDBRANCH   9  10
ENDBRANCH   7   9
ENDBRANCH   6   7
ENDBRANCH   3   5
ENDBRANCH   2   3
TORSDOF 7
ENDMDL
MODEL      132
REMARK 921   NORMALIZED FREE ENERGY PREDICTED BY IDOCK:   -4.16 KCAL/MOL
REMARK 922        TOTAL FREE ENERGY PREDICTED BY IDOCK:   -6.30 KCAL/MOL
REMARK 923 INTER-LIGAND FREE ENERGY PREDICTED BY IDOCK:   -5.72 KCAL/MOL
REMARK 924 INTRA-LIGAND FREE ENERGY PREDICTED BY IDOCK:   -0.58 KCAL/MOL
REMARK 927      BINDING AFFINITY PREDICTED BY RF-SCORE:    0.00 PKD
ROOT
HETATM    1  C   UNL     1     -13.568  13.423  72.421  1.00  0.00    -0.606 C  
HETATM    2  O   UNL     1     -12.894  13.288  71.170  1.00  0.00    -0.334 OA 
ENDROOT
BRANCH   2   3
HETATM    3  C   UNL     1     -12.623  14.471  70.570  1.00  0.00    -0.351 C  
HETATM    4  O   UNL     1     -13.225  15.522  70.722  1.00  0.00    -0.475 OA 
BRANCH   3   5
HETATM    5  C   UNL     1     -11.475  14.282  69.670  1.00  0.00    -0.334 C  
HETATM    6  C   UNL     1     -10.851  15.369  69.204  1.00  0.00    -0.249 C  
BRANCH   6   7
HETATM    7  C   UNL     1      -9.797  15.237  68.185  1.00  0.00    -0.217 C  
HETATM    8  O   UNL     1      -9.073  16.136  67.801  1.00  0.00    -0.196 OA 
BRANCH   7   9
HETATM    9  O   UNL     1      -9.685  13.918  67.903  1.00  0.00    -0.218 OA 
BRANCH   9  10
HETATM   10  C   UNL     1      -9.168  13.623  66.596  1.00  0.00    -0.212 C  
BRANCH  10  11
HETATM   11  C   UNL     1      -9.753  12.268  66.213  1.00  0.00    -0.244 C  
BRANCH  11  12
HETATM   12  N   UNL     1     -10.771  12.319  65.193  1.00  0.00    -0.283 N  
HETATM   13  C   UNL     1     -10.534  12.090  63.870  1.00  0.00    -0.402 C  
HETATM   14  O   UNL     1      -9.499  11.679  63.375  1.00  0.00    -0.277 OA 
HETATM   15  C   UNL     1     -11.762  12.478  63.103  1.00  0.00    -0.321 C  
HETATM   16  C   UNL     1     -12.844  12.560  64.165  1.00  0.00    -0.333 C  
HETATM   17  C   UNL     1     -12.086  12.563  65.457  1.00  0.00    -0.419 C  
HETATM   18  O   UNL     1     -12.590  12.712  66.560  1.00  0.00    -0.252 OA 
ENDBRANCH  11  12
ENDBRANCH  10  11
ENDBRANCH   9  10
ENDBRANCH   7   9
ENDBRANCH   6   7
ENDBRANCH   3   5
ENDBRANCH   2   3
TORSDOF 7
ENDMDL
MODEL      133
REMARK 921   NORMALIZED FREE ENERGY PREDICTED BY IDOCK:   -4.15 KCAL/MOL
REMARK 922        TOTAL FREE ENERGY PREDICTED BY IDOCK:   -6.29 KCAL/MOL
REMARK 923 INTER-LIGAND FREE ENERGY PREDICTED BY IDOCK:   -5.95 KCAL/MOL
REMARK 924 INTRA-LIGAND FREE ENERGY PREDICTED BY IDOCK:   -0.34 KCAL/MOL
REMARK 927      BINDING AFFINITY PREDICTED BY RF-SCORE:    0.00 PKD
ROOT
HETATM    1  C   UNL     1     -10.929  11.245  66.955  1.00  0.00    -0.290 C  
HETATM    2  O   UNL     1     -11.962  12.057  66.398  1.00  0.00    -0.611 OA 
ENDROOT
BRANCH   2   3
HETATM    3  C   UNL     1     -12.106  13.252  67.018  1.00  0.00    -0.320 C  
HETATM    4  O   UNL     1     -12.205  13.443  68.220  1.00  0.00    -0.286 OA 
BRANCH   3   5
HETATM    5  C   UNL     1     -12.148  14.305  65.992  1.00  0.00    -0.423 C  
HETATM    6  C   UNL     1     -11.015  14.956  65.708  1.00  0.00    -0.345 C  
BRANCH   6   7
HETATM    7  C   UNL     1     -11.036  16.115  64.802  1.00  0.00    -0.313 C  
HETATM    8  O   UNL     1     -11.871  16.320  63.940  1.00  0.00    -0.994 OA 
BRANCH   7   9
HETATM    9  O   UNL     1     -10.072  16.966  65.228  1.00  0.00    -0.577 OA 
BRANCH   9  10
HETATM   10  C   UNL     1      -9.037  16.359  66.017  1.00  0.00    -0.282 C  
BRANCH  10  11
HETATM   11  C   UNL     1      -9.089  17.051  67.374  1.00  0.00    -0.222 C  
BRANCH  11  12
HETATM   12  N   UNL     1      -8.154  16.540  68.346  1.00  0.00    -0.187 N  
HETATM   13  C   UNL     1      -6.993  17.169  68.688  1.00  0.00    -0.209 C  
HETATM   14  O   UNL     1      -6.643  18.287  68.352  1.00  0.00    -0.201 OA 
HETATM   15  C   UNL     1      -6.180  16.225  69.521  1.00  0.00    -0.186 C  
HETATM   16  C   UNL     1      -7.178  15.163  69.948  1.00  0.00    -0.090 C  
HETATM   17  C   UNL     1      -8.357  15.392  69.052  1.00  0.00    -0.223 C  
HETATM   18  O   UNL     1      -9.350  14.681  69.013  1.00  0.00    -0.192 OA 
ENDBRANCH  11  12
ENDBRANCH  10  11
ENDBRANCH   9  10
ENDBRANCH   7   9
ENDBRANCH   6   7
ENDBRANCH   3   5
ENDBRANCH   2   3
TORSDOF 7
ENDMDL
MODEL      134
REMARK 921   NORMALIZED FREE ENERGY PREDICTED BY IDOCK:   -4.15 KCAL/MOL
REMARK 922        TOTAL FREE ENERGY PREDICTED BY IDOCK:   -6.28 KCAL/MOL
REMARK 923 INTER-LIGAND FREE ENERGY PREDICTED BY IDOCK:   -5.97 KCAL/MOL
REMARK 924 INTRA-LIGAND FREE ENERGY PREDICTED BY IDOCK:   -0.31 KCAL/MOL
REMARK 927      BINDING AFFINITY PREDICTED BY RF-SCORE:    0.00 PKD
ROOT
HETATM    1  C   UNL     1     -12.386  15.465  73.808  1.00  0.00    -0.610 C  
HETATM    2  O   UNL     1     -12.328  16.404  72.734  1.00  0.00    -0.465 OA 
ENDROOT
BRANCH   2   3
HETATM    3  C   UNL     1     -12.474  15.839  71.512  1.00  0.00    -0.455 C  
HETATM    4  O   UNL     1     -13.525  15.603  70.938  1.00  0.00    -0.569 OA 
BRANCH   3   5
HETATM    5  C   UNL     1     -11.137  15.528  70.983  1.00  0.00    -0.387 C  
HETATM    6  C   UNL     1     -10.847  15.910  69.735  1.00  0.00    -0.328 C  
BRANCH   6   7
HETATM    7  C   UNL     1      -9.583  15.491  69.109  1.00  0.00    -0.253 C  
HETATM    8  O   UNL     1      -8.519  15.367  69.686  1.00  0.00    -0.247 OA 
BRANCH   7   9
HETATM    9  O   UNL     1      -9.876  15.114  67.842  1.00  0.00    -0.215 OA 
BRANCH   9  10
HETATM   10  C   UNL     1     -11.119  15.624  67.333  1.00  0.00    -0.260 C  
BRANCH  10  11
HETATM   11  C   UNL     1     -11.922  14.404  66.898  1.00  0.00    -0.399 C  
BRANCH  11  12
HETATM   12  N   UNL     1     -11.284  13.138  67.163  1.00  0.00    -0.283 N  
HETATM   13  C   UNL     1     -11.448  12.431  68.317  1.00  0.00    -0.310 C  
HETATM   14  O   UNL     1     -12.239  12.670  69.214  1.00  0.00    -0.197 OA 
HETATM   15  C   UNL     1     -10.444  11.317  68.328  1.00  0.00    -0.220 C  
HETATM   16  C   UNL     1      -9.982  11.229  66.885  1.00  0.00    -0.238 C  
HETATM   17  C   UNL     1     -10.481  12.499  66.266  1.00  0.00    -0.246 C  
HETATM   18  O   UNL     1     -10.237  12.860  65.124  1.00  0.00    -0.288 OA 
ENDBRANCH  11  12
ENDBRANCH  10  11
ENDBRANCH   9  10
ENDBRANCH   7   9
ENDBRANCH   6   7
ENDBRANCH   3   5
ENDBRANCH   2   3
TORSDOF 7
ENDMDL
MODEL      135
REMARK 921   NORMALIZED FREE ENERGY PREDICTED BY IDOCK:   -4.14 KCAL/MOL
REMARK 922        TOTAL FREE ENERGY PREDICTED BY IDOCK:   -6.27 KCAL/MOL
REMARK 923 INTER-LIGAND FREE ENERGY PREDICTED BY IDOCK:   -5.76 KCAL/MOL
REMARK 924 INTRA-LIGAND FREE ENERGY PREDICTED BY IDOCK:   -0.51 KCAL/MOL
REMARK 927      BINDING AFFINITY PREDICTED BY RF-SCORE:    0.00 PKD
ROOT
HETATM    1  C   UNL     1     -11.456   9.761  70.704  1.00  0.00    -0.324 C  
HETATM    2  O   UNL     1     -10.918  10.944  70.113  1.00  0.00    -0.230 OA 
ENDROOT
BRANCH   2   3
HETATM    3  C   UNL     1     -11.725  11.498  69.178  1.00  0.00    -0.329 C  
HETATM    4  O   UNL     1     -12.385  10.905  68.339  1.00  0.00    -0.477 OA 
BRANCH   3   5
HETATM    5  C   UNL     1     -11.664  12.961  69.321  1.00  0.00    -0.378 C  
HETATM    6  C   UNL     1     -12.272  13.519  70.374  1.00  0.00    -0.426 C  
BRANCH   6   7
HETATM    7  C   UNL     1     -12.369  14.983  70.481  1.00  0.00    -0.356 C  
HETATM    8  O   UNL     1     -12.799  15.591  71.444  1.00  0.00    -0.403 OA 
BRANCH   7   9
HETATM    9  O   UNL     1     -11.739  15.500  69.400  1.00  0.00    -0.323 OA 
BRANCH   9  10
HETATM   10  C   UNL     1     -10.718  16.465  69.702  1.00  0.00    -0.337 C  
BRANCH  10  11
HETATM   11  C   UNL     1     -10.763  17.485  68.569  1.00  0.00    -0.237 C  
BRANCH  11  12
HETATM   12  N   UNL     1      -9.614  17.467  67.698  1.00  0.00    -0.262 N  
HETATM   13  C   UNL     1      -9.465  16.604  66.653  1.00  0.00    -0.252 C  
HETATM   14  O   UNL     1     -10.306  15.838  66.214  1.00  0.00    -0.285 OA 
HETATM   15  C   UNL     1      -8.057  16.716  66.153  1.00  0.00    -0.273 C  
HETATM   16  C   UNL     1      -7.559  18.017  66.756  1.00  0.00    -0.247 C  
HETATM   17  C   UNL     1      -8.575  18.342  67.808  1.00  0.00    -0.267 C  
HETATM   18  O   UNL     1      -8.491  19.274  68.593  1.00  0.00    -0.355 OA 
ENDBRANCH  11  12
ENDBRANCH  10  11
ENDBRANCH   9  10
ENDBRANCH   7   9
ENDBRANCH   6   7
ENDBRANCH   3   5
ENDBRANCH   2   3
TORSDOF 7
ENDMDL
MODEL      136
REMARK 921   NORMALIZED FREE ENERGY PREDICTED BY IDOCK:   -4.13 KCAL/MOL
REMARK 922        TOTAL FREE ENERGY PREDICTED BY IDOCK:   -6.26 KCAL/MOL
REMARK 923 INTER-LIGAND FREE ENERGY PREDICTED BY IDOCK:   -5.63 KCAL/MOL
REMARK 924 INTRA-LIGAND FREE ENERGY PREDICTED BY IDOCK:   -0.63 KCAL/MOL
REMARK 927      BINDING AFFINITY PREDICTED BY RF-SCORE:    0.00 PKD
ROOT
HETATM    1  C   UNL     1     -10.526   5.943  67.182  1.00  0.00    -0.272 C  
HETATM    2  O   UNL     1     -11.213   7.195  67.148  1.00  0.00    -0.276 OA 
ENDROOT
BRANCH   2   3
HETATM    3  C   UNL     1     -10.392   8.258  66.978  1.00  0.00    -0.323 C  
HETATM    4  O   UNL     1      -9.601   8.431  66.064  1.00  0.00    -0.207 OA 
BRANCH   3   5
HETATM    5  C   UNL     1     -10.594   9.183  68.104  1.00  0.00    -0.235 C  
HETATM    6  C   UNL     1     -11.110  10.390  67.846  1.00  0.00    -0.363 C  
BRANCH   6   7
HETATM    7  C   UNL     1     -11.189  11.402  68.911  1.00  0.00    -0.248 C  
HETATM    8  O   UNL     1     -11.212  11.167  70.105  1.00  0.00    -0.250 OA 
BRANCH   7   9
HETATM    9  O   UNL     1     -11.055  12.611  68.317  1.00  0.00    -0.232 OA 
BRANCH   9  10
HETATM   10  C   UNL     1      -9.786  12.833  67.681  1.00  0.00    -0.205 C  
BRANCH  10  11
HETATM   11  C   UNL     1     -10.086  13.643  66.425  1.00  0.00    -0.295 C  
BRANCH  11  12
HETATM   12  N   UNL     1     -10.860  12.943  65.428  1.00  0.00    -0.278 N  
HETATM   13  C   UNL     1     -10.374  11.918  64.672  1.00  0.00    -0.284 C  
HETATM   14  O   UNL     1      -9.303  11.353  64.808  1.00  0.00    -0.194 OA 
HETATM   15  C   UNL     1     -11.372  11.623  63.592  1.00  0.00    -0.485 C  
HETATM   16  C   UNL     1     -12.639  12.309  64.070  1.00  0.00    -0.521 C  
HETATM   17  C   UNL     1     -12.171  13.211  65.171  1.00  0.00    -0.450 C  
HETATM   18  O   UNL     1     -12.878  14.013  65.762  1.00  0.00    -0.516 OA 
ENDBRANCH  11  12
ENDBRANCH  10  11
ENDBRANCH   9  10
ENDBRANCH   7   9
ENDBRANCH   6   7
ENDBRANCH   3   5
ENDBRANCH   2   3
TORSDOF 7
ENDMDL
MODEL      137
REMARK 921   NORMALIZED FREE ENERGY PREDICTED BY IDOCK:   -4.11 KCAL/MOL
REMARK 922        TOTAL FREE ENERGY PREDICTED BY IDOCK:   -6.24 KCAL/MOL
REMARK 923 INTER-LIGAND FREE ENERGY PREDICTED BY IDOCK:   -5.81 KCAL/MOL
REMARK 924 INTRA-LIGAND FREE ENERGY PREDICTED BY IDOCK:   -0.42 KCAL/MOL
REMARK 927      BINDING AFFINITY PREDICTED BY RF-SCORE:    0.00 PKD
ROOT
HETATM    1  C   UNL     1      -8.931   8.908  65.396  1.00  0.00    -0.182 C  
HETATM    2  O   UNL     1      -8.997   9.991  66.324  1.00  0.00    -0.144 OA 
ENDROOT
BRANCH   2   3
HETATM    3  C   UNL     1     -10.247  10.240  66.778  1.00  0.00    -0.228 C  
HETATM    4  O   UNL     1     -10.792   9.722  67.740  1.00  0.00    -0.275 OA 
BRANCH   3   5
HETATM    5  C   UNL     1     -10.869  11.241  65.896  1.00  0.00    -0.264 C  
HETATM    6  C   UNL     1     -11.550  12.244  66.460  1.00  0.00    -0.440 C  
BRANCH   6   7
HETATM    7  C   UNL     1     -12.314  13.182  65.622  1.00  0.00    -0.461 C  
HETATM    8  O   UNL     1     -12.995  12.872  64.662  1.00  0.00    -0.734 OA 
BRANCH   7   9
HETATM    9  O   UNL     1     -12.249  14.392  66.225  1.00  0.00    -0.412 OA 
BRANCH   9  10
HETATM   10  C   UNL     1     -10.937  14.975  66.268  1.00  0.00    -0.338 C  
BRANCH  10  11
HETATM   11  C   UNL     1     -11.026  16.125  67.264  1.00  0.00    -0.175 C  
BRANCH  11  12
HETATM   12  N   UNL     1      -9.928  17.059  67.204  1.00  0.00    -0.273 N  
HETATM   13  C   UNL     1      -9.831  18.060  66.284  1.00  0.00    -0.307 C  
HETATM   14  O   UNL     1     -10.688  18.406  65.489  1.00  0.00    -0.588 OA 
HETATM   15  C   UNL     1      -8.454  18.646  66.377  1.00  0.00    -0.286 C  
HETATM   16  C   UNL     1      -7.935  18.147  67.713  1.00  0.00    -0.238 C  
HETATM   17  C   UNL     1      -8.892  17.058  68.091  1.00  0.00    -0.227 C  
HETATM   18  O   UNL     1      -8.772  16.333  69.066  1.00  0.00    -0.242 OA 
ENDBRANCH  11  12
ENDBRANCH  10  11
ENDBRANCH   9  10
ENDBRANCH   7   9
ENDBRANCH   6   7
ENDBRANCH   3   5
ENDBRANCH   2   3
TORSDOF 7
ENDMDL
MODEL      138
REMARK 921   NORMALIZED FREE ENERGY PREDICTED BY IDOCK:   -4.11 KCAL/MOL
REMARK 922        TOTAL FREE ENERGY PREDICTED BY IDOCK:   -6.23 KCAL/MOL
REMARK 923 INTER-LIGAND FREE ENERGY PREDICTED BY IDOCK:   -6.08 KCAL/MOL
REMARK 924 INTRA-LIGAND FREE ENERGY PREDICTED BY IDOCK:   -0.14 KCAL/MOL
REMARK 927      BINDING AFFINITY PREDICTED BY RF-SCORE:    0.00 PKD
ROOT
HETATM    1  C   UNL     1     -10.281  11.977  66.330  1.00  0.00    -0.216 C  
HETATM    2  O   UNL     1     -10.371  12.281  67.722  1.00  0.00    -0.201 OA 
ENDROOT
BRANCH   2   3
HETATM    3  C   UNL     1     -11.609  12.094  68.237  1.00  0.00    -0.325 C  
HETATM    4  O   UNL     1     -12.284  11.079  68.169  1.00  0.00    -0.578 OA 
BRANCH   3   5
HETATM    5  C   UNL     1     -12.032  13.343  68.890  1.00  0.00    -0.362 C  
HETATM    6  C   UNL     1     -11.096  14.103  69.467  1.00  0.00    -0.222 C  
BRANCH   6   7
HETATM    7  C   UNL     1     -11.484  15.280  70.261  1.00  0.00    -0.297 C  
HETATM    8  O   UNL     1     -11.578  15.311  71.474  1.00  0.00    -0.337 OA 
BRANCH   7   9
HETATM    9  O   UNL     1     -11.541  16.330  69.408  1.00  0.00    -0.283 OA 
BRANCH   9  10
HETATM   10  C   UNL     1     -10.715  16.203  68.240  1.00  0.00    -0.307 C  
BRANCH  10  11
HETATM   11  C   UNL     1      -9.518  17.116  68.476  1.00  0.00    -0.282 C  
BRANCH  11  12
HETATM   12  N   UNL     1      -9.564  18.366  67.757  1.00  0.00    -0.281 N  
HETATM   13  C   UNL     1      -9.315  18.483  66.421  1.00  0.00    -0.282 C  
HETATM   14  O   UNL     1      -9.163  17.574  65.624  1.00  0.00    -0.441 OA 
HETATM   15  C   UNL     1      -9.208  19.943  66.094  1.00  0.00    -0.414 C  
HETATM   16  C   UNL     1      -9.825  20.632  67.298  1.00  0.00    -0.529 C  
HETATM   17  C   UNL     1      -9.902  19.553  68.335  1.00  0.00    -0.428 C  
HETATM   18  O   UNL     1     -10.259  19.722  69.491  1.00  0.00    -0.298 OA 
ENDBRANCH  11  12
ENDBRANCH  10  11
ENDBRANCH   9  10
ENDBRANCH   7   9
ENDBRANCH   6   7
ENDBRANCH   3   5
ENDBRANCH   2   3
TORSDOF 7
ENDMDL
MODEL      139
REMARK 921   NORMALIZED FREE ENERGY PREDICTED BY IDOCK:   -4.11 KCAL/MOL
REMARK 922        TOTAL FREE ENERGY PREDICTED BY IDOCK:   -6.22 KCAL/MOL
REMARK 923 INTER-LIGAND FREE ENERGY PREDICTED BY IDOCK:   -5.71 KCAL/MOL
REMARK 924 INTRA-LIGAND FREE ENERGY PREDICTED BY IDOCK:   -0.51 KCAL/MOL
REMARK 927      BINDING AFFINITY PREDICTED BY RF-SCORE:    0.00 PKD
ROOT
HETATM    1  C   UNL     1     -13.266   9.930  71.968  1.00  0.00    -0.456 C  
HETATM    2  O   UNL     1     -12.987   8.639  72.511  1.00  0.00    -0.371 OA 
ENDROOT
BRANCH   2   3
HETATM    3  C   UNL     1     -11.717   8.223  72.295  1.00  0.00    -0.388 C  
HETATM    4  O   UNL     1     -10.881   7.957  73.144  1.00  0.00    -0.375 OA 
BRANCH   3   5
HETATM    5  C   UNL     1     -11.490   8.163  70.842  1.00  0.00    -0.288 C  
HETATM    6  C   UNL     1     -10.304   8.562  70.371  1.00  0.00    -0.222 C  
BRANCH   6   7
HETATM    7  C   UNL     1     -10.082   8.663  68.920  1.00  0.00    -0.202 C  
HETATM    8  O   UNL     1      -9.372   7.923  68.263  1.00  0.00    -0.143 OA 
BRANCH   7   9
HETATM    9  O   UNL     1     -10.937   9.604  68.454  1.00  0.00    -0.198 OA 
BRANCH   9  10
HETATM   10  C   UNL     1     -10.535  10.960  68.703  1.00  0.00    -0.194 C  
BRANCH  10  11
HETATM   11  C   UNL     1     -11.814  11.788  68.652  1.00  0.00    -0.310 C  
BRANCH  11  12
HETATM   12  N   UNL     1     -11.690  13.044  67.954  1.00  0.00    -0.344 N  
HETATM   13  C   UNL     1     -11.903  13.193  66.615  1.00  0.00    -0.391 C  
HETATM   14  O   UNL     1     -12.356  12.359  65.850  1.00  0.00    -0.638 OA 
HETATM   15  C   UNL     1     -11.437  14.562  66.219  1.00  0.00    -0.358 C  
HETATM   16  C   UNL     1     -11.322  15.304  67.539  1.00  0.00    -0.300 C  
HETATM   17  C   UNL     1     -11.384  14.220  68.571  1.00  0.00    -0.282 C  
HETATM   18  O   UNL     1     -11.233  14.392  69.771  1.00  0.00    -0.249 OA 
ENDBRANCH  11  12
ENDBRANCH  10  11
ENDBRANCH   9  10
ENDBRANCH   7   9
ENDBRANCH   6   7
ENDBRANCH   3   5
ENDBRANCH   2   3
TORSDOF 7
ENDMDL
MODEL      140
REMARK 921   NORMALIZED FREE ENERGY PREDICTED BY IDOCK:   -4.08 KCAL/MOL
REMARK 922        TOTAL FREE ENERGY PREDICTED BY IDOCK:   -6.19 KCAL/MOL
REMARK 923 INTER-LIGAND FREE ENERGY PREDICTED BY IDOCK:   -5.92 KCAL/MOL
REMARK 924 INTRA-LIGAND FREE ENERGY PREDICTED BY IDOCK:   -0.27 KCAL/MOL
REMARK 927      BINDING AFFINITY PREDICTED BY RF-SCORE:    0.00 PKD
ROOT
HETATM    1  C   UNL     1     -12.152  12.332  63.377  1.00  0.00    -0.516 C  
HETATM    2  O   UNL     1     -12.585  13.662  63.090  1.00  0.00    -0.792 OA 
ENDROOT
BRANCH   2   3
HETATM    3  C   UNL     1     -12.432  14.517  64.128  1.00  0.00    -0.180 C  
HETATM    4  O   UNL     1     -12.215  15.717  64.060  1.00  0.00    -0.618 OA 
BRANCH   3   5
HETATM    5  C   UNL     1     -12.548  13.752  65.379  1.00  0.00    -0.534 C  
HETATM    6  C   UNL     1     -12.075  14.303  66.502  1.00  0.00    -0.454 C  
BRANCH   6   7
HETATM    7  C   UNL     1     -12.030  13.519  67.747  1.00  0.00    -0.334 C  
HETATM    8  O   UNL     1     -12.079  13.982  68.872  1.00  0.00    -0.351 OA 
BRANCH   7   9
HETATM    9  O   UNL     1     -12.103  12.214  67.395  1.00  0.00    -0.553 OA 
BRANCH   9  10
HETATM   10  C   UNL     1     -10.973  11.420  67.790  1.00  0.00    -0.247 C  
BRANCH  10  11
HETATM   11  C   UNL     1     -11.510  10.008  67.997  1.00  0.00     0.194 C  
BRANCH  11  12
HETATM   12  N   UNL     1     -10.541   8.959  67.792  1.00  0.00    -0.231 N  
HETATM   13  C   UNL     1     -10.223   8.024  68.731  1.00  0.00    -0.206 C  
HETATM   14  O   UNL     1     -10.785   7.839  69.797  1.00  0.00    -0.244 OA 
HETATM   15  C   UNL     1      -9.015   7.275  68.253  1.00  0.00    -0.125 C  
HETATM   16  C   UNL     1      -8.941   7.612  66.774  1.00  0.00    -0.166 C  
HETATM   17  C   UNL     1      -9.873   8.774  66.618  1.00  0.00    -0.265 C  
HETATM   18  O   UNL     1     -10.031   9.407  65.585  1.00  0.00    -0.304 OA 
ENDBRANCH  11  12
ENDBRANCH  10  11
ENDBRANCH   9  10
ENDBRANCH   7   9
ENDBRANCH   6   7
ENDBRANCH   3   5
ENDBRANCH   2   3
TORSDOF 7
ENDMDL
MODEL      141
REMARK 921   NORMALIZED FREE ENERGY PREDICTED BY IDOCK:   -4.08 KCAL/MOL
REMARK 922        TOTAL FREE ENERGY PREDICTED BY IDOCK:   -6.19 KCAL/MOL
REMARK 923 INTER-LIGAND FREE ENERGY PREDICTED BY IDOCK:   -5.84 KCAL/MOL
REMARK 924 INTRA-LIGAND FREE ENERGY PREDICTED BY IDOCK:   -0.35 KCAL/MOL
REMARK 927      BINDING AFFINITY PREDICTED BY RF-SCORE:    0.00 PKD
ROOT
HETATM    1  C   UNL     1     -10.046   8.201  69.992  1.00  0.00    -0.196 C  
HETATM    2  O   UNL     1     -10.571   9.490  69.672  1.00  0.00    -0.209 OA 
ENDROOT
BRANCH   2   3
HETATM    3  C   UNL     1     -10.667   9.720  68.342  1.00  0.00    -0.221 C  
HETATM    4  O   UNL     1     -10.426   8.928  67.444  1.00  0.00    -0.258 OA 
BRANCH   3   5
HETATM    5  C   UNL     1     -11.096  11.113  68.143  1.00  0.00    -0.324 C  
HETATM    6  C   UNL     1     -11.211  11.899  69.218  1.00  0.00    -0.304 C  
BRANCH   6   7
HETATM    7  C   UNL     1     -11.780  13.250  69.090  1.00  0.00    -0.329 C  
HETATM    8  O   UNL     1     -11.735  14.117  69.942  1.00  0.00    -0.280 OA 
BRANCH   7   9
HETATM    9  O   UNL     1     -12.193  13.383  67.807  1.00  0.00    -0.291 OA 
BRANCH   9  10
HETATM   10  C   UNL     1     -11.980  14.684  67.238  1.00  0.00    -0.284 C  
BRANCH  10  11
HETATM   11  C   UNL     1     -10.825  14.525  66.256  1.00  0.00    -0.317 C  
BRANCH  11  12
HETATM   12  N   UNL     1     -11.102  13.658  65.137  1.00  0.00    -0.308 N  
HETATM   13  C   UNL     1     -10.425  12.502  64.885  1.00  0.00    -0.303 C  
HETATM   14  O   UNL     1      -9.610  11.960  65.612  1.00  0.00    -0.233 OA 
HETATM   15  C   UNL     1     -10.817  12.019  63.521  1.00  0.00    -0.509 C  
HETATM   16  C   UNL     1     -12.081  12.800  63.209  1.00  0.00    -0.524 C  
HETATM   17  C   UNL     1     -12.099  13.889  64.237  1.00  0.00    -0.440 C  
HETATM   18  O   UNL     1     -12.915  14.798  64.275  1.00  0.00    -0.512 OA 
ENDBRANCH  11  12
ENDBRANCH  10  11
ENDBRANCH   9  10
ENDBRANCH   7   9
ENDBRANCH   6   7
ENDBRANCH   3   5
ENDBRANCH   2   3
TORSDOF 7
ENDMDL
MODEL      142
REMARK 921   NORMALIZED FREE ENERGY PREDICTED BY IDOCK:   -4.07 KCAL/MOL
REMARK 922        TOTAL FREE ENERGY PREDICTED BY IDOCK:   -6.18 KCAL/MOL
REMARK 923 INTER-LIGAND FREE ENERGY PREDICTED BY IDOCK:   -5.88 KCAL/MOL
REMARK 924 INTRA-LIGAND FREE ENERGY PREDICTED BY IDOCK:   -0.30 KCAL/MOL
REMARK 927      BINDING AFFINITY PREDICTED BY RF-SCORE:    0.00 PKD
ROOT
HETATM    1  C   UNL     1     -11.263   5.089  73.266  1.00  0.00    -0.338 C  
HETATM    2  O   UNL     1     -10.520   5.068  72.047  1.00  0.00    -0.212 OA 
ENDROOT
BRANCH   2   3
HETATM    3  C   UNL     1     -10.993   5.922  71.110  1.00  0.00    -0.260 C  
HETATM    4  O   UNL     1     -10.842   5.837  69.901  1.00  0.00    -0.324 OA 
BRANCH   3   5
HETATM    5  C   UNL     1     -11.716   7.006  71.793  1.00  0.00    -0.333 C  
HETATM    6  C   UNL     1     -12.530   7.779  71.067  1.00  0.00    -0.171 C  
BRANCH   6   7
HETATM    7  C   UNL     1     -13.156   8.966  71.671  1.00  0.00    -0.357 C  
HETATM    8  O   UNL     1     -13.585   9.033  72.808  1.00  0.00    -0.433 OA 
BRANCH   7   9
HETATM    9  O   UNL     1     -13.001   9.984  70.793  1.00  0.00    -0.330 OA 
BRANCH   9  10
HETATM   10  C   UNL     1     -12.262  11.108  71.297  1.00  0.00    -0.223 C  
BRANCH  10  11
HETATM   11  C   UNL     1     -13.264  12.252  71.400  1.00  0.00    -0.086 C  
BRANCH  11  12
HETATM   12  N   UNL     1     -12.693  13.567  71.245  1.00  0.00    -0.358 N  
HETATM   13  C   UNL     1     -12.142  14.024  70.084  1.00  0.00    -0.351 C  
HETATM   14  O   UNL     1     -12.172  13.476  68.996  1.00  0.00    -0.320 OA 
HETATM   15  C   UNL     1     -11.438  15.315  70.379  1.00  0.00    -0.330 C  
HETATM   16  C   UNL     1     -11.997  15.734  71.727  1.00  0.00    -0.547 C  
HETATM   17  C   UNL     1     -12.682  14.503  72.235  1.00  0.00    -0.328 C  
HETATM   18  O   UNL     1     -13.188  14.394  73.342  1.00  0.00    -0.576 OA 
ENDBRANCH  11  12
ENDBRANCH  10  11
ENDBRANCH   9  10
ENDBRANCH   7   9
ENDBRANCH   6   7
ENDBRANCH   3   5
ENDBRANCH   2   3
TORSDOF 7
ENDMDL
MODEL      143
REMARK 921   NORMALIZED FREE ENERGY PREDICTED BY IDOCK:   -4.07 KCAL/MOL
REMARK 922        TOTAL FREE ENERGY PREDICTED BY IDOCK:   -6.18 KCAL/MOL
REMARK 923 INTER-LIGAND FREE ENERGY PREDICTED BY IDOCK:   -5.78 KCAL/MOL
REMARK 924 INTRA-LIGAND FREE ENERGY PREDICTED BY IDOCK:   -0.40 KCAL/MOL
REMARK 927      BINDING AFFINITY PREDICTED BY RF-SCORE:    0.00 PKD
ROOT
HETATM    1  C   UNL     1      -9.926   9.475  67.156  1.00  0.00    -0.204 C  
HETATM    2  O   UNL     1     -11.186  10.095  67.411  1.00  0.00    -0.244 OA 
ENDROOT
BRANCH   2   3
HETATM    3  C   UNL     1     -11.181  11.434  67.213  1.00  0.00    -0.304 C  
HETATM    4  O   UNL     1     -12.061  12.098  66.688  1.00  0.00    -0.622 OA 
BRANCH   3   5
HETATM    5  C   UNL     1      -9.911  11.973  67.723  1.00  0.00    -0.190 C  
HETATM    6  C   UNL     1      -9.666  13.278  67.558  1.00  0.00    -0.224 C  
BRANCH   6   7
HETATM    7  C   UNL     1      -8.351  13.834  67.913  1.00  0.00    -0.172 C  
HETATM    8  O   UNL     1      -7.305  13.586  67.342  1.00  0.00    -0.165 OA 
BRANCH   7   9
HETATM    9  O   UNL     1      -8.564  14.780  68.857  1.00  0.00    -0.170 OA 
BRANCH   9  10
HETATM   10  C   UNL     1      -9.400  15.871  68.438  1.00  0.00    -0.201 C  
BRANCH  10  11
HETATM   11  C   UNL     1      -8.525  16.746  67.547  1.00  0.00    -0.192 C  
BRANCH  11  12
HETATM   12  N   UNL     1      -9.088  18.037  67.233  1.00  0.00    -0.252 N  
HETATM   13  C   UNL     1      -8.765  19.187  67.890  1.00  0.00    -0.305 C  
HETATM   14  O   UNL     1      -7.880  19.333  68.716  1.00  0.00    -0.342 OA 
HETATM   15  C   UNL     1      -9.726  20.255  67.460  1.00  0.00    -0.575 C  
HETATM   16  C   UNL     1     -10.354  19.691  66.198  1.00  0.00    -0.627 C  
HETATM   17  C   UNL     1      -9.972  18.243  66.217  1.00  0.00    -0.357 C  
HETATM   18  O   UNL     1     -10.362  17.409  65.413  1.00  0.00    -0.631 OA 
ENDBRANCH  11  12
ENDBRANCH  10  11
ENDBRANCH   9  10
ENDBRANCH   7   9
ENDBRANCH   6   7
ENDBRANCH   3   5
ENDBRANCH   2   3
TORSDOF 7
ENDMDL
MODEL      144
REMARK 921   NORMALIZED FREE ENERGY PREDICTED BY IDOCK:   -4.06 KCAL/MOL
REMARK 922        TOTAL FREE ENERGY PREDICTED BY IDOCK:   -6.16 KCAL/MOL
REMARK 923 INTER-LIGAND FREE ENERGY PREDICTED BY IDOCK:   -5.79 KCAL/MOL
REMARK 924 INTRA-LIGAND FREE ENERGY PREDICTED BY IDOCK:   -0.37 KCAL/MOL
REMARK 927      BINDING AFFINITY PREDICTED BY RF-SCORE:    0.00 PKD
ROOT
HETATM    1  C   UNL     1      -9.880  20.156  66.468  1.00  0.00    -0.446 C  
HETATM    2  O   UNL     1      -9.428  20.081  67.821  1.00  0.00    -0.348 OA 
ENDROOT
BRANCH   2   3
HETATM    3  C   UNL     1      -8.087  19.945  67.937  1.00  0.00    -0.286 C  
HETATM    4  O   UNL     1      -7.235  20.701  67.498  1.00  0.00    -0.315 OA 
BRANCH   3   5
HETATM    5  C   UNL     1      -7.810  18.702  68.673  1.00  0.00    -0.349 C  
HETATM    6  C   UNL     1      -8.271  17.552  68.169  1.00  0.00    -0.251 C  
BRANCH   6   7
HETATM    7  C   UNL     1      -8.152  16.305  68.942  1.00  0.00    -0.231 C  
HETATM    8  O   UNL     1      -7.155  15.939  69.537  1.00  0.00    -0.203 OA 
BRANCH   7   9
HETATM    9  O   UNL     1      -9.389  15.758  69.002  1.00  0.00    -0.210 OA 
BRANCH   9  10
HETATM   10  C   UNL     1     -10.324  16.278  68.044  1.00  0.00    -0.279 C  
BRANCH  10  11
HETATM   11  C   UNL     1     -11.657  15.607  68.358  1.00  0.00    -0.350 C  
BRANCH  11  12
HETATM   12  N   UNL     1     -11.744  14.225  67.952  1.00  0.00    -0.342 N  
HETATM   13  C   UNL     1     -11.775  13.178  68.824  1.00  0.00    -0.324 C  
HETATM   14  O   UNL     1     -11.877  13.240  70.038  1.00  0.00    -0.319 OA 
HETATM   15  C   UNL     1     -11.611  11.912  68.038  1.00  0.00    -0.401 C  
HETATM   16  C   UNL     1     -11.895  12.333  66.607  1.00  0.00    -0.362 C  
HETATM   17  C   UNL     1     -11.845  13.829  66.652  1.00  0.00    -0.412 C  
HETATM   18  O   UNL     1     -11.932  14.559  65.676  1.00  0.00    -0.359 OA 
ENDBRANCH  11  12
ENDBRANCH  10  11
ENDBRANCH   9  10
ENDBRANCH   7   9
ENDBRANCH   6   7
ENDBRANCH   3   5
ENDBRANCH   2   3
TORSDOF 7
ENDMDL
MODEL      145
REMARK 921   NORMALIZED FREE ENERGY PREDICTED BY IDOCK:   -4.06 KCAL/MOL
REMARK 922        TOTAL FREE ENERGY PREDICTED BY IDOCK:   -6.16 KCAL/MOL
REMARK 923 INTER-LIGAND FREE ENERGY PREDICTED BY IDOCK:   -5.57 KCAL/MOL
REMARK 924 INTRA-LIGAND FREE ENERGY PREDICTED BY IDOCK:   -0.59 KCAL/MOL
REMARK 927      BINDING AFFINITY PREDICTED BY RF-SCORE:    0.00 PKD
ROOT
HETATM    1  C   UNL     1     -11.773  12.526  69.270  1.00  0.00    -0.321 C  
HETATM    2  O   UNL     1     -12.254  13.869  69.305  1.00  0.00    -0.346 OA 
ENDROOT
BRANCH   2   3
HETATM    3  C   UNL     1     -11.759  14.648  68.315  1.00  0.00    -0.328 C  
HETATM    4  O   UNL     1     -11.146  15.696  68.446  1.00  0.00    -0.292 OA 
BRANCH   3   5
HETATM    5  C   UNL     1     -12.101  14.029  67.024  1.00  0.00    -0.455 C  
HETATM    6  C   UNL     1     -11.635  14.598  65.907  1.00  0.00    -0.327 C  
BRANCH   6   7
HETATM    7  C   UNL     1     -12.072  14.108  64.590  1.00  0.00    -0.452 C  
HETATM    8  O   UNL     1     -12.483  14.805  63.681  1.00  0.00    -0.726 OA 
BRANCH   7   9
HETATM    9  O   UNL     1     -11.766  12.790  64.538  1.00  0.00    -0.331 OA 
BRANCH   9  10
HETATM   10  C   UNL     1     -10.541  12.483  63.854  1.00  0.00    -0.440 C  
BRANCH  10  11
HETATM   11  C   UNL     1     -10.389  10.968  63.934  1.00  0.00    -0.372 C  
BRANCH  11  12
HETATM   12  N   UNL     1      -9.442  10.510  64.920  1.00  0.00    -0.227 N  
HETATM   13  C   UNL     1      -9.736  10.362  66.244  1.00  0.00    -0.205 C  
HETATM   14  O   UNL     1     -10.836  10.449  66.762  1.00  0.00    -0.207 OA 
HETATM   15  C   UNL     1      -8.453  10.118  66.981  1.00  0.00    -0.129 C  
HETATM   16  C   UNL     1      -7.471   9.739  65.887  1.00  0.00    -0.103 C  
HETATM   17  C   UNL     1      -8.166  10.138  64.621  1.00  0.00    -0.165 C  
HETATM   18  O   UNL     1      -7.668  10.084  63.506  1.00  0.00    -0.139 OA 
ENDBRANCH  11  12
ENDBRANCH  10  11
ENDBRANCH   9  10
ENDBRANCH   7   9
ENDBRANCH   6   7
ENDBRANCH   3   5
ENDBRANCH   2   3
TORSDOF 7
ENDMDL
MODEL      146
REMARK 921   NORMALIZED FREE ENERGY PREDICTED BY IDOCK:   -4.06 KCAL/MOL
REMARK 922        TOTAL FREE ENERGY PREDICTED BY IDOCK:   -6.15 KCAL/MOL
REMARK 923 INTER-LIGAND FREE ENERGY PREDICTED BY IDOCK:   -5.57 KCAL/MOL
REMARK 924 INTRA-LIGAND FREE ENERGY PREDICTED BY IDOCK:   -0.58 KCAL/MOL
REMARK 927      BINDING AFFINITY PREDICTED BY RF-SCORE:    0.00 PKD
ROOT
HETATM    1  C   UNL     1     -12.000  10.824  70.239  1.00  0.00    -0.351 C  
HETATM    2  O   UNL     1     -10.963  11.193  69.330  1.00  0.00    -0.238 OA 
ENDROOT
BRANCH   2   3
HETATM    3  C   UNL     1     -11.225  10.861  68.045  1.00  0.00    -0.314 C  
HETATM    4  O   UNL     1     -11.102   9.759  67.535  1.00  0.00    -0.234 OA 
BRANCH   3   5
HETATM    5  C   UNL     1     -11.672  12.071  67.336  1.00  0.00    -0.352 C  
HETATM    6  C   UNL     1     -11.447  12.152  66.020  1.00  0.00    -0.427 C  
BRANCH   6   7
HETATM    7  C   UNL     1     -11.737  13.400  65.296  1.00  0.00    -0.323 C  
HETATM    8  O   UNL     1     -12.849  13.832  65.056  1.00  0.00    -0.693 OA 
BRANCH   7   9
HETATM    9  O   UNL     1     -10.555  14.035  65.116  1.00  0.00    -0.337 OA 
BRANCH   9  10
HETATM   10  C   UNL     1     -10.627  15.469  65.173  1.00  0.00    -0.431 C  
BRANCH  10  11
HETATM   11  C   UNL     1     -10.373  15.841  66.629  1.00  0.00    -0.291 C  
BRANCH  11  12
HETATM   12  N   UNL     1      -9.013  16.221  66.924  1.00  0.00    -0.204 N  
HETATM   13  C   UNL     1      -8.493  17.453  66.657  1.00  0.00    -0.261 C  
HETATM   14  O   UNL     1      -9.105  18.436  66.276  1.00  0.00    -0.405 OA 
HETATM   15  C   UNL     1      -7.010  17.387  66.864  1.00  0.00    -0.227 C  
HETATM   16  C   UNL     1      -6.810  16.113  67.665  1.00  0.00    -0.176 C  
HETATM   17  C   UNL     1      -8.119  15.396  67.539  1.00  0.00    -0.167 C  
HETATM   18  O   UNL     1      -8.343  14.274  67.969  1.00  0.00    -0.138 OA 
ENDBRANCH  11  12
ENDBRANCH  10  11
ENDBRANCH   9  10
ENDBRANCH   7   9
ENDBRANCH   6   7
ENDBRANCH   3   5
ENDBRANCH   2   3
TORSDOF 7
ENDMDL
MODEL      147
REMARK 921   NORMALIZED FREE ENERGY PREDICTED BY IDOCK:   -4.06 KCAL/MOL
REMARK 922        TOTAL FREE ENERGY PREDICTED BY IDOCK:   -6.15 KCAL/MOL
REMARK 923 INTER-LIGAND FREE ENERGY PREDICTED BY IDOCK:   -5.77 KCAL/MOL
REMARK 924 INTRA-LIGAND FREE ENERGY PREDICTED BY IDOCK:   -0.39 KCAL/MOL
REMARK 927      BINDING AFFINITY PREDICTED BY RF-SCORE:    0.00 PKD
ROOT
HETATM    1  C   UNL     1     -11.844  14.459  69.113  1.00  0.00    -0.323 C  
HETATM    2  O   UNL     1     -11.291  13.659  68.068  1.00  0.00    -0.257 OA 
ENDROOT
BRANCH   2   3
HETATM    3  C   UNL     1     -11.699  12.369  68.100  1.00  0.00    -0.353 C  
HETATM    4  O   UNL     1     -11.883  11.636  67.141  1.00  0.00    -0.608 OA 
BRANCH   3   5
HETATM    5  C   UNL     1     -11.910  11.985  69.504  1.00  0.00    -0.390 C  
HETATM    6  C   UNL     1     -11.779  10.695  69.834  1.00  0.00    -0.395 C  
BRANCH   6   7
HETATM    7  C   UNL     1     -12.127  10.239  71.189  1.00  0.00    -0.395 C  
HETATM    8  O   UNL     1     -13.104  10.595  71.821  1.00  0.00    -0.444 OA 
BRANCH   7   9
HETATM    9  O   UNL     1     -11.265   9.245  71.505  1.00  0.00    -0.337 OA 
BRANCH   9  10
HETATM   10  C   UNL     1     -11.844   8.155  72.239  1.00  0.00    -0.382 C  
BRANCH  10  11
HETATM   11  C   UNL     1     -10.685   7.476  72.960  1.00  0.00    -0.384 C  
BRANCH  11  12
HETATM   12  N   UNL     1     -10.272   6.220  72.385  1.00  0.00    -0.185 N  
HETATM   13  C   UNL     1      -9.569   6.111  71.221  1.00  0.00    -0.171 C  
HETATM   14  O   UNL     1      -9.071   7.021  70.581  1.00  0.00    -0.156 OA 
HETATM   15  C   UNL     1      -9.550   4.665  70.823  1.00  0.00    -0.251 C  
HETATM   16  C   UNL     1      -9.959   3.933  72.088  1.00  0.00    -0.243 C  
HETATM   17  C   UNL     1     -10.508   5.012  72.971  1.00  0.00    -0.202 C  
HETATM   18  O   UNL     1     -11.034   4.823  74.057  1.00  0.00    -0.293 OA 
ENDBRANCH  11  12
ENDBRANCH  10  11
ENDBRANCH   9  10
ENDBRANCH   7   9
ENDBRANCH   6   7
ENDBRANCH   3   5
ENDBRANCH   2   3
TORSDOF 7
ENDMDL
MODEL      148
REMARK 921   NORMALIZED FREE ENERGY PREDICTED BY IDOCK:   -4.06 KCAL/MOL
REMARK 922        TOTAL FREE ENERGY PREDICTED BY IDOCK:   -6.15 KCAL/MOL
REMARK 923 INTER-LIGAND FREE ENERGY PREDICTED BY IDOCK:   -5.32 KCAL/MOL
REMARK 924 INTRA-LIGAND FREE ENERGY PREDICTED BY IDOCK:   -0.84 KCAL/MOL
REMARK 927      BINDING AFFINITY PREDICTED BY RF-SCORE:    0.00 PKD
ROOT
HETATM    1  C   UNL     1     -11.084  11.524  63.604  1.00  0.00    -0.385 C  
HETATM    2  O   UNL     1     -10.957  12.273  64.813  1.00  0.00    -0.284 OA 
ENDROOT
BRANCH   2   3
HETATM    3  C   UNL     1     -12.144  12.658  65.339  1.00  0.00    -0.462 C  
HETATM    4  O   UNL     1     -13.223  12.679  64.769  1.00  0.00    -0.846 OA 
BRANCH   3   5
HETATM    5  C   UNL     1     -11.919  13.077  66.731  1.00  0.00    -0.434 C  
HETATM    6  C   UNL     1     -11.699  12.129  67.649  1.00  0.00    -0.386 C  
BRANCH   6   7
HETATM    7  C   UNL     1     -11.619  12.485  69.074  1.00  0.00    -0.314 C  
HETATM    8  O   UNL     1     -12.285  13.343  69.623  1.00  0.00    -0.291 OA 
BRANCH   7   9
HETATM    9  O   UNL     1     -10.811  11.573  69.664  1.00  0.00    -0.139 OA 
BRANCH   9  10
HETATM   10  C   UNL     1     -11.257  10.212  69.555  1.00  0.00    -0.238 C  
BRANCH  10  11
HETATM   11  C   UNL     1     -10.002   9.381  69.313  1.00  0.00    -0.181 C  
BRANCH  11  12
HETATM   12  N   UNL     1      -9.489   9.445  67.967  1.00  0.00    -0.133 N  
HETATM   13  C   UNL     1      -8.446  10.236  67.587  1.00  0.00    -0.118 C  
HETATM   14  O   UNL     1      -7.714  10.880  68.320  1.00  0.00    -0.101 OA 
HETATM   15  C   UNL     1      -8.372  10.224  66.090  1.00  0.00    -0.140 C  
HETATM   16  C   UNL     1      -9.219   9.028  65.693  1.00  0.00    -0.288 C  
HETATM   17  C   UNL     1      -9.973   8.687  66.942  1.00  0.00    -0.260 C  
HETATM   18  O   UNL     1     -10.841   7.830  67.020  1.00  0.00    -0.316 OA 
ENDBRANCH  11  12
ENDBRANCH  10  11
ENDBRANCH   9  10
ENDBRANCH   7   9
ENDBRANCH   6   7
ENDBRANCH   3   5
ENDBRANCH   2   3
TORSDOF 7
ENDMDL
MODEL      149
REMARK 921   NORMALIZED FREE ENERGY PREDICTED BY IDOCK:   -4.05 KCAL/MOL
REMARK 922        TOTAL FREE ENERGY PREDICTED BY IDOCK:   -6.15 KCAL/MOL
REMARK 923 INTER-LIGAND FREE ENERGY PREDICTED BY IDOCK:   -5.82 KCAL/MOL
REMARK 924 INTRA-LIGAND FREE ENERGY PREDICTED BY IDOCK:   -0.33 KCAL/MOL
REMARK 927      BINDING AFFINITY PREDICTED BY RF-SCORE:    0.00 PKD
ROOT
HETATM    1  C   UNL     1     -12.166  12.074  62.841  1.00  0.00     0.266 C  
HETATM    2  O   UNL     1     -11.647  11.699  64.116  1.00  0.00    -0.333 OA 
ENDROOT
BRANCH   2   3
HETATM    3  C   UNL     1     -11.948  12.576  65.103  1.00  0.00    -0.434 C  
HETATM    4  O   UNL     1     -12.928  13.301  65.162  1.00  0.00    -0.705 OA 
BRANCH   3   5
HETATM    5  C   UNL     1     -10.872  12.533  66.105  1.00  0.00    -0.304 C  
HETATM    6  C   UNL     1     -11.213  12.460  67.396  1.00  0.00    -0.351 C  
BRANCH   6   7
HETATM    7  C   UNL     1     -10.182  12.566  68.441  1.00  0.00    -0.228 C  
HETATM    8  O   UNL     1      -9.575  11.631  68.928  1.00  0.00    -0.123 OA 
BRANCH   7   9
HETATM    9  O   UNL     1      -9.930  13.885  68.613  1.00  0.00    -0.227 OA 
BRANCH   9  10
HETATM   10  C   UNL     1     -11.048  14.656  69.082  1.00  0.00    -0.268 C  
BRANCH  10  11
HETATM   11  C   UNL     1     -10.806  14.875  70.572  1.00  0.00    -0.043 C  
BRANCH  11  12
HETATM   12  N   UNL     1     -11.964  14.671  71.406  1.00  0.00    -0.346 N  
HETATM   13  C   UNL     1     -12.689  13.516  71.430  1.00  0.00    -0.336 C  
HETATM   14  O   UNL     1     -12.404  12.463  70.885  1.00  0.00    -0.377 OA 
HETATM   15  C   UNL     1     -13.943  13.769  72.212  1.00  0.00    -0.672 C  
HETATM   16  C   UNL     1     -13.651  15.057  72.962  1.00  0.00    -0.443 C  
HETATM   17  C   UNL     1     -12.430  15.601  72.286  1.00  0.00    -0.426 C  
HETATM   18  O   UNL     1     -11.921  16.684  72.534  1.00  0.00    -0.471 OA 
ENDBRANCH  11  12
ENDBRANCH  10  11
ENDBRANCH   9  10
ENDBRANCH   7   9
ENDBRANCH   6   7
ENDBRANCH   3   5
ENDBRANCH   2   3
TORSDOF 7
ENDMDL
MODEL      150
REMARK 921   NORMALIZED FREE ENERGY PREDICTED BY IDOCK:   -4.05 KCAL/MOL
REMARK 922        TOTAL FREE ENERGY PREDICTED BY IDOCK:   -6.14 KCAL/MOL
REMARK 923 INTER-LIGAND FREE ENERGY PREDICTED BY IDOCK:   -5.63 KCAL/MOL
REMARK 924 INTRA-LIGAND FREE ENERGY PREDICTED BY IDOCK:   -0.51 KCAL/MOL
REMARK 927      BINDING AFFINITY PREDICTED BY RF-SCORE:    0.00 PKD
ROOT
HETATM    1  C   UNL     1     -12.872  10.744  70.922  1.00  0.00    -0.351 C  
HETATM    2  O   UNL     1     -12.723   9.597  71.758  1.00  0.00    -0.361 OA 
ENDROOT
BRANCH   2   3
HETATM    3  C   UNL     1     -11.472   9.078  71.746  1.00  0.00    -0.372 C  
HETATM    4  O   UNL     1     -11.047   8.180  72.456  1.00  0.00    -0.334 OA 
BRANCH   3   5
HETATM    5  C   UNL     1     -10.682   9.797  70.735  1.00  0.00    -0.393 C  
HETATM    6  C   UNL     1      -9.452   9.350  70.458  1.00  0.00    -0.327 C  
BRANCH   6   7
HETATM    7  C   UNL     1      -8.568  10.120  69.569  1.00  0.00    -0.164 C  
HETATM    8  O   UNL     1      -7.361   9.986  69.489  1.00  0.00    -0.084 OA 
BRANCH   7   9
HETATM    9  O   UNL     1      -9.366  10.856  68.760  1.00  0.00    -0.179 OA 
BRANCH   9  10
HETATM   10  C   UNL     1      -9.156  10.647  67.355  1.00  0.00    -0.139 C  
BRANCH  10  11
HETATM   11  C   UNL     1     -10.535  10.367  66.766  1.00  0.00    -0.225 C  
BRANCH  11  12
HETATM   12  N   UNL     1     -10.907  11.230  65.671  1.00  0.00    -0.220 N  
HETATM   13  C   UNL     1     -11.718  12.318  65.803  1.00  0.00    -0.385 C  
HETATM   14  O   UNL     1     -12.126  12.803  66.844  1.00  0.00    -0.444 OA 
HETATM   15  C   UNL     1     -12.075  12.801  64.429  1.00  0.00    -0.484 C  
HETATM   16  C   UNL     1     -11.056  12.126  63.529  1.00  0.00    -0.525 C  
HETATM   17  C   UNL     1     -10.451  11.066  64.398  1.00  0.00    -0.354 C  
HETATM   18  O   UNL     1      -9.643  10.232  64.018  1.00  0.00    -0.289 OA 
ENDBRANCH  11  12
ENDBRANCH  10  11
ENDBRANCH   9  10
ENDBRANCH   7   9
ENDBRANCH   6   7
ENDBRANCH   3   5
ENDBRANCH   2   3
TORSDOF 7
ENDMDL
MODEL      151
REMARK 921   NORMALIZED FREE ENERGY PREDICTED BY IDOCK:   -4.04 KCAL/MOL
REMARK 922        TOTAL FREE ENERGY PREDICTED BY IDOCK:   -6.14 KCAL/MOL
REMARK 923 INTER-LIGAND FREE ENERGY PREDICTED BY IDOCK:   -5.51 KCAL/MOL
REMARK 924 INTRA-LIGAND FREE ENERGY PREDICTED BY IDOCK:   -0.62 KCAL/MOL
REMARK 927      BINDING AFFINITY PREDICTED BY RF-SCORE:    0.00 PKD
ROOT
HETATM    1  C   UNL     1     -11.655  11.960  63.860  1.00  0.00    -0.425 C  
HETATM    2  O   UNL     1     -12.680  12.729  64.491  1.00  0.00    -0.655 OA 
ENDROOT
BRANCH   2   3
HETATM    3  C   UNL     1     -12.347  14.028  64.673  1.00  0.00    -0.397 C  
HETATM    4  O   UNL     1     -12.661  14.970  63.962  1.00  0.00    -0.817 OA 
BRANCH   3   5
HETATM    5  C   UNL     1     -11.509  14.127  65.879  1.00  0.00    -0.338 C  
HETATM    6  C   UNL     1     -12.116  14.147  67.070  1.00  0.00    -0.449 C  
BRANCH   6   7
HETATM    7  C   UNL     1     -11.337  14.396  68.293  1.00  0.00    -0.287 C  
HETATM    8  O   UNL     1     -10.614  15.357  68.483  1.00  0.00    -0.231 OA 
BRANCH   7   9
HETATM    9  O   UNL     1     -11.714  13.463  69.198  1.00  0.00    -0.284 OA 
BRANCH   9  10
HETATM   10  C   UNL     1     -11.852  12.134  68.672  1.00  0.00    -0.306 C  
BRANCH  10  11
HETATM   11  C   UNL     1     -10.583  11.392  69.077  1.00  0.00    -0.191 C  
BRANCH  11  12
HETATM   12  N   UNL     1      -9.629  11.205  68.012  1.00  0.00    -0.171 N  
HETATM   13  C   UNL     1      -9.706  10.203  67.090  1.00  0.00    -0.173 C  
HETATM   14  O   UNL     1     -10.631   9.424  66.933  1.00  0.00    -0.231 OA 
HETATM   15  C   UNL     1      -8.423  10.184  66.315  1.00  0.00    -0.132 C  
HETATM   16  C   UNL     1      -7.792  11.530  66.622  1.00  0.00    -0.112 C  
HETATM   17  C   UNL     1      -8.573  12.039  67.794  1.00  0.00    -0.157 C  
HETATM   18  O   UNL     1      -8.319  13.063  68.409  1.00  0.00    -0.157 OA 
ENDBRANCH  11  12
ENDBRANCH  10  11
ENDBRANCH   9  10
ENDBRANCH   7   9
ENDBRANCH   6   7
ENDBRANCH   3   5
ENDBRANCH   2   3
TORSDOF 7
ENDMDL
MODEL      152
REMARK 921   NORMALIZED FREE ENERGY PREDICTED BY IDOCK:   -4.02 KCAL/MOL
REMARK 922        TOTAL FREE ENERGY PREDICTED BY IDOCK:   -6.11 KCAL/MOL
REMARK 923 INTER-LIGAND FREE ENERGY PREDICTED BY IDOCK:   -5.58 KCAL/MOL
REMARK 924 INTRA-LIGAND FREE ENERGY PREDICTED BY IDOCK:   -0.53 KCAL/MOL
REMARK 927      BINDING AFFINITY PREDICTED BY RF-SCORE:    0.00 PKD
ROOT
HETATM    1  C   UNL     1     -12.995  10.063  70.680  1.00  0.00    -0.184 C  
HETATM    2  O   UNL     1     -11.997  11.078  70.570  1.00  0.00    -0.326 OA 
ENDROOT
BRANCH   2   3
HETATM    3  C   UNL     1     -12.456  12.321  70.845  1.00  0.00    -0.276 C  
HETATM    4  O   UNL     1     -12.971  12.696  71.886  1.00  0.00    -0.353 OA 
BRANCH   3   5
HETATM    5  C   UNL     1     -12.252  13.163  69.656  1.00  0.00    -0.241 C  
HETATM    6  C   UNL     1     -11.560  12.653  68.631  1.00  0.00    -0.356 C  
BRANCH   6   7
HETATM    7  C   UNL     1     -11.201  13.504  67.486  1.00  0.00    -0.283 C  
HETATM    8  O   UNL     1     -11.947  14.290  66.931  1.00  0.00    -0.416 OA 
BRANCH   7   9
HETATM    9  O   UNL     1      -9.867  13.369  67.297  1.00  0.00    -0.226 OA 
BRANCH   9  10
HETATM   10  C   UNL     1      -9.236  14.477  66.636  1.00  0.00    -0.266 C  
BRANCH  10  11
HETATM   11  C   UNL     1      -8.857  15.458  67.741  1.00  0.00    -0.168 C  
BRANCH  11  12
HETATM   12  N   UNL     1      -9.280  16.817  67.509  1.00  0.00    -0.214 N  
HETATM   13  C   UNL     1      -8.686  17.655  66.612  1.00  0.00    -0.264 C  
HETATM   14  O   UNL     1      -7.832  17.362  65.793  1.00  0.00    -0.526 OA 
HETATM   15  C   UNL     1      -9.228  19.035  66.835  1.00  0.00    -0.332 C  
HETATM   16  C   UNL     1     -10.478  18.806  67.666  1.00  0.00    -0.495 C  
HETATM   17  C   UNL     1     -10.347  17.389  68.136  1.00  0.00    -0.366 C  
HETATM   18  O   UNL     1     -11.111  16.840  68.915  1.00  0.00    -0.288 OA 
ENDBRANCH  11  12
ENDBRANCH  10  11
ENDBRANCH   9  10
ENDBRANCH   7   9
ENDBRANCH   6   7
ENDBRANCH   3   5
ENDBRANCH   2   3
TORSDOF 7
ENDMDL
MODEL      153
REMARK 921   NORMALIZED FREE ENERGY PREDICTED BY IDOCK:   -4.02 KCAL/MOL
REMARK 922        TOTAL FREE ENERGY PREDICTED BY IDOCK:   -6.10 KCAL/MOL
REMARK 923 INTER-LIGAND FREE ENERGY PREDICTED BY IDOCK:   -5.83 KCAL/MOL
REMARK 924 INTRA-LIGAND FREE ENERGY PREDICTED BY IDOCK:   -0.27 KCAL/MOL
REMARK 927      BINDING AFFINITY PREDICTED BY RF-SCORE:    0.00 PKD
ROOT
HETATM    1  C   UNL     1     -10.252   4.701  66.494  1.00  0.00    -0.238 C  
HETATM    2  O   UNL     1     -10.972   5.886  66.831  1.00  0.00    -0.299 OA 
ENDROOT
BRANCH   2   3
HETATM    3  C   UNL     1     -10.198   6.996  66.874  1.00  0.00    -0.248 C  
HETATM    4  O   UNL     1      -9.135   7.169  66.298  1.00  0.00    -0.162 OA 
BRANCH   3   5
HETATM    5  C   UNL     1     -10.843   7.976  67.761  1.00  0.00    -0.081 C  
HETATM    6  C   UNL     1     -10.518   9.266  67.621  1.00  0.00    -0.325 C  
BRANCH   6   7
HETATM    7  C   UNL     1     -11.019  10.263  68.580  1.00  0.00    -0.244 C  
HETATM    8  O   UNL     1     -10.568  10.457  69.694  1.00  0.00    -0.229 OA 
BRANCH   7   9
HETATM    9  O   UNL     1     -11.935  11.015  67.925  1.00  0.00    -0.620 OA 
BRANCH   9  10
HETATM   10  C   UNL     1     -11.703  12.431  67.980  1.00  0.00    -0.356 C  
BRANCH  10  11
HETATM   11  C   UNL     1     -10.718  12.734  66.855  1.00  0.00    -0.253 C  
BRANCH  11  12
HETATM   12  N   UNL     1     -11.148  13.764  65.941  1.00  0.00    -0.285 N  
HETATM   13  C   UNL     1     -12.185  13.619  65.067  1.00  0.00    -0.421 C  
HETATM   14  O   UNL     1     -12.975  12.692  65.018  1.00  0.00    -0.812 OA 
HETATM   15  C   UNL     1     -12.166  14.785  64.125  1.00  0.00    -0.321 C  
HETATM   16  C   UNL     1     -11.268  15.796  64.815  1.00  0.00    -0.375 C  
HETATM   17  C   UNL     1     -10.585  15.004  65.887  1.00  0.00    -0.329 C  
HETATM   18  O   UNL     1      -9.704  15.433  66.617  1.00  0.00    -0.233 OA 
ENDBRANCH  11  12
ENDBRANCH  10  11
ENDBRANCH   9  10
ENDBRANCH   7   9
ENDBRANCH   6   7
ENDBRANCH   3   5
ENDBRANCH   2   3
TORSDOF 7
ENDMDL
MODEL      154
REMARK 921   NORMALIZED FREE ENERGY PREDICTED BY IDOCK:   -4.00 KCAL/MOL
REMARK 922        TOTAL FREE ENERGY PREDICTED BY IDOCK:   -6.08 KCAL/MOL
REMARK 923 INTER-LIGAND FREE ENERGY PREDICTED BY IDOCK:   -5.78 KCAL/MOL
REMARK 924 INTRA-LIGAND FREE ENERGY PREDICTED BY IDOCK:   -0.30 KCAL/MOL
REMARK 927      BINDING AFFINITY PREDICTED BY RF-SCORE:    0.00 PKD
ROOT
HETATM    1  C   UNL     1      -9.926  17.133  68.453  1.00  0.00    -0.310 C  
HETATM    2  O   UNL     1     -10.340  17.778  67.248  1.00  0.00    -0.340 OA 
ENDROOT
BRANCH   2   3
HETATM    3  C   UNL     1     -10.499  16.928  66.206  1.00  0.00    -0.262 C  
HETATM    4  O   UNL     1     -10.815  17.223  65.065  1.00  0.00    -0.686 OA 
BRANCH   3   5
HETATM    5  C   UNL     1     -10.246  15.559  66.683  1.00  0.00    -0.280 C  
HETATM    6  C   UNL     1     -10.753  14.541  65.979  1.00  0.00    -0.306 C  
BRANCH   6   7
HETATM    7  C   UNL     1     -10.657  13.166  66.494  1.00  0.00    -0.284 C  
HETATM    8  O   UNL     1      -9.765  12.379  66.238  1.00  0.00    -0.238 OA 
BRANCH   7   9
HETATM    9  O   UNL     1     -11.634  13.023  67.420  1.00  0.00    -0.314 OA 
BRANCH   9  10
HETATM   10  C   UNL     1     -11.194  12.512  68.688  1.00  0.00    -0.278 C  
BRANCH  10  11
HETATM   11  C   UNL     1     -11.939  11.197  68.889  1.00  0.00    -0.298 C  
BRANCH  11  12
HETATM   12  N   UNL     1     -11.411  10.360  69.938  1.00  0.00    -0.281 N  
HETATM   13  C   UNL     1     -10.193   9.749  69.881  1.00  0.00    -0.254 C  
HETATM   14  O   UNL     1      -9.329   9.920  69.039  1.00  0.00    -0.157 OA 
HETATM   15  C   UNL     1     -10.106   8.778  71.020  1.00  0.00    -0.301 C  
HETATM   16  C   UNL     1     -11.229   9.204  71.949  1.00  0.00    -0.400 C  
HETATM   17  C   UNL     1     -12.061  10.128  71.113  1.00  0.00    -0.388 C  
HETATM   18  O   UNL     1     -13.122  10.621  71.465  1.00  0.00    -0.405 OA 
ENDBRANCH  11  12
ENDBRANCH  10  11
ENDBRANCH   9  10
ENDBRANCH   7   9
ENDBRANCH   6   7
ENDBRANCH   3   5
ENDBRANCH   2   3
TORSDOF 7
ENDMDL
MODEL      155
REMARK 921   NORMALIZED FREE ENERGY PREDICTED BY IDOCK:   -4.00 KCAL/MOL
REMARK 922        TOTAL FREE ENERGY PREDICTED BY IDOCK:   -6.07 KCAL/MOL
REMARK 923 INTER-LIGAND FREE ENERGY PREDICTED BY IDOCK:   -5.53 KCAL/MOL
REMARK 924 INTRA-LIGAND FREE ENERGY PREDICTED BY IDOCK:   -0.54 KCAL/MOL
REMARK 927      BINDING AFFINITY PREDICTED BY RF-SCORE:    0.00 PKD
ROOT
HETATM    1  C   UNL     1     -10.454  11.331  65.203  1.00  0.00    -0.291 C  
HETATM    2  O   UNL     1      -9.977  11.009  66.509  1.00  0.00    -0.200 OA 
ENDROOT
BRANCH   2   3
HETATM    3  C   UNL     1     -10.911  11.151  67.478  1.00  0.00    -0.275 C  
HETATM    4  O   UNL     1     -12.029  11.626  67.351  1.00  0.00    -0.621 OA 
BRANCH   3   5
HETATM    5  C   UNL     1     -10.348  10.653  68.742  1.00  0.00    -0.210 C  
HETATM    6  C   UNL     1     -11.130   9.911  69.534  1.00  0.00    -0.255 C  
BRANCH   6   7
HETATM    7  C   UNL     1     -10.664   9.517  70.873  1.00  0.00    -0.333 C  
HETATM    8  O   UNL     1      -9.502   9.485  71.233  1.00  0.00    -0.219 OA 
BRANCH   7   9
HETATM    9  O   UNL     1     -11.765   9.376  71.648  1.00  0.00    -0.358 OA 
BRANCH   9  10
HETATM   10  C   UNL     1     -11.738   8.247  72.535  1.00  0.00    -0.383 C  
BRANCH  10  11
HETATM   11  C   UNL     1     -12.335   7.085  71.748  1.00  0.00    -0.354 C  
BRANCH  11  12
HETATM   12  N   UNL     1     -11.405   6.029  71.436  1.00  0.00    -0.270 N  
HETATM   13  C   UNL     1     -10.877   5.182  72.365  1.00  0.00    -0.203 C  
HETATM   14  O   UNL     1     -11.202   5.089  73.536  1.00  0.00    -0.321 OA 
HETATM   15  C   UNL     1      -9.777   4.400  71.712  1.00  0.00    -0.236 C  
HETATM   16  C   UNL     1     -10.017   4.605  70.227  1.00  0.00    -0.309 C  
HETATM   17  C   UNL     1     -10.989   5.744  70.169  1.00  0.00    -0.298 C  
HETATM   18  O   UNL     1     -11.372   6.282  69.142  1.00  0.00    -0.395 OA 
ENDBRANCH  11  12
ENDBRANCH  10  11
ENDBRANCH   9  10
ENDBRANCH   7   9
ENDBRANCH   6   7
ENDBRANCH   3   5
ENDBRANCH   2   3
TORSDOF 7
ENDMDL
MODEL      156
REMARK 921   NORMALIZED FREE ENERGY PREDICTED BY IDOCK:   -3.99 KCAL/MOL
REMARK 922        TOTAL FREE ENERGY PREDICTED BY IDOCK:   -6.06 KCAL/MOL
REMARK 923 INTER-LIGAND FREE ENERGY PREDICTED BY IDOCK:   -5.53 KCAL/MOL
REMARK 924 INTRA-LIGAND FREE ENERGY PREDICTED BY IDOCK:   -0.53 KCAL/MOL
REMARK 927      BINDING AFFINITY PREDICTED BY RF-SCORE:    0.00 PKD
ROOT
HETATM    1  C   UNL     1     -11.916   6.476  71.993  1.00  0.00    -0.326 C  
HETATM    2  O   UNL     1     -11.767   7.768  72.582  1.00  0.00    -0.349 OA 
ENDROOT
BRANCH   2   3
HETATM    3  C   UNL     1     -10.543   8.312  72.388  1.00  0.00    -0.337 C  
HETATM    4  O   UNL     1      -9.587   8.250  73.145  1.00  0.00    -0.255 OA 
BRANCH   3   5
HETATM    5  C   UNL     1     -10.552   9.026  71.102  1.00  0.00    -0.361 C  
HETATM    6  C   UNL     1      -9.378   9.364  70.557  1.00  0.00    -0.319 C  
BRANCH   6   7
HETATM    7  C   UNL     1      -9.337  10.208  69.353  1.00  0.00    -0.219 C  
HETATM    8  O   UNL     1      -8.463  10.184  68.506  1.00  0.00    -0.113 OA 
BRANCH   7   9
HETATM    9  O   UNL     1     -10.518  10.866  69.292  1.00  0.00    -0.216 OA 
BRANCH   9  10
HETATM   10  C   UNL     1     -10.483  12.103  68.564  1.00  0.00    -0.233 C  
BRANCH  10  11
HETATM   11  C   UNL     1     -11.896  12.669  68.637  1.00  0.00    -0.302 C  
BRANCH  11  12
HETATM   12  N   UNL     1     -12.115  13.605  69.712  1.00  0.00    -0.336 N  
HETATM   13  C   UNL     1     -12.514  13.243  70.965  1.00  0.00    -0.336 C  
HETATM   14  O   UNL     1     -12.606  12.109  71.403  1.00  0.00    -0.312 OA 
HETATM   15  C   UNL     1     -12.874  14.489  71.717  1.00  0.00    -0.415 C  
HETATM   16  C   UNL     1     -12.249  15.603  70.897  1.00  0.00    -0.466 C  
HETATM   17  C   UNL     1     -11.904  14.946  69.596  1.00  0.00    -0.318 C  
HETATM   18  O   UNL     1     -11.460  15.529  68.618  1.00  0.00    -0.322 OA 
ENDBRANCH  11  12
ENDBRANCH  10  11
ENDBRANCH   9  10
ENDBRANCH   7   9
ENDBRANCH   6   7
ENDBRANCH   3   5
ENDBRANCH   2   3
TORSDOF 7
ENDMDL
MODEL      157
REMARK 921   NORMALIZED FREE ENERGY PREDICTED BY IDOCK:   -3.98 KCAL/MOL
REMARK 922        TOTAL FREE ENERGY PREDICTED BY IDOCK:   -6.05 KCAL/MOL
REMARK 923 INTER-LIGAND FREE ENERGY PREDICTED BY IDOCK:   -5.42 KCAL/MOL
REMARK 924 INTRA-LIGAND FREE ENERGY PREDICTED BY IDOCK:   -0.63 KCAL/MOL
REMARK 927      BINDING AFFINITY PREDICTED BY RF-SCORE:    0.00 PKD
ROOT
HETATM    1  C   UNL     1     -11.993  10.876  70.426  1.00  0.00    -0.362 C  
HETATM    2  O   UNL     1     -12.520  11.074  69.115  1.00  0.00    -0.432 OA 
ENDROOT
BRANCH   2   3
HETATM    3  C   UNL     1     -11.571  11.107  68.150  1.00  0.00    -0.280 C  
HETATM    4  O   UNL     1     -11.392  10.278  67.272  1.00  0.00    -0.280 OA 
BRANCH   3   5
HETATM    5  C   UNL     1     -10.758  12.318  68.342  1.00  0.00    -0.255 C  
HETATM    6  C   UNL     1     -10.765  13.245  67.378  1.00  0.00    -0.266 C  
BRANCH   6   7
HETATM    7  C   UNL     1      -9.855  14.398  67.454  1.00  0.00    -0.224 C  
HETATM    8  O   UNL     1      -9.126  14.779  66.557  1.00  0.00    -0.265 OA 
BRANCH   7   9
HETATM    9  O   UNL     1     -10.117  15.031  68.622  1.00  0.00    -0.219 OA 
BRANCH   9  10
HETATM   10  C   UNL     1     -11.018  16.145  68.514  1.00  0.00    -0.338 C  
BRANCH  10  11
HETATM   11  C   UNL     1     -10.313  17.316  69.190  1.00  0.00    -0.290 C  
BRANCH  11  12
HETATM   12  N   UNL     1      -9.492  18.112  68.311  1.00  0.00    -0.295 N  
HETATM   13  C   UNL     1      -9.973  19.114  67.521  1.00  0.00    -0.351 C  
HETATM   14  O   UNL     1     -11.101  19.577  67.536  1.00  0.00    -0.398 OA 
HETATM   15  C   UNL     1      -8.884  19.529  66.579  1.00  0.00    -0.395 C  
HETATM   16  C   UNL     1      -7.627  18.942  67.195  1.00  0.00    -0.240 C  
HETATM   17  C   UNL     1      -8.140  17.968  68.211  1.00  0.00    -0.291 C  
HETATM   18  O   UNL     1      -7.440  17.213  68.869  1.00  0.00    -0.241 OA 
ENDBRANCH  11  12
ENDBRANCH  10  11
ENDBRANCH   9  10
ENDBRANCH   7   9
ENDBRANCH   6   7
ENDBRANCH   3   5
ENDBRANCH   2   3
TORSDOF 7
ENDMDL
MODEL      158
REMARK 921   NORMALIZED FREE ENERGY PREDICTED BY IDOCK:   -3.98 KCAL/MOL
REMARK 922        TOTAL FREE ENERGY PREDICTED BY IDOCK:   -6.05 KCAL/MOL
REMARK 923 INTER-LIGAND FREE ENERGY PREDICTED BY IDOCK:   -5.55 KCAL/MOL
REMARK 924 INTRA-LIGAND FREE ENERGY PREDICTED BY IDOCK:   -0.50 KCAL/MOL
REMARK 927      BINDING AFFINITY PREDICTED BY RF-SCORE:    0.00 PKD
ROOT
HETATM    1  C   UNL     1     -11.767  12.880  69.212  1.00  0.00    -0.321 C  
HETATM    2  O   UNL     1     -12.445  14.106  69.486  1.00  0.00    -0.298 OA 
ENDROOT
BRANCH   2   3
HETATM    3  C   UNL     1     -11.724  15.206  69.171  1.00  0.00    -0.325 C  
HETATM    4  O   UNL     1     -11.348  16.078  69.938  1.00  0.00    -0.312 OA 
BRANCH   3   5
HETATM    5  C   UNL     1     -11.475  15.198  67.721  1.00  0.00    -0.329 C  
HETATM    6  C   UNL     1     -10.408  15.858  67.258  1.00  0.00    -0.293 C  
BRANCH   6   7
HETATM    7  C   UNL     1     -10.202  16.006  65.808  1.00  0.00    -0.377 C  
HETATM    8  O   UNL     1     -10.943  15.574  64.945  1.00  0.00    -0.419 OA 
BRANCH   7   9
HETATM    9  O   UNL     1      -9.153  16.845  65.643  1.00  0.00    -0.499 OA 
BRANCH   9  10
HETATM   10  C   UNL     1      -8.966  17.794  66.705  1.00  0.00    -0.266 C  
BRANCH  10  11
HETATM   11  C   UNL     1      -7.553  18.339  66.532  1.00  0.00    -0.242 C  
BRANCH  11  12
HETATM   12  N   UNL     1      -6.965  18.880  67.733  1.00  0.00    -0.217 N  
HETATM   13  C   UNL     1      -6.362  18.121  68.692  1.00  0.00    -0.209 C  
HETATM   14  O   UNL     1      -6.101  16.932  68.625  1.00  0.00    -0.141 OA 
HETATM   15  C   UNL     1      -6.108  18.993  69.885  1.00  0.00    -0.255 C  
HETATM   16  C   UNL     1      -6.259  20.403  69.344  1.00  0.00    -0.326 C  
HETATM   17  C   UNL     1      -6.920  20.213  68.013  1.00  0.00    -0.290 C  
HETATM   18  O   UNL     1      -7.302  21.120  67.288  1.00  0.00    -0.430 OA 
ENDBRANCH  11  12
ENDBRANCH  10  11
ENDBRANCH   9  10
ENDBRANCH   7   9
ENDBRANCH   6   7
ENDBRANCH   3   5
ENDBRANCH   2   3
TORSDOF 7
ENDMDL
MODEL      159
REMARK 921   NORMALIZED FREE ENERGY PREDICTED BY IDOCK:   -3.98 KCAL/MOL
REMARK 922        TOTAL FREE ENERGY PREDICTED BY IDOCK:   -6.04 KCAL/MOL
REMARK 923 INTER-LIGAND FREE ENERGY PREDICTED BY IDOCK:   -5.54 KCAL/MOL
REMARK 924 INTRA-LIGAND FREE ENERGY PREDICTED BY IDOCK:   -0.50 KCAL/MOL
REMARK 927      BINDING AFFINITY PREDICTED BY RF-SCORE:    0.00 PKD
ROOT
HETATM    1  C   UNL     1      -6.122  15.310  69.722  1.00  0.00    -0.144 C  
HETATM    2  O   UNL     1      -7.224  14.716  69.037  1.00  0.00    -0.119 OA 
ENDROOT
BRANCH   2   3
HETATM    3  C   UNL     1      -7.244  14.982  67.709  1.00  0.00    -0.168 C  
HETATM    4  O   UNL     1      -6.402  15.598  67.075  1.00  0.00    -0.298 OA 
BRANCH   3   5
HETATM    5  C   UNL     1      -8.479  14.418  67.142  1.00  0.00    -0.229 C  
HETATM    6  C   UNL     1      -9.509  15.243  66.925  1.00  0.00    -0.249 C  
BRANCH   6   7
HETATM    7  C   UNL     1     -10.811  14.704  66.503  1.00  0.00    -0.315 C  
HETATM    8  O   UNL     1     -11.473  15.114  65.568  1.00  0.00    -0.312 OA 
BRANCH   7   9
HETATM    9  O   UNL     1     -11.029  13.584  67.231  1.00  0.00    -0.273 OA 
BRANCH   9  10
HETATM   10  C   UNL     1     -12.159  13.650  68.115  1.00  0.00    -0.275 C  
BRANCH  10  11
HETATM   11  C   UNL     1     -11.633  13.264  69.493  1.00  0.00    -0.286 C  
BRANCH  11  12
HETATM   12  N   UNL     1     -12.169  14.045  70.581  1.00  0.00    -0.351 N  
HETATM   13  C   UNL     1     -12.967  13.534  71.561  1.00  0.00    -0.355 C  
HETATM   14  O   UNL     1     -13.228  12.358  71.752  1.00  0.00    -0.440 OA 
HETATM   15  C   UNL     1     -13.523  14.680  72.354  1.00  0.00    -0.534 C  
HETATM   16  C   UNL     1     -12.633  15.850  71.974  1.00  0.00    -0.517 C  
HETATM   17  C   UNL     1     -11.896  15.368  70.762  1.00  0.00    -0.353 C  
HETATM   18  O   UNL     1     -11.140  16.052  70.088  1.00  0.00    -0.320 OA 
ENDBRANCH  11  12
ENDBRANCH  10  11
ENDBRANCH   9  10
ENDBRANCH   7   9
ENDBRANCH   6   7
ENDBRANCH   3   5
ENDBRANCH   2   3
TORSDOF 7
ENDMDL
MODEL      160
REMARK 921   NORMALIZED FREE ENERGY PREDICTED BY IDOCK:   -3.97 KCAL/MOL
REMARK 922        TOTAL FREE ENERGY PREDICTED BY IDOCK:   -6.03 KCAL/MOL
REMARK 923 INTER-LIGAND FREE ENERGY PREDICTED BY IDOCK:   -5.46 KCAL/MOL
REMARK 924 INTRA-LIGAND FREE ENERGY PREDICTED BY IDOCK:   -0.57 KCAL/MOL
REMARK 927      BINDING AFFINITY PREDICTED BY RF-SCORE:    0.00 PKD
ROOT
HETATM    1  C   UNL     1      -8.280  18.867  66.379  1.00  0.00    -0.294 C  
HETATM    2  O   UNL     1      -8.885  18.777  67.669  1.00  0.00    -0.276 OA 
ENDROOT
BRANCH   2   3
HETATM    3  C   UNL     1     -10.222  18.570  67.627  1.00  0.00    -0.387 C  
HETATM    4  O   UNL     1     -11.060  19.306  67.132  1.00  0.00    -0.425 OA 
BRANCH   3   5
HETATM    5  C   UNL     1     -10.514  17.298  68.306  1.00  0.00    -0.385 C  
HETATM    6  C   UNL     1     -10.745  16.217  67.552  1.00  0.00    -0.300 C  
BRANCH   6   7
HETATM    7  C   UNL     1     -11.190  14.961  68.177  1.00  0.00    -0.299 C  
HETATM    8  O   UNL     1     -11.086  14.688  69.359  1.00  0.00    -0.252 OA 
BRANCH   7   9
HETATM    9  O   UNL     1     -11.873  14.272  67.234  1.00  0.00    -0.381 OA 
BRANCH   9  10
HETATM   10  C   UNL     1     -11.058  13.478  66.357  1.00  0.00    -0.302 C  
BRANCH  10  11
HETATM   11  C   UNL     1     -11.723  12.107  66.298  1.00  0.00    -0.320 C  
BRANCH  11  12
HETATM   12  N   UNL     1     -11.105  11.103  67.129  1.00  0.00    -0.295 N  
HETATM   13  C   UNL     1     -11.350  10.964  68.463  1.00  0.00    -0.299 C  
HETATM   14  O   UNL     1     -12.202  11.545  69.114  1.00  0.00    -0.298 OA 
HETATM   15  C   UNL     1     -10.350   9.997  69.022  1.00  0.00    -0.223 C  
HETATM   16  C   UNL     1      -9.788   9.304  67.793  1.00  0.00    -0.210 C  
HETATM   17  C   UNL     1     -10.242  10.162  66.652  1.00  0.00    -0.224 C  
HETATM   18  O   UNL     1      -9.919   9.998  65.485  1.00  0.00    -0.289 OA 
ENDBRANCH  11  12
ENDBRANCH  10  11
ENDBRANCH   9  10
ENDBRANCH   7   9
ENDBRANCH   6   7
ENDBRANCH   3   5
ENDBRANCH   2   3
TORSDOF 7
ENDMDL
MODEL      161
REMARK 921   NORMALIZED FREE ENERGY PREDICTED BY IDOCK:   -3.96 KCAL/MOL
REMARK 922        TOTAL FREE ENERGY PREDICTED BY IDOCK:   -6.02 KCAL/MOL
REMARK 923 INTER-LIGAND FREE ENERGY PREDICTED BY IDOCK:   -5.60 KCAL/MOL
REMARK 924 INTRA-LIGAND FREE ENERGY PREDICTED BY IDOCK:   -0.43 KCAL/MOL
REMARK 927      BINDING AFFINITY PREDICTED BY RF-SCORE:    0.00 PKD
ROOT
HETATM    1  C   UNL     1     -12.202  14.583  69.867  1.00  0.00    -0.328 C  
HETATM    2  O   UNL     1     -12.114  14.651  71.290  1.00  0.00    -0.321 OA 
ENDROOT
BRANCH   2   3
HETATM    3  C   UNL     1     -13.028  13.881  71.926  1.00  0.00    -0.354 C  
HETATM    4  O   UNL     1     -13.701  14.195  72.895  1.00  0.00    -0.658 OA 
BRANCH   3   5
HETATM    5  C   UNL     1     -13.067  12.567  71.265  1.00  0.00    -0.223 C  
HETATM    6  C   UNL     1     -12.853  11.477  72.010  1.00  0.00    -0.259 C  
BRANCH   6   7
HETATM    7  C   UNL     1     -12.732  10.157  71.372  1.00  0.00    -0.425 C  
HETATM    8  O   UNL     1     -13.658   9.498  70.938  1.00  0.00    -0.226 OA 
BRANCH   7   9
HETATM    9  O   UNL     1     -11.410   9.916  71.212  1.00  0.00    -0.368 OA 
BRANCH   9  10
HETATM   10  C   UNL     1     -10.890  10.244  69.913  1.00  0.00    -0.302 C  
BRANCH  10  11
HETATM   11  C   UNL     1      -9.806   9.211  69.627  1.00  0.00    -0.180 C  
BRANCH  11  12
HETATM   12  N   UNL     1     -10.247   8.075  68.856  1.00  0.00    -0.206 N  
HETATM   13  C   UNL     1     -10.677   6.904  69.407  1.00  0.00    -0.246 C  
HETATM   14  O   UNL     1     -10.887   6.686  70.588  1.00  0.00    -0.229 OA 
HETATM   15  C   UNL     1     -10.804   5.891  68.309  1.00  0.00    -0.325 C  
HETATM   16  C   UNL     1     -10.796   6.726  67.041  1.00  0.00    -0.453 C  
HETATM   17  C   UNL     1     -10.316   8.071  67.495  1.00  0.00    -0.261 C  
HETATM   18  O   UNL     1     -10.081   9.013  66.754  1.00  0.00    -0.232 OA 
ENDBRANCH  11  12
ENDBRANCH  10  11
ENDBRANCH   9  10
ENDBRANCH   7   9
ENDBRANCH   6   7
ENDBRANCH   3   5
ENDBRANCH   2   3
TORSDOF 7
ENDMDL
MODEL      162
REMARK 921   NORMALIZED FREE ENERGY PREDICTED BY IDOCK:   -3.95 KCAL/MOL
REMARK 922        TOTAL FREE ENERGY PREDICTED BY IDOCK:   -6.01 KCAL/MOL
REMARK 923 INTER-LIGAND FREE ENERGY PREDICTED BY IDOCK:   -5.60 KCAL/MOL
REMARK 924 INTRA-LIGAND FREE ENERGY PREDICTED BY IDOCK:   -0.41 KCAL/MOL
REMARK 927      BINDING AFFINITY PREDICTED BY RF-SCORE:    0.00 PKD
ROOT
HETATM    1  C   UNL     1     -10.687   3.672  63.991  1.00  0.00    -0.239 C  
HETATM    2  O   UNL     1     -11.096   4.339  65.185  1.00  0.00    -0.194 OA 
ENDROOT
BRANCH   2   3
HETATM    3  C   UNL     1     -10.067   4.851  65.899  1.00  0.00    -0.211 C  
HETATM    4  O   UNL     1      -8.904   4.479  65.875  1.00  0.00    -0.117 OA 
BRANCH   3   5
HETATM    5  C   UNL     1     -10.585   5.937  66.745  1.00  0.00    -0.368 C  
HETATM    6  C   UNL     1      -9.930   7.103  66.749  1.00  0.00    -0.278 C  
BRANCH   6   7
HETATM    7  C   UNL     1     -10.319   8.167  67.689  1.00  0.00    -0.247 C  
HETATM    8  O   UNL     1     -10.196   8.116  68.899  1.00  0.00    -0.202 OA 
BRANCH   7   9
HETATM    9  O   UNL     1     -10.663   9.244  66.945  1.00  0.00    -0.206 OA 
BRANCH   9  10
HETATM   10  C   UNL     1      -9.723   9.592  65.917  1.00  0.00    -0.275 C  
BRANCH  10  11
HETATM   11  C   UNL     1      -9.631  11.114  65.936  1.00  0.00    -0.218 C  
BRANCH  11  12
HETATM   12  N   UNL     1     -10.716  11.790  65.269  1.00  0.00    -0.279 N  
HETATM   13  C   UNL     1     -10.773  11.991  63.921  1.00  0.00    -0.397 C  
HETATM   14  O   UNL     1     -10.023  11.525  63.081  1.00  0.00    -0.367 OA 
HETATM   15  C   UNL     1     -11.903  12.935  63.639  1.00  0.00    -0.599 C  
HETATM   16  C   UNL     1     -12.721  12.918  64.917  1.00  0.00    -0.474 C  
HETATM   17  C   UNL     1     -11.818  12.263  65.917  1.00  0.00    -0.354 C  
HETATM   18  O   UNL     1     -12.069  12.138  67.107  1.00  0.00    -0.575 OA 
ENDBRANCH  11  12
ENDBRANCH  10  11
ENDBRANCH   9  10
ENDBRANCH   7   9
ENDBRANCH   6   7
ENDBRANCH   3   5
ENDBRANCH   2   3
TORSDOF 7
ENDMDL
MODEL      163
REMARK 921   NORMALIZED FREE ENERGY PREDICTED BY IDOCK:   -3.95 KCAL/MOL
REMARK 922        TOTAL FREE ENERGY PREDICTED BY IDOCK:   -6.00 KCAL/MOL
REMARK 923 INTER-LIGAND FREE ENERGY PREDICTED BY IDOCK:   -5.94 KCAL/MOL
REMARK 924 INTRA-LIGAND FREE ENERGY PREDICTED BY IDOCK:   -0.06 KCAL/MOL
REMARK 927      BINDING AFFINITY PREDICTED BY RF-SCORE:    0.00 PKD
ROOT
HETATM    1  C   UNL     1     -11.140  15.576  70.850  1.00  0.00    -0.348 C  
HETATM    2  O   UNL     1     -11.896  15.665  72.057  1.00  0.00    -0.370 OA 
ENDROOT
BRANCH   2   3
HETATM    3  C   UNL     1     -12.993  14.872  72.068  1.00  0.00    -0.333 C  
HETATM    4  O   UNL     1     -14.060  15.109  72.613  1.00  0.00    -0.463 OA 
BRANCH   3   5
HETATM    5  C   UNL     1     -12.684  13.643  71.321  1.00  0.00    -0.443 C  
HETATM    6  C   UNL     1     -13.177  12.486  71.776  1.00  0.00    -0.444 C  
BRANCH   6   7
HETATM    7  C   UNL     1     -12.773  11.215  71.154  1.00  0.00    -0.408 C  
HETATM    8  O   UNL     1     -12.382  11.085  70.009  1.00  0.00    -0.320 OA 
BRANCH   7   9
HETATM    9  O   UNL     1     -12.757  10.283  72.136  1.00  0.00    -0.358 OA 
BRANCH   9  10
HETATM   10  C   UNL     1     -12.641   8.927  71.677  1.00  0.00    -0.346 C  
BRANCH  10  11
HETATM   11  C   UNL     1     -11.152   8.691  71.449  1.00  0.00    -0.274 C  
BRANCH  11  12
HETATM   12  N   UNL     1     -10.720   7.330  71.658  1.00  0.00    -0.215 N  
HETATM   13  C   UNL     1     -10.099   6.896  72.791  1.00  0.00    -0.177 C  
HETATM   14  O   UNL     1      -9.944   7.523  73.825  1.00  0.00    -0.305 OA 
HETATM   15  C   UNL     1      -9.583   5.511  72.538  1.00  0.00    -0.167 C  
HETATM   16  C   UNL     1     -10.333   5.065  71.295  1.00  0.00    -0.255 C  
HETATM   17  C   UNL     1     -10.927   6.330  70.756  1.00  0.00    -0.297 C  
HETATM   18  O   UNL     1     -11.538   6.418  69.701  1.00  0.00    -0.417 OA 
ENDBRANCH  11  12
ENDBRANCH  10  11
ENDBRANCH   9  10
ENDBRANCH   7   9
ENDBRANCH   6   7
ENDBRANCH   3   5
ENDBRANCH   2   3
TORSDOF 7
ENDMDL
MODEL      164
REMARK 921   NORMALIZED FREE ENERGY PREDICTED BY IDOCK:   -3.93 KCAL/MOL
REMARK 922        TOTAL FREE ENERGY PREDICTED BY IDOCK:   -5.98 KCAL/MOL
REMARK 923 INTER-LIGAND FREE ENERGY PREDICTED BY IDOCK:   -5.38 KCAL/MOL
REMARK 924 INTRA-LIGAND FREE ENERGY PREDICTED BY IDOCK:   -0.60 KCAL/MOL
REMARK 927      BINDING AFFINITY PREDICTED BY RF-SCORE:    0.00 PKD
ROOT
HETATM    1  C   UNL     1     -12.792  10.722  70.757  1.00  0.00    -0.320 C  
HETATM    2  O   UNL     1     -12.725   9.521  71.527  1.00  0.00    -0.326 OA 
ENDROOT
BRANCH   2   3
HETATM    3  C   UNL     1     -11.494   8.957  71.544  1.00  0.00    -0.321 C  
HETATM    4  O   UNL     1     -11.145   7.985  72.195  1.00  0.00    -0.266 OA 
BRANCH   3   5
HETATM    5  C   UNL     1     -10.618   9.730  70.649  1.00  0.00    -0.382 C  
HETATM    6  C   UNL     1      -9.386   9.266  70.416  1.00  0.00    -0.295 C  
BRANCH   6   7
HETATM    7  C   UNL     1      -8.423  10.076  69.653  1.00  0.00    -0.180 C  
HETATM    8  O   UNL     1      -7.212   9.989  69.732  1.00  0.00    -0.092 OA 
BRANCH   7   9
HETATM    9  O   UNL     1      -9.136  10.788  68.749  1.00  0.00    -0.165 OA 
BRANCH   9  10
HETATM   10  C   UNL     1      -8.835  10.492  67.376  1.00  0.00    -0.132 C  
BRANCH  10  11
HETATM   11  C   UNL     1     -10.166  10.128  66.728  1.00  0.00    -0.228 C  
BRANCH  11  12
HETATM   12  N   UNL     1     -10.618  11.054  65.720  1.00  0.00    -0.228 N  
HETATM   13  C   UNL     1     -10.240  10.997  64.411  1.00  0.00    -0.346 C  
HETATM   14  O   UNL     1      -9.603  10.107  63.873  1.00  0.00    -0.291 OA 
HETATM   15  C   UNL     1     -10.702  12.254  63.737  1.00  0.00    -0.494 C  
HETATM   16  C   UNL     1     -11.726  12.828  64.700  1.00  0.00    -0.405 C  
HETATM   17  C   UNL     1     -11.504  12.060  65.967  1.00  0.00    -0.338 C  
HETATM   18  O   UNL     1     -12.071  12.284  67.026  1.00  0.00    -0.575 OA 
ENDBRANCH  11  12
ENDBRANCH  10  11
ENDBRANCH   9  10
ENDBRANCH   7   9
ENDBRANCH   6   7
ENDBRANCH   3   5
ENDBRANCH   2   3
TORSDOF 7
ENDMDL
MODEL      165
REMARK 921   NORMALIZED FREE ENERGY PREDICTED BY IDOCK:   -3.93 KCAL/MOL
REMARK 922        TOTAL FREE ENERGY PREDICTED BY IDOCK:   -5.97 KCAL/MOL
REMARK 923 INTER-LIGAND FREE ENERGY PREDICTED BY IDOCK:   -5.60 KCAL/MOL
REMARK 924 INTRA-LIGAND FREE ENERGY PREDICTED BY IDOCK:   -0.37 KCAL/MOL
REMARK 927      BINDING AFFINITY PREDICTED BY RF-SCORE:    0.00 PKD
ROOT
HETATM    1  C   UNL     1     -10.572   4.972  66.288  1.00  0.00    -0.276 C  
HETATM    2  O   UNL     1     -10.960   6.243  66.810  1.00  0.00    -0.347 OA 
ENDROOT
BRANCH   2   3
HETATM    3  C   UNL     1      -9.989   7.183  66.722  1.00  0.00    -0.208 C  
HETATM    4  O   UNL     1      -8.900   7.061  66.184  1.00  0.00    -0.147 OA 
BRANCH   3   5
HETATM    5  C   UNL     1     -10.455   8.396  67.413  1.00  0.00    -0.354 C  
HETATM    6  C   UNL     1     -10.415   9.556  66.750  1.00  0.00    -0.263 C  
BRANCH   6   7
HETATM    7  C   UNL     1     -10.726  10.816  67.444  1.00  0.00    -0.268 C  
HETATM    8  O   UNL     1     -10.200  11.201  68.472  1.00  0.00    -0.183 OA 
BRANCH   7   9
HETATM    9  O   UNL     1     -11.558  11.516  66.638  1.00  0.00    -0.469 OA 
BRANCH   9  10
HETATM   10  C   UNL     1     -10.968  12.668  66.017  1.00  0.00    -0.282 C  
BRANCH  10  11
HETATM   11  C   UNL     1     -11.961  13.806  66.223  1.00  0.00    -0.429 C  
BRANCH  11  12
HETATM   12  N   UNL     1     -11.373  15.044  66.672  1.00  0.00    -0.326 N  
HETATM   13  C   UNL     1     -11.270  15.406  67.982  1.00  0.00    -0.325 C  
HETATM   14  O   UNL     1     -11.515  14.710  68.953  1.00  0.00    -0.267 OA 
HETATM   15  C   UNL     1     -10.846  16.843  68.037  1.00  0.00    -0.338 C  
HETATM   16  C   UNL     1     -10.329  17.124  66.638  1.00  0.00    -0.310 C  
HETATM   17  C   UNL     1     -10.822  15.963  65.829  1.00  0.00    -0.254 C  
HETATM   18  O   UNL     1     -10.696  15.854  64.618  1.00  0.00    -0.553 OA 
ENDBRANCH  11  12
ENDBRANCH  10  11
ENDBRANCH   9  10
ENDBRANCH   7   9
ENDBRANCH   6   7
ENDBRANCH   3   5
ENDBRANCH   2   3
TORSDOF 7
ENDMDL
MODEL      166
REMARK 921   NORMALIZED FREE ENERGY PREDICTED BY IDOCK:   -3.92 KCAL/MOL
REMARK 922        TOTAL FREE ENERGY PREDICTED BY IDOCK:   -5.97 KCAL/MOL
REMARK 923 INTER-LIGAND FREE ENERGY PREDICTED BY IDOCK:   -5.46 KCAL/MOL
REMARK 924 INTRA-LIGAND FREE ENERGY PREDICTED BY IDOCK:   -0.51 KCAL/MOL
REMARK 927      BINDING AFFINITY PREDICTED BY RF-SCORE:    0.00 PKD
ROOT
HETATM    1  C   UNL     1     -10.265  15.986  67.228  1.00  0.00    -0.277 C  
HETATM    2  O   UNL     1     -11.109  15.243  66.349  1.00  0.00    -0.329 OA 
ENDROOT
BRANCH   2   3
HETATM    3  C   UNL     1     -11.995  14.447  66.993  1.00  0.00    -0.395 C  
HETATM    4  O   UNL     1     -12.331  14.526  68.164  1.00  0.00    -0.159 OA 
BRANCH   3   5
HETATM    5  C   UNL     1     -12.485  13.436  66.044  1.00  0.00    -0.431 C  
HETATM    6  C   UNL     1     -11.656  13.022  65.078  1.00  0.00    -0.359 C  
BRANCH   6   7
HETATM    7  C   UNL     1     -12.146  12.128  64.017  1.00  0.00    -0.443 C  
HETATM    8  O   UNL     1     -13.138  12.319  63.338  1.00  0.00    -0.727 OA 
BRANCH   7   9
HETATM    9  O   UNL     1     -11.203  11.174  63.838  1.00  0.00    -0.279 OA 
BRANCH   9  10
HETATM   10  C   UNL     1      -9.905  11.505  64.356  1.00  0.00    -0.241 C  
BRANCH  10  11
HETATM   11  C   UNL     1      -9.456  10.291  65.161  1.00  0.00    -0.252 C  
BRANCH  11  12
HETATM   12  N   UNL     1      -9.764  10.355  66.568  1.00  0.00    -0.186 N  
HETATM   13  C   UNL     1     -10.417   9.370  67.249  1.00  0.00    -0.264 C  
HETATM   14  O   UNL     1     -10.704   8.261  66.832  1.00  0.00    -0.299 OA 
HETATM   15  C   UNL     1     -10.774   9.900  68.606  1.00  0.00    -0.256 C  
HETATM   16  C   UNL     1      -9.899  11.131  68.758  1.00  0.00    -0.201 C  
HETATM   17  C   UNL     1      -9.397  11.394  67.371  1.00  0.00    -0.167 C  
HETATM   18  O   UNL     1      -8.727  12.362  67.044  1.00  0.00    -0.196 OA 
ENDBRANCH  11  12
ENDBRANCH  10  11
ENDBRANCH   9  10
ENDBRANCH   7   9
ENDBRANCH   6   7
ENDBRANCH   3   5
ENDBRANCH   2   3
TORSDOF 7
ENDMDL
MODEL      167
REMARK 921   NORMALIZED FREE ENERGY PREDICTED BY IDOCK:   -3.92 KCAL/MOL
REMARK 922        TOTAL FREE ENERGY PREDICTED BY IDOCK:   -5.96 KCAL/MOL
REMARK 923 INTER-LIGAND FREE ENERGY PREDICTED BY IDOCK:   -5.60 KCAL/MOL
REMARK 924 INTRA-LIGAND FREE ENERGY PREDICTED BY IDOCK:   -0.36 KCAL/MOL
REMARK 927      BINDING AFFINITY PREDICTED BY RF-SCORE:    0.00 PKD
ROOT
HETATM    1  C   UNL     1     -13.402  12.623  72.164  1.00  0.00    -0.466 C  
HETATM    2  O   UNL     1     -12.299  13.012  71.346  1.00  0.00    -0.227 OA 
ENDROOT
BRANCH   2   3
HETATM    3  C   UNL     1     -12.258  14.340  71.088  1.00  0.00    -0.356 C  
HETATM    4  O   UNL     1     -12.653  15.238  71.814  1.00  0.00    -0.313 OA 
BRANCH   3   5
HETATM    5  C   UNL     1     -11.668  14.534  69.754  1.00  0.00    -0.356 C  
HETATM    6  C   UNL     1     -12.115  13.774  68.748  1.00  0.00    -0.344 C  
BRANCH   6   7
HETATM    7  C   UNL     1     -11.455  13.824  67.434  1.00  0.00    -0.345 C  
HETATM    8  O   UNL     1     -10.955  12.873  66.861  1.00  0.00    -0.257 OA 
BRANCH   7   9
HETATM    9  O   UNL     1     -11.668  15.063  66.932  1.00  0.00    -0.300 OA 
BRANCH   9  10
HETATM   10  C   UNL     1     -10.478  15.780  66.571  1.00  0.00    -0.303 C  
BRANCH  10  11
HETATM   11  C   UNL     1     -10.411  16.976  67.515  1.00  0.00    -0.329 C  
BRANCH  11  12
HETATM   12  N   UNL     1      -9.472  17.999  67.124  1.00  0.00    -0.258 N  
HETATM   13  C   UNL     1      -9.837  19.218  66.635  1.00  0.00    -0.367 C  
HETATM   14  O   UNL     1     -10.965  19.679  66.589  1.00  0.00    -0.424 OA 
HETATM   15  C   UNL     1      -8.607  19.897  66.110  1.00  0.00    -0.348 C  
HETATM   16  C   UNL     1      -7.465  19.106  66.724  1.00  0.00    -0.237 C  
HETATM   17  C   UNL     1      -8.121  17.863  67.241  1.00  0.00    -0.212 C  
HETATM   18  O   UNL     1      -7.527  16.914  67.731  1.00  0.00    -0.158 OA 
ENDBRANCH  11  12
ENDBRANCH  10  11
ENDBRANCH   9  10
ENDBRANCH   7   9
ENDBRANCH   6   7
ENDBRANCH   3   5
ENDBRANCH   2   3
TORSDOF 7
ENDMDL
MODEL      168
REMARK 921   NORMALIZED FREE ENERGY PREDICTED BY IDOCK:   -3.90 KCAL/MOL
REMARK 922        TOTAL FREE ENERGY PREDICTED BY IDOCK:   -5.94 KCAL/MOL
REMARK 923 INTER-LIGAND FREE ENERGY PREDICTED BY IDOCK:   -5.67 KCAL/MOL
REMARK 924 INTRA-LIGAND FREE ENERGY PREDICTED BY IDOCK:   -0.27 KCAL/MOL
REMARK 927      BINDING AFFINITY PREDICTED BY RF-SCORE:    0.00 PKD
ROOT
HETATM    1  C   UNL     1      -8.979   6.521  66.854  1.00  0.00    -0.126 C  
HETATM    2  O   UNL     1     -10.048   7.464  66.913  1.00  0.00    -0.219 OA 
ENDROOT
BRANCH   2   3
HETATM    3  C   UNL     1      -9.720   8.686  66.431  1.00  0.00    -0.263 C  
HETATM    4  O   UNL     1      -8.781   8.954  65.698  1.00  0.00    -0.160 OA 
BRANCH   3   5
HETATM    5  C   UNL     1     -10.682   9.666  66.959  1.00  0.00    -0.225 C  
HETATM    6  C   UNL     1     -10.299  10.944  67.046  1.00  0.00    -0.276 C  
BRANCH   6   7
HETATM    7  C   UNL     1     -11.167  11.932  67.706  1.00  0.00    -0.267 C  
HETATM    8  O   UNL     1     -12.285  11.712  68.135  1.00  0.00    -0.537 OA 
BRANCH   7   9
HETATM    9  O   UNL     1     -10.425  13.049  67.891  1.00  0.00    -0.219 OA 
BRANCH   9  10
HETATM   10  C   UNL     1     -11.035  14.263  67.426  1.00  0.00    -0.295 C  
BRANCH  10  11
HETATM   11  C   UNL     1      -9.902  15.103  66.847  1.00  0.00    -0.237 C  
BRANCH  11  12
HETATM   12  N   UNL     1     -10.149  16.524  66.842  1.00  0.00    -0.273 N  
HETATM   13  C   UNL     1     -10.505  17.229  65.731  1.00  0.00    -0.229 C  
HETATM   14  O   UNL     1     -10.802  16.773  64.640  1.00  0.00    -0.835 OA 
HETATM   15  C   UNL     1     -10.424  18.690  66.060  1.00  0.00    -0.456 C  
HETATM   16  C   UNL     1     -10.384  18.719  67.577  1.00  0.00    -0.471 C  
HETATM   17  C   UNL     1     -10.091  17.301  67.960  1.00  0.00    -0.324 C  
HETATM   18  O   UNL     1      -9.886  16.915  69.102  1.00  0.00    -0.256 OA 
ENDBRANCH  11  12
ENDBRANCH  10  11
ENDBRANCH   9  10
ENDBRANCH   7   9
ENDBRANCH   6   7
ENDBRANCH   3   5
ENDBRANCH   2   3
TORSDOF 7
ENDMDL
MODEL      169
REMARK 921   NORMALIZED FREE ENERGY PREDICTED BY IDOCK:   -3.90 KCAL/MOL
REMARK 922        TOTAL FREE ENERGY PREDICTED BY IDOCK:   -5.94 KCAL/MOL
REMARK 923 INTER-LIGAND FREE ENERGY PREDICTED BY IDOCK:   -5.61 KCAL/MOL
REMARK 924 INTRA-LIGAND FREE ENERGY PREDICTED BY IDOCK:   -0.32 KCAL/MOL
REMARK 927      BINDING AFFINITY PREDICTED BY RF-SCORE:    0.00 PKD
ROOT
HETATM    1  C   UNL     1      -7.913   7.041  65.697  1.00  0.00    -0.123 C  
HETATM    2  O   UNL     1      -8.275   8.225  66.407  1.00  0.00    -0.102 OA 
ENDROOT
BRANCH   2   3
HETATM    3  C   UNL     1      -9.516   8.677  66.109  1.00  0.00    -0.240 C  
HETATM    4  O   UNL     1     -10.575   8.214  66.500  1.00  0.00    -0.190 OA 
BRANCH   3   5
HETATM    5  C   UNL     1      -9.384   9.827  65.201  1.00  0.00    -0.322 C  
HETATM    6  C   UNL     1     -10.348  10.754  65.212  1.00  0.00    -0.327 C  
BRANCH   6   7
HETATM    7  C   UNL     1     -10.339  11.841  64.220  1.00  0.00    -0.314 C  
HETATM    8  O   UNL     1      -9.890  11.760  63.092  1.00  0.00    -0.409 OA 
BRANCH   7   9
HETATM    9  O   UNL     1     -11.068  12.856  64.740  1.00  0.00    -0.289 OA 
BRANCH   9  10
HETATM   10  C   UNL     1     -10.346  13.724  65.628  1.00  0.00    -0.311 C  
BRANCH  10  11
HETATM   11  C   UNL     1     -11.403  14.539  66.364  1.00  0.00    -0.349 C  
BRANCH  11  12
HETATM   12  N   UNL     1     -10.991  15.874  66.723  1.00  0.00    -0.219 N  
HETATM   13  C   UNL     1     -10.782  16.873  65.820  1.00  0.00    -0.160 C  
HETATM   14  O   UNL     1     -11.038  16.846  64.628  1.00  0.00    -0.934 OA 
HETATM   15  C   UNL     1     -10.127  18.018  66.535  1.00  0.00    -0.379 C  
HETATM   16  C   UNL     1     -10.366  17.714  68.003  1.00  0.00    -0.375 C  
HETATM   17  C   UNL     1     -10.808  16.282  68.011  1.00  0.00    -0.339 C  
HETATM   18  O   UNL     1     -11.014  15.622  69.018  1.00  0.00    -0.233 OA 
ENDBRANCH  11  12
ENDBRANCH  10  11
ENDBRANCH   9  10
ENDBRANCH   7   9
ENDBRANCH   6   7
ENDBRANCH   3   5
ENDBRANCH   2   3
TORSDOF 7
ENDMDL
MODEL      170
REMARK 921   NORMALIZED FREE ENERGY PREDICTED BY IDOCK:   -3.89 KCAL/MOL
REMARK 922        TOTAL FREE ENERGY PREDICTED BY IDOCK:   -5.92 KCAL/MOL
REMARK 923 INTER-LIGAND FREE ENERGY PREDICTED BY IDOCK:   -5.50 KCAL/MOL
REMARK 924 INTRA-LIGAND FREE ENERGY PREDICTED BY IDOCK:   -0.43 KCAL/MOL
REMARK 927      BINDING AFFINITY PREDICTED BY RF-SCORE:    0.00 PKD
ROOT
HETATM    1  C   UNL     1     -11.239  11.277  69.446  1.00  0.00    -0.280 C  
HETATM    2  O   UNL     1     -12.526  10.848  69.889  1.00  0.00    -0.319 OA 
ENDROOT
BRANCH   2   3
HETATM    3  C   UNL     1     -12.624  10.730  71.234  1.00  0.00    -0.426 C  
HETATM    4  O   UNL     1     -13.351  11.375  71.973  1.00  0.00    -0.467 OA 
BRANCH   3   5
HETATM    5  C   UNL     1     -11.679   9.694  71.678  1.00  0.00    -0.439 C  
HETATM    6  C   UNL     1     -12.177   8.542  72.143  1.00  0.00    -0.446 C  
BRANCH   6   7
HETATM    7  C   UNL     1     -11.282   7.537  72.738  1.00  0.00    -0.352 C  
HETATM    8  O   UNL     1     -10.725   7.641  73.815  1.00  0.00    -0.275 OA 
BRANCH   7   9
HETATM    9  O   UNL     1     -11.345   6.437  71.951  1.00  0.00    -0.263 OA 
BRANCH   9  10
HETATM   10  C   UNL     1     -11.939   6.652  70.661  1.00  0.00    -0.343 C  
BRANCH  10  11
HETATM   11  C   UNL     1     -10.985   6.020  69.653  1.00  0.00    -0.400 C  
BRANCH  11  12
HETATM   12  N   UNL     1     -10.309   6.960  68.794  1.00  0.00    -0.181 N  
HETATM   13  C   UNL     1      -9.361   7.840  69.227  1.00  0.00    -0.148 C  
HETATM   14  O   UNL     1      -8.848   7.875  70.332  1.00  0.00    -0.139 OA 
HETATM   15  C   UNL     1      -9.081   8.807  68.116  1.00  0.00    -0.142 C  
HETATM   16  C   UNL     1      -9.666   8.132  66.889  1.00  0.00    -0.291 C  
HETATM   17  C   UNL     1     -10.521   7.037  67.450  1.00  0.00    -0.273 C  
HETATM   18  O   UNL     1     -11.245   6.309  66.787  1.00  0.00    -0.310 OA 
ENDBRANCH  11  12
ENDBRANCH  10  11
ENDBRANCH   9  10
ENDBRANCH   7   9
ENDBRANCH   6   7
ENDBRANCH   3   5
ENDBRANCH   2   3
TORSDOF 7
ENDMDL
MODEL      171
REMARK 921   NORMALIZED FREE ENERGY PREDICTED BY IDOCK:   -3.89 KCAL/MOL
REMARK 922        TOTAL FREE ENERGY PREDICTED BY IDOCK:   -5.92 KCAL/MOL
REMARK 923 INTER-LIGAND FREE ENERGY PREDICTED BY IDOCK:   -5.44 KCAL/MOL
REMARK 924 INTRA-LIGAND FREE ENERGY PREDICTED BY IDOCK:   -0.48 KCAL/MOL
REMARK 927      BINDING AFFINITY PREDICTED BY RF-SCORE:    0.00 PKD
ROOT
HETATM    1  C   UNL     1      -8.125   6.052  65.360  1.00  0.00    -0.132 C  
HETATM    2  O   UNL     1      -8.610   4.773  65.766  1.00  0.00    -0.119 OA 
ENDROOT
BRANCH   2   3
HETATM    3  C   UNL     1      -9.939   4.753  66.021  1.00  0.00    -0.237 C  
HETATM    4  O   UNL     1     -10.834   4.533  65.220  1.00  0.00    -0.254 OA 
BRANCH   3   5
HETATM    5  C   UNL     1     -10.142   5.067  67.444  1.00  0.00    -0.213 C  
HETATM    6  C   UNL     1     -10.931   6.102  67.757  1.00  0.00    -0.400 C  
BRANCH   6   7
HETATM    7  C   UNL     1     -11.044   6.548  69.154  1.00  0.00    -0.326 C  
HETATM    8  O   UNL     1     -11.364   5.844  70.094  1.00  0.00    -0.338 OA 
BRANCH   7   9
HETATM    9  O   UNL     1     -10.564   7.813  69.204  1.00  0.00    -0.222 OA 
BRANCH   9  10
HETATM   10  C   UNL     1      -9.376   7.976  69.994  1.00  0.00    -0.156 C  
BRANCH  10  11
HETATM   11  C   UNL     1      -9.615   9.211  70.856  1.00  0.00    -0.279 C  
BRANCH  11  12
HETATM   12  N   UNL     1     -10.976   9.375  71.306  1.00  0.00    -0.345 N  
HETATM   13  C   UNL     1     -11.555   8.604  72.271  1.00  0.00    -0.354 C  
HETATM   14  O   UNL     1     -10.999   7.783  72.981  1.00  0.00    -0.386 OA 
HETATM   15  C   UNL     1     -13.024   8.900  72.284  1.00  0.00    -0.479 C  
HETATM   16  C   UNL     1     -13.140  10.204  71.514  1.00  0.00    -0.529 C  
HETATM   17  C   UNL     1     -11.810  10.347  70.840  1.00  0.00    -0.377 C  
HETATM   18  O   UNL     1     -11.523  11.228  70.044  1.00  0.00    -0.293 OA 
ENDBRANCH  11  12
ENDBRANCH  10  11
ENDBRANCH   9  10
ENDBRANCH   7   9
ENDBRANCH   6   7
ENDBRANCH   3   5
ENDBRANCH   2   3
TORSDOF 7
ENDMDL
MODEL      172
REMARK 921   NORMALIZED FREE ENERGY PREDICTED BY IDOCK:   -3.88 KCAL/MOL
REMARK 922        TOTAL FREE ENERGY PREDICTED BY IDOCK:   -5.90 KCAL/MOL
REMARK 923 INTER-LIGAND FREE ENERGY PREDICTED BY IDOCK:   -5.31 KCAL/MOL
REMARK 924 INTRA-LIGAND FREE ENERGY PREDICTED BY IDOCK:   -0.59 KCAL/MOL
REMARK 927      BINDING AFFINITY PREDICTED BY RF-SCORE:    0.00 PKD
ROOT
HETATM    1  C   UNL     1      -9.510   4.248  65.619  1.00  0.00    -0.176 C  
HETATM    2  O   UNL     1     -10.315   4.650  66.727  1.00  0.00    -0.217 OA 
ENDROOT
BRANCH   2   3
HETATM    3  C   UNL     1     -10.179   5.958  67.048  1.00  0.00    -0.209 C  
HETATM    4  O   UNL     1      -9.542   6.799  66.433  1.00  0.00    -0.163 OA 
BRANCH   3   5
HETATM    5  C   UNL     1     -10.919   6.208  68.295  1.00  0.00    -0.397 C  
HETATM    6  C   UNL     1     -10.335   5.881  69.453  1.00  0.00    -0.313 C  
BRANCH   6   7
HETATM    7  C   UNL     1     -11.090   5.970  70.712  1.00  0.00    -0.286 C  
HETATM    8  O   UNL     1     -10.808   5.390  71.745  1.00  0.00    -0.231 OA 
BRANCH   7   9
HETATM    9  O   UNL     1     -12.025   6.934  70.544  1.00  0.00    -0.355 OA 
BRANCH   9  10
HETATM   10  C   UNL     1     -12.334   7.688  71.727  1.00  0.00    -0.319 C  
BRANCH  10  11
HETATM   11  C   UNL     1     -11.233   8.736  71.851  1.00  0.00    -0.368 C  
BRANCH  11  12
HETATM   12  N   UNL     1     -11.367   9.858  70.954  1.00  0.00    -0.344 N  
HETATM   13  C   UNL     1     -10.583  10.050  69.856  1.00  0.00    -0.282 C  
HETATM   14  O   UNL     1      -9.773   9.266  69.390  1.00  0.00    -0.163 OA 
HETATM   15  C   UNL     1     -10.847  11.429  69.330  1.00  0.00    -0.242 C  
HETATM   16  C   UNL     1     -12.149  11.830  70.000  1.00  0.00    -0.387 C  
HETATM   17  C   UNL     1     -12.322  10.820  71.093  1.00  0.00    -0.393 C  
HETATM   18  O   UNL     1     -13.211  10.846  71.931  1.00  0.00    -0.467 OA 
ENDBRANCH  11  12
ENDBRANCH  10  11
ENDBRANCH   9  10
ENDBRANCH   7   9
ENDBRANCH   6   7
ENDBRANCH   3   5
ENDBRANCH   2   3
TORSDOF 7
ENDMDL
MODEL      173
REMARK 921   NORMALIZED FREE ENERGY PREDICTED BY IDOCK:   -3.87 KCAL/MOL
REMARK 922        TOTAL FREE ENERGY PREDICTED BY IDOCK:   -5.89 KCAL/MOL
REMARK 923 INTER-LIGAND FREE ENERGY PREDICTED BY IDOCK:   -5.44 KCAL/MOL
REMARK 924 INTRA-LIGAND FREE ENERGY PREDICTED BY IDOCK:   -0.45 KCAL/MOL
REMARK 927      BINDING AFFINITY PREDICTED BY RF-SCORE:    0.00 PKD
ROOT
HETATM    1  C   UNL     1     -12.125  13.966  66.160  1.00  0.00    -0.448 C  
HETATM    2  O   UNL     1     -12.402  12.926  67.098  1.00  0.00    -0.339 OA 
ENDROOT
BRANCH   2   3
HETATM    3  C   UNL     1     -11.413  12.007  67.196  1.00  0.00    -0.335 C  
HETATM    4  O   UNL     1     -10.434  11.907  66.472  1.00  0.00    -0.212 OA 
BRANCH   3   5
HETATM    5  C   UNL     1     -11.720  11.115  68.324  1.00  0.00    -0.323 C  
HETATM    6  C   UNL     1     -11.825  11.651  69.544  1.00  0.00    -0.414 C  
BRANCH   6   7
HETATM    7  C   UNL     1     -11.980  10.784  70.723  1.00  0.00    -0.362 C  
HETATM    8  O   UNL     1     -12.672  11.031  71.693  1.00  0.00    -0.402 OA 
BRANCH   7   9
HETATM    9  O   UNL     1     -11.359   9.615  70.437  1.00  0.00    -0.251 OA 
BRANCH   9  10
HETATM   10  C   UNL     1     -10.401   9.186  71.417  1.00  0.00    -0.338 C  
BRANCH  10  11
HETATM   11  C   UNL     1      -9.547   8.128  70.728  1.00  0.00    -0.166 C  
BRANCH  11  12
HETATM   12  N   UNL     1      -9.938   7.827  69.373  1.00  0.00    -0.184 N  
HETATM   13  C   UNL     1     -10.855   6.875  69.040  1.00  0.00    -0.212 C  
HETATM   14  O   UNL     1     -11.570   6.250  69.806  1.00  0.00    -0.436 OA 
HETATM   15  C   UNL     1     -10.808   6.681  67.554  1.00  0.00    -0.417 C  
HETATM   16  C   UNL     1     -10.067   7.907  67.051  1.00  0.00    -0.347 C  
HETATM   17  C   UNL     1      -9.459   8.497  68.287  1.00  0.00    -0.134 C  
HETATM   18  O   UNL     1      -8.699   9.453  68.301  1.00  0.00    -0.124 OA 
ENDBRANCH  11  12
ENDBRANCH  10  11
ENDBRANCH   9  10
ENDBRANCH   7   9
ENDBRANCH   6   7
ENDBRANCH   3   5
ENDBRANCH   2   3
TORSDOF 7
ENDMDL
MODEL      174
REMARK 921   NORMALIZED FREE ENERGY PREDICTED BY IDOCK:   -3.86 KCAL/MOL
REMARK 922        TOTAL FREE ENERGY PREDICTED BY IDOCK:   -5.88 KCAL/MOL
REMARK 923 INTER-LIGAND FREE ENERGY PREDICTED BY IDOCK:   -5.40 KCAL/MOL
REMARK 924 INTRA-LIGAND FREE ENERGY PREDICTED BY IDOCK:   -0.48 KCAL/MOL
REMARK 927      BINDING AFFINITY PREDICTED BY RF-SCORE:    0.00 PKD
ROOT
HETATM    1  C   UNL     1      -9.757   7.134  68.265  1.00  0.00    -0.144 C  
HETATM    2  O   UNL     1     -10.091   8.420  68.786  1.00  0.00    -0.186 OA 
ENDROOT
BRANCH   2   3
HETATM    3  C   UNL     1     -10.473   8.396  70.084  1.00  0.00    -0.228 C  
HETATM    4  O   UNL     1     -10.562   7.412  70.801  1.00  0.00    -0.219 OA 
BRANCH   3   5
HETATM    5  C   UNL     1     -10.792   9.771  70.498  1.00  0.00    -0.387 C  
HETATM    6  C   UNL     1     -11.618  10.488  69.729  1.00  0.00    -0.368 C  
BRANCH   6   7
HETATM    7  C   UNL     1     -11.848  11.912  70.017  1.00  0.00    -0.328 C  
HETATM    8  O   UNL     1     -12.296  12.356  71.058  1.00  0.00    -0.349 OA 
BRANCH   7   9
HETATM    9  O   UNL     1     -11.311  12.614  68.992  1.00  0.00    -0.261 OA 
BRANCH   9  10
HETATM   10  C   UNL     1     -10.975  13.975  69.304  1.00  0.00    -0.206 C  
BRANCH  10  11
HETATM   11  C   UNL     1     -11.906  14.837  68.458  1.00  0.00    -0.306 C  
BRANCH  11  12
HETATM   12  N   UNL     1     -11.381  15.198  67.164  1.00  0.00    -0.323 N  
HETATM   13  C   UNL     1     -11.537  14.439  66.042  1.00  0.00    -0.363 C  
HETATM   14  O   UNL     1     -12.238  13.449  65.922  1.00  0.00    -0.416 OA 
HETATM   15  C   UNL     1     -10.652  15.002  64.971  1.00  0.00    -0.437 C  
HETATM   16  C   UNL     1     -10.299  16.388  65.483  1.00  0.00    -0.336 C  
HETATM   17  C   UNL     1     -10.709  16.359  66.923  1.00  0.00    -0.202 C  
HETATM   18  O   UNL     1     -10.508  17.260  67.723  1.00  0.00    -0.344 OA 
ENDBRANCH  11  12
ENDBRANCH  10  11
ENDBRANCH   9  10
ENDBRANCH   7   9
ENDBRANCH   6   7
ENDBRANCH   3   5
ENDBRANCH   2   3
TORSDOF 7
ENDMDL
MODEL      175
REMARK 921   NORMALIZED FREE ENERGY PREDICTED BY IDOCK:   -3.85 KCAL/MOL
REMARK 922        TOTAL FREE ENERGY PREDICTED BY IDOCK:   -5.87 KCAL/MOL
REMARK 923 INTER-LIGAND FREE ENERGY PREDICTED BY IDOCK:   -5.58 KCAL/MOL
REMARK 924 INTRA-LIGAND FREE ENERGY PREDICTED BY IDOCK:   -0.28 KCAL/MOL
REMARK 927      BINDING AFFINITY PREDICTED BY RF-SCORE:    0.00 PKD
ROOT
HETATM    1  C   UNL     1     -11.375  15.570  71.103  1.00  0.00    -0.390 C  
HETATM    2  O   UNL     1     -12.311  15.562  72.180  1.00  0.00    -0.326 OA 
ENDROOT
BRANCH   2   3
HETATM    3  C   UNL     1     -13.166  14.513  72.147  1.00  0.00    -0.369 C  
HETATM    4  O   UNL     1     -14.279  14.461  72.646  1.00  0.00    -0.531 OA 
BRANCH   3   5
HETATM    5  C   UNL     1     -12.519  13.411  71.418  1.00  0.00    -0.317 C  
HETATM    6  C   UNL     1     -13.072  12.196  71.488  1.00  0.00    -0.357 C  
BRANCH   6   7
HETATM    7  C   UNL     1     -12.382  11.035  70.903  1.00  0.00    -0.402 C  
HETATM    8  O   UNL     1     -11.858  11.008  69.804  1.00  0.00    -0.286 OA 
BRANCH   7   9
HETATM    9  O   UNL     1     -12.297  10.096  71.874  1.00  0.00    -0.362 OA 
BRANCH   9  10
HETATM   10  C   UNL     1     -11.243   9.137  71.695  1.00  0.00    -0.377 C  
BRANCH  10  11
HETATM   11  C   UNL     1     -11.507   8.034  72.714  1.00  0.00    -0.356 C  
BRANCH  11  12
HETATM   12  N   UNL     1     -10.663   6.873  72.575  1.00  0.00    -0.221 N  
HETATM   13  C   UNL     1     -10.831   5.922  71.613  1.00  0.00    -0.263 C  
HETATM   14  O   UNL     1     -11.597   5.969  70.665  1.00  0.00    -0.261 OA 
HETATM   15  C   UNL     1      -9.939   4.763  71.942  1.00  0.00    -0.252 C  
HETATM   16  C   UNL     1      -8.960   5.332  72.953  1.00  0.00    -0.120 C  
HETATM   17  C   UNL     1      -9.583   6.629  73.371  1.00  0.00    -0.163 C  
HETATM   18  O   UNL     1      -9.150   7.359  74.249  1.00  0.00    -0.231 OA 
ENDBRANCH  11  12
ENDBRANCH  10  11
ENDBRANCH   9  10
ENDBRANCH   7   9
ENDBRANCH   6   7
ENDBRANCH   3   5
ENDBRANCH   2   3
TORSDOF 7
ENDMDL
MODEL      176
REMARK 921   NORMALIZED FREE ENERGY PREDICTED BY IDOCK:   -3.82 KCAL/MOL
REMARK 922        TOTAL FREE ENERGY PREDICTED BY IDOCK:   -5.83 KCAL/MOL
REMARK 923 INTER-LIGAND FREE ENERGY PREDICTED BY IDOCK:   -5.32 KCAL/MOL
REMARK 924 INTRA-LIGAND FREE ENERGY PREDICTED BY IDOCK:   -0.50 KCAL/MOL
REMARK 927      BINDING AFFINITY PREDICTED BY RF-SCORE:    0.00 PKD
ROOT
HETATM    1  C   UNL     1      -9.147  10.925  62.707  1.00  0.00    -0.331 C  
HETATM    2  O   UNL     1     -10.378  11.140  63.396  1.00  0.00    -0.359 OA 
ENDROOT
BRANCH   2   3
HETATM    3  C   UNL     1     -10.358  10.721  64.683  1.00  0.00    -0.324 C  
HETATM    4  O   UNL     1      -9.763   9.751  65.127  1.00  0.00    -0.294 OA 
BRANCH   3   5
HETATM    5  C   UNL     1     -11.203  11.626  65.478  1.00  0.00    -0.267 C  
HETATM    6  C   UNL     1     -11.103  12.941  65.257  1.00  0.00    -0.313 C  
BRANCH   6   7
HETATM    7  C   UNL     1     -11.812  13.892  66.127  1.00  0.00    -0.400 C  
HETATM    8  O   UNL     1     -12.479  13.594  67.100  1.00  0.00    -0.263 OA 
BRANCH   7   9
HETATM    9  O   UNL     1     -11.437  15.135  65.741  1.00  0.00    -0.292 OA 
BRANCH   9  10
HETATM   10  C   UNL     1     -10.129  15.214  65.153  1.00  0.00    -0.296 C  
BRANCH  10  11
HETATM   11  C   UNL     1      -9.354  16.218  65.999  1.00  0.00    -0.326 C  
BRANCH  11  12
HETATM   12  N   UNL     1      -9.681  16.202  67.403  1.00  0.00    -0.231 N  
HETATM   13  C   UNL     1      -9.270  15.231  68.268  1.00  0.00    -0.189 C  
HETATM   14  O   UNL     1      -8.474  14.337  68.037  1.00  0.00    -0.147 OA 
HETATM   15  C   UNL     1     -10.008  15.415  69.560  1.00  0.00    -0.266 C  
HETATM   16  C   UNL     1     -10.564  16.824  69.464  1.00  0.00    -0.283 C  
HETATM   17  C   UNL     1     -10.404  17.180  68.018  1.00  0.00    -0.353 C  
HETATM   18  O   UNL     1     -10.817  18.209  67.503  1.00  0.00    -0.389 OA 
ENDBRANCH  11  12
ENDBRANCH  10  11
ENDBRANCH   9  10
ENDBRANCH   7   9
ENDBRANCH   6   7
ENDBRANCH   3   5
ENDBRANCH   2   3
TORSDOF 7
ENDMDL
MODEL      177
REMARK 921   NORMALIZED FREE ENERGY PREDICTED BY IDOCK:   -3.82 KCAL/MOL
REMARK 922        TOTAL FREE ENERGY PREDICTED BY IDOCK:   -5.82 KCAL/MOL
REMARK 923 INTER-LIGAND FREE ENERGY PREDICTED BY IDOCK:   -5.13 KCAL/MOL
REMARK 924 INTRA-LIGAND FREE ENERGY PREDICTED BY IDOCK:   -0.68 KCAL/MOL
REMARK 927      BINDING AFFINITY PREDICTED BY RF-SCORE:    0.00 PKD
ROOT
HETATM    1  C   UNL     1      -7.800   8.246  71.678  1.00  0.00    -0.114 C  
HETATM    2  O   UNL     1      -8.794   9.265  71.570  1.00  0.00    -0.317 OA 
ENDROOT
BRANCH   2   3
HETATM    3  C   UNL     1     -10.059   8.786  71.526  1.00  0.00    -0.301 C  
HETATM    4  O   UNL     1     -10.485   7.794  72.098  1.00  0.00    -0.208 OA 
BRANCH   3   5
HETATM    5  C   UNL     1     -10.854   9.655  70.644  1.00  0.00    -0.386 C  
HETATM    6  C   UNL     1     -10.461   9.794  69.373  1.00  0.00    -0.241 C  
BRANCH   6   7
HETATM    7  C   UNL     1     -11.131  10.767  68.495  1.00  0.00    -0.262 C  
HETATM    8  O   UNL     1     -12.283  11.141  68.610  1.00  0.00    -0.582 OA 
BRANCH   7   9
HETATM    9  O   UNL     1     -10.183  11.274  67.673  1.00  0.00    -0.176 OA 
BRANCH   9  10
HETATM   10  C   UNL     1      -9.236  12.146  68.310  1.00  0.00    -0.192 C  
BRANCH  10  11
HETATM   11  C   UNL     1      -9.394  13.501  67.628  1.00  0.00    -0.216 C  
BRANCH  11  12
HETATM   12  N   UNL     1     -10.193  14.452  68.361  1.00  0.00    -0.236 N  
HETATM   13  C   UNL     1      -9.687  15.312  69.291  1.00  0.00    -0.254 C  
HETATM   14  O   UNL     1      -8.510  15.509  69.540  1.00  0.00    -0.256 OA 
HETATM   15  C   UNL     1     -10.838  15.953  70.008  1.00  0.00    -0.356 C  
HETATM   16  C   UNL     1     -12.028  15.671  69.109  1.00  0.00    -0.329 C  
HETATM   17  C   UNL     1     -11.532  14.617  68.167  1.00  0.00    -0.323 C  
HETATM   18  O   UNL     1     -12.220  14.045  67.335  1.00  0.00    -0.384 OA 
ENDBRANCH  11  12
ENDBRANCH  10  11
ENDBRANCH   9  10
ENDBRANCH   7   9
ENDBRANCH   6   7
ENDBRANCH   3   5
ENDBRANCH   2   3
TORSDOF 7
ENDMDL
MODEL      178
REMARK 921   NORMALIZED FREE ENERGY PREDICTED BY IDOCK:   -3.81 KCAL/MOL
REMARK 922        TOTAL FREE ENERGY PREDICTED BY IDOCK:   -5.81 KCAL/MOL
REMARK 923 INTER-LIGAND FREE ENERGY PREDICTED BY IDOCK:   -5.26 KCAL/MOL
REMARK 924 INTRA-LIGAND FREE ENERGY PREDICTED BY IDOCK:   -0.55 KCAL/MOL
REMARK 927      BINDING AFFINITY PREDICTED BY RF-SCORE:    0.00 PKD
ROOT
HETATM    1  C   UNL     1      -6.368  11.161  66.799  1.00  0.00    -0.125 C  
HETATM    2  O   UNL     1      -7.563  10.455  67.135  1.00  0.00    -0.094 OA 
ENDROOT
BRANCH   2   3
HETATM    3  C   UNL     1      -8.250  10.009  66.057  1.00  0.00    -0.126 C  
HETATM    4  O   UNL     1      -7.779   9.531  65.037  1.00  0.00    -0.106 OA 
BRANCH   3   5
HETATM    5  C   UNL     1      -9.685  10.218  66.304  1.00  0.00    -0.263 C  
HETATM    6  C   UNL     1     -10.176  11.455  66.175  1.00  0.00    -0.282 C  
BRANCH   6   7
HETATM    7  C   UNL     1     -11.567  11.742  66.557  1.00  0.00    -0.181 C  
HETATM    8  O   UNL     1     -12.341  12.438  65.926  1.00  0.00    -0.638 OA 
BRANCH   7   9
HETATM    9  O   UNL     1     -11.854  10.956  67.622  1.00  0.00    -0.572 OA 
BRANCH   9  10
HETATM   10  C   UNL     1     -11.998  11.658  68.867  1.00  0.00    -0.292 C  
BRANCH  10  11
HETATM   11  C   UNL     1     -11.005  11.011  69.826  1.00  0.00    -0.193 C  
BRANCH  11  12
HETATM   12  N   UNL     1     -11.516   9.866  70.538  1.00  0.00    -0.295 N  
HETATM   13  C   UNL     1     -12.437   9.942  71.540  1.00  0.00    -0.411 C  
HETATM   14  O   UNL     1     -13.061  10.932  71.884  1.00  0.00    -0.482 OA 
HETATM   15  C   UNL     1     -12.526   8.597  72.196  1.00  0.00    -0.453 C  
HETATM   16  C   UNL     1     -11.865   7.662  71.200  1.00  0.00    -0.314 C  
HETATM   17  C   UNL     1     -11.157   8.582  70.253  1.00  0.00    -0.214 C  
HETATM   18  O   UNL     1     -10.421   8.219  69.347  1.00  0.00    -0.220 OA 
ENDBRANCH  11  12
ENDBRANCH  10  11
ENDBRANCH   9  10
ENDBRANCH   7   9
ENDBRANCH   6   7
ENDBRANCH   3   5
ENDBRANCH   2   3
TORSDOF 7
ENDMDL
MODEL      179
REMARK 921   NORMALIZED FREE ENERGY PREDICTED BY IDOCK:   -3.81 KCAL/MOL
REMARK 922        TOTAL FREE ENERGY PREDICTED BY IDOCK:   -5.81 KCAL/MOL
REMARK 923 INTER-LIGAND FREE ENERGY PREDICTED BY IDOCK:   -5.28 KCAL/MOL
REMARK 924 INTRA-LIGAND FREE ENERGY PREDICTED BY IDOCK:   -0.53 KCAL/MOL
REMARK 927      BINDING AFFINITY PREDICTED BY RF-SCORE:    0.00 PKD
ROOT
HETATM    1  C   UNL     1     -10.765   5.704  66.769  1.00  0.00    -0.284 C  
HETATM    2  O   UNL     1     -11.186   6.700  67.701  1.00  0.00    -0.296 OA 
ENDROOT
BRANCH   2   3
HETATM    3  C   UNL     1     -10.787   6.456  68.971  1.00  0.00    -0.327 C  
HETATM    4  O   UNL     1     -10.980   5.437  69.615  1.00  0.00    -0.232 OA 
BRANCH   3   5
HETATM    5  C   UNL     1     -10.084   7.647  69.473  1.00  0.00    -0.192 C  
HETATM    6  C   UNL     1     -10.198   8.786  68.781  1.00  0.00    -0.224 C  
BRANCH   6   7
HETATM    7  C   UNL     1      -9.397   9.962  69.156  1.00  0.00    -0.193 C  
HETATM    8  O   UNL     1      -8.599  10.006  70.074  1.00  0.00    -0.190 OA 
BRANCH   7   9
HETATM    9  O   UNL     1      -9.591  10.895  68.194  1.00  0.00    -0.155 OA 
BRANCH   9  10
HETATM   10  C   UNL     1      -9.322  10.446  66.856  1.00  0.00    -0.162 C  
BRANCH  10  11
HETATM   11  C   UNL     1      -9.188  11.710  66.013  1.00  0.00    -0.208 C  
BRANCH  11  12
HETATM   12  N   UNL     1     -10.363  12.051  65.250  1.00  0.00    -0.265 N  
HETATM   13  C   UNL     1     -11.461  12.662  65.779  1.00  0.00    -0.358 C  
HETATM   14  O   UNL     1     -11.567  13.132  66.899  1.00  0.00    -0.330 OA 
HETATM   15  C   UNL     1     -12.556  12.620  64.755  1.00  0.00    -0.530 C  
HETATM   16  C   UNL     1     -11.832  12.290  63.462  1.00  0.00    -0.601 C  
HETATM   17  C   UNL     1     -10.478  11.831  63.910  1.00  0.00    -0.390 C  
HETATM   18  O   UNL     1      -9.614  11.383  63.171  1.00  0.00    -0.339 OA 
ENDBRANCH  11  12
ENDBRANCH  10  11
ENDBRANCH   9  10
ENDBRANCH   7   9
ENDBRANCH   6   7
ENDBRANCH   3   5
ENDBRANCH   2   3
TORSDOF 7
ENDMDL
MODEL      180
REMARK 921   NORMALIZED FREE ENERGY PREDICTED BY IDOCK:   -3.80 KCAL/MOL
REMARK 922        TOTAL FREE ENERGY PREDICTED BY IDOCK:   -5.80 KCAL/MOL
REMARK 923 INTER-LIGAND FREE ENERGY PREDICTED BY IDOCK:   -5.19 KCAL/MOL
REMARK 924 INTRA-LIGAND FREE ENERGY PREDICTED BY IDOCK:   -0.61 KCAL/MOL
REMARK 927      BINDING AFFINITY PREDICTED BY RF-SCORE:    0.00 PKD
ROOT
HETATM    1  C   UNL     1      -8.990   3.387  66.607  1.00  0.00    -0.152 C  
HETATM    2  O   UNL     1      -9.904   3.982  67.528  1.00  0.00    -0.163 OA 
ENDROOT
BRANCH   2   3
HETATM    3  C   UNL     1     -10.052   5.316  67.358  1.00  0.00    -0.187 C  
HETATM    4  O   UNL     1      -9.776   5.961  66.359  1.00  0.00    -0.157 OA 
BRANCH   3   5
HETATM    5  C   UNL     1     -10.591   5.885  68.604  1.00  0.00    -0.323 C  
HETATM    6  C   UNL     1     -10.325   5.255  69.753  1.00  0.00    -0.369 C  
BRANCH   6   7
HETATM    7  C   UNL     1     -10.964   5.696  71.003  1.00  0.00    -0.177 C  
HETATM    8  O   UNL     1     -10.662   5.317  72.119  1.00  0.00    -0.219 OA 
BRANCH   7   9
HETATM    9  O   UNL     1     -11.805   6.707  70.680  1.00  0.00    -0.382 OA 
BRANCH   9  10
HETATM   10  C   UNL     1     -12.378   7.396  71.803  1.00  0.00    -0.333 C  
BRANCH  10  11
HETATM   11  C   UNL     1     -11.434   8.554  72.105  1.00  0.00    -0.376 C  
BRANCH  11  12
HETATM   12  N   UNL     1     -11.423   9.597  71.109  1.00  0.00    -0.353 N  
HETATM   13  C   UNL     1     -12.320  10.623  71.073  1.00  0.00    -0.403 C  
HETATM   14  O   UNL     1     -13.151  10.897  71.922  1.00  0.00    -0.482 OA 
HETATM   15  C   UNL     1     -12.148  11.346  69.770  1.00  0.00    -0.388 C  
HETATM   16  C   UNL     1     -10.797  10.873  69.267  1.00  0.00    -0.286 C  
HETATM   17  C   UNL     1     -10.486   9.684  70.123  1.00  0.00    -0.273 C  
HETATM   18  O   UNL     1      -9.518   8.953  69.975  1.00  0.00    -0.165 OA 
ENDBRANCH  11  12
ENDBRANCH  10  11
ENDBRANCH   9  10
ENDBRANCH   7   9
ENDBRANCH   6   7
ENDBRANCH   3   5
ENDBRANCH   2   3
TORSDOF 7
ENDMDL
MODEL      181
REMARK 921   NORMALIZED FREE ENERGY PREDICTED BY IDOCK:   -3.80 KCAL/MOL
REMARK 922        TOTAL FREE ENERGY PREDICTED BY IDOCK:   -5.80 KCAL/MOL
REMARK 923 INTER-LIGAND FREE ENERGY PREDICTED BY IDOCK:   -5.44 KCAL/MOL
REMARK 924 INTRA-LIGAND FREE ENERGY PREDICTED BY IDOCK:   -0.35 KCAL/MOL
REMARK 927      BINDING AFFINITY PREDICTED BY RF-SCORE:    0.00 PKD
ROOT
HETATM    1  C   UNL     1     -12.451   7.072  71.790  1.00  0.00    -0.356 C  
HETATM    2  O   UNL     1     -12.365   8.485  71.608  1.00  0.00    -0.298 OA 
ENDROOT
BRANCH   2   3
HETATM    3  C   UNL     1     -13.422   9.161  72.117  1.00  0.00    -0.469 C  
HETATM    4  O   UNL     1     -14.372   8.687  72.719  1.00  0.00    -0.520 OA 
BRANCH   3   5
HETATM    5  C   UNL     1     -13.252  10.589  71.803  1.00  0.00    -0.522 C  
HETATM    6  C   UNL     1     -12.678  10.917  70.640  1.00  0.00    -0.396 C  
BRANCH   6   7
HETATM    7  C   UNL     1     -12.349  12.321  70.348  1.00  0.00    -0.228 C  
HETATM    8  O   UNL     1     -12.588  13.266  71.078  1.00  0.00    -0.356 OA 
BRANCH   7   9
HETATM    9  O   UNL     1     -11.595  12.324  69.224  1.00  0.00    -0.284 OA 
BRANCH   9  10
HETATM   10  C   UNL     1     -11.132  13.620  68.813  1.00  0.00    -0.270 C  
BRANCH  10  11
HETATM   11  C   UNL     1     -10.320  13.387  67.543  1.00  0.00    -0.226 C  
BRANCH  11  12
HETATM   12  N   UNL     1      -9.190  14.269  67.382  1.00  0.00    -0.192 N  
HETATM   13  C   UNL     1      -7.922  13.959  67.775  1.00  0.00    -0.172 C  
HETATM   14  O   UNL     1      -7.525  12.878  68.175  1.00  0.00    -0.103 OA 
HETATM   15  C   UNL     1      -7.088  15.202  67.679  1.00  0.00    -0.210 C  
HETATM   16  C   UNL     1      -7.916  16.130  66.808  1.00  0.00    -0.307 C  
HETATM   17  C   UNL     1      -9.270  15.490  66.782  1.00  0.00    -0.248 C  
HETATM   18  O   UNL     1     -10.261  15.978  66.258  1.00  0.00    -0.284 OA 
ENDBRANCH  11  12
ENDBRANCH  10  11
ENDBRANCH   9  10
ENDBRANCH   7   9
ENDBRANCH   6   7
ENDBRANCH   3   5
ENDBRANCH   2   3
TORSDOF 7
ENDMDL
MODEL      182
REMARK 921   NORMALIZED FREE ENERGY PREDICTED BY IDOCK:   -3.79 KCAL/MOL
REMARK 922        TOTAL FREE ENERGY PREDICTED BY IDOCK:   -5.78 KCAL/MOL
REMARK 923 INTER-LIGAND FREE ENERGY PREDICTED BY IDOCK:   -5.38 KCAL/MOL
REMARK 924 INTRA-LIGAND FREE ENERGY PREDICTED BY IDOCK:   -0.40 KCAL/MOL
REMARK 927      BINDING AFFINITY PREDICTED BY RF-SCORE:    0.00 PKD
ROOT
HETATM    1  C   UNL     1      -9.724  14.224  65.900  1.00  0.00    -0.262 C  
HETATM    2  O   UNL     1     -10.589  13.149  66.266  1.00  0.00    -0.278 OA 
ENDROOT
BRANCH   2   3
HETATM    3  C   UNL     1     -11.831  13.551  66.624  1.00  0.00    -0.407 C  
HETATM    4  O   UNL     1     -12.658  14.093  65.908  1.00  0.00    -0.486 OA 
BRANCH   3   5
HETATM    5  C   UNL     1     -12.024  13.243  68.049  1.00  0.00    -0.351 C  
HETATM    6  C   UNL     1     -11.563  12.076  68.512  1.00  0.00    -0.363 C  
BRANCH   6   7
HETATM    7  C   UNL     1     -11.864  11.656  69.890  1.00  0.00    -0.358 C  
HETATM    8  O   UNL     1     -12.305  12.379  70.765  1.00  0.00    -0.377 OA 
BRANCH   7   9
HETATM    9  O   UNL     1     -11.724  10.310  69.933  1.00  0.00    -0.252 OA 
BRANCH   9  10
HETATM   10  C   UNL     1     -12.032   9.712  71.201  1.00  0.00    -0.367 C  
BRANCH  10  11
HETATM   11  C   UNL     1     -11.399   8.325  71.171  1.00  0.00    -0.263 C  
BRANCH  11  12
HETATM   12  N   UNL     1     -10.228   8.181  72.000  1.00  0.00    -0.227 N  
HETATM   13  C   UNL     1     -10.210   7.494  73.178  1.00  0.00    -0.327 C  
HETATM   14  O   UNL     1     -11.102   6.797  73.631  1.00  0.00    -0.123 OA 
HETATM   15  C   UNL     1      -8.907   7.779  73.864  1.00  0.00    -0.329 C  
HETATM   16  C   UNL     1      -8.038   8.364  72.765  1.00  0.00    -0.168 C  
HETATM   17  C   UNL     1      -9.006   8.686  71.669  1.00  0.00    -0.235 C  
HETATM   18  O   UNL     1      -8.717   9.264  70.631  1.00  0.00    -0.211 OA 
ENDBRANCH  11  12
ENDBRANCH  10  11
ENDBRANCH   9  10
ENDBRANCH   7   9
ENDBRANCH   6   7
ENDBRANCH   3   5
ENDBRANCH   2   3
TORSDOF 7
ENDMDL
MODEL      183
REMARK 921   NORMALIZED FREE ENERGY PREDICTED BY IDOCK:   -3.79 KCAL/MOL
REMARK 922        TOTAL FREE ENERGY PREDICTED BY IDOCK:   -5.78 KCAL/MOL
REMARK 923 INTER-LIGAND FREE ENERGY PREDICTED BY IDOCK:   -5.30 KCAL/MOL
REMARK 924 INTRA-LIGAND FREE ENERGY PREDICTED BY IDOCK:   -0.48 KCAL/MOL
REMARK 927      BINDING AFFINITY PREDICTED BY RF-SCORE:    0.00 PKD
ROOT
HETATM    1  C   UNL     1     -10.883   6.246  68.086  1.00  0.00    -0.320 C  
HETATM    2  O   UNL     1     -11.525   6.482  69.339  1.00  0.00    -0.355 OA 
ENDROOT
BRANCH   2   3
HETATM    3  C   UNL     1     -10.813   7.278  70.171  1.00  0.00    -0.256 C  
HETATM    4  O   UNL     1     -10.066   6.916  71.067  1.00  0.00    -0.193 OA 
BRANCH   3   5
HETATM    5  C   UNL     1     -11.103   8.680  69.832  1.00  0.00    -0.119 C  
HETATM    6  C   UNL     1     -11.627   9.464  70.780  1.00  0.00    -0.364 C  
BRANCH   6   7
HETATM    7  C   UNL     1     -12.074  10.826  70.448  1.00  0.00    -0.354 C  
HETATM    8  O   UNL     1     -12.847  11.494  71.111  1.00  0.00    -0.371 OA 
BRANCH   7   9
HETATM    9  O   UNL     1     -11.337  11.237  69.389  1.00  0.00    -0.245 OA 
BRANCH   9  10
HETATM   10  C   UNL     1     -12.019  12.122  68.487  1.00  0.00    -0.217 C  
BRANCH  10  11
HETATM   11  C   UNL     1     -11.254  12.044  67.171  1.00  0.00    -0.316 C  
BRANCH  11  12
HETATM   12  N   UNL     1     -10.667  13.290  66.742  1.00  0.00    -0.275 N  
HETATM   13  C   UNL     1     -11.293  14.182  65.923  1.00  0.00    -0.323 C  
HETATM   14  O   UNL     1     -12.454  14.145  65.553  1.00  0.00    -0.457 OA 
HETATM   15  C   UNL     1     -10.288  15.212  65.502  1.00  0.00    -0.399 C  
HETATM   16  C   UNL     1      -9.150  15.035  66.491  1.00  0.00    -0.319 C  
HETATM   17  C   UNL     1      -9.439  13.720  67.146  1.00  0.00    -0.244 C  
HETATM   18  O   UNL     1      -8.703  13.164  67.948  1.00  0.00    -0.171 OA 
ENDBRANCH  11  12
ENDBRANCH  10  11
ENDBRANCH   9  10
ENDBRANCH   7   9
ENDBRANCH   6   7
ENDBRANCH   3   5
ENDBRANCH   2   3
TORSDOF 7
ENDMDL
MODEL      184
REMARK 921   NORMALIZED FREE ENERGY PREDICTED BY IDOCK:   -3.79 KCAL/MOL
REMARK 922        TOTAL FREE ENERGY PREDICTED BY IDOCK:   -5.78 KCAL/MOL
REMARK 923 INTER-LIGAND FREE ENERGY PREDICTED BY IDOCK:   -5.66 KCAL/MOL
REMARK 924 INTRA-LIGAND FREE ENERGY PREDICTED BY IDOCK:   -0.11 KCAL/MOL
REMARK 927      BINDING AFFINITY PREDICTED BY RF-SCORE:    0.00 PKD
ROOT
HETATM    1  C   UNL     1     -11.833  12.428  63.591  1.00  0.00    -0.526 C  
HETATM    2  O   UNL     1     -12.666  13.311  64.342  1.00  0.00    -0.643 OA 
ENDROOT
BRANCH   2   3
HETATM    3  C   UNL     1     -12.263  14.603  64.299  1.00  0.00    -0.408 C  
HETATM    4  O   UNL     1     -12.900  15.554  63.875  1.00  0.00    -0.605 OA 
BRANCH   3   5
HETATM    5  C   UNL     1     -10.895  14.679  64.838  1.00  0.00    -0.436 C  
HETATM    6  C   UNL     1     -10.715  15.270  66.024  1.00  0.00    -0.324 C  
BRANCH   6   7
HETATM    7  C   UNL     1      -9.355  15.505  66.534  1.00  0.00    -0.283 C  
HETATM    8  O   UNL     1      -8.436  15.980  65.892  1.00  0.00    -0.219 OA 
BRANCH   7   9
HETATM    9  O   UNL     1      -9.385  15.260  67.865  1.00  0.00    -0.187 OA 
BRANCH   9  10
HETATM   10  C   UNL     1     -10.039  14.038  68.239  1.00  0.00    -0.246 C  
BRANCH  10  11
HETATM   11  C   UNL     1      -9.126  12.914  67.761  1.00  0.00    -0.197 C  
BRANCH  11  12
HETATM   12  N   UNL     1      -9.534  11.593  68.168  1.00  0.00    -0.185 N  
HETATM   13  C   UNL     1      -8.755  10.749  68.903  1.00  0.00    -0.152 C  
HETATM   14  O   UNL     1      -7.692  11.016  69.437  1.00  0.00    -0.114 OA 
HETATM   15  C   UNL     1      -9.407   9.399  68.909  1.00  0.00    -0.154 C  
HETATM   16  C   UNL     1     -10.826   9.678  68.449  1.00  0.00    -0.212 C  
HETATM   17  C   UNL     1     -10.761  11.067  67.892  1.00  0.00    -0.219 C  
HETATM   18  O   UNL     1     -11.685  11.637  67.330  1.00  0.00    -0.556 OA 
ENDBRANCH  11  12
ENDBRANCH  10  11
ENDBRANCH   9  10
ENDBRANCH   7   9
ENDBRANCH   6   7
ENDBRANCH   3   5
ENDBRANCH   2   3
TORSDOF 7
ENDMDL
MODEL      185
REMARK 921   NORMALIZED FREE ENERGY PREDICTED BY IDOCK:   -3.78 KCAL/MOL
REMARK 922        TOTAL FREE ENERGY PREDICTED BY IDOCK:   -5.77 KCAL/MOL
REMARK 923 INTER-LIGAND FREE ENERGY PREDICTED BY IDOCK:   -5.55 KCAL/MOL
REMARK 924 INTRA-LIGAND FREE ENERGY PREDICTED BY IDOCK:   -0.22 KCAL/MOL
REMARK 927      BINDING AFFINITY PREDICTED BY RF-SCORE:    0.00 PKD
ROOT
HETATM    1  C   UNL     1      -9.961   7.134  67.009  1.00  0.00    -0.217 C  
HETATM    2  O   UNL     1      -9.622   8.480  66.675  1.00  0.00    -0.188 OA 
ENDROOT
BRANCH   2   3
HETATM    3  C   UNL     1     -10.330   9.403  67.367  1.00  0.00    -0.263 C  
HETATM    4  O   UNL     1     -10.623   9.363  68.551  1.00  0.00    -0.213 OA 
BRANCH   3   5
HETATM    5  C   UNL     1     -10.719  10.478  66.440  1.00  0.00    -0.166 C  
HETATM    6  C   UNL     1     -10.147  10.508  65.232  1.00  0.00    -0.369 C  
BRANCH   6   7
HETATM    7  C   UNL     1     -10.387  11.645  64.329  1.00  0.00    -0.322 C  
HETATM    8  O   UNL     1     -10.954  11.581  63.253  1.00  0.00    -0.351 OA 
BRANCH   7   9
HETATM    9  O   UNL     1     -10.022  12.764  64.997  1.00  0.00    -0.242 OA 
BRANCH   9  10
HETATM   10  C   UNL     1     -10.680  13.966  64.565  1.00  0.00    -0.366 C  
BRANCH  10  11
HETATM   11  C   UNL     1     -11.780  14.227  65.587  1.00  0.00    -0.358 C  
BRANCH  11  12
HETATM   12  N   UNL     1     -11.390  15.073  66.688  1.00  0.00    -0.326 N  
HETATM   13  C   UNL     1     -11.585  14.752  67.999  1.00  0.00    -0.343 C  
HETATM   14  O   UNL     1     -11.970  13.683  68.439  1.00  0.00    -0.355 OA 
HETATM   15  C   UNL     1     -11.288  15.968  68.825  1.00  0.00    -0.380 C  
HETATM   16  C   UNL     1     -10.518  16.871  67.879  1.00  0.00    -0.344 C  
HETATM   17  C   UNL     1     -10.748  16.265  66.529  1.00  0.00    -0.187 C  
HETATM   18  O   UNL     1     -10.369  16.750  65.473  1.00  0.00    -0.558 OA 
ENDBRANCH  11  12
ENDBRANCH  10  11
ENDBRANCH   9  10
ENDBRANCH   7   9
ENDBRANCH   6   7
ENDBRANCH   3   5
ENDBRANCH   2   3
TORSDOF 7
ENDMDL
MODEL      186
REMARK 921   NORMALIZED FREE ENERGY PREDICTED BY IDOCK:   -3.78 KCAL/MOL
REMARK 922        TOTAL FREE ENERGY PREDICTED BY IDOCK:   -5.76 KCAL/MOL
REMARK 923 INTER-LIGAND FREE ENERGY PREDICTED BY IDOCK:   -5.41 KCAL/MOL
REMARK 924 INTRA-LIGAND FREE ENERGY PREDICTED BY IDOCK:   -0.35 KCAL/MOL
REMARK 927      BINDING AFFINITY PREDICTED BY RF-SCORE:    0.00 PKD
ROOT
HETATM    1  C   UNL     1     -11.912  14.404  69.185  1.00  0.00    -0.322 C  
HETATM    2  O   UNL     1     -11.459  13.545  68.139  1.00  0.00    -0.266 OA 
ENDROOT
BRANCH   2   3
HETATM    3  C   UNL     1     -11.783  12.244  68.329  1.00  0.00    -0.336 C  
HETATM    4  O   UNL     1     -11.829  11.371  67.477  1.00  0.00    -0.614 OA 
BRANCH   3   5
HETATM    5  C   UNL     1     -12.097  12.049  69.753  1.00  0.00    -0.317 C  
HETATM    6  C   UNL     1     -12.133  10.798  70.226  1.00  0.00    -0.433 C  
BRANCH   6   7
HETATM    7  C   UNL     1     -12.590  10.541  71.601  1.00  0.00    -0.393 C  
HETATM    8  O   UNL     1     -13.405  11.211  72.209  1.00  0.00    -0.394 OA 
BRANCH   7   9
HETATM    9  O   UNL     1     -12.071   9.347  71.972  1.00  0.00    -0.362 OA 
BRANCH   9  10
HETATM   10  C   UNL     1     -12.633   8.210  71.299  1.00  0.00    -0.229 C  
BRANCH  10  11
HETATM   11  C   UNL     1     -11.828   7.005  71.775  1.00  0.00    -0.312 C  
BRANCH  11  12
HETATM   12  N   UNL     1     -10.422   7.261  71.969  1.00  0.00    -0.199 N  
HETATM   13  C   UNL     1      -9.797   7.192  73.179  1.00  0.00    -0.211 C  
HETATM   14  O   UNL     1     -10.272   6.780  74.224  1.00  0.00    -0.357 OA 
HETATM   15  C   UNL     1      -8.419   7.762  73.025  1.00  0.00    -0.207 C  
HETATM   16  C   UNL     1      -8.198   7.778  71.523  1.00  0.00    -0.113 C  
HETATM   17  C   UNL     1      -9.565   7.559  70.952  1.00  0.00    -0.165 C  
HETATM   18  O   UNL     1      -9.837   7.595  69.761  1.00  0.00    -0.178 OA 
ENDBRANCH  11  12
ENDBRANCH  10  11
ENDBRANCH   9  10
ENDBRANCH   7   9
ENDBRANCH   6   7
ENDBRANCH   3   5
ENDBRANCH   2   3
TORSDOF 7
ENDMDL
MODEL      187
REMARK 921   NORMALIZED FREE ENERGY PREDICTED BY IDOCK:   -3.77 KCAL/MOL
REMARK 922        TOTAL FREE ENERGY PREDICTED BY IDOCK:   -5.75 KCAL/MOL
REMARK 923 INTER-LIGAND FREE ENERGY PREDICTED BY IDOCK:   -5.31 KCAL/MOL
REMARK 924 INTRA-LIGAND FREE ENERGY PREDICTED BY IDOCK:   -0.44 KCAL/MOL
REMARK 927      BINDING AFFINITY PREDICTED BY RF-SCORE:    0.00 PKD
ROOT
HETATM    1  C   UNL     1      -7.554  18.931  66.283  1.00  0.00    -0.271 C  
HETATM    2  O   UNL     1      -8.526  18.234  67.061  1.00  0.00    -0.239 OA 
ENDROOT
BRANCH   2   3
HETATM    3  C   UNL     1      -9.643  17.910  66.369  1.00  0.00    -0.286 C  
HETATM    4  O   UNL     1     -10.581  18.648  66.109  1.00  0.00    -0.436 OA 
BRANCH   3   5
HETATM    5  C   UNL     1      -9.558  16.492  65.989  1.00  0.00    -0.323 C  
HETATM    6  C   UNL     1     -10.634  15.918  65.440  1.00  0.00    -0.439 C  
BRANCH   6   7
HETATM    7  C   UNL     1     -10.649  14.470  65.182  1.00  0.00    -0.410 C  
HETATM    8  O   UNL     1     -11.241  13.923  64.270  1.00  0.00    -0.354 OA 
BRANCH   7   9
HETATM    9  O   UNL     1      -9.758  13.909  66.032  1.00  0.00    -0.293 OA 
BRANCH   9  10
HETATM   10  C   UNL     1     -10.125  12.609  66.520  1.00  0.00    -0.248 C  
BRANCH  10  11
HETATM   11  C   UNL     1     -10.110  12.716  68.041  1.00  0.00    -0.229 C  
BRANCH  11  12
HETATM   12  N   UNL     1     -10.119  11.450  68.733  1.00  0.00    -0.206 N  
HETATM   13  C   UNL     1     -11.256  10.796  69.104  1.00  0.00    -0.262 C  
HETATM   14  O   UNL     1     -12.400  11.087  68.797  1.00  0.00    -0.533 OA 
HETATM   15  C   UNL     1     -10.869   9.665  70.009  1.00  0.00    -0.302 C  
HETATM   16  C   UNL     1      -9.377   9.508  69.776  1.00  0.00    -0.227 C  
HETATM   17  C   UNL     1      -8.988  10.759  69.051  1.00  0.00    -0.132 C  
HETATM   18  O   UNL     1      -7.843  11.068  68.758  1.00  0.00    -0.123 OA 
ENDBRANCH  11  12
ENDBRANCH  10  11
ENDBRANCH   9  10
ENDBRANCH   7   9
ENDBRANCH   6   7
ENDBRANCH   3   5
ENDBRANCH   2   3
TORSDOF 7
ENDMDL
MODEL      188
REMARK 921   NORMALIZED FREE ENERGY PREDICTED BY IDOCK:   -3.77 KCAL/MOL
REMARK 922        TOTAL FREE ENERGY PREDICTED BY IDOCK:   -5.75 KCAL/MOL
REMARK 923 INTER-LIGAND FREE ENERGY PREDICTED BY IDOCK:   -5.22 KCAL/MOL
REMARK 924 INTRA-LIGAND FREE ENERGY PREDICTED BY IDOCK:   -0.52 KCAL/MOL
REMARK 927      BINDING AFFINITY PREDICTED BY RF-SCORE:    0.00 PKD
ROOT
HETATM    1  C   UNL     1     -12.531  12.083  63.229  1.00  0.00    -0.425 C  
HETATM    2  O   UNL     1     -12.485  13.504  63.350  1.00  0.00    -0.750 OA 
ENDROOT
BRANCH   2   3
HETATM    3  C   UNL     1     -12.090  13.931  64.573  1.00  0.00    -0.443 C  
HETATM    4  O   UNL     1     -11.761  15.066  64.879  1.00  0.00    -0.377 OA 
BRANCH   3   5
HETATM    5  C   UNL     1     -12.098  12.781  65.490  1.00  0.00    -0.517 C  
HETATM    6  C   UNL     1     -11.559  12.936  66.704  1.00  0.00    -0.428 C  
BRANCH   6   7
HETATM    7  C   UNL     1     -11.406  11.778  67.599  1.00  0.00    -0.302 C  
HETATM    8  O   UNL     1     -11.938  11.655  68.687  1.00  0.00    -0.396 OA 
BRANCH   7   9
HETATM    9  O   UNL     1     -10.722  10.835  66.910  1.00  0.00    -0.256 OA 
BRANCH   9  10
HETATM   10  C   UNL     1      -9.496  10.409  67.527  1.00  0.00    -0.149 C  
BRANCH  10  11
HETATM   11  C   UNL     1      -8.397  10.701  66.511  1.00  0.00    -0.143 C  
BRANCH  11  12
HETATM   12  N   UNL     1      -8.393   9.829  65.362  1.00  0.00    -0.133 N  
HETATM   13  C   UNL     1      -7.937   8.544  65.386  1.00  0.00    -0.113 C  
HETATM   14  O   UNL     1      -7.609   7.903  66.370  1.00  0.00    -0.088 OA 
HETATM   15  C   UNL     1      -7.858   8.052  63.971  1.00  0.00    -0.145 C  
HETATM   16  C   UNL     1      -8.699   9.047  63.192  1.00  0.00    -0.114 C  
HETATM   17  C   UNL     1      -8.884  10.189  64.143  1.00  0.00    -0.222 C  
HETATM   18  O   UNL     1      -9.433  11.245  63.865  1.00  0.00    -0.223 OA 
ENDBRANCH  11  12
ENDBRANCH  10  11
ENDBRANCH   9  10
ENDBRANCH   7   9
ENDBRANCH   6   7
ENDBRANCH   3   5
ENDBRANCH   2   3
TORSDOF 7
ENDMDL
MODEL      189
REMARK 921   NORMALIZED FREE ENERGY PREDICTED BY IDOCK:   -3.76 KCAL/MOL
REMARK 922        TOTAL FREE ENERGY PREDICTED BY IDOCK:   -5.74 KCAL/MOL
REMARK 923 INTER-LIGAND FREE ENERGY PREDICTED BY IDOCK:   -4.88 KCAL/MOL
REMARK 924 INTRA-LIGAND FREE ENERGY PREDICTED BY IDOCK:   -0.86 KCAL/MOL
REMARK 927      BINDING AFFINITY PREDICTED BY RF-SCORE:    0.00 PKD
ROOT
HETATM    1  C   UNL     1      -8.583   8.125  66.511  1.00  0.00    -0.138 C  
HETATM    2  O   UNL     1      -9.817   8.722  66.116  1.00  0.00    -0.267 OA 
ENDROOT
BRANCH   2   3
HETATM    3  C   UNL     1      -9.677   9.681  65.170  1.00  0.00    -0.217 C  
HETATM    4  O   UNL     1      -8.790   9.759  64.335  1.00  0.00    -0.195 OA 
BRANCH   3   5
HETATM    5  C   UNL     1     -10.775  10.648  65.324  1.00  0.00    -0.100 C  
HETATM    6  C   UNL     1     -10.535  11.929  65.027  1.00  0.00    -0.333 C  
BRANCH   6   7
HETATM    7  C   UNL     1     -11.552  12.956  65.308  1.00  0.00    -0.340 C  
HETATM    8  O   UNL     1     -12.756  12.792  65.236  1.00  0.00    -0.625 OA 
BRANCH   7   9
HETATM    9  O   UNL     1     -10.900  14.028  65.816  1.00  0.00    -0.283 OA 
BRANCH   9  10
HETATM   10  C   UNL     1      -9.567  13.759  66.279  1.00  0.00    -0.249 C  
BRANCH  10  11
HETATM   11  C   UNL     1      -9.627  13.859  67.799  1.00  0.00    -0.222 C  
BRANCH  11  12
HETATM   12  N   UNL     1     -10.328  12.777  68.446  1.00  0.00    -0.241 N  
HETATM   13  C   UNL     1      -9.790  11.542  68.658  1.00  0.00    -0.177 C  
HETATM   14  O   UNL     1      -8.631  11.210  68.477  1.00  0.00    -0.145 OA 
HETATM   15  C   UNL     1     -10.887  10.628  69.115  1.00  0.00    -0.279 C  
HETATM   16  C   UNL     1     -12.002  11.574  69.525  1.00  0.00    -0.402 C  
HETATM   17  C   UNL     1     -11.590  12.893  68.947  1.00  0.00    -0.315 C  
HETATM   18  O   UNL     1     -12.269  13.908  68.975  1.00  0.00    -0.350 OA 
ENDBRANCH  11  12
ENDBRANCH  10  11
ENDBRANCH   9  10
ENDBRANCH   7   9
ENDBRANCH   6   7
ENDBRANCH   3   5
ENDBRANCH   2   3
TORSDOF 7
ENDMDL
MODEL      190
REMARK 921   NORMALIZED FREE ENERGY PREDICTED BY IDOCK:   -3.76 KCAL/MOL
REMARK 922        TOTAL FREE ENERGY PREDICTED BY IDOCK:   -5.74 KCAL/MOL
REMARK 923 INTER-LIGAND FREE ENERGY PREDICTED BY IDOCK:   -5.35 KCAL/MOL
REMARK 924 INTRA-LIGAND FREE ENERGY PREDICTED BY IDOCK:   -0.39 KCAL/MOL
REMARK 927      BINDING AFFINITY PREDICTED BY RF-SCORE:    0.00 PKD
ROOT
HETATM    1  C   UNL     1     -11.021  15.472  66.709  1.00  0.00    -0.257 C  
HETATM    2  O   UNL     1     -11.797  14.302  66.968  1.00  0.00    -0.394 OA 
ENDROOT
BRANCH   2   3
HETATM    3  C   UNL     1     -12.346  13.760  65.856  1.00  0.00    -0.476 C  
HETATM    4  O   UNL     1     -13.052  14.328  65.038  1.00  0.00    -0.682 OA 
BRANCH   3   5
HETATM    5  C   UNL     1     -11.969  12.339  65.800  1.00  0.00    -0.362 C  
HETATM    6  C   UNL     1     -10.723  12.001  66.150  1.00  0.00    -0.312 C  
BRANCH   6   7
HETATM    7  C   UNL     1     -10.253  10.619  65.967  1.00  0.00    -0.247 C  
HETATM    8  O   UNL     1     -10.159  10.044  64.898  1.00  0.00    -0.316 OA 
BRANCH   7   9
HETATM    9  O   UNL     1      -9.794  10.196  67.168  1.00  0.00    -0.173 OA 
BRANCH   9  10
HETATM   10  C   UNL     1     -10.816   9.858  68.119  1.00  0.00    -0.234 C  
BRANCH  10  11
HETATM   11  C   UNL     1     -10.408   8.511  68.706  1.00  0.00    -0.213 C  
BRANCH  11  12
HETATM   12  N   UNL     1     -10.066   8.545  70.107  1.00  0.00    -0.187 N  
HETATM   13  C   UNL     1      -8.826   8.857  70.580  1.00  0.00    -0.192 C  
HETATM   14  O   UNL     1      -7.883   9.281  69.933  1.00  0.00    -0.084 OA 
HETATM   15  C   UNL     1      -8.792   8.541  72.045  1.00  0.00    -0.286 C  
HETATM   16  C   UNL     1     -10.257   8.409  72.422  1.00  0.00    -0.399 C  
HETATM   17  C   UNL     1     -10.964   8.307  71.105  1.00  0.00    -0.245 C  
HETATM   18  O   UNL     1     -12.159   8.095  70.970  1.00  0.00    -0.286 OA 
ENDBRANCH  11  12
ENDBRANCH  10  11
ENDBRANCH   9  10
ENDBRANCH   7   9
ENDBRANCH   6   7
ENDBRANCH   3   5
ENDBRANCH   2   3
TORSDOF 7
ENDMDL
MODEL      191
REMARK 921   NORMALIZED FREE ENERGY PREDICTED BY IDOCK:   -3.76 KCAL/MOL
REMARK 922        TOTAL FREE ENERGY PREDICTED BY IDOCK:   -5.74 KCAL/MOL
REMARK 923 INTER-LIGAND FREE ENERGY PREDICTED BY IDOCK:   -5.31 KCAL/MOL
REMARK 924 INTRA-LIGAND FREE ENERGY PREDICTED BY IDOCK:   -0.42 KCAL/MOL
REMARK 927      BINDING AFFINITY PREDICTED BY RF-SCORE:    0.00 PKD
ROOT
HETATM    1  C   UNL     1      -8.715   8.096  73.067  1.00  0.00    -0.243 C  
HETATM    2  O   UNL     1      -9.324   8.961  72.108  1.00  0.00    -0.348 OA 
ENDROOT
BRANCH   2   3
HETATM    3  C   UNL     1     -10.648   8.736  71.940  1.00  0.00    -0.354 C  
HETATM    4  O   UNL     1     -11.392   8.145  72.706  1.00  0.00    -0.397 OA 
BRANCH   3   5
HETATM    5  C   UNL     1     -11.054   9.310  70.647  1.00  0.00    -0.335 C  
HETATM    6  C   UNL     1     -10.422   8.895  69.544  1.00  0.00    -0.229 C  
BRANCH   6   7
HETATM    7  C   UNL     1     -10.686   9.546  68.252  1.00  0.00    -0.194 C  
HETATM    8  O   UNL     1     -10.540   9.028  67.160  1.00  0.00    -0.272 OA 
BRANCH   7   9
HETATM    9  O   UNL     1     -11.274  10.736  68.522  1.00  0.00    -0.239 OA 
BRANCH   9  10
HETATM   10  C   UNL     1     -10.654  11.870  67.895  1.00  0.00    -0.201 C  
BRANCH  10  11
HETATM   11  C   UNL     1     -11.791  12.669  67.267  1.00  0.00    -0.328 C  
BRANCH  11  12
HETATM   12  N   UNL     1     -11.367  13.810  66.492  1.00  0.00    -0.316 N  
HETATM   13  C   UNL     1     -11.154  13.777  65.146  1.00  0.00    -0.328 C  
HETATM   14  O   UNL     1     -11.415  12.859  64.387  1.00  0.00    -0.323 OA 
HETATM   15  C   UNL     1     -10.488  15.060  64.748  1.00  0.00    -0.266 C  
HETATM   16  C   UNL     1     -10.722  15.975  65.937  1.00  0.00    -0.287 C  
HETATM   17  C   UNL     1     -11.175  15.050  67.024  1.00  0.00    -0.328 C  
HETATM   18  O   UNL     1     -11.382  15.383  68.181  1.00  0.00    -0.324 OA 
ENDBRANCH  11  12
ENDBRANCH  10  11
ENDBRANCH   9  10
ENDBRANCH   7   9
ENDBRANCH   6   7
ENDBRANCH   3   5
ENDBRANCH   2   3
TORSDOF 7
ENDMDL
MODEL      192
REMARK 921   NORMALIZED FREE ENERGY PREDICTED BY IDOCK:   -3.76 KCAL/MOL
REMARK 922        TOTAL FREE ENERGY PREDICTED BY IDOCK:   -5.73 KCAL/MOL
REMARK 923 INTER-LIGAND FREE ENERGY PREDICTED BY IDOCK:   -5.23 KCAL/MOL
REMARK 924 INTRA-LIGAND FREE ENERGY PREDICTED BY IDOCK:   -0.51 KCAL/MOL
REMARK 927      BINDING AFFINITY PREDICTED BY RF-SCORE:    0.00 PKD
ROOT
HETATM    1  C   UNL     1     -11.562  13.058  68.884  1.00  0.00    -0.311 C  
HETATM    2  O   UNL     1     -12.276  14.189  69.380  1.00  0.00    -0.331 OA 
ENDROOT
BRANCH   2   3
HETATM    3  C   UNL     1     -11.642  15.366  69.167  1.00  0.00    -0.339 C  
HETATM    4  O   UNL     1     -11.207  16.126  70.017  1.00  0.00    -0.334 OA 
BRANCH   3   5
HETATM    5  C   UNL     1     -11.577  15.601  67.716  1.00  0.00    -0.139 C  
HETATM    6  C   UNL     1     -10.734  16.535  67.264  1.00  0.00    -0.243 C  
BRANCH   6   7
HETATM    7  C   UNL     1     -10.741  16.912  65.841  1.00  0.00    -0.149 C  
HETATM    8  O   UNL     1     -11.352  16.332  64.963  1.00  0.00    -0.211 OA 
BRANCH   7   9
HETATM    9  O   UNL     1     -10.097  18.099  65.744  1.00  0.00    -0.563 OA 
BRANCH   9  10
HETATM   10  C   UNL     1     -10.276  18.976  66.867  1.00  0.00    -0.387 C  
BRANCH  10  11
HETATM   11  C   UNL     1      -9.234  20.077  66.704  1.00  0.00    -0.376 C  
BRANCH  11  12
HETATM   12  N   UNL     1      -7.870  19.647  66.888  1.00  0.00    -0.264 N  
HETATM   13  C   UNL     1      -6.968  19.525  65.872  1.00  0.00    -0.277 C  
HETATM   14  O   UNL     1      -7.117  19.883  64.716  1.00  0.00    -0.283 OA 
HETATM   15  C   UNL     1      -5.757  18.821  66.406  1.00  0.00    -0.178 C  
HETATM   16  C   UNL     1      -5.909  18.929  67.913  1.00  0.00    -0.198 C  
HETATM   17  C   UNL     1      -7.331  19.357  68.105  1.00  0.00    -0.295 C  
HETATM   18  O   UNL     1      -7.885  19.469  69.189  1.00  0.00    -0.348 OA 
ENDBRANCH  11  12
ENDBRANCH  10  11
ENDBRANCH   9  10
ENDBRANCH   7   9
ENDBRANCH   6   7
ENDBRANCH   3   5
ENDBRANCH   2   3
TORSDOF 7
ENDMDL
MODEL      193
REMARK 921   NORMALIZED FREE ENERGY PREDICTED BY IDOCK:   -3.76 KCAL/MOL
REMARK 922        TOTAL FREE ENERGY PREDICTED BY IDOCK:   -5.73 KCAL/MOL
REMARK 923 INTER-LIGAND FREE ENERGY PREDICTED BY IDOCK:   -4.90 KCAL/MOL
REMARK 924 INTRA-LIGAND FREE ENERGY PREDICTED BY IDOCK:   -0.83 KCAL/MOL
REMARK 927      BINDING AFFINITY PREDICTED BY RF-SCORE:    0.00 PKD
ROOT
HETATM    1  C   UNL     1     -13.266  12.054  71.807  1.00  0.00    -0.317 C  
HETATM    2  O   UNL     1     -12.361  12.284  70.728  1.00  0.00    -0.377 OA 
ENDROOT
BRANCH   2   3
HETATM    3  C   UNL     1     -12.109  11.178  69.988  1.00  0.00    -0.359 C  
HETATM    4  O   UNL     1     -12.387  11.008  68.812  1.00  0.00    -0.533 OA 
BRANCH   3   5
HETATM    5  C   UNL     1     -11.453  10.183  70.850  1.00  0.00    -0.444 C  
HETATM    6  C   UNL     1     -11.867   8.914  70.780  1.00  0.00    -0.230 C  
BRANCH   6   7
HETATM    7  C   UNL     1     -11.348   7.913  71.726  1.00  0.00    -0.264 C  
HETATM    8  O   UNL     1     -11.381   8.009  72.939  1.00  0.00    -0.408 OA 
BRANCH   7   9
HETATM    9  O   UNL     1     -11.003   6.825  71.000  1.00  0.00    -0.238 OA 
BRANCH   9  10
HETATM   10  C   UNL     1      -9.642   6.397  71.164  1.00  0.00    -0.174 C  
BRANCH  10  11
HETATM   11  C   UNL     1      -9.088   6.223  69.754  1.00  0.00    -0.143 C  
BRANCH  11  12
HETATM   12  N   UNL     1      -9.388   7.307  68.852  1.00  0.00    -0.145 N  
HETATM   13  C   UNL     1     -10.309   7.227  67.849  1.00  0.00    -0.201 C  
HETATM   14  O   UNL     1     -11.097   6.318  67.651  1.00  0.00    -0.341 OA 
HETATM   15  C   UNL     1     -10.159   8.441  66.981  1.00  0.00    -0.354 C  
HETATM   16  C   UNL     1      -9.343   9.398  67.833  1.00  0.00    -0.142 C  
HETATM   17  C   UNL     1      -8.809   8.537  68.936  1.00  0.00    -0.139 C  
HETATM   18  O   UNL     1      -8.021   8.911  69.793  1.00  0.00    -0.091 OA 
ENDBRANCH  11  12
ENDBRANCH  10  11
ENDBRANCH   9  10
ENDBRANCH   7   9
ENDBRANCH   6   7
ENDBRANCH   3   5
ENDBRANCH   2   3
TORSDOF 7
ENDMDL
MODEL      194
REMARK 921   NORMALIZED FREE ENERGY PREDICTED BY IDOCK:   -3.75 KCAL/MOL
REMARK 922        TOTAL FREE ENERGY PREDICTED BY IDOCK:   -5.73 KCAL/MOL
REMARK 923 INTER-LIGAND FREE ENERGY PREDICTED BY IDOCK:   -5.81 KCAL/MOL
REMARK 924 INTRA-LIGAND FREE ENERGY PREDICTED BY IDOCK:    0.08 KCAL/MOL
REMARK 927      BINDING AFFINITY PREDICTED BY RF-SCORE:    0.00 PKD
ROOT
HETATM    1  C   UNL     1      -9.462   4.205  69.716  1.00  0.00    -0.195 C  
HETATM    2  O   UNL     1      -9.501   5.171  68.665  1.00  0.00    -0.120 OA 
ENDROOT
BRANCH   2   3
HETATM    3  C   UNL     1     -10.568   6.001  68.734  1.00  0.00    -0.282 C  
HETATM    4  O   UNL     1     -11.205   6.451  67.795  1.00  0.00    -0.323 OA 
BRANCH   3   5
HETATM    5  C   UNL     1     -10.832   6.300  70.150  1.00  0.00    -0.375 C  
HETATM    6  C   UNL     1     -11.987   6.895  70.466  1.00  0.00    -0.358 C  
BRANCH   6   7
HETATM    7  C   UNL     1     -12.232   7.350  71.844  1.00  0.00    -0.310 C  
HETATM    8  O   UNL     1     -11.462   7.215  72.777  1.00  0.00    -0.266 OA 
BRANCH   7   9
HETATM    9  O   UNL     1     -13.371   8.082  71.821  1.00  0.00    -0.336 OA 
BRANCH   9  10
HETATM   10  C   UNL     1     -13.335   9.227  70.956  1.00  0.00    -0.078 C  
BRANCH  10  11
HETATM   11  C   UNL     1     -12.956  10.407  71.845  1.00  0.00    -0.450 C  
BRANCH  11  12
HETATM   12  N   UNL     1     -12.685  11.633  71.134  1.00  0.00    -0.370 N  
HETATM   13  C   UNL     1     -12.060  11.687  69.924  1.00  0.00    -0.301 C  
HETATM   14  O   UNL     1     -11.771  10.743  69.208  1.00  0.00    -0.286 OA 
HETATM   15  C   UNL     1     -11.735  13.121  69.631  1.00  0.00    -0.370 C  
HETATM   16  C   UNL     1     -12.604  13.897  70.605  1.00  0.00    -0.405 C  
HETATM   17  C   UNL     1     -13.065  12.862  71.584  1.00  0.00    -0.335 C  
HETATM   18  O   UNL     1     -13.719  13.096  72.590  1.00  0.00    -0.651 OA 
ENDBRANCH  11  12
ENDBRANCH  10  11
ENDBRANCH   9  10
ENDBRANCH   7   9
ENDBRANCH   6   7
ENDBRANCH   3   5
ENDBRANCH   2   3
TORSDOF 7
ENDMDL
MODEL      195
REMARK 921   NORMALIZED FREE ENERGY PREDICTED BY IDOCK:   -3.74 KCAL/MOL
REMARK 922        TOTAL FREE ENERGY PREDICTED BY IDOCK:   -5.71 KCAL/MOL
REMARK 923 INTER-LIGAND FREE ENERGY PREDICTED BY IDOCK:   -5.36 KCAL/MOL
REMARK 924 INTRA-LIGAND FREE ENERGY PREDICTED BY IDOCK:   -0.36 KCAL/MOL
REMARK 927      BINDING AFFINITY PREDICTED BY RF-SCORE:    0.00 PKD
ROOT
HETATM    1  C   UNL     1     -14.242   7.479  71.772  1.00  0.00    -0.416 C  
HETATM    2  O   UNL     1     -14.294   8.784  72.348  1.00  0.00    -0.509 OA 
ENDROOT
BRANCH   2   3
HETATM    3  C   UNL     1     -13.298   9.601  71.930  1.00  0.00    -0.438 C  
HETATM    4  O   UNL     1     -13.247  10.814  72.055  1.00  0.00    -0.484 OA 
BRANCH   3   5
HETATM    5  C   UNL     1     -12.274   8.779  71.267  1.00  0.00    -0.332 C  
HETATM    6  C   UNL     1     -11.343   9.399  70.533  1.00  0.00    -0.328 C  
BRANCH   6   7
HETATM    7  C   UNL     1     -10.391   8.615  69.730  1.00  0.00    -0.212 C  
HETATM    8  O   UNL     1     -10.607   7.513  69.260  1.00  0.00    -0.223 OA 
BRANCH   7   9
HETATM    9  O   UNL     1      -9.331   9.419  69.480  1.00  0.00    -0.161 OA 
BRANCH   9  10
HETATM   10  C   UNL     1      -9.648  10.814  69.352  1.00  0.00    -0.030 C  
BRANCH  10  11
HETATM   11  C   UNL     1      -9.156  11.227  67.970  1.00  0.00    -0.156 C  
BRANCH  11  12
HETATM   12  N   UNL     1     -10.168  11.802  67.118  1.00  0.00    -0.210 N  
HETATM   13  C   UNL     1     -10.873  12.927  67.428  1.00  0.00    -0.251 C  
HETATM   14  O   UNL     1     -10.671  13.680  68.366  1.00  0.00    -0.244 OA 
HETATM   15  C   UNL     1     -11.990  13.065  66.438  1.00  0.00    -0.466 C  
HETATM   16  C   UNL     1     -11.591  12.133  65.307  1.00  0.00    -0.376 C  
HETATM   17  C   UNL     1     -10.494  11.299  65.894  1.00  0.00    -0.259 C  
HETATM   18  O   UNL     1      -9.958  10.356  65.331  1.00  0.00    -0.261 OA 
ENDBRANCH  11  12
ENDBRANCH  10  11
ENDBRANCH   9  10
ENDBRANCH   7   9
ENDBRANCH   6   7
ENDBRANCH   3   5
ENDBRANCH   2   3
TORSDOF 7
ENDMDL
MODEL      196
REMARK 921   NORMALIZED FREE ENERGY PREDICTED BY IDOCK:   -3.73 KCAL/MOL
REMARK 922        TOTAL FREE ENERGY PREDICTED BY IDOCK:   -5.70 KCAL/MOL
REMARK 923 INTER-LIGAND FREE ENERGY PREDICTED BY IDOCK:   -5.10 KCAL/MOL
REMARK 924 INTRA-LIGAND FREE ENERGY PREDICTED BY IDOCK:   -0.60 KCAL/MOL
REMARK 927      BINDING AFFINITY PREDICTED BY RF-SCORE:    0.00 PKD
ROOT
HETATM    1  C   UNL     1      -7.923  20.632  67.395  1.00  0.00    -0.264 C  
HETATM    2  O   UNL     1      -9.232  20.112  67.626  1.00  0.00    -0.341 OA 
ENDROOT
BRANCH   2   3
HETATM    3  C   UNL     1      -9.925  19.863  66.490  1.00  0.00    -0.474 C  
HETATM    4  O   UNL     1     -10.149  20.650  65.584  1.00  0.00    -0.011 OA 
BRANCH   3   5
HETATM    5  C   UNL     1     -10.393  18.469  66.529  1.00  0.00    -0.447 C  
HETATM    6  C   UNL     1      -9.893  17.661  67.470  1.00  0.00    -0.299 C  
BRANCH   6   7
HETATM    7  C   UNL     1     -10.213  16.224  67.456  1.00  0.00    -0.270 C  
HETATM    8  O   UNL     1     -10.874  15.643  68.297  1.00  0.00    -0.274 OA 
BRANCH   7   9
HETATM    9  O   UNL     1      -9.788  15.736  66.268  1.00  0.00    -0.257 OA 
BRANCH   9  10
HETATM   10  C   UNL     1     -10.767  14.975  65.543  1.00  0.00    -0.359 C  
BRANCH  10  11
HETATM   11  C   UNL     1     -10.160  13.589  65.355  1.00  0.00    -0.262 C  
BRANCH  11  12
HETATM   12  N   UNL     1     -10.161  12.766  66.540  1.00  0.00    -0.253 N  
HETATM   13  C   UNL     1     -11.238  12.046  66.964  1.00  0.00    -0.320 C  
HETATM   14  O   UNL     1     -12.283  11.870  66.360  1.00  0.00    -0.476 OA 
HETATM   15  C   UNL     1     -10.942  11.533  68.341  1.00  0.00    -0.267 C  
HETATM   16  C   UNL     1      -9.439  11.697  68.475  1.00  0.00    -0.175 C  
HETATM   17  C   UNL     1      -9.068  12.594  67.335  1.00  0.00    -0.191 C  
HETATM   18  O   UNL     1      -7.950  13.047  67.140  1.00  0.00    -0.163 OA 
ENDBRANCH  11  12
ENDBRANCH  10  11
ENDBRANCH   9  10
ENDBRANCH   7   9
ENDBRANCH   6   7
ENDBRANCH   3   5
ENDBRANCH   2   3
TORSDOF 7
ENDMDL
MODEL      197
REMARK 921   NORMALIZED FREE ENERGY PREDICTED BY IDOCK:   -3.73 KCAL/MOL
REMARK 922        TOTAL FREE ENERGY PREDICTED BY IDOCK:   -5.69 KCAL/MOL
REMARK 923 INTER-LIGAND FREE ENERGY PREDICTED BY IDOCK:   -5.43 KCAL/MOL
REMARK 924 INTRA-LIGAND FREE ENERGY PREDICTED BY IDOCK:   -0.26 KCAL/MOL
REMARK 927      BINDING AFFINITY PREDICTED BY RF-SCORE:    0.00 PKD
ROOT
HETATM    1  C   UNL     1      -9.909   6.255  67.879  1.00  0.00    -0.124 C  
HETATM    2  O   UNL     1     -10.776   6.960  68.767  1.00  0.00    -0.217 OA 
ENDROOT
BRANCH   2   3
HETATM    3  C   UNL     1     -10.404   8.243  68.982  1.00  0.00    -0.221 C  
HETATM    4  O   UNL     1      -9.998   8.721  70.030  1.00  0.00    -0.179 OA 
BRANCH   3   5
HETATM    5  C   UNL     1     -10.590   8.995  67.731  1.00  0.00    -0.278 C  
HETATM    6  C   UNL     1     -10.717  10.324  67.805  1.00  0.00    -0.324 C  
BRANCH   6   7
HETATM    7  C   UNL     1     -11.055  11.103  66.603  1.00  0.00    -0.189 C  
HETATM    8  O   UNL     1     -10.605  10.908  65.489  1.00  0.00    -0.243 OA 
BRANCH   7   9
HETATM    9  O   UNL     1     -12.067  11.935  66.944  1.00  0.00    -0.599 OA 
BRANCH   9  10
HETATM   10  C   UNL     1     -11.675  13.069  67.733  1.00  0.00    -0.359 C  
BRANCH  10  11
HETATM   11  C   UNL     1     -12.102  14.297  66.936  1.00  0.00    -0.409 C  
BRANCH  11  12
HETATM   12  N   UNL     1     -11.342  15.490  67.217  1.00  0.00    -0.232 N  
HETATM   13  C   UNL     1     -10.544  16.116  66.306  1.00  0.00    -0.274 C  
HETATM   14  O   UNL     1     -10.459  15.865  65.115  1.00  0.00    -0.462 OA 
HETATM   15  C   UNL     1      -9.735  17.152  67.027  1.00  0.00    -0.265 C  
HETATM   16  C   UNL     1     -10.457  17.318  68.353  1.00  0.00    -0.381 C  
HETATM   17  C   UNL     1     -11.378  16.138  68.416  1.00  0.00    -0.345 C  
HETATM   18  O   UNL     1     -12.076  15.850  69.376  1.00  0.00    -0.330 OA 
ENDBRANCH  11  12
ENDBRANCH  10  11
ENDBRANCH   9  10
ENDBRANCH   7   9
ENDBRANCH   6   7
ENDBRANCH   3   5
ENDBRANCH   2   3
TORSDOF 7
ENDMDL
MODEL      198
REMARK 921   NORMALIZED FREE ENERGY PREDICTED BY IDOCK:   -3.72 KCAL/MOL
REMARK 922        TOTAL FREE ENERGY PREDICTED BY IDOCK:   -5.68 KCAL/MOL
REMARK 923 INTER-LIGAND FREE ENERGY PREDICTED BY IDOCK:   -5.14 KCAL/MOL
REMARK 924 INTRA-LIGAND FREE ENERGY PREDICTED BY IDOCK:   -0.53 KCAL/MOL
REMARK 927      BINDING AFFINITY PREDICTED BY RF-SCORE:    0.00 PKD
ROOT
HETATM    1  C   UNL     1     -13.585  13.418  72.403  1.00  0.00    -0.606 C  
HETATM    2  O   UNL     1     -13.005  13.377  71.099  1.00  0.00    -0.304 OA 
ENDROOT
BRANCH   2   3
HETATM    3  C   UNL     1     -12.810  14.601  70.555  1.00  0.00    -0.317 C  
HETATM    4  O   UNL     1     -13.407  15.629  70.835  1.00  0.00    -0.556 OA 
BRANCH   3   5
HETATM    5  C   UNL     1     -11.756  14.492  69.534  1.00  0.00    -0.361 C  
HETATM    6  C   UNL     1     -12.029  14.916  68.296  1.00  0.00    -0.245 C  
BRANCH   6   7
HETATM    7  C   UNL     1     -11.064  14.690  67.208  1.00  0.00    -0.328 C  
HETATM    8  O   UNL     1     -11.090  15.235  66.120  1.00  0.00    -0.336 OA 
BRANCH   7   9
HETATM    9  O   UNL     1     -10.077  13.913  67.711  1.00  0.00    -0.233 OA 
BRANCH   9  10
HETATM   10  C   UNL     1      -9.336  13.169  66.732  1.00  0.00    -0.244 C  
BRANCH  10  11
HETATM   11  C   UNL     1      -8.645  12.046  67.498  1.00  0.00    -0.167 C  
BRANCH  11  12
HETATM   12  N   UNL     1      -9.161  10.727  67.227  1.00  0.00    -0.144 N  
HETATM   13  C   UNL     1      -8.628   9.878  66.302  1.00  0.00    -0.128 C  
HETATM   14  O   UNL     1      -7.588  10.030  65.685  1.00  0.00    -0.123 OA 
HETATM   15  C   UNL     1      -9.573   8.726  66.128  1.00  0.00    -0.323 C  
HETATM   16  C   UNL     1     -10.481   8.814  67.342  1.00  0.00    -0.349 C  
HETATM   17  C   UNL     1     -10.212  10.179  67.898  1.00  0.00    -0.180 C  
HETATM   18  O   UNL     1     -10.816  10.680  68.835  1.00  0.00    -0.200 OA 
ENDBRANCH  11  12
ENDBRANCH  10  11
ENDBRANCH   9  10
ENDBRANCH   7   9
ENDBRANCH   6   7
ENDBRANCH   3   5
ENDBRANCH   2   3
TORSDOF 7
ENDMDL
MODEL      199
REMARK 921   NORMALIZED FREE ENERGY PREDICTED BY IDOCK:   -3.72 KCAL/MOL
REMARK 922        TOTAL FREE ENERGY PREDICTED BY IDOCK:   -5.67 KCAL/MOL
REMARK 923 INTER-LIGAND FREE ENERGY PREDICTED BY IDOCK:   -5.12 KCAL/MOL
REMARK 924 INTRA-LIGAND FREE ENERGY PREDICTED BY IDOCK:   -0.56 KCAL/MOL
REMARK 927      BINDING AFFINITY PREDICTED BY RF-SCORE:    0.00 PKD
ROOT
HETATM    1  C   UNL     1     -10.348  15.942  65.037  1.00  0.00    -0.159 C  
HETATM    2  O   UNL     1     -11.579  15.726  64.347  1.00  0.00    -0.401 OA 
ENDROOT
BRANCH   2   3
HETATM    3  C   UNL     1     -11.946  14.424  64.291  1.00  0.00    -0.410 C  
HETATM    4  O   UNL     1     -12.677  13.906  63.462  1.00  0.00    -0.797 OA 
BRANCH   3   5
HETATM    5  C   UNL     1     -11.329  13.719  65.426  1.00  0.00    -0.314 C  
HETATM    6  C   UNL     1     -11.893  12.582  65.846  1.00  0.00    -0.489 C  
BRANCH   6   7
HETATM    7  C   UNL     1     -11.405  11.922  67.068  1.00  0.00    -0.329 C  
HETATM    8  O   UNL     1     -12.097  11.311  67.862  1.00  0.00    -0.634 OA 
BRANCH   7   9
HETATM    9  O   UNL     1     -10.053  11.980  67.034  1.00  0.00    -0.202 OA 
BRANCH   9  10
HETATM   10  C   UNL     1      -9.387  10.939  67.766  1.00  0.00    -0.157 C  
BRANCH  10  11
HETATM   11  C   UNL     1      -9.331   9.740  66.825  1.00  0.00    -0.152 C  
BRANCH  11  12
HETATM   12  N   UNL     1      -8.389   9.869  65.741  1.00  0.00    -0.124 N  
HETATM   13  C   UNL     1      -8.750  10.033  64.436  1.00  0.00    -0.199 C  
HETATM   14  O   UNL     1      -9.874  10.233  64.009  1.00  0.00    -0.311 OA 
HETATM   15  C   UNL     1      -7.523   9.874  63.590  1.00  0.00    -0.135 C  
HETATM   16  C   UNL     1      -6.379  10.012  64.578  1.00  0.00    -0.130 C  
HETATM   17  C   UNL     1      -7.038   9.882  65.917  1.00  0.00    -0.107 C  
HETATM   18  O   UNL     1      -6.445   9.846  66.985  1.00  0.00    -0.067 OA 
ENDBRANCH  11  12
ENDBRANCH  10  11
ENDBRANCH   9  10
ENDBRANCH   7   9
ENDBRANCH   6   7
ENDBRANCH   3   5
ENDBRANCH   2   3
TORSDOF 7
ENDMDL
MODEL      200
REMARK 921   NORMALIZED FREE ENERGY PREDICTED BY IDOCK:   -3.71 KCAL/MOL
REMARK 922        TOTAL FREE ENERGY PREDICTED BY IDOCK:   -5.67 KCAL/MOL
REMARK 923 INTER-LIGAND FREE ENERGY PREDICTED BY IDOCK:   -5.57 KCAL/MOL
REMARK 924 INTRA-LIGAND FREE ENERGY PREDICTED BY IDOCK:   -0.09 KCAL/MOL
REMARK 927      BINDING AFFINITY PREDICTED BY RF-SCORE:    0.00 PKD
ROOT
HETATM    1  C   UNL     1      -7.490   6.873  70.633  1.00  0.00    -0.082 C  
HETATM    2  O   UNL     1      -8.822   7.037  71.119  1.00  0.00    -0.140 OA 
ENDROOT
BRANCH   2   3
HETATM    3  C   UNL     1      -8.915   7.883  72.172  1.00  0.00    -0.146 C  
HETATM    4  O   UNL     1      -8.330   7.787  73.239  1.00  0.00    -0.131 OA 
BRANCH   3   5
HETATM    5  C   UNL     1      -9.869   8.949  71.827  1.00  0.00    -0.386 C  
HETATM    6  C   UNL     1     -11.169   8.731  72.054  1.00  0.00    -0.443 C  
BRANCH   6   7
HETATM    7  C   UNL     1     -12.172   9.701  71.588  1.00  0.00    -0.402 C  
HETATM    8  O   UNL     1     -13.260   9.890  72.102  1.00  0.00    -0.438 OA 
BRANCH   7   9
HETATM    9  O   UNL     1     -11.587  10.438  70.615  1.00  0.00    -0.305 OA 
BRANCH   9  10
HETATM   10  C   UNL     1     -12.477  11.313  69.904  1.00  0.00    -0.153 C  
BRANCH  10  11
HETATM   11  C   UNL     1     -11.634  12.512  69.484  1.00  0.00    -0.281 C  
BRANCH  11  12
HETATM   12  N   UNL     1     -11.790  12.903  68.105  1.00  0.00    -0.348 N  
HETATM   13  C   UNL     1     -11.962  14.192  67.695  1.00  0.00    -0.370 C  
HETATM   14  O   UNL     1     -11.869  15.195  68.382  1.00  0.00    -0.328 OA 
HETATM   15  C   UNL     1     -12.338  14.174  66.244  1.00  0.00    -0.451 C  
HETATM   16  C   UNL     1     -11.960  12.776  65.788  1.00  0.00    -0.502 C  
HETATM   17  C   UNL     1     -11.742  12.024  67.064  1.00  0.00    -0.267 C  
HETATM   18  O   UNL     1     -11.509  10.826  67.136  1.00  0.00    -0.400 OA 
ENDBRANCH  11  12
ENDBRANCH  10  11
ENDBRANCH   9  10
ENDBRANCH   7   9
ENDBRANCH   6   7
ENDBRANCH   3   5
ENDBRANCH   2   3
TORSDOF 7
ENDMDL
MODEL      201
REMARK 921   NORMALIZED FREE ENERGY PREDICTED BY IDOCK:   -3.70 KCAL/MOL
REMARK 922        TOTAL FREE ENERGY PREDICTED BY IDOCK:   -5.65 KCAL/MOL
REMARK 923 INTER-LIGAND FREE ENERGY PREDICTED BY IDOCK:   -5.33 KCAL/MOL
REMARK 924 INTRA-LIGAND FREE ENERGY PREDICTED BY IDOCK:   -0.32 KCAL/MOL
REMARK 927      BINDING AFFINITY PREDICTED BY RF-SCORE:    0.00 PKD
ROOT
HETATM    1  C   UNL     1      -8.637  18.253  66.287  1.00  0.00    -0.184 C  
HETATM    2  O   UNL     1      -9.756  17.501  66.755  1.00  0.00    -0.271 OA 
ENDROOT
BRANCH   2   3
HETATM    3  C   UNL     1     -10.523  16.996  65.760  1.00  0.00    -0.251 C  
HETATM    4  O   UNL     1     -10.862  17.568  64.737  1.00  0.00    -0.814 OA 
BRANCH   3   5
HETATM    5  C   UNL     1     -10.910  15.624  66.125  1.00  0.00    -0.264 C  
HETATM    6  C   UNL     1     -11.653  14.925  65.260  1.00  0.00    -0.300 C  
BRANCH   6   7
HETATM    7  C   UNL     1     -12.191  13.610  65.642  1.00  0.00    -0.454 C  
HETATM    8  O   UNL     1     -13.156  13.071  65.134  1.00  0.00    -0.740 OA 
BRANCH   7   9
HETATM    9  O   UNL     1     -11.315  13.065  66.519  1.00  0.00    -0.295 OA 
BRANCH   9  10
HETATM   10  C   UNL     1     -11.889  12.665  67.773  1.00  0.00    -0.323 C  
BRANCH  10  11
HETATM   11  C   UNL     1     -10.797  12.879  68.816  1.00  0.00    -0.242 C  
BRANCH  11  12
HETATM   12  N   UNL     1      -9.452  12.785  68.306  1.00  0.00    -0.216 N  
HETATM   13  C   UNL     1      -8.561  13.818  68.319  1.00  0.00    -0.175 C  
HETATM   14  O   UNL     1      -8.700  14.896  68.870  1.00  0.00    -0.174 OA 
HETATM   15  C   UNL     1      -7.378  13.422  67.487  1.00  0.00    -0.165 C  
HETATM   16  C   UNL     1      -7.517  11.917  67.348  1.00  0.00    -0.148 C  
HETATM   17  C   UNL     1      -8.920  11.639  67.795  1.00  0.00    -0.170 C  
HETATM   18  O   UNL     1      -9.463  10.546  67.748  1.00  0.00    -0.147 OA 
ENDBRANCH  11  12
ENDBRANCH  10  11
ENDBRANCH   9  10
ENDBRANCH   7   9
ENDBRANCH   6   7
ENDBRANCH   3   5
ENDBRANCH   2   3
TORSDOF 7
ENDMDL
MODEL      202
REMARK 921   NORMALIZED FREE ENERGY PREDICTED BY IDOCK:   -3.69 KCAL/MOL
REMARK 922        TOTAL FREE ENERGY PREDICTED BY IDOCK:   -5.63 KCAL/MOL
REMARK 923 INTER-LIGAND FREE ENERGY PREDICTED BY IDOCK:   -5.06 KCAL/MOL
REMARK 924 INTRA-LIGAND FREE ENERGY PREDICTED BY IDOCK:   -0.58 KCAL/MOL
REMARK 927      BINDING AFFINITY PREDICTED BY RF-SCORE:    0.00 PKD
ROOT
HETATM    1  C   UNL     1     -12.764  13.526  71.030  1.00  0.00    -0.322 C  
HETATM    2  O   UNL     1     -11.721  12.809  70.371  1.00  0.00    -0.210 OA 
ENDROOT
BRANCH   2   3
HETATM    3  C   UNL     1     -12.124  11.628  69.845  1.00  0.00    -0.301 C  
HETATM    4  O   UNL     1     -12.283  11.371  68.663  1.00  0.00    -0.532 OA 
BRANCH   3   5
HETATM    5  C   UNL     1     -12.366  10.688  70.951  1.00  0.00    -0.502 C  
HETATM    6  C   UNL     1     -13.408   9.855  70.856  1.00  0.00    -0.256 C  
BRANCH   6   7
HETATM    7  C   UNL     1     -13.780   9.004  71.997  1.00  0.00    -0.461 C  
HETATM    8  O   UNL     1     -14.279   9.397  73.035  1.00  0.00    -0.310 OA 
BRANCH   7   9
HETATM    9  O   UNL     1     -13.624   7.719  71.599  1.00  0.00    -0.353 OA 
BRANCH   9  10
HETATM   10  C   UNL     1     -12.353   7.136  71.928  1.00  0.00    -0.317 C  
BRANCH  10  11
HETATM   11  C   UNL     1     -11.825   6.531  70.632  1.00  0.00    -0.335 C  
BRANCH  11  12
HETATM   12  N   UNL     1     -10.412   6.716  70.415  1.00  0.00    -0.205 N  
HETATM   13  C   UNL     1      -9.889   7.643  69.562  1.00  0.00    -0.178 C  
HETATM   14  O   UNL     1     -10.497   8.525  68.981  1.00  0.00    -0.219 OA 
HETATM   15  C   UNL     1      -8.423   7.365  69.415  1.00  0.00    -0.133 C  
HETATM   16  C   UNL     1      -8.106   6.449  70.583  1.00  0.00    -0.113 C  
HETATM   17  C   UNL     1      -9.451   6.007  71.072  1.00  0.00    -0.168 C  
HETATM   18  O   UNL     1      -9.635   5.181  71.954  1.00  0.00    -0.144 OA 
ENDBRANCH  11  12
ENDBRANCH  10  11
ENDBRANCH   9  10
ENDBRANCH   7   9
ENDBRANCH   6   7
ENDBRANCH   3   5
ENDBRANCH   2   3
TORSDOF 7
ENDMDL
MODEL      203
REMARK 921   NORMALIZED FREE ENERGY PREDICTED BY IDOCK:   -3.68 KCAL/MOL
REMARK 922        TOTAL FREE ENERGY PREDICTED BY IDOCK:   -5.62 KCAL/MOL
REMARK 923 INTER-LIGAND FREE ENERGY PREDICTED BY IDOCK:   -5.47 KCAL/MOL
REMARK 924 INTRA-LIGAND FREE ENERGY PREDICTED BY IDOCK:   -0.15 KCAL/MOL
REMARK 927      BINDING AFFINITY PREDICTED BY RF-SCORE:    0.00 PKD
ROOT
HETATM    1  C   UNL     1     -12.447  15.572  70.839  1.00  0.00    -0.440 C  
HETATM    2  O   UNL     1     -12.689  15.070  72.153  1.00  0.00    -0.303 OA 
ENDROOT
BRANCH   2   3
HETATM    3  C   UNL     1     -13.299  13.861  72.167  1.00  0.00    -0.463 C  
HETATM    4  O   UNL     1     -14.326  13.568  72.758  1.00  0.00    -0.640 OA 
BRANCH   3   5
HETATM    5  C   UNL     1     -12.500  12.930  71.355  1.00  0.00    -0.234 C  
HETATM    6  C   UNL     1     -12.917  11.663  71.252  1.00  0.00    -0.368 C  
BRANCH   6   7
HETATM    7  C   UNL     1     -12.075  10.661  70.580  1.00  0.00    -0.355 C  
HETATM    8  O   UNL     1     -11.366   9.846  71.141  1.00  0.00    -0.357 OA 
BRANCH   7   9
HETATM    9  O   UNL     1     -12.379  10.711  69.261  1.00  0.00    -0.316 OA 
BRANCH   9  10
HETATM   10  C   UNL     1     -11.581  11.627  68.494  1.00  0.00    -0.317 C  
BRANCH  10  11
HETATM   11  C   UNL     1     -10.211  10.970  68.357  1.00  0.00    -0.185 C  
BRANCH  11  12
HETATM   12  N   UNL     1      -9.791  10.734  66.997  1.00  0.00    -0.183 N  
HETATM   13  C   UNL     1      -9.087  11.634  66.253  1.00  0.00    -0.214 C  
HETATM   14  O   UNL     1      -8.593  12.678  66.644  1.00  0.00    -0.148 OA 
HETATM   15  C   UNL     1      -9.059  11.145  64.836  1.00  0.00    -0.111 C  
HETATM   16  C   UNL     1      -9.466   9.687  64.946  1.00  0.00    -0.288 C  
HETATM   17  C   UNL     1     -10.022   9.568  66.331  1.00  0.00    -0.269 C  
HETATM   18  O   UNL     1     -10.548   8.564  66.787  1.00  0.00    -0.283 OA 
ENDBRANCH  11  12
ENDBRANCH  10  11
ENDBRANCH   9  10
ENDBRANCH   7   9
ENDBRANCH   6   7
ENDBRANCH   3   5
ENDBRANCH   2   3
TORSDOF 7
ENDMDL
MODEL      204
REMARK 921   NORMALIZED FREE ENERGY PREDICTED BY IDOCK:   -3.68 KCAL/MOL
REMARK 922        TOTAL FREE ENERGY PREDICTED BY IDOCK:   -5.62 KCAL/MOL
REMARK 923 INTER-LIGAND FREE ENERGY PREDICTED BY IDOCK:   -5.21 KCAL/MOL
REMARK 924 INTRA-LIGAND FREE ENERGY PREDICTED BY IDOCK:   -0.41 KCAL/MOL
REMARK 927      BINDING AFFINITY PREDICTED BY RF-SCORE:    0.00 PKD
ROOT
HETATM    1  C   UNL     1      -9.461   4.295  66.455  1.00  0.00    -0.183 C  
HETATM    2  O   UNL     1     -10.695   4.952  66.741  1.00  0.00    -0.187 OA 
ENDROOT
BRANCH   2   3
HETATM    3  C   UNL     1     -10.558   6.041  67.532  1.00  0.00    -0.273 C  
HETATM    4  O   UNL     1     -11.227   6.320  68.515  1.00  0.00    -0.352 OA 
BRANCH   3   5
HETATM    5  C   UNL     1      -9.463   6.867  66.998  1.00  0.00    -0.183 C  
HETATM    6  C   UNL     1      -9.753   8.102  66.573  1.00  0.00    -0.309 C  
BRANCH   6   7
HETATM    7  C   UNL     1      -8.727   8.909  65.893  1.00  0.00    -0.170 C  
HETATM    8  O   UNL     1      -7.930   8.489  65.075  1.00  0.00    -0.114 OA 
BRANCH   7   9
HETATM    9  O   UNL     1      -8.961  10.201  66.220  1.00  0.00    -0.145 OA 
BRANCH   9  10
HETATM   10  C   UNL     1     -10.281  10.673  65.905  1.00  0.00    -0.251 C  
BRANCH  10  11
HETATM   11  C   UNL     1     -10.129  11.529  64.653  1.00  0.00    -0.271 C  
BRANCH  11  12
HETATM   12  N   UNL     1     -10.851  12.777  64.686  1.00  0.00    -0.316 N  
HETATM   13  C   UNL     1     -12.035  12.987  64.042  1.00  0.00    -0.456 C  
HETATM   14  O   UNL     1     -12.719  12.149  63.479  1.00  0.00    -0.718 OA 
HETATM   15  C   UNL     1     -12.342  14.453  64.098  1.00  0.00    -0.340 C  
HETATM   16  C   UNL     1     -11.421  14.977  65.185  1.00  0.00    -0.339 C  
HETATM   17  C   UNL     1     -10.442  13.863  65.399  1.00  0.00    -0.345 C  
HETATM   18  O   UNL     1      -9.469  13.923  66.137  1.00  0.00    -0.255 OA 
ENDBRANCH  11  12
ENDBRANCH  10  11
ENDBRANCH   9  10
ENDBRANCH   7   9
ENDBRANCH   6   7
ENDBRANCH   3   5
ENDBRANCH   2   3
TORSDOF 7
ENDMDL
MODEL      205
REMARK 921   NORMALIZED FREE ENERGY PREDICTED BY IDOCK:   -3.66 KCAL/MOL
REMARK 922        TOTAL FREE ENERGY PREDICTED BY IDOCK:   -5.60 KCAL/MOL
REMARK 923 INTER-LIGAND FREE ENERGY PREDICTED BY IDOCK:   -5.09 KCAL/MOL
REMARK 924 INTRA-LIGAND FREE ENERGY PREDICTED BY IDOCK:   -0.51 KCAL/MOL
REMARK 927      BINDING AFFINITY PREDICTED BY RF-SCORE:    0.00 PKD
ROOT
HETATM    1  C   UNL     1     -13.475   9.869  71.772  1.00  0.00    -0.353 C  
HETATM    2  O   UNL     1     -12.652  10.990  71.449  1.00  0.00    -0.390 OA 
ENDROOT
BRANCH   2   3
HETATM    3  C   UNL     1     -11.887  10.801  70.349  1.00  0.00    -0.358 C  
HETATM    4  O   UNL     1     -11.519   9.732  69.889  1.00  0.00    -0.222 OA 
BRANCH   3   5
HETATM    5  C   UNL     1     -11.543  12.119  69.792  1.00  0.00    -0.334 C  
HETATM    6  C   UNL     1     -12.307  13.165  70.125  1.00  0.00    -0.284 C  
BRANCH   6   7
HETATM    7  C   UNL     1     -12.097  14.470  69.478  1.00  0.00    -0.306 C  
HETATM    8  O   UNL     1     -12.616  15.516  69.820  1.00  0.00    -0.251 OA 
BRANCH   7   9
HETATM    9  O   UNL     1     -11.106  14.305  68.571  1.00  0.00    -0.239 OA 
BRANCH   9  10
HETATM   10  C   UNL     1     -11.047  15.315  67.552  1.00  0.00    -0.324 C  
BRANCH  10  11
HETATM   11  C   UNL     1      -9.973  14.856  66.572  1.00  0.00    -0.265 C  
BRANCH  11  12
HETATM   12  N   UNL     1      -9.925  13.431  66.357  1.00  0.00    -0.287 N  
HETATM   13  C   UNL     1      -8.962  12.616  66.875  1.00  0.00    -0.213 C  
HETATM   14  O   UNL     1      -8.106  12.922  67.687  1.00  0.00    -0.142 OA 
HETATM   15  C   UNL     1      -9.099  11.267  66.234  1.00  0.00    -0.209 C  
HETATM   16  C   UNL     1     -10.484  11.298  65.614  1.00  0.00    -0.317 C  
HETATM   17  C   UNL     1     -10.864  12.746  65.645  1.00  0.00    -0.273 C  
HETATM   18  O   UNL     1     -11.880  13.211  65.150  1.00  0.00    -0.326 OA 
ENDBRANCH  11  12
ENDBRANCH  10  11
ENDBRANCH   9  10
ENDBRANCH   7   9
ENDBRANCH   6   7
ENDBRANCH   3   5
ENDBRANCH   2   3
TORSDOF 7
ENDMDL
MODEL      206
REMARK 921   NORMALIZED FREE ENERGY PREDICTED BY IDOCK:   -3.66 KCAL/MOL
REMARK 922        TOTAL FREE ENERGY PREDICTED BY IDOCK:   -5.60 KCAL/MOL
REMARK 923 INTER-LIGAND FREE ENERGY PREDICTED BY IDOCK:   -5.09 KCAL/MOL
REMARK 924 INTRA-LIGAND FREE ENERGY PREDICTED BY IDOCK:   -0.51 KCAL/MOL
REMARK 927      BINDING AFFINITY PREDICTED BY RF-SCORE:    0.00 PKD
ROOT
HETATM    1  C   UNL     1      -8.732   7.236  66.516  1.00  0.00    -0.133 C  
HETATM    2  O   UNL     1      -9.867   8.101  66.478  1.00  0.00    -0.240 OA 
ENDROOT
BRANCH   2   3
HETATM    3  C   UNL     1      -9.639   9.264  65.824  1.00  0.00    -0.271 C  
HETATM    4  O   UNL     1      -9.061   9.402  64.758  1.00  0.00    -0.227 OA 
BRANCH   3   5
HETATM    5  C   UNL     1     -10.193  10.364  66.629  1.00  0.00    -0.292 C  
HETATM    6  C   UNL     1     -10.649  10.083  67.855  1.00  0.00    -0.298 C  
BRANCH   6   7
HETATM    7  C   UNL     1     -11.348  11.114  68.638  1.00  0.00    -0.277 C  
HETATM    8  O   UNL     1     -12.205  11.863  68.208  1.00  0.00    -0.447 OA 
BRANCH   7   9
HETATM    9  O   UNL     1     -10.981  10.944  69.930  1.00  0.00    -0.257 OA 
BRANCH   9  10
HETATM   10  C   UNL     1     -10.604   9.603  70.278  1.00  0.00    -0.278 C  
BRANCH  10  11
HETATM   11  C   UNL     1     -11.293   9.308  71.606  1.00  0.00    -0.397 C  
BRANCH  11  12
HETATM   12  N   UNL     1     -11.054   7.984  72.126  1.00  0.00    -0.286 N  
HETATM   13  C   UNL     1     -11.855   6.911  71.870  1.00  0.00    -0.315 C  
HETATM   14  O   UNL     1     -12.780   6.862  71.077  1.00  0.00    -0.356 OA 
HETATM   15  C   UNL     1     -11.437   5.791  72.775  1.00  0.00    -0.304 C  
HETATM   16  C   UNL     1     -10.065   6.215  73.268  1.00  0.00    -0.205 C  
HETATM   17  C   UNL     1      -9.977   7.663  72.897  1.00  0.00    -0.261 C  
HETATM   18  O   UNL     1      -9.056   8.406  73.203  1.00  0.00    -0.244 OA 
ENDBRANCH  11  12
ENDBRANCH  10  11
ENDBRANCH   9  10
ENDBRANCH   7   9
ENDBRANCH   6   7
ENDBRANCH   3   5
ENDBRANCH   2   3
TORSDOF 7
ENDMDL
MODEL      207
REMARK 921   NORMALIZED FREE ENERGY PREDICTED BY IDOCK:   -3.65 KCAL/MOL
REMARK 922        TOTAL FREE ENERGY PREDICTED BY IDOCK:   -5.58 KCAL/MOL
REMARK 923 INTER-LIGAND FREE ENERGY PREDICTED BY IDOCK:   -4.96 KCAL/MOL
REMARK 924 INTRA-LIGAND FREE ENERGY PREDICTED BY IDOCK:   -0.62 KCAL/MOL
REMARK 927      BINDING AFFINITY PREDICTED BY RF-SCORE:    0.00 PKD
ROOT
HETATM    1  C   UNL     1      -8.116  17.762  66.138  1.00  0.00    -0.181 C  
HETATM    2  O   UNL     1      -8.742  17.816  67.419  1.00  0.00    -0.231 OA 
ENDROOT
BRANCH   2   3
HETATM    3  C   UNL     1     -10.082  18.006  67.360  1.00  0.00    -0.349 C  
HETATM    4  O   UNL     1     -10.670  18.869  66.728  1.00  0.00    -0.407 OA 
BRANCH   3   5
HETATM    5  C   UNL     1     -10.730  16.998  68.214  1.00  0.00    -0.372 C  
HETATM    6  C   UNL     1     -10.766  15.733  67.783  1.00  0.00    -0.307 C  
BRANCH   6   7
HETATM    7  C   UNL     1     -11.532  14.720  68.526  1.00  0.00    -0.308 C  
HETATM    8  O   UNL     1     -11.493  14.552  69.731  1.00  0.00    -0.259 OA 
BRANCH   7   9
HETATM    9  O   UNL     1     -12.393  14.154  67.648  1.00  0.00    -0.273 OA 
BRANCH   9  10
HETATM   10  C   UNL     1     -11.776  13.568  66.491  1.00  0.00    -0.371 C  
BRANCH  10  11
HETATM   11  C   UNL     1     -11.545  12.102  66.841  1.00  0.00    -0.341 C  
BRANCH  11  12
HETATM   12  N   UNL     1     -10.312  11.550  66.336  1.00  0.00    -0.230 N  
HETATM   13  C   UNL     1     -10.180  10.990  65.099  1.00  0.00    -0.291 C  
HETATM   14  O   UNL     1     -11.007  10.995  64.204  1.00  0.00    -0.314 OA 
HETATM   15  C   UNL     1      -8.845  10.311  65.035  1.00  0.00    -0.209 C  
HETATM   16  C   UNL     1      -8.083  10.896  66.210  1.00  0.00    -0.165 C  
HETATM   17  C   UNL     1      -9.140  11.569  67.031  1.00  0.00    -0.175 C  
HETATM   18  O   UNL     1      -8.951  12.088  68.120  1.00  0.00    -0.179 OA 
ENDBRANCH  11  12
ENDBRANCH  10  11
ENDBRANCH   9  10
ENDBRANCH   7   9
ENDBRANCH   6   7
ENDBRANCH   3   5
ENDBRANCH   2   3
TORSDOF 7
ENDMDL
MODEL      208
REMARK 921   NORMALIZED FREE ENERGY PREDICTED BY IDOCK:   -3.63 KCAL/MOL
REMARK 922        TOTAL FREE ENERGY PREDICTED BY IDOCK:   -5.56 KCAL/MOL
REMARK 923 INTER-LIGAND FREE ENERGY PREDICTED BY IDOCK:   -5.32 KCAL/MOL
REMARK 924 INTRA-LIGAND FREE ENERGY PREDICTED BY IDOCK:   -0.24 KCAL/MOL
REMARK 927      BINDING AFFINITY PREDICTED BY RF-SCORE:    0.00 PKD
ROOT
HETATM    1  C   UNL     1     -12.213  11.981  63.409  1.00  0.00    -0.519 C  
HETATM    2  O   UNL     1     -12.432  13.313  63.875  1.00  0.00    -0.641 OA 
ENDROOT
BRANCH   2   3
HETATM    3  C   UNL     1     -11.736  13.615  64.997  1.00  0.00    -0.339 C  
HETATM    4  O   UNL     1     -11.063  14.614  65.192  1.00  0.00    -0.336 OA 
BRANCH   3   5
HETATM    5  C   UNL     1     -11.906  12.514  65.958  1.00  0.00    -0.478 C  
HETATM    6  C   UNL     1     -11.441  12.682  67.200  1.00  0.00    -0.406 C  
BRANCH   6   7
HETATM    7  C   UNL     1     -11.451  11.559  68.152  1.00  0.00    -0.315 C  
HETATM    8  O   UNL     1     -12.347  11.311  68.938  1.00  0.00    -0.485 OA 
BRANCH   7   9
HETATM    9  O   UNL     1     -10.380  10.785  67.859  1.00  0.00    -0.172 OA 
BRANCH   9  10
HETATM   10  C   UNL     1      -9.162  11.168  68.516  1.00  0.00    -0.183 C  
BRANCH  10  11
HETATM   11  C   UNL     1      -8.454   9.866  68.873  1.00  0.00    -0.127 C  
BRANCH  11  12
HETATM   12  N   UNL     1      -9.335   8.748  69.109  1.00  0.00    -0.149 N  
HETATM   13  C   UNL     1      -9.775   7.907  68.130  1.00  0.00    -0.159 C  
HETATM   14  O   UNL     1      -9.397   7.874  66.971  1.00  0.00    -0.145 OA 
HETATM   15  C   UNL     1     -10.855   7.043  68.708  1.00  0.00    -0.198 C  
HETATM   16  C   UNL     1     -10.689   7.208  70.208  1.00  0.00    -0.258 C  
HETATM   17  C   UNL     1      -9.787   8.396  70.346  1.00  0.00    -0.181 C  
HETATM   18  O   UNL     1      -9.479   8.918  71.407  1.00  0.00    -0.235 OA 
ENDBRANCH  11  12
ENDBRANCH  10  11
ENDBRANCH   9  10
ENDBRANCH   7   9
ENDBRANCH   6   7
ENDBRANCH   3   5
ENDBRANCH   2   3
TORSDOF 7
ENDMDL
MODEL      209
REMARK 921   NORMALIZED FREE ENERGY PREDICTED BY IDOCK:   -3.63 KCAL/MOL
REMARK 922        TOTAL FREE ENERGY PREDICTED BY IDOCK:   -5.55 KCAL/MOL
REMARK 923 INTER-LIGAND FREE ENERGY PREDICTED BY IDOCK:   -5.18 KCAL/MOL
REMARK 924 INTRA-LIGAND FREE ENERGY PREDICTED BY IDOCK:   -0.37 KCAL/MOL
REMARK 927      BINDING AFFINITY PREDICTED BY RF-SCORE:    0.00 PKD
ROOT
HETATM    1  C   UNL     1      -9.772  11.404  63.087  1.00  0.00    -0.393 C  
HETATM    2  O   UNL     1     -10.348  12.503  63.793  1.00  0.00    -0.418 OA 
ENDROOT
BRANCH   2   3
HETATM    3  C   UNL     1     -10.205  12.419  65.136  1.00  0.00    -0.281 C  
HETATM    4  O   UNL     1      -9.959  13.336  65.903  1.00  0.00    -0.285 OA 
BRANCH   3   5
HETATM    5  C   UNL     1     -10.373  11.012  65.533  1.00  0.00    -0.321 C  
HETATM    6  C   UNL     1     -10.513  10.735  66.834  1.00  0.00    -0.304 C  
BRANCH   6   7
HETATM    7  C   UNL     1     -10.533   9.337  67.294  1.00  0.00    -0.264 C  
HETATM    8  O   UNL     1     -10.288   8.366  66.603  1.00  0.00    -0.303 OA 
BRANCH   7   9
HETATM    9  O   UNL     1     -10.698   9.366  68.637  1.00  0.00    -0.213 OA 
BRANCH   9  10
HETATM   10  C   UNL     1     -10.026   8.316  69.350  1.00  0.00    -0.188 C  
BRANCH  10  11
HETATM   11  C   UNL     1     -11.126   7.410  69.890  1.00  0.00    -0.190 C  
BRANCH  11  12
HETATM   12  N   UNL     1     -10.927   6.966  71.248  1.00  0.00    -0.238 N  
HETATM   13  C   UNL     1     -11.199   7.729  72.345  1.00  0.00    -0.337 C  
HETATM   14  O   UNL     1     -11.766   8.809  72.361  1.00  0.00    -0.353 OA 
HETATM   15  C   UNL     1     -10.633   7.035  73.547  1.00  0.00    -0.405 C  
HETATM   16  C   UNL     1     -10.380   5.619  73.064  1.00  0.00    -0.230 C  
HETATM   17  C   UNL     1     -10.483   5.719  71.573  1.00  0.00    -0.235 C  
HETATM   18  O   UNL     1     -10.252   4.805  70.796  1.00  0.00    -0.225 OA 
ENDBRANCH  11  12
ENDBRANCH  10  11
ENDBRANCH   9  10
ENDBRANCH   7   9
ENDBRANCH   6   7
ENDBRANCH   3   5
ENDBRANCH   2   3
TORSDOF 7
ENDMDL
MODEL      210
REMARK 921   NORMALIZED FREE ENERGY PREDICTED BY IDOCK:   -3.60 KCAL/MOL
REMARK 922        TOTAL FREE ENERGY PREDICTED BY IDOCK:   -5.52 KCAL/MOL
REMARK 923 INTER-LIGAND FREE ENERGY PREDICTED BY IDOCK:   -5.05 KCAL/MOL
REMARK 924 INTRA-LIGAND FREE ENERGY PREDICTED BY IDOCK:   -0.47 KCAL/MOL
REMARK 927      BINDING AFFINITY PREDICTED BY RF-SCORE:    0.00 PKD
ROOT
HETATM    1  C   UNL     1     -14.272   7.837  71.617  1.00  0.00    -0.457 C  
HETATM    2  O   UNL     1     -14.289   9.028  72.404  1.00  0.00    -0.499 OA 
ENDROOT
BRANCH   2   3
HETATM    3  C   UNL     1     -13.312   9.906  72.077  1.00  0.00    -0.432 C  
HETATM    4  O   UNL     1     -13.221  11.067  72.444  1.00  0.00    -0.259 OA 
BRANCH   3   5
HETATM    5  C   UNL     1     -12.367   9.232  71.174  1.00  0.00    -0.363 C  
HETATM    6  C   UNL     1     -11.558   9.990  70.425  1.00  0.00    -0.379 C  
BRANCH   6   7
HETATM    7  C   UNL     1     -10.704   9.370  69.399  1.00  0.00    -0.217 C  
HETATM    8  O   UNL     1     -10.822   8.234  68.978  1.00  0.00    -0.131 OA 
BRANCH   7   9
HETATM    9  O   UNL     1      -9.903  10.346  68.910  1.00  0.00    -0.181 OA 
BRANCH   9  10
HETATM   10  C   UNL     1     -10.520  11.640  68.814  1.00  0.00    -0.204 C  
BRANCH  10  11
HETATM   11  C   UNL     1     -10.354  12.073  67.362  1.00  0.00    -0.207 C  
BRANCH  11  12
HETATM   12  N   UNL     1      -9.815  13.399  67.188  1.00  0.00    -0.233 N  
HETATM   13  C   UNL     1      -8.482  13.687  67.211  1.00  0.00    -0.194 C  
HETATM   14  O   UNL     1      -7.562  12.887  67.236  1.00  0.00    -0.153 OA 
HETATM   15  C   UNL     1      -8.328  15.178  67.251  1.00  0.00    -0.225 C  
HETATM   16  C   UNL     1      -9.693  15.696  66.836  1.00  0.00    -0.240 C  
HETATM   17  C   UNL     1     -10.584  14.497  66.941  1.00  0.00    -0.279 C  
HETATM   18  O   UNL     1     -11.795  14.512  66.778  1.00  0.00    -0.392 OA 
ENDBRANCH  11  12
ENDBRANCH  10  11
ENDBRANCH   9  10
ENDBRANCH   7   9
ENDBRANCH   6   7
ENDBRANCH   3   5
ENDBRANCH   2   3
TORSDOF 7
ENDMDL
MODEL      211
REMARK 921   NORMALIZED FREE ENERGY PREDICTED BY IDOCK:   -3.59 KCAL/MOL
REMARK 922        TOTAL FREE ENERGY PREDICTED BY IDOCK:   -5.50 KCAL/MOL
REMARK 923 INTER-LIGAND FREE ENERGY PREDICTED BY IDOCK:   -5.07 KCAL/MOL
REMARK 924 INTRA-LIGAND FREE ENERGY PREDICTED BY IDOCK:   -0.43 KCAL/MOL
REMARK 927      BINDING AFFINITY PREDICTED BY RF-SCORE:    0.00 PKD
ROOT
HETATM    1  C   UNL     1     -13.146   9.487  71.962  1.00  0.00    -0.438 C  
HETATM    2  O   UNL     1     -12.058  10.144  71.313  1.00  0.00    -0.348 OA 
ENDROOT
BRANCH   2   3
HETATM    3  C   UNL     1     -12.358  11.392  70.882  1.00  0.00    -0.381 C  
HETATM    4  O   UNL     1     -12.629  12.359  71.577  1.00  0.00    -0.263 OA 
BRANCH   3   5
HETATM    5  C   UNL     1     -12.326  11.395  69.411  1.00  0.00    -0.184 C  
HETATM    6  C   UNL     1     -11.372  10.686  68.798  1.00  0.00    -0.339 C  
BRANCH   6   7
HETATM    7  C   UNL     1     -11.205  10.777  67.339  1.00  0.00    -0.241 C  
HETATM    8  O   UNL     1     -11.650  11.664  66.634  1.00  0.00    -0.493 OA 
BRANCH   7   9
HETATM    9  O   UNL     1     -10.334   9.805  66.980  1.00  0.00    -0.224 OA 
BRANCH   9  10
HETATM   10  C   UNL     1     -10.156   8.765  67.954  1.00  0.00    -0.207 C  
BRANCH  10  11
HETATM   11  C   UNL     1     -10.625   7.480  67.281  1.00  0.00    -0.324 C  
BRANCH  11  12
HETATM   12  N   UNL     1     -10.267   6.270  67.979  1.00  0.00    -0.155 N  
HETATM   13  C   UNL     1     -10.824   5.881  69.161  1.00  0.00    -0.336 C  
HETATM   14  O   UNL     1     -11.777   6.394  69.723  1.00  0.00    -0.414 OA 
HETATM   15  C   UNL     1     -10.029   4.727  69.694  1.00  0.00    -0.297 C  
HETATM   16  C   UNL     1      -9.227   4.253  68.494  1.00  0.00    -0.194 C  
HETATM   17  C   UNL     1      -9.360   5.369  67.504  1.00  0.00    -0.114 C  
HETATM   18  O   UNL     1      -8.780   5.421  66.430  1.00  0.00    -0.117 OA 
ENDBRANCH  11  12
ENDBRANCH  10  11
ENDBRANCH   9  10
ENDBRANCH   7   9
ENDBRANCH   6   7
ENDBRANCH   3   5
ENDBRANCH   2   3
TORSDOF 7
ENDMDL
MODEL      212
REMARK 921   NORMALIZED FREE ENERGY PREDICTED BY IDOCK:   -3.58 KCAL/MOL
REMARK 922        TOTAL FREE ENERGY PREDICTED BY IDOCK:   -5.48 KCAL/MOL
REMARK 923 INTER-LIGAND FREE ENERGY PREDICTED BY IDOCK:   -4.94 KCAL/MOL
REMARK 924 INTRA-LIGAND FREE ENERGY PREDICTED BY IDOCK:   -0.55 KCAL/MOL
REMARK 927      BINDING AFFINITY PREDICTED BY RF-SCORE:    0.00 PKD
ROOT
HETATM    1  C   UNL     1     -12.218  11.994  70.545  1.00  0.00    -0.325 C  
HETATM    2  O   UNL     1     -12.747  10.671  70.467  1.00  0.00    -0.340 OA 
ENDROOT
BRANCH   2   3
HETATM    3  C   UNL     1     -12.022   9.757  71.153  1.00  0.00    -0.376 C  
HETATM    4  O   UNL     1     -12.422   9.028  72.047  1.00  0.00    -0.347 OA 
BRANCH   3   5
HETATM    5  C   UNL     1     -10.638   9.795  70.654  1.00  0.00    -0.382 C  
HETATM    6  C   UNL     1     -10.375   9.223  69.475  1.00  0.00    -0.223 C  
BRANCH   6   7
HETATM    7  C   UNL     1      -8.986   9.102  69.005  1.00  0.00    -0.143 C  
HETATM    8  O   UNL     1      -8.008   8.993  69.722  1.00  0.00    -0.088 OA 
BRANCH   7   9
HETATM    9  O   UNL     1      -9.035   8.962  67.660  1.00  0.00    -0.133 OA 
BRANCH   9  10
HETATM   10  C   UNL     1     -10.202   9.522  67.037  1.00  0.00    -0.255 C  
BRANCH  10  11
HETATM   11  C   UNL     1      -9.741  10.817  66.379  1.00  0.00    -0.199 C  
BRANCH  11  12
HETATM   12  N   UNL     1     -10.299  12.016  66.955  1.00  0.00    -0.211 N  
HETATM   13  C   UNL     1     -11.475  12.576  66.552  1.00  0.00    -0.362 C  
HETATM   14  O   UNL     1     -12.284  12.097  65.775  1.00  0.00    -0.586 OA 
HETATM   15  C   UNL     1     -11.593  13.925  67.195  1.00  0.00    -0.391 C  
HETATM   16  C   UNL     1     -10.565  13.888  68.311  1.00  0.00    -0.263 C  
HETATM   17  C   UNL     1      -9.724  12.690  67.991  1.00  0.00    -0.215 C  
HETATM   18  O   UNL     1      -8.719  12.360  68.603  1.00  0.00    -0.096 OA 
ENDBRANCH  11  12
ENDBRANCH  10  11
ENDBRANCH   9  10
ENDBRANCH   7   9
ENDBRANCH   6   7
ENDBRANCH   3   5
ENDBRANCH   2   3
TORSDOF 7
ENDMDL
MODEL      213
REMARK 921   NORMALIZED FREE ENERGY PREDICTED BY IDOCK:   -3.56 KCAL/MOL
REMARK 922        TOTAL FREE ENERGY PREDICTED BY IDOCK:   -5.45 KCAL/MOL
REMARK 923 INTER-LIGAND FREE ENERGY PREDICTED BY IDOCK:   -4.81 KCAL/MOL
REMARK 924 INTRA-LIGAND FREE ENERGY PREDICTED BY IDOCK:   -0.64 KCAL/MOL
REMARK 927      BINDING AFFINITY PREDICTED BY RF-SCORE:    0.00 PKD
ROOT
HETATM    1  C   UNL     1      -7.180  15.069  69.407  1.00  0.00    -0.194 C  
HETATM    2  O   UNL     1      -8.555  15.397  69.209  1.00  0.00    -0.224 OA 
ENDROOT
BRANCH   2   3
HETATM    3  C   UNL     1      -8.827  15.860  67.966  1.00  0.00    -0.178 C  
HETATM    4  O   UNL     1      -9.035  17.020  67.648  1.00  0.00    -0.217 OA 
BRANCH   3   5
HETATM    5  C   UNL     1      -8.854  14.716  67.041  1.00  0.00    -0.262 C  
HETATM    6  C   UNL     1      -9.731  13.734  67.276  1.00  0.00    -0.242 C  
BRANCH   6   7
HETATM    7  C   UNL     1      -9.695  12.503  66.471  1.00  0.00    -0.246 C  
HETATM    8  O   UNL     1     -10.397  12.273  65.505  1.00  0.00    -0.254 OA 
BRANCH   7   9
HETATM    9  O   UNL     1      -8.634  11.781  66.904  1.00  0.00    -0.167 OA 
BRANCH   9  10
HETATM   10  C   UNL     1      -8.698  11.382  68.282  1.00  0.00    -0.160 C  
BRANCH  10  11
HETATM   11  C   UNL     1      -9.588  10.145  68.317  1.00  0.00    -0.141 C  
BRANCH  11  12
HETATM   12  N   UNL     1     -10.495  10.088  69.436  1.00  0.00    -0.216 N  
HETATM   13  C   UNL     1     -10.170   9.561  70.651  1.00  0.00    -0.297 C  
HETATM   14  O   UNL     1      -9.065   9.201  71.019  1.00  0.00    -0.236 OA 
HETATM   15  C   UNL     1     -11.427   9.448  71.461  1.00  0.00    -0.467 C  
HETATM   16  C   UNL     1     -12.413  10.341  70.729  1.00  0.00    -0.439 C  
HETATM   17  C   UNL     1     -11.760  10.593  69.404  1.00  0.00    -0.273 C  
HETATM   18  O   UNL     1     -12.276  11.200  68.478  1.00  0.00    -0.600 OA 
ENDBRANCH  11  12
ENDBRANCH  10  11
ENDBRANCH   9  10
ENDBRANCH   7   9
ENDBRANCH   6   7
ENDBRANCH   3   5
ENDBRANCH   2   3
TORSDOF 7
ENDMDL
MODEL      214
REMARK 921   NORMALIZED FREE ENERGY PREDICTED BY IDOCK:   -3.55 KCAL/MOL
REMARK 922        TOTAL FREE ENERGY PREDICTED BY IDOCK:   -5.44 KCAL/MOL
REMARK 923 INTER-LIGAND FREE ENERGY PREDICTED BY IDOCK:   -4.93 KCAL/MOL
REMARK 924 INTRA-LIGAND FREE ENERGY PREDICTED BY IDOCK:   -0.51 KCAL/MOL
REMARK 927      BINDING AFFINITY PREDICTED BY RF-SCORE:    0.00 PKD
ROOT
HETATM    1  C   UNL     1      -9.169   5.803  66.507  1.00  0.00    -0.143 C  
HETATM    2  O   UNL     1      -9.246   7.215  66.317  1.00  0.00    -0.167 OA 
ENDROOT
BRANCH   2   3
HETATM    3  C   UNL     1      -8.608   7.926  67.277  1.00  0.00    -0.128 C  
HETATM    4  O   UNL     1      -7.445   7.803  67.626  1.00  0.00    -0.099 OA 
BRANCH   3   5
HETATM    5  C   UNL     1      -9.566   8.878  67.861  1.00  0.00    -0.171 C  
HETATM    6  C   UNL     1     -10.332   9.595  67.031  1.00  0.00    -0.315 C  
BRANCH   6   7
HETATM    7  C   UNL     1     -11.194  10.664  67.558  1.00  0.00    -0.253 C  
HETATM    8  O   UNL     1     -11.585  11.628  66.926  1.00  0.00    -0.507 OA 
BRANCH   7   9
HETATM    9  O   UNL     1     -11.592  10.277  68.792  1.00  0.00    -0.177 OA 
BRANCH   9  10
HETATM   10  C   UNL     1     -12.634  11.081  69.369  1.00  0.00     0.163 C  
BRANCH  10  11
HETATM   11  C   UNL     1     -11.994  11.808  70.546  1.00  0.00    -0.289 C  
BRANCH  11  12
HETATM   12  N   UNL     1     -12.482  13.148  70.763  1.00  0.00    -0.339 N  
HETATM   13  C   UNL     1     -13.390  13.480  71.724  1.00  0.00    -0.397 C  
HETATM   14  O   UNL     1     -13.810  12.758  72.613  1.00  0.00    -0.515 OA 
HETATM   15  C   UNL     1     -13.836  14.890  71.478  1.00  0.00    -0.550 C  
HETATM   16  C   UNL     1     -12.785  15.443  70.532  1.00  0.00    -0.455 C  
HETATM   17  C   UNL     1     -12.052  14.228  70.052  1.00  0.00    -0.340 C  
HETATM   18  O   UNL     1     -11.180  14.234  69.196  1.00  0.00    -0.249 OA 
ENDBRANCH  11  12
ENDBRANCH  10  11
ENDBRANCH   9  10
ENDBRANCH   7   9
ENDBRANCH   6   7
ENDBRANCH   3   5
ENDBRANCH   2   3
TORSDOF 7
ENDMDL
MODEL      215
REMARK 921   NORMALIZED FREE ENERGY PREDICTED BY IDOCK:   -3.52 KCAL/MOL
REMARK 922        TOTAL FREE ENERGY PREDICTED BY IDOCK:   -5.39 KCAL/MOL
REMARK 923 INTER-LIGAND FREE ENERGY PREDICTED BY IDOCK:   -4.90 KCAL/MOL
REMARK 924 INTRA-LIGAND FREE ENERGY PREDICTED BY IDOCK:   -0.49 KCAL/MOL
REMARK 927      BINDING AFFINITY PREDICTED BY RF-SCORE:    0.00 PKD
ROOT
HETATM    1  C   UNL     1     -11.382  10.603  68.768  1.00  0.00    -0.277 C  
HETATM    2  O   UNL     1     -10.352  11.428  68.225  1.00  0.00    -0.180 OA 
ENDROOT
BRANCH   2   3
HETATM    3  C   UNL     1     -10.771  12.673  67.896  1.00  0.00    -0.218 C  
HETATM    4  O   UNL     1     -11.918  13.019  67.660  1.00  0.00    -0.353 OA 
BRANCH   3   5
HETATM    5  C   UNL     1      -9.598  13.559  67.847  1.00  0.00    -0.218 C  
HETATM    6  C   UNL     1      -9.801  14.867  67.652  1.00  0.00    -0.217 C  
BRANCH   6   7
HETATM    7  C   UNL     1      -8.658  15.769  67.445  1.00  0.00    -0.175 C  
HETATM    8  O   UNL     1      -7.493  15.489  67.657  1.00  0.00    -0.136 OA 
BRANCH   7   9
HETATM    9  O   UNL     1      -9.134  16.873  66.823  1.00  0.00    -0.224 OA 
BRANCH   9  10
HETATM   10  C   UNL     1     -10.235  17.513  67.489  1.00  0.00    -0.340 C  
BRANCH  10  11
HETATM   11  C   UNL     1      -9.616  18.355  68.599  1.00  0.00    -0.340 C  
BRANCH  11  12
HETATM   12  N   UNL     1      -8.576  19.254  68.162  1.00  0.00    -0.316 N  
HETATM   13  C   UNL     1      -8.782  20.299  67.310  1.00  0.00    -0.352 C  
HETATM   14  O   UNL     1      -9.856  20.714  66.911  1.00  0.00    -0.423 OA 
HETATM   15  C   UNL     1      -7.444  20.834  66.897  1.00  0.00    -0.277 C  
HETATM   16  C   UNL     1      -6.486  20.249  67.920  1.00  0.00    -0.299 C  
HETATM   17  C   UNL     1      -7.284  19.174  68.591  1.00  0.00    -0.321 C  
HETATM   18  O   UNL     1      -6.843  18.395  69.423  1.00  0.00    -0.237 OA 
ENDBRANCH  11  12
ENDBRANCH  10  11
ENDBRANCH   9  10
ENDBRANCH   7   9
ENDBRANCH   6   7
ENDBRANCH   3   5
ENDBRANCH   2   3
TORSDOF 7
ENDMDL
MODEL      216
REMARK 921   NORMALIZED FREE ENERGY PREDICTED BY IDOCK:   -3.50 KCAL/MOL
REMARK 922        TOTAL FREE ENERGY PREDICTED BY IDOCK:   -5.38 KCAL/MOL
REMARK 923 INTER-LIGAND FREE ENERGY PREDICTED BY IDOCK:   -5.40 KCAL/MOL
REMARK 924 INTRA-LIGAND FREE ENERGY PREDICTED BY IDOCK:    0.02 KCAL/MOL
REMARK 927      BINDING AFFINITY PREDICTED BY RF-SCORE:    0.00 PKD
ROOT
HETATM    1  C   UNL     1     -10.538  17.324  67.898  1.00  0.00    -0.384 C  
HETATM    2  O   UNL     1     -10.206  17.835  66.607  1.00  0.00    -0.332 OA 
ENDROOT
BRANCH   2   3
HETATM    3  C   UNL     1     -10.610  17.041  65.589  1.00  0.00    -0.197 C  
HETATM    4  O   UNL     1     -11.139  17.399  64.549  1.00  0.00    -1.008 OA 
BRANCH   3   5
HETATM    5  C   UNL     1     -10.326  15.643  65.951  1.00  0.00    -0.368 C  
HETATM    6  C   UNL     1     -11.182  14.699  65.546  1.00  0.00    -0.343 C  
BRANCH   6   7
HETATM    7  C   UNL     1     -11.024  13.311  66.008  1.00  0.00    -0.279 C  
HETATM    8  O   UNL     1     -11.874  12.662  66.590  1.00  0.00    -0.389 OA 
BRANCH   7   9
HETATM    9  O   UNL     1      -9.847  12.861  65.513  1.00  0.00    -0.239 OA 
BRANCH   9  10
HETATM   10  C   UNL     1      -9.913  11.576  64.876  1.00  0.00    -0.259 C  
BRANCH  10  11
HETATM   11  C   UNL     1      -8.868  10.712  65.573  1.00  0.00    -0.188 C  
BRANCH  11  12
HETATM   12  N   UNL     1      -9.353   9.434  66.033  1.00  0.00    -0.200 N  
HETATM   13  C   UNL     1     -10.321   9.286  66.982  1.00  0.00    -0.255 C  
HETATM   14  O   UNL     1     -11.007  10.168  67.469  1.00  0.00    -0.298 OA 
HETATM   15  C   UNL     1     -10.374   7.839  67.372  1.00  0.00    -0.354 C  
HETATM   16  C   UNL     1      -9.624   7.134  66.255  1.00  0.00    -0.098 C  
HETATM   17  C   UNL     1      -8.920   8.242  65.534  1.00  0.00    -0.064 C  
HETATM   18  O   UNL     1      -8.129   8.084  64.617  1.00  0.00    -0.145 OA 
ENDBRANCH  11  12
ENDBRANCH  10  11
ENDBRANCH   9  10
ENDBRANCH   7   9
ENDBRANCH   6   7
ENDBRANCH   3   5
ENDBRANCH   2   3
TORSDOF 7
ENDMDL
MODEL      217
REMARK 921   NORMALIZED FREE ENERGY PREDICTED BY IDOCK:   -3.50 KCAL/MOL
REMARK 922        TOTAL FREE ENERGY PREDICTED BY IDOCK:   -5.38 KCAL/MOL
REMARK 923 INTER-LIGAND FREE ENERGY PREDICTED BY IDOCK:   -4.75 KCAL/MOL
REMARK 924 INTRA-LIGAND FREE ENERGY PREDICTED BY IDOCK:   -0.62 KCAL/MOL
REMARK 927      BINDING AFFINITY PREDICTED BY RF-SCORE:    0.00 PKD
ROOT
HETATM    1  C   UNL     1      -9.199   8.411  72.310  1.00  0.00    -0.259 C  
HETATM    2  O   UNL     1      -9.930   9.422  71.617  1.00  0.00    -0.233 OA 
ENDROOT
BRANCH   2   3
HETATM    3  C   UNL     1     -11.236   9.117  71.434  1.00  0.00    -0.349 C  
HETATM    4  O   UNL     1     -11.920   8.385  72.132  1.00  0.00    -0.326 OA 
BRANCH   3   5
HETATM    5  C   UNL     1     -11.707   9.805  70.222  1.00  0.00    -0.253 C  
HETATM    6  C   UNL     1     -10.953   9.731  69.119  1.00  0.00    -0.205 C  
BRANCH   6   7
HETATM    7  C   UNL     1     -11.302  10.524  67.930  1.00  0.00    -0.222 C  
HETATM    8  O   UNL     1     -10.943  10.282  66.793  1.00  0.00    -0.147 OA 
BRANCH   7   9
HETATM    9  O   UNL     1     -12.218  11.441  68.322  1.00  0.00    -0.588 OA 
BRANCH   9  10
HETATM   10  C   UNL     1     -12.029  12.754  67.773  1.00  0.00    -0.260 C  
BRANCH  10  11
HETATM   11  C   UNL     1     -11.047  13.457  68.704  1.00  0.00    -0.263 C  
BRANCH  11  12
HETATM   12  N   UNL     1     -10.144  14.370  68.046  1.00  0.00    -0.228 N  
HETATM   13  C   UNL     1     -10.219  15.726  68.160  1.00  0.00    -0.230 C  
HETATM   14  O   UNL     1     -10.938  16.357  68.916  1.00  0.00    -0.304 OA 
HETATM   15  C   UNL     1      -9.292  16.331  67.148  1.00  0.00    -0.232 C  
HETATM   16  C   UNL     1      -8.393  15.176  66.743  1.00  0.00    -0.225 C  
HETATM   17  C   UNL     1      -9.096  13.965  67.275  1.00  0.00    -0.228 C  
HETATM   18  O   UNL     1      -8.742  12.812  67.079  1.00  0.00    -0.202 OA 
ENDBRANCH  11  12
ENDBRANCH  10  11
ENDBRANCH   9  10
ENDBRANCH   7   9
ENDBRANCH   6   7
ENDBRANCH   3   5
ENDBRANCH   2   3
TORSDOF 7
ENDMDL
MODEL      218
REMARK 921   NORMALIZED FREE ENERGY PREDICTED BY IDOCK:   -3.48 KCAL/MOL
REMARK 922        TOTAL FREE ENERGY PREDICTED BY IDOCK:   -5.35 KCAL/MOL
REMARK 923 INTER-LIGAND FREE ENERGY PREDICTED BY IDOCK:   -4.74 KCAL/MOL
REMARK 924 INTRA-LIGAND FREE ENERGY PREDICTED BY IDOCK:   -0.60 KCAL/MOL
REMARK 927      BINDING AFFINITY PREDICTED BY RF-SCORE:    0.00 PKD
ROOT
HETATM    1  C   UNL     1      -8.378   9.827  63.224  1.00  0.00    -0.169 C  
HETATM    2  O   UNL     1      -8.361  10.430  64.518  1.00  0.00    -0.166 OA 
ENDROOT
BRANCH   2   3
HETATM    3  C   UNL     1      -8.333   9.533  65.532  1.00  0.00    -0.132 C  
HETATM    4  O   UNL     1      -8.259   8.319  65.432  1.00  0.00    -0.129 OA 
BRANCH   3   5
HETATM    5  C   UNL     1      -8.431  10.269  66.803  1.00  0.00    -0.123 C  
HETATM    6  C   UNL     1      -8.787  11.557  66.762  1.00  0.00    -0.183 C  
BRANCH   6   7
HETATM    7  C   UNL     1      -8.752  12.373  67.986  1.00  0.00    -0.186 C  
HETATM    8  O   UNL     1      -7.865  13.148  68.290  1.00  0.00    -0.129 OA 
BRANCH   7   9
HETATM    9  O   UNL     1      -9.952  12.222  68.595  1.00  0.00    -0.200 OA 
BRANCH   9  10
HETATM   10  C   UNL     1     -11.070  12.098  67.702  1.00  0.00    -0.268 C  
BRANCH  10  11
HETATM   11  C   UNL     1     -11.839  13.410  67.813  1.00  0.00    -0.358 C  
BRANCH  11  12
HETATM   12  N   UNL     1     -11.454  14.415  66.853  1.00  0.00    -0.351 N  
HETATM   13  C   UNL     1     -11.913  14.456  65.569  1.00  0.00    -0.358 C  
HETATM   14  O   UNL     1     -12.795  13.766  65.087  1.00  0.00    -0.695 OA 
HETATM   15  C   UNL     1     -11.107  15.472  64.818  1.00  0.00    -0.421 C  
HETATM   16  C   UNL     1     -10.432  16.281  65.911  1.00  0.00    -0.359 C  
HETATM   17  C   UNL     1     -10.621  15.454  67.145  1.00  0.00    -0.305 C  
HETATM   18  O   UNL     1     -10.140  15.712  68.238  1.00  0.00    -0.215 OA 
ENDBRANCH  11  12
ENDBRANCH  10  11
ENDBRANCH   9  10
ENDBRANCH   7   9
ENDBRANCH   6   7
ENDBRANCH   3   5
ENDBRANCH   2   3
TORSDOF 7
ENDMDL
MODEL      219
REMARK 921   NORMALIZED FREE ENERGY PREDICTED BY IDOCK:   -3.48 KCAL/MOL
REMARK 922        TOTAL FREE ENERGY PREDICTED BY IDOCK:   -5.34 KCAL/MOL
REMARK 923 INTER-LIGAND FREE ENERGY PREDICTED BY IDOCK:   -5.12 KCAL/MOL
REMARK 924 INTRA-LIGAND FREE ENERGY PREDICTED BY IDOCK:   -0.21 KCAL/MOL
REMARK 927      BINDING AFFINITY PREDICTED BY RF-SCORE:    0.00 PKD
ROOT
HETATM    1  C   UNL     1     -12.622  13.782  65.448  1.00  0.00    -0.497 C  
HETATM    2  O   UNL     1     -11.215  14.016  65.507  1.00  0.00    -0.303 OA 
ENDROOT
BRANCH   2   3
HETATM    3  C   UNL     1     -10.808  14.583  66.667  1.00  0.00    -0.311 C  
HETATM    4  O   UNL     1     -11.521  15.030  67.551  1.00  0.00    -0.338 OA 
BRANCH   3   5
HETATM    5  C   UNL     1      -9.337  14.595  66.686  1.00  0.00    -0.293 C  
HETATM    6  C   UNL     1      -8.723  15.083  67.769  1.00  0.00    -0.167 C  
BRANCH   6   7
HETATM    7  C   UNL     1      -7.261  15.256  67.774  1.00  0.00    -0.165 C  
HETATM    8  O   UNL     1      -6.452  14.414  67.432  1.00  0.00    -0.307 OA 
BRANCH   7   9
HETATM    9  O   UNL     1      -7.020  16.558  68.057  1.00  0.00    -0.136 OA 
BRANCH   9  10
HETATM   10  C   UNL     1      -5.674  16.990  67.802  1.00  0.00    -0.127 C  
BRANCH  10  11
HETATM   11  C   UNL     1      -5.746  18.506  67.654  1.00  0.00    -0.158 C  
BRANCH  11  12
HETATM   12  N   UNL     1      -7.075  19.029  67.457  1.00  0.00    -0.209 N  
HETATM   13  C   UNL     1      -7.738  18.991  66.266  1.00  0.00    -0.278 C  
HETATM   14  O   UNL     1      -7.391  18.405  65.255  1.00  0.00    -0.468 OA 
HETATM   15  C   UNL     1      -8.966  19.843  66.389  1.00  0.00    -0.434 C  
HETATM   16  C   UNL     1      -9.132  20.028  67.886  1.00  0.00    -0.377 C  
HETATM   17  C   UNL     1      -7.821  19.579  68.456  1.00  0.00    -0.347 C  
HETATM   18  O   UNL     1      -7.511  19.657  69.635  1.00  0.00    -0.208 OA 
ENDBRANCH  11  12
ENDBRANCH  10  11
ENDBRANCH   9  10
ENDBRANCH   7   9
ENDBRANCH   6   7
ENDBRANCH   3   5
ENDBRANCH   2   3
TORSDOF 7
ENDMDL
MODEL      220
REMARK 921   NORMALIZED FREE ENERGY PREDICTED BY IDOCK:   -3.47 KCAL/MOL
REMARK 922        TOTAL FREE ENERGY PREDICTED BY IDOCK:   -5.33 KCAL/MOL
REMARK 923 INTER-LIGAND FREE ENERGY PREDICTED BY IDOCK:   -4.66 KCAL/MOL
REMARK 924 INTRA-LIGAND FREE ENERGY PREDICTED BY IDOCK:   -0.67 KCAL/MOL
REMARK 927      BINDING AFFINITY PREDICTED BY RF-SCORE:    0.00 PKD
ROOT
HETATM    1  C   UNL     1     -10.825  19.377  67.167  1.00  0.00    -0.450 C  
HETATM    2  O   UNL     1     -10.118  18.155  67.380  1.00  0.00    -0.320 OA 
ENDROOT
BRANCH   2   3
HETATM    3  C   UNL     1      -9.293  17.822  66.360  1.00  0.00    -0.249 C  
HETATM    4  O   UNL     1      -8.551  18.571  65.746  1.00  0.00    -0.442 OA 
BRANCH   3   5
HETATM    5  C   UNL     1      -9.452  16.385  66.086  1.00  0.00    -0.363 C  
HETATM    6  C   UNL     1     -10.629  15.957  65.617  1.00  0.00    -0.393 C  
BRANCH   6   7
HETATM    7  C   UNL     1     -10.887  14.516  65.471  1.00  0.00    -0.336 C  
HETATM    8  O   UNL     1     -10.946  13.914  64.415  1.00  0.00    -0.382 OA 
BRANCH   7   9
HETATM    9  O   UNL     1     -10.870  13.984  66.716  1.00  0.00    -0.290 OA 
BRANCH   9  10
HETATM   10  C   UNL     1     -10.237  12.698  66.814  1.00  0.00    -0.237 C  
BRANCH  10  11
HETATM   11  C   UNL     1      -9.614  12.646  68.204  1.00  0.00    -0.219 C  
BRANCH  11  12
HETATM   12  N   UNL     1      -8.325  13.285  68.310  1.00  0.00    -0.156 N  
HETATM   13  C   UNL     1      -7.183  12.787  67.755  1.00  0.00    -0.132 C  
HETATM   14  O   UNL     1      -7.094  11.842  66.990  1.00  0.00    -0.142 OA 
HETATM   15  C   UNL     1      -6.024  13.577  68.286  1.00  0.00    -0.100 C  
HETATM   16  C   UNL     1      -6.670  14.820  68.872  1.00  0.00    -0.098 C  
HETATM   17  C   UNL     1      -8.125  14.475  68.944  1.00  0.00    -0.124 C  
HETATM   18  O   UNL     1      -8.985  15.181  69.448  1.00  0.00    -0.225 OA 
ENDBRANCH  11  12
ENDBRANCH  10  11
ENDBRANCH   9  10
ENDBRANCH   7   9
ENDBRANCH   6   7
ENDBRANCH   3   5
ENDBRANCH   2   3
TORSDOF 7
ENDMDL
MODEL      221
REMARK 921   NORMALIZED FREE ENERGY PREDICTED BY IDOCK:   -3.47 KCAL/MOL
REMARK 922        TOTAL FREE ENERGY PREDICTED BY IDOCK:   -5.33 KCAL/MOL
REMARK 923 INTER-LIGAND FREE ENERGY PREDICTED BY IDOCK:   -4.75 KCAL/MOL
REMARK 924 INTRA-LIGAND FREE ENERGY PREDICTED BY IDOCK:   -0.58 KCAL/MOL
REMARK 927      BINDING AFFINITY PREDICTED BY RF-SCORE:    0.00 PKD
ROOT
HETATM    1  C   UNL     1     -11.490  12.280  63.703  1.00  0.00    -0.490 C  
HETATM    2  O   UNL     1     -11.020  11.569  64.848  1.00  0.00    -0.298 OA 
ENDROOT
BRANCH   2   3
HETATM    3  C   UNL     1     -11.365  12.145  66.023  1.00  0.00    -0.358 C  
HETATM    4  O   UNL     1     -12.009  11.635  66.926  1.00  0.00    -0.567 OA 
BRANCH   3   5
HETATM    5  C   UNL     1     -10.849  13.523  66.032  1.00  0.00    -0.282 C  
HETATM    6  C   UNL     1     -10.119  13.917  67.081  1.00  0.00    -0.252 C  
BRANCH   6   7
HETATM    7  C   UNL     1      -9.709  15.325  67.209  1.00  0.00    -0.212 C  
HETATM    8  O   UNL     1      -9.949  16.044  68.161  1.00  0.00    -0.223 OA 
BRANCH   7   9
HETATM    9  O   UNL     1      -8.887  15.593  66.167  1.00  0.00    -0.321 OA 
BRANCH   9  10
HETATM   10  C   UNL     1      -8.718  16.989  65.876  1.00  0.00     0.002 C  
BRANCH  10  11
HETATM   11  C   UNL     1      -7.242  17.288  66.112  1.00  0.00    -0.269 C  
BRANCH  11  12
HETATM   12  N   UNL     1      -6.836  17.256  67.496  1.00  0.00    -0.147 N  
HETATM   13  C   UNL     1      -7.129  18.238  68.396  1.00  0.00    -0.257 C  
HETATM   14  O   UNL     1      -7.871  19.190  68.223  1.00  0.00    -0.290 OA 
HETATM   15  C   UNL     1      -6.335  17.980  69.642  1.00  0.00    -0.178 C  
HETATM   16  C   UNL     1      -5.887  16.537  69.495  1.00  0.00    -0.178 C  
HETATM   17  C   UNL     1      -6.152  16.219  68.055  1.00  0.00    -0.122 C  
HETATM   18  O   UNL     1      -5.842  15.173  67.504  1.00  0.00    -0.308 OA 
ENDBRANCH  11  12
ENDBRANCH  10  11
ENDBRANCH   9  10
ENDBRANCH   7   9
ENDBRANCH   6   7
ENDBRANCH   3   5
ENDBRANCH   2   3
TORSDOF 7
ENDMDL
MODEL      222
REMARK 921   NORMALIZED FREE ENERGY PREDICTED BY IDOCK:   -3.47 KCAL/MOL
REMARK 922        TOTAL FREE ENERGY PREDICTED BY IDOCK:   -5.32 KCAL/MOL
REMARK 923 INTER-LIGAND FREE ENERGY PREDICTED BY IDOCK:   -4.67 KCAL/MOL
REMARK 924 INTRA-LIGAND FREE ENERGY PREDICTED BY IDOCK:   -0.65 KCAL/MOL
REMARK 927      BINDING AFFINITY PREDICTED BY RF-SCORE:    0.00 PKD
ROOT
HETATM    1  C   UNL     1     -11.086  10.852  69.071  1.00  0.00    -0.246 C  
HETATM    2  O   UNL     1     -12.395  11.072  69.596  1.00  0.00    -0.321 OA 
ENDROOT
BRANCH   2   3
HETATM    3  C   UNL     1     -12.481  10.883  70.934  1.00  0.00    -0.408 C  
HETATM    4  O   UNL     1     -13.128  11.550  71.726  1.00  0.00    -0.472 OA 
BRANCH   3   5
HETATM    5  C   UNL     1     -11.635   9.735  71.294  1.00  0.00    -0.465 C  
HETATM    6  C   UNL     1     -12.220   8.669  71.852  1.00  0.00    -0.419 C  
BRANCH   6   7
HETATM    7  C   UNL     1     -11.400   7.561  72.367  1.00  0.00    -0.312 C  
HETATM    8  O   UNL     1     -10.617   7.638  73.296  1.00  0.00    -0.365 OA 
BRANCH   7   9
HETATM    9  O   UNL     1     -11.813   6.438  71.735  1.00  0.00    -0.314 OA 
BRANCH   9  10
HETATM   10  C   UNL     1     -11.344   6.300  70.384  1.00  0.00    -0.372 C  
BRANCH  10  11
HETATM   11  C   UNL     1     -10.408   5.096  70.391  1.00  0.00    -0.256 C  
BRANCH  11  12
HETATM   12  N   UNL     1      -9.013   5.419  70.561  1.00  0.00    -0.132 N  
HETATM   13  C   UNL     1      -8.341   5.288  71.741  1.00  0.00    -0.119 C  
HETATM   14  O   UNL     1      -8.752   4.761  72.761  1.00  0.00    -0.113 OA 
HETATM   15  C   UNL     1      -7.005   5.952  71.592  1.00  0.00    -0.073 C  
HETATM   16  C   UNL     1      -6.840   6.107  70.091  1.00  0.00    -0.057 C  
HETATM   17  C   UNL     1      -8.213   5.853  69.547  1.00  0.00    -0.113 C  
HETATM   18  O   UNL     1      -8.530   5.972  68.373  1.00  0.00    -0.112 OA 
ENDBRANCH  11  12
ENDBRANCH  10  11
ENDBRANCH   9  10
ENDBRANCH   7   9
ENDBRANCH   6   7
ENDBRANCH   3   5
ENDBRANCH   2   3
TORSDOF 7
ENDMDL
MODEL      223
REMARK 921   NORMALIZED FREE ENERGY PREDICTED BY IDOCK:   -3.45 KCAL/MOL
REMARK 922        TOTAL FREE ENERGY PREDICTED BY IDOCK:   -5.31 KCAL/MOL
REMARK 923 INTER-LIGAND FREE ENERGY PREDICTED BY IDOCK:   -4.76 KCAL/MOL
REMARK 924 INTRA-LIGAND FREE ENERGY PREDICTED BY IDOCK:   -0.54 KCAL/MOL
REMARK 927      BINDING AFFINITY PREDICTED BY RF-SCORE:    0.00 PKD
ROOT
HETATM    1  C   UNL     1     -10.525  17.336  67.971  1.00  0.00    -0.375 C  
HETATM    2  O   UNL     1     -10.259  17.907  66.690  1.00  0.00    -0.339 OA 
ENDROOT
BRANCH   2   3
HETATM    3  C   UNL     1     -10.630  17.115  65.657  1.00  0.00    -0.179 C  
HETATM    4  O   UNL     1     -11.269  17.451  64.672  1.00  0.00    -0.992 OA 
BRANCH   3   5
HETATM    5  C   UNL     1     -10.149  15.751  65.923  1.00  0.00    -0.381 C  
HETATM    6  C   UNL     1     -10.923  14.724  65.554  1.00  0.00    -0.350 C  
BRANCH   6   7
HETATM    7  C   UNL     1     -10.559  13.350  65.933  1.00  0.00    -0.283 C  
HETATM    8  O   UNL     1     -10.004  12.544  65.209  1.00  0.00    -0.267 OA 
BRANCH   7   9
HETATM    9  O   UNL     1     -10.798  13.230  67.260  1.00  0.00    -0.260 OA 
BRANCH   9  10
HETATM   10  C   UNL     1      -9.679  12.773  68.035  1.00  0.00    -0.220 C  
BRANCH  10  11
HETATM   11  C   UNL     1     -10.090  11.418  68.600  1.00  0.00    -0.210 C  
BRANCH  11  12
HETATM   12  N   UNL     1      -9.171  10.343  68.316  1.00  0.00    -0.145 N  
HETATM   13  C   UNL     1      -8.096  10.036  69.096  1.00  0.00    -0.126 C  
HETATM   14  O   UNL     1      -7.831  10.503  70.190  1.00  0.00    -0.053 OA 
HETATM   15  C   UNL     1      -7.250   9.045  68.354  1.00  0.00    -0.077 C  
HETATM   16  C   UNL     1      -8.170   8.525  67.264  1.00  0.00    -0.108 C  
HETATM   17  C   UNL     1      -9.309   9.498  67.255  1.00  0.00    -0.134 C  
HETATM   18  O   UNL     1     -10.228   9.487  66.450  1.00  0.00    -0.264 OA 
ENDBRANCH  11  12
ENDBRANCH  10  11
ENDBRANCH   9  10
ENDBRANCH   7   9
ENDBRANCH   6   7
ENDBRANCH   3   5
ENDBRANCH   2   3
TORSDOF 7
ENDMDL
MODEL      224
REMARK 921   NORMALIZED FREE ENERGY PREDICTED BY IDOCK:   -3.45 KCAL/MOL
REMARK 922        TOTAL FREE ENERGY PREDICTED BY IDOCK:   -5.30 KCAL/MOL
REMARK 923 INTER-LIGAND FREE ENERGY PREDICTED BY IDOCK:   -5.00 KCAL/MOL
REMARK 924 INTRA-LIGAND FREE ENERGY PREDICTED BY IDOCK:   -0.30 KCAL/MOL
REMARK 927      BINDING AFFINITY PREDICTED BY RF-SCORE:    0.00 PKD
ROOT
HETATM    1  C   UNL     1      -8.904   8.063  72.096  1.00  0.00    -0.159 C  
HETATM    2  O   UNL     1      -9.477   9.217  71.482  1.00  0.00    -0.266 OA 
ENDROOT
BRANCH   2   3
HETATM    3  C   UNL     1     -10.831   9.210  71.474  1.00  0.00    -0.366 C  
HETATM    4  O   UNL     1     -11.562   8.495  72.140  1.00  0.00    -0.332 OA 
BRANCH   3   5
HETATM    5  C   UNL     1     -11.293  10.209  70.498  1.00  0.00    -0.416 C  
HETATM    6  C   UNL     1     -11.010  10.009  69.206  1.00  0.00    -0.264 C  
BRANCH   6   7
HETATM    7  C   UNL     1     -11.316  11.050  68.212  1.00  0.00    -0.299 C  
HETATM    8  O   UNL     1     -11.879  10.863  67.149  1.00  0.00    -0.310 OA 
BRANCH   7   9
HETATM    9  O   UNL     1     -11.014  12.240  68.782  1.00  0.00    -0.220 OA 
BRANCH   9  10
HETATM   10  C   UNL     1     -10.258  13.132  67.948  1.00  0.00    -0.233 C  
BRANCH  10  11
HETATM   11  C   UNL     1     -11.012  14.457  67.966  1.00  0.00    -0.258 C  
BRANCH  11  12
HETATM   12  N   UNL     1     -10.172  15.628  67.895  1.00  0.00    -0.236 N  
HETATM   13  C   UNL     1      -9.368  15.923  66.834  1.00  0.00    -0.225 C  
HETATM   14  O   UNL     1      -9.337  15.349  65.759  1.00  0.00    -0.325 OA 
HETATM   15  C   UNL     1      -8.474  17.061  67.230  1.00  0.00    -0.210 C  
HETATM   16  C   UNL     1      -9.141  17.633  68.467  1.00  0.00    -0.279 C  
HETATM   17  C   UNL     1     -10.130  16.582  68.868  1.00  0.00    -0.266 C  
HETATM   18  O   UNL     1     -10.813  16.617  69.880  1.00  0.00    -0.333 OA 
ENDBRANCH  11  12
ENDBRANCH  10  11
ENDBRANCH   9  10
ENDBRANCH   7   9
ENDBRANCH   6   7
ENDBRANCH   3   5
ENDBRANCH   2   3
TORSDOF 7
ENDMDL
MODEL      225
REMARK 921   NORMALIZED FREE ENERGY PREDICTED BY IDOCK:   -3.45 KCAL/MOL
REMARK 922        TOTAL FREE ENERGY PREDICTED BY IDOCK:   -5.30 KCAL/MOL
REMARK 923 INTER-LIGAND FREE ENERGY PREDICTED BY IDOCK:   -4.90 KCAL/MOL
REMARK 924 INTRA-LIGAND FREE ENERGY PREDICTED BY IDOCK:   -0.39 KCAL/MOL
REMARK 927      BINDING AFFINITY PREDICTED BY RF-SCORE:    0.00 PKD
ROOT
HETATM    1  C   UNL     1     -13.942  13.664  72.566  1.00  0.00    -0.466 C  
HETATM    2  O   UNL     1     -13.431  13.740  71.236  1.00  0.00    -0.272 OA 
ENDROOT
BRANCH   2   3
HETATM    3  C   UNL     1     -13.261  15.008  70.792  1.00  0.00    -0.348 C  
HETATM    4  O   UNL     1     -13.936  15.982  71.087  1.00  0.00    -0.113 OA 
BRANCH   3   5
HETATM    5  C   UNL     1     -12.123  15.024  69.861  1.00  0.00    -0.376 C  
HETATM    6  C   UNL     1     -11.509  16.190  69.632  1.00  0.00    -0.290 C  
BRANCH   6   7
HETATM    7  C   UNL     1     -10.467  16.287  68.598  1.00  0.00    -0.282 C  
HETATM    8  O   UNL     1     -10.315  17.225  67.838  1.00  0.00    -0.327 OA 
BRANCH   7   9
HETATM    9  O   UNL     1      -9.632  15.237  68.780  1.00  0.00    -0.196 OA 
BRANCH   9  10
HETATM   10  C   UNL     1      -8.714  15.003  67.701  1.00  0.00    -0.176 C  
BRANCH  10  11
HETATM   11  C   UNL     1      -9.370  13.946  66.819  1.00  0.00    -0.275 C  
BRANCH  11  12
HETATM   12  N   UNL     1      -9.918  12.821  67.535  1.00  0.00    -0.207 N  
HETATM   13  C   UNL     1     -11.186  12.352  67.358  1.00  0.00    -0.297 C  
HETATM   14  O   UNL     1     -11.980  12.700  66.501  1.00  0.00    -0.467 OA 
HETATM   15  C   UNL     1     -11.470  11.355  68.442  1.00  0.00    -0.367 C  
HETATM   16  C   UNL     1     -10.096  11.016  68.992  1.00  0.00    -0.197 C  
HETATM   17  C   UNL     1      -9.207  12.085  68.435  1.00  0.00    -0.160 C  
HETATM   18  O   UNL     1      -8.026  12.226  68.716  1.00  0.00    -0.087 OA 
ENDBRANCH  11  12
ENDBRANCH  10  11
ENDBRANCH   9  10
ENDBRANCH   7   9
ENDBRANCH   6   7
ENDBRANCH   3   5
ENDBRANCH   2   3
TORSDOF 7
ENDMDL
MODEL      226
REMARK 921   NORMALIZED FREE ENERGY PREDICTED BY IDOCK:   -3.44 KCAL/MOL
REMARK 922        TOTAL FREE ENERGY PREDICTED BY IDOCK:   -5.29 KCAL/MOL
REMARK 923 INTER-LIGAND FREE ENERGY PREDICTED BY IDOCK:   -4.85 KCAL/MOL
REMARK 924 INTRA-LIGAND FREE ENERGY PREDICTED BY IDOCK:   -0.44 KCAL/MOL
REMARK 927      BINDING AFFINITY PREDICTED BY RF-SCORE:    0.00 PKD
ROOT
HETATM    1  C   UNL     1     -10.135   7.396  68.244  1.00  0.00    -0.177 C  
HETATM    2  O   UNL     1     -10.309   8.716  68.758  1.00  0.00    -0.208 OA 
ENDROOT
BRANCH   2   3
HETATM    3  C   UNL     1     -10.948   8.753  69.951  1.00  0.00    -0.179 C  
HETATM    4  O   UNL     1     -11.366   7.797  70.586  1.00  0.00    -0.273 OA 
BRANCH   3   5
HETATM    5  C   UNL     1     -11.082  10.159  70.361  1.00  0.00    -0.393 C  
HETATM    6  C   UNL     1     -12.252  10.771  70.149  1.00  0.00    -0.425 C  
BRANCH   6   7
HETATM    7  C   UNL     1     -12.388  12.214  70.402  1.00  0.00    -0.233 C  
HETATM    8  O   UNL     1     -12.774  12.713  71.443  1.00  0.00    -0.349 OA 
BRANCH   7   9
HETATM    9  O   UNL     1     -11.846  12.853  69.339  1.00  0.00    -0.303 OA 
BRANCH   9  10
HETATM   10  C   UNL     1     -11.913  14.287  69.399  1.00  0.00    -0.337 C  
BRANCH  10  11
HETATM   11  C   UNL     1     -11.260  14.788  68.115  1.00  0.00    -0.294 C  
BRANCH  11  12
HETATM   12  N   UNL     1     -10.033  15.521  68.311  1.00  0.00    -0.212 N  
HETATM   13  C   UNL     1      -8.824  14.932  68.533  1.00  0.00    -0.174 C  
HETATM   14  O   UNL     1      -8.566  13.743  68.461  1.00  0.00    -0.171 OA 
HETATM   15  C   UNL     1      -7.853  16.001  68.937  1.00  0.00    -0.202 C  
HETATM   16  C   UNL     1      -8.538  17.290  68.521  1.00  0.00    -0.270 C  
HETATM   17  C   UNL     1      -9.953  16.880  68.253  1.00  0.00    -0.282 C  
HETATM   18  O   UNL     1     -10.862  17.650  67.980  1.00  0.00    -0.369 OA 
ENDBRANCH  11  12
ENDBRANCH  10  11
ENDBRANCH   9  10
ENDBRANCH   7   9
ENDBRANCH   6   7
ENDBRANCH   3   5
ENDBRANCH   2   3
TORSDOF 7
ENDMDL
MODEL      227
REMARK 921   NORMALIZED FREE ENERGY PREDICTED BY IDOCK:   -3.44 KCAL/MOL
REMARK 922        TOTAL FREE ENERGY PREDICTED BY IDOCK:   -5.28 KCAL/MOL
REMARK 923 INTER-LIGAND FREE ENERGY PREDICTED BY IDOCK:   -4.87 KCAL/MOL
REMARK 924 INTRA-LIGAND FREE ENERGY PREDICTED BY IDOCK:   -0.42 KCAL/MOL
REMARK 927      BINDING AFFINITY PREDICTED BY RF-SCORE:    0.00 PKD
ROOT
HETATM    1  C   UNL     1     -11.877  13.698  66.454  1.00  0.00    -0.398 C  
HETATM    2  O   UNL     1     -12.233  12.463  67.074  1.00  0.00    -0.508 OA 
ENDROOT
BRANCH   2   3
HETATM    3  C   UNL     1     -11.168  11.753  67.517  1.00  0.00    -0.291 C  
HETATM    4  O   UNL     1     -10.018  11.833  67.115  1.00  0.00    -0.200 OA 
BRANCH   3   5
HETATM    5  C   UNL     1     -11.630  10.834  68.569  1.00  0.00    -0.325 C  
HETATM    6  C   UNL     1     -11.680  11.287  69.827  1.00  0.00    -0.422 C  
BRANCH   6   7
HETATM    7  C   UNL     1     -11.988  10.366  70.932  1.00  0.00    -0.377 C  
HETATM    8  O   UNL     1     -12.849  10.541  71.774  1.00  0.00    -0.429 OA 
BRANCH   7   9
HETATM    9  O   UNL     1     -11.265   9.241  70.722  1.00  0.00    -0.252 OA 
BRANCH   9  10
HETATM   10  C   UNL     1      -9.921   9.285  71.228  1.00  0.00    -0.271 C  
BRANCH  10  11
HETATM   11  C   UNL     1      -9.607   7.868  71.695  1.00  0.00    -0.163 C  
BRANCH  11  12
HETATM   12  N   UNL     1      -9.460   6.904  70.633  1.00  0.00    -0.166 N  
HETATM   13  C   UNL     1      -8.322   6.749  69.899  1.00  0.00    -0.135 C  
HETATM   14  O   UNL     1      -7.242   7.276  70.106  1.00  0.00    -0.071 OA 
HETATM   15  C   UNL     1      -8.632   5.846  68.743  1.00  0.00    -0.110 C  
HETATM   16  C   UNL     1      -9.943   5.190  69.136  1.00  0.00    -0.273 C  
HETATM   17  C   UNL     1     -10.435   6.018  70.283  1.00  0.00    -0.242 C  
HETATM   18  O   UNL     1     -11.517   5.875  70.833  1.00  0.00    -0.234 OA 
ENDBRANCH  11  12
ENDBRANCH  10  11
ENDBRANCH   9  10
ENDBRANCH   7   9
ENDBRANCH   6   7
ENDBRANCH   3   5
ENDBRANCH   2   3
TORSDOF 7
ENDMDL
MODEL      228
REMARK 921   NORMALIZED FREE ENERGY PREDICTED BY IDOCK:   -3.43 KCAL/MOL
REMARK 922        TOTAL FREE ENERGY PREDICTED BY IDOCK:   -5.28 KCAL/MOL
REMARK 923 INTER-LIGAND FREE ENERGY PREDICTED BY IDOCK:   -4.87 KCAL/MOL
REMARK 924 INTRA-LIGAND FREE ENERGY PREDICTED BY IDOCK:   -0.40 KCAL/MOL
REMARK 927      BINDING AFFINITY PREDICTED BY RF-SCORE:    0.00 PKD
ROOT
HETATM    1  C   UNL     1     -10.166   9.089  70.977  1.00  0.00    -0.277 C  
HETATM    2  O   UNL     1     -11.588   9.211  70.951  1.00  0.00    -0.273 OA 
ENDROOT
BRANCH   2   3
HETATM    3  C   UNL     1     -12.019  10.491  70.854  1.00  0.00    -0.377 C  
HETATM    4  O   UNL     1     -12.769  11.069  71.625  1.00  0.00    -0.402 OA 
BRANCH   3   5
HETATM    5  C   UNL     1     -11.447  11.082  69.635  1.00  0.00    -0.375 C  
HETATM    6  C   UNL     1     -12.202  11.930  68.928  1.00  0.00    -0.065 C  
BRANCH   6   7
HETATM    7  C   UNL     1     -11.733  12.429  67.626  1.00  0.00    -0.346 C  
HETATM    8  O   UNL     1     -12.448  12.713  66.682  1.00  0.00    -0.368 OA 
BRANCH   7   9
HETATM    9  O   UNL     1     -10.406  12.667  67.749  1.00  0.00    -0.212 OA 
BRANCH   9  10
HETATM   10  C   UNL     1     -10.051  14.055  67.857  1.00  0.00    -0.237 C  
BRANCH  10  11
HETATM   11  C   UNL     1      -9.161  14.350  66.654  1.00  0.00    -0.240 C  
BRANCH  11  12
HETATM   12  N   UNL     1      -8.097  15.290  66.910  1.00  0.00    -0.217 N  
HETATM   13  C   UNL     1      -8.136  16.601  66.538  1.00  0.00    -0.302 C  
HETATM   14  O   UNL     1      -9.092  17.202  66.079  1.00  0.00    -0.473 OA 
HETATM   15  C   UNL     1      -6.770  17.184  66.743  1.00  0.00    -0.256 C  
HETATM   16  C   UNL     1      -6.077  16.179  67.647  1.00  0.00    -0.176 C  
HETATM   17  C   UNL     1      -6.959  14.970  67.588  1.00  0.00    -0.182 C  
HETATM   18  O   UNL     1      -6.703  13.895  68.111  1.00  0.00    -0.095 OA 
ENDBRANCH  11  12
ENDBRANCH  10  11
ENDBRANCH   9  10
ENDBRANCH   7   9
ENDBRANCH   6   7
ENDBRANCH   3   5
ENDBRANCH   2   3
TORSDOF 7
ENDMDL
MODEL      229
REMARK 921   NORMALIZED FREE ENERGY PREDICTED BY IDOCK:   -3.43 KCAL/MOL
REMARK 922        TOTAL FREE ENERGY PREDICTED BY IDOCK:   -5.27 KCAL/MOL
REMARK 923 INTER-LIGAND FREE ENERGY PREDICTED BY IDOCK:   -4.81 KCAL/MOL
REMARK 924 INTRA-LIGAND FREE ENERGY PREDICTED BY IDOCK:   -0.45 KCAL/MOL
REMARK 927      BINDING AFFINITY PREDICTED BY RF-SCORE:    0.00 PKD
ROOT
HETATM    1  C   UNL     1      -8.764   4.941  70.122  1.00  0.00    -0.094 C  
HETATM    2  O   UNL     1     -10.182   4.861  69.981  1.00  0.00    -0.264 OA 
ENDROOT
BRANCH   2   3
HETATM    3  C   UNL     1     -10.709   5.862  69.237  1.00  0.00    -0.331 C  
HETATM    4  O   UNL     1     -10.837   5.881  68.024  1.00  0.00    -0.269 OA 
BRANCH   3   5
HETATM    5  C   UNL     1     -11.093   6.958  70.141  1.00  0.00    -0.344 C  
HETATM    6  C   UNL     1     -11.141   8.199  69.645  1.00  0.00    -0.015 C  
BRANCH   6   7
HETATM    7  C   UNL     1     -11.370   9.344  70.540  1.00  0.00    -0.274 C  
HETATM    8  O   UNL     1     -10.923   9.458  71.666  1.00  0.00    -0.369 OA 
BRANCH   7   9
HETATM    9  O   UNL     1     -12.010  10.290  69.813  1.00  0.00    -0.202 OA 
BRANCH   9  10
HETATM   10  C   UNL     1     -11.614  11.641  70.100  1.00  0.00    -0.217 C  
BRANCH  10  11
HETATM   11  C   UNL     1     -10.592  12.010  69.031  1.00  0.00    -0.098 C  
BRANCH  11  12
HETATM   12  N   UNL     1     -10.966  13.130  68.203  1.00  0.00    -0.242 N  
HETATM   13  C   UNL     1     -11.603  13.010  67.003  1.00  0.00    -0.360 C  
HETATM   14  O   UNL     1     -12.071  11.991  66.524  1.00  0.00    -0.617 OA 
HETATM   15  C   UNL     1     -11.592  14.351  66.333  1.00  0.00    -0.383 C  
HETATM   16  C   UNL     1     -11.249  15.315  67.454  1.00  0.00    -0.311 C  
HETATM   17  C   UNL     1     -10.754  14.429  68.557  1.00  0.00    -0.253 C  
HETATM   18  O   UNL     1     -10.287  14.827  69.613  1.00  0.00    -0.172 OA 
ENDBRANCH  11  12
ENDBRANCH  10  11
ENDBRANCH   9  10
ENDBRANCH   7   9
ENDBRANCH   6   7
ENDBRANCH   3   5
ENDBRANCH   2   3
TORSDOF 7
ENDMDL
MODEL      230
REMARK 921   NORMALIZED FREE ENERGY PREDICTED BY IDOCK:   -3.42 KCAL/MOL
REMARK 922        TOTAL FREE ENERGY PREDICTED BY IDOCK:   -5.25 KCAL/MOL
REMARK 923 INTER-LIGAND FREE ENERGY PREDICTED BY IDOCK:   -5.16 KCAL/MOL
REMARK 924 INTRA-LIGAND FREE ENERGY PREDICTED BY IDOCK:   -0.09 KCAL/MOL
REMARK 927      BINDING AFFINITY PREDICTED BY RF-SCORE:    0.00 PKD
ROOT
HETATM    1  C   UNL     1     -12.082  16.233  72.387  1.00  0.00    -0.513 C  
HETATM    2  O   UNL     1     -13.206  15.479  71.933  1.00  0.00    -0.406 OA 
ENDROOT
BRANCH   2   3
HETATM    3  C   UNL     1     -13.047  14.141  72.059  1.00  0.00    -0.387 C  
HETATM    4  O   UNL     1     -13.413  13.446  72.993  1.00  0.00    -0.537 OA 
BRANCH   3   5
HETATM    5  C   UNL     1     -12.327  13.647  70.874  1.00  0.00    -0.450 C  
HETATM    6  C   UNL     1     -12.385  14.372  69.752  1.00  0.00    -0.333 C  
BRANCH   6   7
HETATM    7  C   UNL     1     -11.811  13.847  68.503  1.00  0.00    -0.366 C  
HETATM    8  O   UNL     1     -11.337  14.523  67.608  1.00  0.00    -0.306 OA 
BRANCH   7   9
HETATM    9  O   UNL     1     -11.757  12.500  68.629  1.00  0.00    -0.290 OA 
BRANCH   9  10
HETATM   10  C   UNL     1     -10.466  11.923  68.381  1.00  0.00    -0.217 C  
BRANCH  10  11
HETATM   11  C   UNL     1     -10.722  10.455  68.055  1.00  0.00    -0.249 C  
BRANCH  11  12
HETATM   12  N   UNL     1      -9.563   9.729  67.598  1.00  0.00    -0.143 N  
HETATM   13  C   UNL     1      -8.633   9.181  68.431  1.00  0.00    -0.129 C  
HETATM   14  O   UNL     1      -8.702   9.092  69.645  1.00  0.00    -0.130 OA 
HETATM   15  C   UNL     1      -7.465   8.740  67.600  1.00  0.00    -0.093 C  
HETATM   16  C   UNL     1      -8.012   8.725  66.184  1.00  0.00    -0.103 C  
HETATM   17  C   UNL     1      -9.300   9.483  66.284  1.00  0.00    -0.188 C  
HETATM   18  O   UNL     1     -10.011   9.778  65.334  1.00  0.00    -0.320 OA 
ENDBRANCH  11  12
ENDBRANCH  10  11
ENDBRANCH   9  10
ENDBRANCH   7   9
ENDBRANCH   6   7
ENDBRANCH   3   5
ENDBRANCH   2   3
TORSDOF 7
ENDMDL
MODEL      231
REMARK 921   NORMALIZED FREE ENERGY PREDICTED BY IDOCK:   -3.40 KCAL/MOL
REMARK 922        TOTAL FREE ENERGY PREDICTED BY IDOCK:   -5.22 KCAL/MOL
REMARK 923 INTER-LIGAND FREE ENERGY PREDICTED BY IDOCK:   -4.90 KCAL/MOL
REMARK 924 INTRA-LIGAND FREE ENERGY PREDICTED BY IDOCK:   -0.33 KCAL/MOL
REMARK 927      BINDING AFFINITY PREDICTED BY RF-SCORE:    0.00 PKD
ROOT
HETATM    1  C   UNL     1     -10.143   7.381  68.242  1.00  0.00    -0.177 C  
HETATM    2  O   UNL     1     -10.271   8.754  68.611  1.00  0.00    -0.186 OA 
ENDROOT
BRANCH   2   3
HETATM    3  C   UNL     1     -10.866   8.939  69.813  1.00  0.00    -0.200 C  
HETATM    4  O   UNL     1     -11.254   8.069  70.577  1.00  0.00    -0.265 OA 
BRANCH   3   5
HETATM    5  C   UNL     1     -10.993  10.385  70.050  1.00  0.00    -0.370 C  
HETATM    6  C   UNL     1     -12.185  10.957  69.845  1.00  0.00    -0.408 C  
BRANCH   6   7
HETATM    7  C   UNL     1     -12.326  12.419  69.921  1.00  0.00    -0.048 C  
HETATM    8  O   UNL     1     -12.598  13.049  70.926  1.00  0.00    -0.343 OA 
BRANCH   7   9
HETATM    9  O   UNL     1     -11.928  12.916  68.726  1.00  0.00    -0.311 OA 
BRANCH   9  10
HETATM   10  C   UNL     1     -11.986  14.348  68.619  1.00  0.00    -0.297 C  
BRANCH  10  11
HETATM   11  C   UNL     1     -11.575  14.674  67.188  1.00  0.00    -0.378 C  
BRANCH  11  12
HETATM   12  N   UNL     1     -10.311  15.358  67.066  1.00  0.00    -0.274 N  
HETATM   13  C   UNL     1     -10.114  16.661  67.416  1.00  0.00    -0.274 C  
HETATM   14  O   UNL     1     -10.901  17.387  67.999  1.00  0.00    -0.384 OA 
HETATM   15  C   UNL     1      -8.765  17.079  66.914  1.00  0.00    -0.251 C  
HETATM   16  C   UNL     1      -8.066  15.766  66.611  1.00  0.00    -0.282 C  
HETATM   17  C   UNL     1      -9.171  14.755  66.624  1.00  0.00    -0.275 C  
HETATM   18  O   UNL     1      -9.040  13.576  66.332  1.00  0.00    -0.173 OA 
ENDBRANCH  11  12
ENDBRANCH  10  11
ENDBRANCH   9  10
ENDBRANCH   7   9
ENDBRANCH   6   7
ENDBRANCH   3   5
ENDBRANCH   2   3
TORSDOF 7
ENDMDL
MODEL      232
REMARK 921   NORMALIZED FREE ENERGY PREDICTED BY IDOCK:   -3.39 KCAL/MOL
REMARK 922        TOTAL FREE ENERGY PREDICTED BY IDOCK:   -5.22 KCAL/MOL
REMARK 923 INTER-LIGAND FREE ENERGY PREDICTED BY IDOCK:   -5.11 KCAL/MOL
REMARK 924 INTRA-LIGAND FREE ENERGY PREDICTED BY IDOCK:   -0.11 KCAL/MOL
REMARK 927      BINDING AFFINITY PREDICTED BY RF-SCORE:    0.00 PKD
ROOT
HETATM    1  C   UNL     1      -9.766  17.158  68.507  1.00  0.00    -0.291 C  
HETATM    2  O   UNL     1      -9.634  18.323  67.694  1.00  0.00    -0.275 OA 
ENDROOT
BRANCH   2   3
HETATM    3  C   UNL     1      -9.926  18.110  66.390  1.00  0.00    -0.376 C  
HETATM    4  O   UNL     1     -10.295  18.943  65.578  1.00  0.00    -0.499 OA 
BRANCH   3   5
HETATM    5  C   UNL     1      -9.746  16.678  66.103  1.00  0.00    -0.329 C  
HETATM    6  C   UNL     1     -10.657  16.067  65.339  1.00  0.00    -0.428 C  
BRANCH   6   7
HETATM    7  C   UNL     1     -10.604  14.608  65.149  1.00  0.00    -0.421 C  
HETATM    8  O   UNL     1     -10.438  14.043  64.084  1.00  0.00    -0.142 OA 
BRANCH   7   9
HETATM    9  O   UNL     1     -10.600  14.050  66.383  1.00  0.00    -0.276 OA 
BRANCH   9  10
HETATM   10  C   UNL     1      -9.634  13.003  66.567  1.00  0.00    -0.260 C  
BRANCH  10  11
HETATM   11  C   UNL     1     -10.358  11.705  66.228  1.00  0.00    -0.235 C  
BRANCH  11  12
HETATM   12  N   UNL     1      -9.657  10.850  65.301  1.00  0.00    -0.215 N  
HETATM   13  C   UNL     1      -8.598  10.063  65.646  1.00  0.00    -0.155 C  
HETATM   14  O   UNL     1      -8.182   9.851  66.772  1.00  0.00    -0.122 OA 
HETATM   15  C   UNL     1      -7.986   9.527  64.386  1.00  0.00    -0.135 C  
HETATM   16  C   UNL     1      -9.054   9.764  63.334  1.00  0.00    -0.262 C  
HETATM   17  C   UNL     1     -10.010  10.712  63.992  1.00  0.00    -0.337 C  
HETATM   18  O   UNL     1     -10.971  11.227  63.441  1.00  0.00    -0.355 OA 
ENDBRANCH  11  12
ENDBRANCH  10  11
ENDBRANCH   9  10
ENDBRANCH   7   9
ENDBRANCH   6   7
ENDBRANCH   3   5
ENDBRANCH   2   3
TORSDOF 7
ENDMDL
MODEL      233
REMARK 921   NORMALIZED FREE ENERGY PREDICTED BY IDOCK:   -3.39 KCAL/MOL
REMARK 922        TOTAL FREE ENERGY PREDICTED BY IDOCK:   -5.22 KCAL/MOL
REMARK 923 INTER-LIGAND FREE ENERGY PREDICTED BY IDOCK:   -4.86 KCAL/MOL
REMARK 924 INTRA-LIGAND FREE ENERGY PREDICTED BY IDOCK:   -0.35 KCAL/MOL
REMARK 927      BINDING AFFINITY PREDICTED BY RF-SCORE:    0.00 PKD
ROOT
HETATM    1  C   UNL     1     -10.762   5.973  70.760  1.00  0.00    -0.276 C  
HETATM    2  O   UNL     1     -10.195   7.098  71.430  1.00  0.00    -0.193 OA 
ENDROOT
BRANCH   2   3
HETATM    3  C   UNL     1     -10.451   8.279  70.818  1.00  0.00    -0.196 C  
HETATM    4  O   UNL     1     -11.514   8.878  70.802  1.00  0.00    -0.274 OA 
BRANCH   3   5
HETATM    5  C   UNL     1      -9.223   8.725  70.142  1.00  0.00    -0.179 C  
HETATM    6  C   UNL     1      -9.297   9.053  68.848  1.00  0.00    -0.143 C  
BRANCH   6   7
HETATM    7  C   UNL     1      -8.073   9.359  68.091  1.00  0.00    -0.110 C  
HETATM    8  O   UNL     1      -6.936   9.191  68.493  1.00  0.00    -0.066 OA 
BRANCH   7   9
HETATM    9  O   UNL     1      -8.457   9.685  66.835  1.00  0.00    -0.120 OA 
BRANCH   9  10
HETATM   10  C   UNL     1      -9.173  10.925  66.726  1.00  0.00    -0.158 C  
BRANCH  10  11
HETATM   11  C   UNL     1     -10.332  10.654  65.773  1.00  0.00    -0.219 C  
BRANCH  11  12
HETATM   12  N   UNL     1     -11.025  11.834  65.318  1.00  0.00    -0.303 N  
HETATM   13  C   UNL     1     -11.912  12.535  66.079  1.00  0.00    -0.392 C  
HETATM   14  O   UNL     1     -12.145  12.373  67.265  1.00  0.00    -0.516 OA 
HETATM   15  C   UNL     1     -12.605  13.527  65.193  1.00  0.00    -0.485 C  
HETATM   16  C   UNL     1     -11.726  13.586  63.957  1.00  0.00    -0.440 C  
HETATM   17  C   UNL     1     -10.831  12.392  64.089  1.00  0.00    -0.372 C  
HETATM   18  O   UNL     1     -10.029  12.025  63.244  1.00  0.00    -0.423 OA 
ENDBRANCH  11  12
ENDBRANCH  10  11
ENDBRANCH   9  10
ENDBRANCH   7   9
ENDBRANCH   6   7
ENDBRANCH   3   5
ENDBRANCH   2   3
TORSDOF 7
ENDMDL
MODEL      234
REMARK 921   NORMALIZED FREE ENERGY PREDICTED BY IDOCK:   -3.39 KCAL/MOL
REMARK 922        TOTAL FREE ENERGY PREDICTED BY IDOCK:   -5.21 KCAL/MOL
REMARK 923 INTER-LIGAND FREE ENERGY PREDICTED BY IDOCK:   -4.86 KCAL/MOL
REMARK 924 INTRA-LIGAND FREE ENERGY PREDICTED BY IDOCK:   -0.35 KCAL/MOL
REMARK 927      BINDING AFFINITY PREDICTED BY RF-SCORE:    0.00 PKD
ROOT
HETATM    1  C   UNL     1      -5.178  14.110  72.708  1.00  0.00    -0.238 C  
HETATM    2  O   UNL     1      -5.490  13.034  71.822  1.00  0.00    -0.376 OA 
ENDROOT
BRANCH   2   3
HETATM    3  C   UNL     1      -5.489  13.390  70.516  1.00  0.00    -0.150 C  
HETATM    4  O   UNL     1      -5.319  14.512  70.065  1.00  0.00    -0.093 OA 
BRANCH   3   5
HETATM    5  C   UNL     1      -5.750  12.189  69.709  1.00  0.00    -0.111 C  
HETATM    6  C   UNL     1      -6.841  12.172  68.935  1.00  0.00    -0.100 C  
BRANCH   6   7
HETATM    7  C   UNL     1      -7.227  10.941  68.228  1.00  0.00    -0.084 C  
HETATM    8  O   UNL     1      -6.545   9.936  68.141  1.00  0.00    -0.056 OA 
BRANCH   7   9
HETATM    9  O   UNL     1      -8.521  11.086  67.859  1.00  0.00    -0.123 OA 
BRANCH   9  10
HETATM   10  C   UNL     1      -8.724  11.841  66.655  1.00  0.00    -0.186 C  
BRANCH  10  11
HETATM   11  C   UNL     1      -9.807  11.101  65.877  1.00  0.00    -0.232 C  
BRANCH  11  12
HETATM   12  N   UNL     1     -10.789  11.953  65.254  1.00  0.00    -0.289 N  
HETATM   13  C   UNL     1     -11.860  12.483  65.910  1.00  0.00    -0.430 C  
HETATM   14  O   UNL     1     -12.074  12.446  67.110  1.00  0.00    -0.532 OA 
HETATM   15  C   UNL     1     -12.777  13.091  64.891  1.00  0.00    -0.456 C  
HETATM   16  C   UNL     1     -11.913  13.206  63.647  1.00  0.00    -0.580 C  
HETATM   17  C   UNL     1     -10.723  12.348  63.951  1.00  0.00    -0.426 C  
HETATM   18  O   UNL     1      -9.825  12.097  63.161  1.00  0.00    -0.398 OA 
ENDBRANCH  11  12
ENDBRANCH  10  11
ENDBRANCH   9  10
ENDBRANCH   7   9
ENDBRANCH   6   7
ENDBRANCH   3   5
ENDBRANCH   2   3
TORSDOF 7
ENDMDL
MODEL      235
REMARK 921   NORMALIZED FREE ENERGY PREDICTED BY IDOCK:   -3.38 KCAL/MOL
REMARK 922        TOTAL FREE ENERGY PREDICTED BY IDOCK:   -5.20 KCAL/MOL
REMARK 923 INTER-LIGAND FREE ENERGY PREDICTED BY IDOCK:   -4.56 KCAL/MOL
REMARK 924 INTRA-LIGAND FREE ENERGY PREDICTED BY IDOCK:   -0.64 KCAL/MOL
REMARK 927      BINDING AFFINITY PREDICTED BY RF-SCORE:    0.00 PKD
ROOT
HETATM    1  C   UNL     1     -10.649   7.178  68.751  1.00  0.00    -0.196 C  
HETATM    2  O   UNL     1     -10.807   8.028  69.886  1.00  0.00    -0.248 OA 
ENDROOT
BRANCH   2   3
HETATM    3  C   UNL     1      -9.842   8.971  69.994  1.00  0.00    -0.184 C  
HETATM    4  O   UNL     1      -9.192   9.241  70.992  1.00  0.00    -0.246 OA 
BRANCH   3   5
HETATM    5  C   UNL     1      -9.711   9.651  68.696  1.00  0.00    -0.162 C  
HETATM    6  C   UNL     1      -9.188  10.882  68.676  1.00  0.00    -0.187 C  
BRANCH   6   7
HETATM    7  C   UNL     1      -9.177  11.660  67.427  1.00  0.00    -0.168 C  
HETATM    8  O   UNL     1      -9.167  11.189  66.305  1.00  0.00    -0.182 OA 
BRANCH   7   9
HETATM    9  O   UNL     1      -9.353  12.958  67.770  1.00  0.00    -0.188 OA 
BRANCH   9  10
HETATM   10  C   UNL     1      -9.969  13.770  66.758  1.00  0.00    -0.270 C  
BRANCH  10  11
HETATM   11  C   UNL     1     -11.440  13.873  67.146  1.00  0.00    -0.347 C  
BRANCH  11  12
HETATM   12  N   UNL     1     -11.675  14.255  68.516  1.00  0.00    -0.322 N  
HETATM   13  C   UNL     1     -11.581  15.535  68.975  1.00  0.00    -0.365 C  
HETATM   14  O   UNL     1     -11.434  16.542  68.304  1.00  0.00    -0.283 OA 
HETATM   15  C   UNL     1     -11.642  15.500  70.473  1.00  0.00    -0.371 C  
HETATM   16  C   UNL     1     -12.187  14.117  70.782  1.00  0.00    -0.435 C  
HETATM   17  C   UNL     1     -12.055  13.376  69.487  1.00  0.00    -0.278 C  
HETATM   18  O   UNL     1     -12.301  12.189  69.335  1.00  0.00    -0.124 OA 
ENDBRANCH  11  12
ENDBRANCH  10  11
ENDBRANCH   9  10
ENDBRANCH   7   9
ENDBRANCH   6   7
ENDBRANCH   3   5
ENDBRANCH   2   3
TORSDOF 7
ENDMDL
MODEL      236
REMARK 921   NORMALIZED FREE ENERGY PREDICTED BY IDOCK:   -3.37 KCAL/MOL
REMARK 922        TOTAL FREE ENERGY PREDICTED BY IDOCK:   -5.19 KCAL/MOL
REMARK 923 INTER-LIGAND FREE ENERGY PREDICTED BY IDOCK:   -4.56 KCAL/MOL
REMARK 924 INTRA-LIGAND FREE ENERGY PREDICTED BY IDOCK:   -0.63 KCAL/MOL
REMARK 927      BINDING AFFINITY PREDICTED BY RF-SCORE:    0.00 PKD
ROOT
HETATM    1  C   UNL     1     -10.209   5.743  68.028  1.00  0.00    -0.187 C  
HETATM    2  O   UNL     1      -9.100   6.326  68.712  1.00  0.00    -0.128 OA 
ENDROOT
BRANCH   2   3
HETATM    3  C   UNL     1      -8.247   6.986  67.894  1.00  0.00    -0.115 C  
HETATM    4  O   UNL     1      -7.108   6.654  67.605  1.00  0.00    -0.079 OA 
BRANCH   3   5
HETATM    5  C   UNL     1      -8.915   8.206  67.415  1.00  0.00    -0.145 C  
HETATM    6  C   UNL     1      -8.205   9.068  66.679  1.00  0.00    -0.118 C  
BRANCH   6   7
HETATM    7  C   UNL     1      -8.781  10.370  66.305  1.00  0.00    -0.153 C  
HETATM    8  O   UNL     1      -9.234  10.650  65.211  1.00  0.00    -0.178 OA 
BRANCH   7   9
HETATM    9  O   UNL     1      -8.864  11.105  67.439  1.00  0.00    -0.138 OA 
BRANCH   9  10
HETATM   10  C   UNL     1      -8.455  12.475  67.300  1.00  0.00    -0.185 C  
BRANCH  10  11
HETATM   11  C   UNL     1      -9.685  13.311  67.637  1.00  0.00    -0.219 C  
BRANCH  11  12
HETATM   12  N   UNL     1     -10.648  13.422  66.569  1.00  0.00    -0.285 N  
HETATM   13  C   UNL     1     -11.741  12.616  66.445  1.00  0.00    -0.405 C  
HETATM   14  O   UNL     1     -12.145  11.802  67.259  1.00  0.00    -0.595 OA 
HETATM   15  C   UNL     1     -12.351  12.862  65.098  1.00  0.00    -0.547 C  
HETATM   16  C   UNL     1     -11.731  14.174  64.652  1.00  0.00    -0.427 C  
HETATM   17  C   UNL     1     -10.584  14.373  65.595  1.00  0.00    -0.329 C  
HETATM   18  O   UNL     1      -9.765  15.276  65.516  1.00  0.00    -0.332 OA 
ENDBRANCH  11  12
ENDBRANCH  10  11
ENDBRANCH   9  10
ENDBRANCH   7   9
ENDBRANCH   6   7
ENDBRANCH   3   5
ENDBRANCH   2   3
TORSDOF 7
ENDMDL
MODEL      237
REMARK 921   NORMALIZED FREE ENERGY PREDICTED BY IDOCK:   -3.36 KCAL/MOL
REMARK 922        TOTAL FREE ENERGY PREDICTED BY IDOCK:   -5.18 KCAL/MOL
REMARK 923 INTER-LIGAND FREE ENERGY PREDICTED BY IDOCK:   -4.68 KCAL/MOL
REMARK 924 INTRA-LIGAND FREE ENERGY PREDICTED BY IDOCK:   -0.50 KCAL/MOL
REMARK 927      BINDING AFFINITY PREDICTED BY RF-SCORE:    0.00 PKD
ROOT
HETATM    1  C   UNL     1     -10.819  11.652  63.632  1.00  0.00    -0.432 C  
HETATM    2  O   UNL     1     -10.947  12.842  64.409  1.00  0.00    -0.329 OA 
ENDROOT
BRANCH   2   3
HETATM    3  C   UNL     1     -12.157  12.975  65.001  1.00  0.00    -0.427 C  
HETATM    4  O   UNL     1     -13.246  12.758  64.493  1.00  0.00    -0.699 OA 
BRANCH   3   5
HETATM    5  C   UNL     1     -11.950  13.455  66.376  1.00  0.00    -0.457 C  
HETATM    6  C   UNL     1     -11.575  12.568  67.305  1.00  0.00    -0.434 C  
BRANCH   6   7
HETATM    7  C   UNL     1     -11.502  12.966  68.720  1.00  0.00    -0.303 C  
HETATM    8  O   UNL     1     -12.111  13.893  69.222  1.00  0.00    -0.336 OA 
BRANCH   7   9
HETATM    9  O   UNL     1     -10.784  12.014  69.361  1.00  0.00    -0.089 OA 
BRANCH   9  10
HETATM   10  C   UNL     1     -11.552  10.896  69.833  1.00  0.00    -0.331 C  
BRANCH  10  11
HETATM   11  C   UNL     1     -10.706  10.240  70.919  1.00  0.00     0.195 C  
BRANCH  11  12
HETATM   12  N   UNL     1      -9.754   9.270  70.436  1.00  0.00    -0.226 N  
HETATM   13  C   UNL     1      -8.461   9.565  70.122  1.00  0.00    -0.205 C  
HETATM   14  O   UNL     1      -7.881  10.617  70.327  1.00  0.00     0.084 OA 
HETATM   15  C   UNL     1      -7.868   8.377  69.425  1.00  0.00    -0.103 C  
HETATM   16  C   UNL     1      -8.831   7.248  69.746  1.00  0.00    -0.142 C  
HETATM   17  C   UNL     1     -10.043   7.946  70.282  1.00  0.00    -0.196 C  
HETATM   18  O   UNL     1     -11.093   7.394  70.574  1.00  0.00    -0.252 OA 
ENDBRANCH  11  12
ENDBRANCH  10  11
ENDBRANCH   9  10
ENDBRANCH   7   9
ENDBRANCH   6   7
ENDBRANCH   3   5
ENDBRANCH   2   3
TORSDOF 7
ENDMDL
MODEL      238
REMARK 921   NORMALIZED FREE ENERGY PREDICTED BY IDOCK:   -3.36 KCAL/MOL
REMARK 922        TOTAL FREE ENERGY PREDICTED BY IDOCK:   -5.17 KCAL/MOL
REMARK 923 INTER-LIGAND FREE ENERGY PREDICTED BY IDOCK:   -4.66 KCAL/MOL
REMARK 924 INTRA-LIGAND FREE ENERGY PREDICTED BY IDOCK:   -0.51 KCAL/MOL
REMARK 927      BINDING AFFINITY PREDICTED BY RF-SCORE:    0.00 PKD
ROOT
HETATM    1  C   UNL     1      -7.512   7.421  69.794  1.00  0.00    -0.092 C  
HETATM    2  O   UNL     1      -8.439   8.478  69.546  1.00  0.00    -0.123 OA 
ENDROOT
BRANCH   2   3
HETATM    3  C   UNL     1      -9.717   8.056  69.407  1.00  0.00    -0.170 C  
HETATM    4  O   UNL     1     -10.137   6.924  69.590  1.00  0.00    -0.178 OA 
BRANCH   3   5
HETATM    5  C   UNL     1     -10.536   9.196  68.969  1.00  0.00    -0.219 C  
HETATM    6  C   UNL     1     -10.140   9.883  67.891  1.00  0.00    -0.210 C  
BRANCH   6   7
HETATM    7  C   UNL     1     -10.839  11.119  67.504  1.00  0.00    -0.254 C  
HETATM    8  O   UNL     1     -12.027  11.207  67.258  1.00  0.00    -0.452 OA 
BRANCH   7   9
HETATM    9  O   UNL     1      -9.954  12.133  67.648  1.00  0.00    -0.191 OA 
BRANCH   9  10
HETATM   10  C   UNL     1     -10.539  13.444  67.671  1.00  0.00    -0.243 C  
BRANCH  10  11
HETATM   11  C   UNL     1     -10.109  14.068  68.995  1.00  0.00    -0.055 C  
BRANCH  11  12
HETATM   12  N   UNL     1     -11.197  14.427  69.871  1.00  0.00    -0.218 N  
HETATM   13  C   UNL     1     -12.048  13.524  70.436  1.00  0.00    -0.345 C  
HETATM   14  O   UNL     1     -11.945  12.310  70.412  1.00  0.00    -0.343 OA 
HETATM   15  C   UNL     1     -13.180  14.280  71.064  1.00  0.00    -0.367 C  
HETATM   16  C   UNL     1     -12.664  15.706  71.146  1.00  0.00    -0.525 C  
HETATM   17  C   UNL     1     -11.459  15.708  70.256  1.00  0.00    -0.349 C  
HETATM   18  O   UNL     1     -10.803  16.700  69.975  1.00  0.00    -0.329 OA 
ENDBRANCH  11  12
ENDBRANCH  10  11
ENDBRANCH   9  10
ENDBRANCH   7   9
ENDBRANCH   6   7
ENDBRANCH   3   5
ENDBRANCH   2   3
TORSDOF 7
ENDMDL
MODEL      239
REMARK 921   NORMALIZED FREE ENERGY PREDICTED BY IDOCK:   -3.35 KCAL/MOL
REMARK 922        TOTAL FREE ENERGY PREDICTED BY IDOCK:   -5.16 KCAL/MOL
REMARK 923 INTER-LIGAND FREE ENERGY PREDICTED BY IDOCK:   -4.51 KCAL/MOL
REMARK 924 INTRA-LIGAND FREE ENERGY PREDICTED BY IDOCK:   -0.65 KCAL/MOL
REMARK 927      BINDING AFFINITY PREDICTED BY RF-SCORE:    0.00 PKD
ROOT
HETATM    1  C   UNL     1      -8.738  10.740  67.830  1.00  0.00    -0.129 C  
HETATM    2  O   UNL     1      -8.825   9.319  67.724  1.00  0.00    -0.121 OA 
ENDROOT
BRANCH   2   3
HETATM    3  C   UNL     1      -9.803   8.897  66.889  1.00  0.00    -0.223 C  
HETATM    4  O   UNL     1     -10.064   9.346  65.784  1.00  0.00    -0.288 OA 
BRANCH   3   5
HETATM    5  C   UNL     1     -10.533   7.802  67.546  1.00  0.00    -0.338 C  
HETATM    6  C   UNL     1     -10.457   7.701  68.877  1.00  0.00    -0.211 C  
BRANCH   6   7
HETATM    7  C   UNL     1     -11.042   6.539  69.565  1.00  0.00    -0.365 C  
HETATM    8  O   UNL     1     -10.637   5.394  69.481  1.00  0.00    -0.292 OA 
BRANCH   7   9
HETATM    9  O   UNL     1     -11.978   7.016  70.418  1.00  0.00    -0.289 OA 
BRANCH   9  10
HETATM   10  C   UNL     1     -11.616   8.231  71.093  1.00  0.00    -0.279 C  
BRANCH  10  11
HETATM   11  C   UNL     1     -11.599   7.892  72.580  1.00  0.00    -0.386 C  
BRANCH  11  12
HETATM   12  N   UNL     1     -10.514   7.035  72.990  1.00  0.00    -0.249 N  
HETATM   13  C   UNL     1      -9.247   7.478  73.233  1.00  0.00    -0.205 C  
HETATM   14  O   UNL     1      -8.876   8.639  73.284  1.00  0.00    -0.323 OA 
HETATM   15  C   UNL     1      -8.356   6.282  73.383  1.00  0.00    -0.114 C  
HETATM   16  C   UNL     1      -9.323   5.133  73.604  1.00  0.00    -0.132 C  
HETATM   17  C   UNL     1     -10.655   5.699  73.214  1.00  0.00    -0.250 C  
HETATM   18  O   UNL     1     -11.695   5.060  73.161  1.00  0.00    -0.313 OA 
ENDBRANCH  11  12
ENDBRANCH  10  11
ENDBRANCH   9  10
ENDBRANCH   7   9
ENDBRANCH   6   7
ENDBRANCH   3   5
ENDBRANCH   2   3
TORSDOF 7
ENDMDL
MODEL      240
REMARK 921   NORMALIZED FREE ENERGY PREDICTED BY IDOCK:   -3.34 KCAL/MOL
REMARK 922        TOTAL FREE ENERGY PREDICTED BY IDOCK:   -5.15 KCAL/MOL
REMARK 923 INTER-LIGAND FREE ENERGY PREDICTED BY IDOCK:   -4.77 KCAL/MOL
REMARK 924 INTRA-LIGAND FREE ENERGY PREDICTED BY IDOCK:   -0.37 KCAL/MOL
REMARK 927      BINDING AFFINITY PREDICTED BY RF-SCORE:    0.00 PKD
ROOT
HETATM    1  C   UNL     1     -10.901  15.573  66.848  1.00  0.00    -0.301 C  
HETATM    2  O   UNL     1     -10.973  14.156  67.000  1.00  0.00    -0.292 OA 
ENDROOT
BRANCH   2   3
HETATM    3  C   UNL     1     -11.758  13.552  66.078  1.00  0.00    -0.359 C  
HETATM    4  O   UNL     1     -12.647  14.071  65.422  1.00  0.00    -0.483 OA 
BRANCH   3   5
HETATM    5  C   UNL     1     -11.379  12.132  66.005  1.00  0.00    -0.410 C  
HETATM    6  C   UNL     1     -10.386  11.785  65.178  1.00  0.00    -0.323 C  
BRANCH   6   7
HETATM    7  C   UNL     1     -10.072  10.365  64.957  1.00  0.00    -0.309 C  
HETATM    8  O   UNL     1      -9.708   9.881  63.901  1.00  0.00    -0.186 OA 
BRANCH   7   9
HETATM    9  O   UNL     1     -10.097   9.761  66.168  1.00  0.00    -0.257 OA 
BRANCH   9  10
HETATM   10  C   UNL     1      -9.366   8.528  66.243  1.00  0.00    -0.224 C  
BRANCH  10  11
HETATM   11  C   UNL     1      -8.953   8.377  67.703  1.00  0.00    -0.135 C  
BRANCH  11  12
HETATM   12  N   UNL     1      -9.828   7.545  68.492  1.00  0.00    -0.160 N  
HETATM   13  C   UNL     1     -10.676   8.025  69.446  1.00  0.00    -0.159 C  
HETATM   14  O   UNL     1     -10.928   9.196  69.677  1.00  0.00    -0.226 OA 
HETATM   15  C   UNL     1     -11.221   6.859  70.214  1.00  0.00    -0.363 C  
HETATM   16  C   UNL     1     -10.910   5.664  69.331  1.00  0.00    -0.334 C  
HETATM   17  C   UNL     1      -9.924   6.195  68.336  1.00  0.00    -0.140 C  
HETATM   18  O   UNL     1      -9.350   5.519  67.495  1.00  0.00    -0.110 OA 
ENDBRANCH  11  12
ENDBRANCH  10  11
ENDBRANCH   9  10
ENDBRANCH   7   9
ENDBRANCH   6   7
ENDBRANCH   3   5
ENDBRANCH   2   3
TORSDOF 7
ENDMDL
MODEL      241
REMARK 921   NORMALIZED FREE ENERGY PREDICTED BY IDOCK:   -3.33 KCAL/MOL
REMARK 922        TOTAL FREE ENERGY PREDICTED BY IDOCK:   -5.13 KCAL/MOL
REMARK 923 INTER-LIGAND FREE ENERGY PREDICTED BY IDOCK:   -4.78 KCAL/MOL
REMARK 924 INTRA-LIGAND FREE ENERGY PREDICTED BY IDOCK:   -0.35 KCAL/MOL
REMARK 927      BINDING AFFINITY PREDICTED BY RF-SCORE:    0.00 PKD
ROOT
HETATM    1  C   UNL     1      -8.527   5.010  67.368  1.00  0.00    -0.105 C  
HETATM    2  O   UNL     1      -9.879   5.403  67.135  1.00  0.00    -0.135 OA 
ENDROOT
BRANCH   2   3
HETATM    3  C   UNL     1     -10.284   6.435  67.912  1.00  0.00    -0.168 C  
HETATM    4  O   UNL     1     -10.966   6.366  68.922  1.00  0.00    -0.295 OA 
BRANCH   3   5
HETATM    5  C   UNL     1      -9.779   7.684  67.321  1.00  0.00    -0.221 C  
HETATM    6  C   UNL     1     -10.654   8.666  67.075  1.00  0.00    -0.293 C  
BRANCH   6   7
HETATM    7  C   UNL     1     -10.227   9.872  66.348  1.00  0.00    -0.222 C  
HETATM    8  O   UNL     1      -9.994   9.929  65.155  1.00  0.00    -0.318 OA 
BRANCH   7   9
HETATM    9  O   UNL     1     -10.315  10.907  67.216  1.00  0.00    -0.197 OA 
BRANCH   9  10
HETATM   10  C   UNL     1     -11.579  11.589  67.214  1.00  0.00    -0.199 C  
BRANCH  10  11
HETATM   11  C   UNL     1     -11.300  12.983  67.765  1.00  0.00    -0.292 C  
BRANCH  11  12
HETATM   12  N   UNL     1     -10.934  13.961  66.770  1.00  0.00    -0.296 N  
HETATM   13  C   UNL     1      -9.659  14.402  66.571  1.00  0.00    -0.293 C  
HETATM   14  O   UNL     1      -8.644  13.956  67.078  1.00  0.00    -0.216 OA 
HETATM   15  C   UNL     1      -9.713  15.580  65.645  1.00  0.00    -0.355 C  
HETATM   16  C   UNL     1     -11.098  15.496  65.029  1.00  0.00    -0.411 C  
HETATM   17  C   UNL     1     -11.823  14.515  65.898  1.00  0.00    -0.331 C  
HETATM   18  O   UNL     1     -13.008  14.235  65.794  1.00  0.00    -0.436 OA 
ENDBRANCH  11  12
ENDBRANCH  10  11
ENDBRANCH   9  10
ENDBRANCH   7   9
ENDBRANCH   6   7
ENDBRANCH   3   5
ENDBRANCH   2   3
TORSDOF 7
ENDMDL
MODEL      242
REMARK 921   NORMALIZED FREE ENERGY PREDICTED BY IDOCK:   -3.32 KCAL/MOL
REMARK 922        TOTAL FREE ENERGY PREDICTED BY IDOCK:   -5.12 KCAL/MOL
REMARK 923 INTER-LIGAND FREE ENERGY PREDICTED BY IDOCK:   -4.75 KCAL/MOL
REMARK 924 INTRA-LIGAND FREE ENERGY PREDICTED BY IDOCK:   -0.37 KCAL/MOL
REMARK 927      BINDING AFFINITY PREDICTED BY RF-SCORE:    0.00 PKD
ROOT
HETATM    1  C   UNL     1     -10.328   3.710  63.877  1.00  0.00    -0.254 C  
HETATM    2  O   UNL     1     -10.793   4.126  65.160  1.00  0.00    -0.193 OA 
ENDROOT
BRANCH   2   3
HETATM    3  C   UNL     1      -9.943   4.963  65.799  1.00  0.00    -0.170 C  
HETATM    4  O   UNL     1      -8.928   5.464  65.341  1.00  0.00    -0.160 OA 
BRANCH   3   5
HETATM    5  C   UNL     1     -10.433   5.162  67.172  1.00  0.00    -0.224 C  
HETATM    6  C   UNL     1      -9.572   5.607  68.093  1.00  0.00    -0.135 C  
BRANCH   6   7
HETATM    7  C   UNL     1      -9.972   5.678  69.507  1.00  0.00    -0.198 C  
HETATM    8  O   UNL     1      -9.632   4.895  70.375  1.00  0.00    -0.158 OA 
BRANCH   7   9
HETATM    9  O   UNL     1     -10.627   6.851  69.674  1.00  0.00    -0.212 OA 
BRANCH   9  10
HETATM   10  C   UNL     1      -9.819   8.024  69.493  1.00  0.00    -0.181 C  
BRANCH  10  11
HETATM   11  C   UNL     1      -9.898   8.790  70.809  1.00  0.00    -0.205 C  
BRANCH  11  12
HETATM   12  N   UNL     1     -11.191   9.360  71.096  1.00  0.00    -0.325 N  
HETATM   13  C   UNL     1     -11.651  10.519  70.542  1.00  0.00    -0.350 C  
HETATM   14  O   UNL     1     -11.128  11.156  69.644  1.00  0.00    -0.251 OA 
HETATM   15  C   UNL     1     -12.903  10.916  71.264  1.00  0.00    -0.536 C  
HETATM   16  C   UNL     1     -13.316   9.652  71.998  1.00  0.00    -0.547 C  
HETATM   17  C   UNL     1     -12.104   8.775  71.922  1.00  0.00    -0.363 C  
HETATM   18  O   UNL     1     -11.992   7.692  72.476  1.00  0.00    -0.288 OA 
ENDBRANCH  11  12
ENDBRANCH  10  11
ENDBRANCH   9  10
ENDBRANCH   7   9
ENDBRANCH   6   7
ENDBRANCH   3   5
ENDBRANCH   2   3
TORSDOF 7
ENDMDL
MODEL      243
REMARK 921   NORMALIZED FREE ENERGY PREDICTED BY IDOCK:   -3.31 KCAL/MOL
REMARK 922        TOTAL FREE ENERGY PREDICTED BY IDOCK:   -5.11 KCAL/MOL
REMARK 923 INTER-LIGAND FREE ENERGY PREDICTED BY IDOCK:   -4.22 KCAL/MOL
REMARK 924 INTRA-LIGAND FREE ENERGY PREDICTED BY IDOCK:   -0.89 KCAL/MOL
REMARK 927      BINDING AFFINITY PREDICTED BY RF-SCORE:    0.00 PKD
ROOT
HETATM    1  C   UNL     1     -13.203  10.933  71.775  1.00  0.00    -0.408 C  
HETATM    2  O   UNL     1     -12.274  11.602  70.922  1.00  0.00    -0.364 OA 
ENDROOT
BRANCH   2   3
HETATM    3  C   UNL     1     -11.860  10.849  69.876  1.00  0.00    -0.349 C  
HETATM    4  O   UNL     1     -12.285  10.889  68.733  1.00  0.00    -0.518 OA 
BRANCH   3   5
HETATM    5  C   UNL     1     -10.807   9.937  70.351  1.00  0.00    -0.380 C  
HETATM    6  C   UNL     1     -11.014   8.621  70.243  1.00  0.00    -0.251 C  
BRANCH   6   7
HETATM    7  C   UNL     1     -10.062   7.671  70.838  1.00  0.00    -0.191 C  
HETATM    8  O   UNL     1     -10.359   6.725  71.545  1.00  0.00    -0.207 OA 
BRANCH   7   9
HETATM    9  O   UNL     1      -8.846   7.949  70.313  1.00  0.00    -0.138 OA 
BRANCH   9  10
HETATM   10  C   UNL     1      -8.270   6.891  69.532  1.00  0.00    -0.131 C  
BRANCH  10  11
HETATM   11  C   UNL     1      -7.594   7.569  68.345  1.00  0.00    -0.114 C  
BRANCH  11  12
HETATM   12  N   UNL     1      -8.442   8.472  67.606  1.00  0.00    -0.128 N  
HETATM   13  C   UNL     1      -8.193   9.805  67.467  1.00  0.00    -0.114 C  
HETATM   14  O   UNL     1      -7.184  10.399  67.805  1.00  0.00    -0.084 OA 
HETATM   15  C   UNL     1      -9.407  10.445  66.862  1.00  0.00    -0.186 C  
HETATM   16  C   UNL     1     -10.195   9.273  66.303  1.00  0.00    -0.273 C  
HETATM   17  C   UNL     1      -9.559   8.073  66.936  1.00  0.00    -0.204 C  
HETATM   18  O   UNL     1      -9.964   6.926  66.816  1.00  0.00    -0.182 OA 
ENDBRANCH  11  12
ENDBRANCH  10  11
ENDBRANCH   9  10
ENDBRANCH   7   9
ENDBRANCH   6   7
ENDBRANCH   3   5
ENDBRANCH   2   3
TORSDOF 7
ENDMDL
MODEL      244
REMARK 921   NORMALIZED FREE ENERGY PREDICTED BY IDOCK:   -3.31 KCAL/MOL
REMARK 922        TOTAL FREE ENERGY PREDICTED BY IDOCK:   -5.11 KCAL/MOL
REMARK 923 INTER-LIGAND FREE ENERGY PREDICTED BY IDOCK:   -4.88 KCAL/MOL
REMARK 924 INTRA-LIGAND FREE ENERGY PREDICTED BY IDOCK:   -0.22 KCAL/MOL
REMARK 927      BINDING AFFINITY PREDICTED BY RF-SCORE:    0.00 PKD
ROOT
HETATM    1  C   UNL     1      -6.978  15.914  66.754  1.00  0.00     0.093 C  
HETATM    2  O   UNL     1      -8.138  15.765  67.572  1.00  0.00    -0.142 OA 
ENDROOT
BRANCH   2   3
HETATM    3  C   UNL     1      -9.301  15.857  66.884  1.00  0.00    -0.225 C  
HETATM    4  O   UNL     1      -9.429  16.107  65.696  1.00  0.00    -0.427 OA 
BRANCH   3   5
HETATM    5  C   UNL     1     -10.412  15.624  67.820  1.00  0.00    -0.273 C  
HETATM    6  C   UNL     1     -10.424  14.482  68.515  1.00  0.00    -0.250 C  
BRANCH   6   7
HETATM    7  C   UNL     1     -11.587  14.136  69.348  1.00  0.00    -0.304 C  
HETATM    8  O   UNL     1     -12.319  14.935  69.902  1.00  0.00    -0.314 OA 
BRANCH   7   9
HETATM    9  O   UNL     1     -11.775  12.800  69.228  1.00  0.00    -0.289 OA 
BRANCH   9  10
HETATM   10  C   UNL     1     -10.798  12.125  68.420  1.00  0.00    -0.224 C  
BRANCH  10  11
HETATM   11  C   UNL     1     -11.565  11.551  67.234  1.00  0.00    -0.199 C  
BRANCH  11  12
HETATM   12  N   UNL     1     -11.181  12.091  65.952  1.00  0.00    -0.329 N  
HETATM   13  C   UNL     1     -12.068  12.547  65.023  1.00  0.00    -0.446 C  
HETATM   14  O   UNL     1     -13.268  12.703  65.174  1.00  0.00    -0.646 OA 
HETATM   15  C   UNL     1     -11.322  12.786  63.745  1.00  0.00    -0.520 C  
HETATM   16  C   UNL     1      -9.865  12.806  64.172  1.00  0.00    -0.011 C  
HETATM   17  C   UNL     1      -9.885  12.236  65.557  1.00  0.00    -0.206 C  
HETATM   18  O   UNL     1      -8.890  11.995  66.225  1.00  0.00    -0.171 OA 
ENDBRANCH  11  12
ENDBRANCH  10  11
ENDBRANCH   9  10
ENDBRANCH   7   9
ENDBRANCH   6   7
ENDBRANCH   3   5
ENDBRANCH   2   3
TORSDOF 7
ENDMDL
MODEL      245
REMARK 921   NORMALIZED FREE ENERGY PREDICTED BY IDOCK:   -3.28 KCAL/MOL
REMARK 922        TOTAL FREE ENERGY PREDICTED BY IDOCK:   -5.06 KCAL/MOL
REMARK 923 INTER-LIGAND FREE ENERGY PREDICTED BY IDOCK:   -4.75 KCAL/MOL
REMARK 924 INTRA-LIGAND FREE ENERGY PREDICTED BY IDOCK:   -0.31 KCAL/MOL
REMARK 927      BINDING AFFINITY PREDICTED BY RF-SCORE:    0.00 PKD
ROOT
HETATM    1  C   UNL     1      -5.241  14.265  73.719  1.00  0.00    -0.275 C  
HETATM    2  O   UNL     1      -5.308  13.334  72.638  1.00  0.00    -0.390 OA 
ENDROOT
BRANCH   2   3
HETATM    3  C   UNL     1      -5.460  13.921  71.428  1.00  0.00    -0.218 C  
HETATM    4  O   UNL     1      -5.387  15.114  71.179  1.00  0.00    -0.135 OA 
BRANCH   3   5
HETATM    5  C   UNL     1      -5.757  12.872  70.439  1.00  0.00    -0.171 C  
HETATM    6  C   UNL     1      -6.432  13.215  69.337  1.00  0.00    -0.095 C  
BRANCH   6   7
HETATM    7  C   UNL     1      -6.884  12.179  68.395  1.00  0.00    -0.073 C  
HETATM    8  O   UNL     1      -7.077  11.010  68.674  1.00  0.00    -0.068 OA 
BRANCH   7   9
HETATM    9  O   UNL     1      -7.199  12.808  67.238  1.00  0.00    -0.145 OA 
BRANCH   9  10
HETATM   10  C   UNL     1      -8.510  13.393  67.208  1.00  0.00    -0.200 C  
BRANCH  10  11
HETATM   11  C   UNL     1      -9.413  12.355  66.549  1.00  0.00    -0.242 C  
BRANCH  11  12
HETATM   12  N   UNL     1     -10.602  12.895  65.937  1.00  0.00    -0.266 N  
HETATM   13  C   UNL     1     -10.780  13.005  64.589  1.00  0.00    -0.367 C  
HETATM   14  O   UNL     1     -10.058  12.552  63.718  1.00  0.00    -0.388 OA 
HETATM   15  C   UNL     1     -12.007  13.832  64.348  1.00  0.00    -0.480 C  
HETATM   16  C   UNL     1     -12.719  13.827  65.688  1.00  0.00    -0.523 C  
HETATM   17  C   UNL     1     -11.688  13.314  66.646  1.00  0.00    -0.377 C  
HETATM   18  O   UNL     1     -11.835  13.244  67.857  1.00  0.00    -0.337 OA 
ENDBRANCH  11  12
ENDBRANCH  10  11
ENDBRANCH   9  10
ENDBRANCH   7   9
ENDBRANCH   6   7
ENDBRANCH   3   5
ENDBRANCH   2   3
TORSDOF 7
ENDMDL
MODEL      246
REMARK 921   NORMALIZED FREE ENERGY PREDICTED BY IDOCK:   -3.28 KCAL/MOL
REMARK 922        TOTAL FREE ENERGY PREDICTED BY IDOCK:   -5.05 KCAL/MOL
REMARK 923 INTER-LIGAND FREE ENERGY PREDICTED BY IDOCK:   -4.92 KCAL/MOL
REMARK 924 INTRA-LIGAND FREE ENERGY PREDICTED BY IDOCK:   -0.13 KCAL/MOL
REMARK 927      BINDING AFFINITY PREDICTED BY RF-SCORE:    0.00 PKD
ROOT
HETATM    1  C   UNL     1     -10.478  15.908  70.288  1.00  0.00    -0.176 C  
HETATM    2  O   UNL     1     -11.225  15.268  71.323  1.00  0.00    -0.349 OA 
ENDROOT
BRANCH   2   3
HETATM    3  C   UNL     1     -12.299  14.580  70.869  1.00  0.00    -0.345 C  
HETATM    4  O   UNL     1     -13.233  14.162  71.535  1.00  0.00    -0.324 OA 
BRANCH   3   5
HETATM    5  C   UNL     1     -12.151  14.394  69.417  1.00  0.00    -0.338 C  
HETATM    6  C   UNL     1     -12.075  13.145  68.945  1.00  0.00    -0.232 C  
BRANCH   6   7
HETATM    7  C   UNL     1     -11.775  12.910  67.524  1.00  0.00    -0.367 C  
HETATM    8  O   UNL     1     -12.390  13.385  66.587  1.00  0.00    -0.361 OA 
BRANCH   7   9
HETATM    9  O   UNL     1     -10.608  12.225  67.475  1.00  0.00    -0.213 OA 
BRANCH   9  10
HETATM   10  C   UNL     1     -10.617  11.079  66.609  1.00  0.00    -0.262 C  
BRANCH  10  11
HETATM   11  C   UNL     1      -9.223  11.010  65.996  1.00  0.00    -0.193 C  
BRANCH  11  12
HETATM   12  N   UNL     1      -9.187  10.532  64.636  1.00  0.00    -0.217 N  
HETATM   13  C   UNL     1      -8.619   9.350  64.260  1.00  0.00    -0.196 C  
HETATM   14  O   UNL     1      -8.197   8.476  64.998  1.00  0.00    -0.142 OA 
HETATM   15  C   UNL     1      -8.551   9.321  62.763  1.00  0.00    -0.222 C  
HETATM   16  C   UNL     1      -9.507  10.421  62.334  1.00  0.00    -0.256 C  
HETATM   17  C   UNL     1      -9.755  11.197  63.591  1.00  0.00    -0.317 C  
HETATM   18  O   UNL     1     -10.405  12.229  63.655  1.00  0.00    -0.412 OA 
ENDBRANCH  11  12
ENDBRANCH  10  11
ENDBRANCH   9  10
ENDBRANCH   7   9
ENDBRANCH   6   7
ENDBRANCH   3   5
ENDBRANCH   2   3
TORSDOF 7
ENDMDL
MODEL      247
REMARK 921   NORMALIZED FREE ENERGY PREDICTED BY IDOCK:   -3.27 KCAL/MOL
REMARK 922        TOTAL FREE ENERGY PREDICTED BY IDOCK:   -5.05 KCAL/MOL
REMARK 923 INTER-LIGAND FREE ENERGY PREDICTED BY IDOCK:   -4.41 KCAL/MOL
REMARK 924 INTRA-LIGAND FREE ENERGY PREDICTED BY IDOCK:   -0.64 KCAL/MOL
REMARK 927      BINDING AFFINITY PREDICTED BY RF-SCORE:    0.00 PKD
ROOT
HETATM    1  C   UNL     1     -10.638  12.164  63.619  1.00  0.00    -0.461 C  
HETATM    2  O   UNL     1     -10.394  12.226  65.024  1.00  0.00    -0.278 OA 
ENDROOT
BRANCH   2   3
HETATM    3  C   UNL     1     -10.175  11.016  65.590  1.00  0.00    -0.260 C  
HETATM    4  O   UNL     1     -10.050   9.950  65.008  1.00  0.00    -0.286 OA 
BRANCH   3   5
HETATM    5  C   UNL     1     -10.131  11.188  67.050  1.00  0.00    -0.235 C  
HETATM    6  C   UNL     1     -11.224  10.879  67.756  1.00  0.00    -0.384 C  
BRANCH   6   7
HETATM    7  C   UNL     1     -11.282  11.176  69.196  1.00  0.00    -0.264 C  
HETATM    8  O   UNL     1     -12.150  11.828  69.746  1.00  0.00    -0.297 OA 
BRANCH   7   9
HETATM    9  O   UNL     1     -10.305  10.449  69.789  1.00  0.00    -0.240 OA 
BRANCH   9  10
HETATM   10  C   UNL     1     -10.734   9.665  70.913  1.00  0.00    -0.332 C  
BRANCH  10  11
HETATM   11  C   UNL     1     -11.222   8.342  70.335  1.00  0.00    -0.219 C  
BRANCH  11  12
HETATM   12  N   UNL     1     -10.177   7.476  69.848  1.00  0.00    -0.205 N  
HETATM   13  C   UNL     1      -9.326   6.783  70.657  1.00  0.00    -0.162 C  
HETATM   14  O   UNL     1      -9.398   6.672  71.869  1.00  0.00    -0.148 OA 
HETATM   15  C   UNL     1      -8.236   6.207  69.803  1.00  0.00    -0.123 C  
HETATM   16  C   UNL     1      -8.789   6.306  68.392  1.00  0.00    -0.114 C  
HETATM   17  C   UNL     1      -9.960   7.231  68.525  1.00  0.00    -0.162 C  
HETATM   18  O   UNL     1     -10.630   7.646  67.591  1.00  0.00    -0.241 OA 
ENDBRANCH  11  12
ENDBRANCH  10  11
ENDBRANCH   9  10
ENDBRANCH   7   9
ENDBRANCH   6   7
ENDBRANCH   3   5
ENDBRANCH   2   3
TORSDOF 7
ENDMDL
MODEL      248
REMARK 921   NORMALIZED FREE ENERGY PREDICTED BY IDOCK:   -3.27 KCAL/MOL
REMARK 922        TOTAL FREE ENERGY PREDICTED BY IDOCK:   -5.05 KCAL/MOL
REMARK 923 INTER-LIGAND FREE ENERGY PREDICTED BY IDOCK:   -4.38 KCAL/MOL
REMARK 924 INTRA-LIGAND FREE ENERGY PREDICTED BY IDOCK:   -0.67 KCAL/MOL
REMARK 927      BINDING AFFINITY PREDICTED BY RF-SCORE:    0.00 PKD
ROOT
HETATM    1  C   UNL     1     -11.310   6.334  69.959  1.00  0.00    -0.416 C  
HETATM    2  O   UNL     1     -10.108   7.014  70.320  1.00  0.00    -0.186 OA 
ENDROOT
BRANCH   2   3
HETATM    3  C   UNL     1      -9.814   8.060  69.513  1.00  0.00    -0.181 C  
HETATM    4  O   UNL     1      -8.773   8.241  68.901  1.00  0.00    -0.135 OA 
BRANCH   3   5
HETATM    5  C   UNL     1     -10.964   8.977  69.505  1.00  0.00    -0.118 C  
HETATM    6  C   UNL     1     -10.894  10.074  68.743  1.00  0.00    -0.252 C  
BRANCH   6   7
HETATM    7  C   UNL     1     -11.951  11.095  68.817  1.00  0.00    -0.268 C  
HETATM    8  O   UNL     1     -12.426  11.542  69.845  1.00  0.00    -0.200 OA 
BRANCH   7   9
HETATM    9  O   UNL     1     -12.153  11.546  67.557  1.00  0.00    -0.614 OA 
BRANCH   9  10
HETATM   10  C   UNL     1     -11.858  12.937  67.360  1.00  0.00    -0.360 C  
BRANCH  10  11
HETATM   11  C   UNL     1     -10.936  12.999  66.147  1.00  0.00    -0.280 C  
BRANCH  11  12
HETATM   12  N   UNL     1      -9.696  12.279  66.297  1.00  0.00    -0.240 N  
HETATM   13  C   UNL     1      -8.690  12.665  67.133  1.00  0.00    -0.201 C  
HETATM   14  O   UNL     1      -8.730  13.559  67.961  1.00  0.00    -0.164 OA 
HETATM   15  C   UNL     1      -7.484  11.826  66.829  1.00  0.00    -0.057 C  
HETATM   16  C   UNL     1      -8.042  10.665  66.027  1.00  0.00    -0.159 C  
HETATM   17  C   UNL     1      -9.420  11.114  65.646  1.00  0.00    -0.224 C  
HETATM   18  O   UNL     1     -10.176  10.498  64.910  1.00  0.00    -0.328 OA 
ENDBRANCH  11  12
ENDBRANCH  10  11
ENDBRANCH   9  10
ENDBRANCH   7   9
ENDBRANCH   6   7
ENDBRANCH   3   5
ENDBRANCH   2   3
TORSDOF 7
ENDMDL
MODEL      249
REMARK 921   NORMALIZED FREE ENERGY PREDICTED BY IDOCK:   -3.27 KCAL/MOL
REMARK 922        TOTAL FREE ENERGY PREDICTED BY IDOCK:   -5.05 KCAL/MOL
REMARK 923 INTER-LIGAND FREE ENERGY PREDICTED BY IDOCK:   -4.66 KCAL/MOL
REMARK 924 INTRA-LIGAND FREE ENERGY PREDICTED BY IDOCK:   -0.38 KCAL/MOL
REMARK 927      BINDING AFFINITY PREDICTED BY RF-SCORE:    0.00 PKD
ROOT
HETATM    1  C   UNL     1      -9.579  16.578  68.372  1.00  0.00    -0.233 C  
HETATM    2  O   UNL     1     -10.741  16.253  67.609  1.00  0.00    -0.313 OA 
ENDROOT
BRANCH   2   3
HETATM    3  C   UNL     1     -10.463  15.812  66.359  1.00  0.00    -0.303 C  
HETATM    4  O   UNL     1      -9.592  16.233  65.614  1.00  0.00    -0.466 OA 
BRANCH   3   5
HETATM    5  C   UNL     1     -11.410  14.737  66.026  1.00  0.00    -0.332 C  
HETATM    6  C   UNL     1     -10.994  13.471  66.141  1.00  0.00    -0.289 C  
BRANCH   6   7
HETATM    7  C   UNL     1     -11.850  12.367  65.676  1.00  0.00    -0.409 C  
HETATM    8  O   UNL     1     -12.925  12.497  65.120  1.00  0.00    -0.700 OA 
BRANCH   7   9
HETATM    9  O   UNL     1     -11.138  11.226  65.828  1.00  0.00    -0.206 OA 
BRANCH   9  10
HETATM   10  C   UNL     1     -10.485  11.087  67.100  1.00  0.00    -0.232 C  
BRANCH  10  11
HETATM   11  C   UNL     1     -10.704   9.639  67.523  1.00  0.00    -0.256 C  
BRANCH  11  12
HETATM   12  N   UNL     1      -9.513   8.956  67.966  1.00  0.00    -0.142 N  
HETATM   13  C   UNL     1      -9.295   8.567  69.255  1.00  0.00    -0.154 C  
HETATM   14  O   UNL     1     -10.096   8.600  70.173  1.00  0.00    -0.179 OA 
HETATM   15  C   UNL     1      -7.866   8.127  69.373  1.00  0.00    -0.105 C  
HETATM   16  C   UNL     1      -7.427   7.925  67.934  1.00  0.00    -0.104 C  
HETATM   17  C   UNL     1      -8.500   8.593  67.129  1.00  0.00    -0.114 C  
HETATM   18  O   UNL     1      -8.476   8.734  65.916  1.00  0.00    -0.127 OA 
ENDBRANCH  11  12
ENDBRANCH  10  11
ENDBRANCH   9  10
ENDBRANCH   7   9
ENDBRANCH   6   7
ENDBRANCH   3   5
ENDBRANCH   2   3
TORSDOF 7
ENDMDL
MODEL      250
REMARK 921   NORMALIZED FREE ENERGY PREDICTED BY IDOCK:   -3.25 KCAL/MOL
REMARK 922        TOTAL FREE ENERGY PREDICTED BY IDOCK:   -5.01 KCAL/MOL
REMARK 923 INTER-LIGAND FREE ENERGY PREDICTED BY IDOCK:   -4.67 KCAL/MOL
REMARK 924 INTRA-LIGAND FREE ENERGY PREDICTED BY IDOCK:   -0.34 KCAL/MOL
REMARK 927      BINDING AFFINITY PREDICTED BY RF-SCORE:    0.00 PKD
ROOT
HETATM    1  C   UNL     1      -8.007  19.911  67.205  1.00  0.00    -0.302 C  
HETATM    2  O   UNL     1      -9.399  20.228  67.165  1.00  0.00    -0.365 OA 
ENDROOT
BRANCH   2   3
HETATM    3  C   UNL     1     -10.074  19.581  66.187  1.00  0.00    -0.469 C  
HETATM    4  O   UNL     1     -10.706  20.090  65.275  1.00  0.00    -0.317 OA 
BRANCH   3   5
HETATM    5  C   UNL     1      -9.941  18.133  66.412  1.00  0.00    -0.376 C  
HETATM    6  C   UNL     1     -10.754  17.311  65.740  1.00  0.00    -0.132 C  
BRANCH   6   7
HETATM    7  C   UNL     1     -10.763  15.871  66.041  1.00  0.00    -0.284 C  
HETATM    8  O   UNL     1     -10.532  14.983  65.242  1.00  0.00    -0.346 OA 
BRANCH   7   9
HETATM    9  O   UNL     1     -10.900  15.750  67.383  1.00  0.00    -0.315 OA 
BRANCH   9  10
HETATM   10  C   UNL     1      -9.702  15.374  68.080  1.00  0.00    -0.207 C  
BRANCH  10  11
HETATM   11  C   UNL     1      -9.964  13.978  68.635  1.00  0.00    -0.203 C  
BRANCH  11  12
HETATM   12  N   UNL     1      -9.514  12.901  67.789  1.00  0.00    -0.195 N  
HETATM   13  C   UNL     1      -8.219  12.479  67.720  1.00  0.00    -0.166 C  
HETATM   14  O   UNL     1      -7.297  12.830  68.437  1.00  0.00    -0.104 OA 
HETATM   15  C   UNL     1      -8.099  11.530  66.565  1.00  0.00    -0.112 C  
HETATM   16  C   UNL     1      -9.536  11.153  66.254  1.00  0.00    -0.220 C  
HETATM   17  C   UNL     1     -10.348  12.166  67.001  1.00  0.00    -0.211 C  
HETATM   18  O   UNL     1     -11.564  12.267  66.938  1.00  0.00    -0.347 OA 
ENDBRANCH  11  12
ENDBRANCH  10  11
ENDBRANCH   9  10
ENDBRANCH   7   9
ENDBRANCH   6   7
ENDBRANCH   3   5
ENDBRANCH   2   3
TORSDOF 7
ENDMDL
MODEL      251
REMARK 921   NORMALIZED FREE ENERGY PREDICTED BY IDOCK:   -3.24 KCAL/MOL
REMARK 922        TOTAL FREE ENERGY PREDICTED BY IDOCK:   -5.01 KCAL/MOL
REMARK 923 INTER-LIGAND FREE ENERGY PREDICTED BY IDOCK:   -4.60 KCAL/MOL
REMARK 924 INTRA-LIGAND FREE ENERGY PREDICTED BY IDOCK:   -0.41 KCAL/MOL
REMARK 927      BINDING AFFINITY PREDICTED BY RF-SCORE:    0.00 PKD
ROOT
HETATM    1  C   UNL     1      -7.749   6.577  64.956  1.00  0.00    -0.103 C  
HETATM    2  O   UNL     1      -7.862   7.614  65.929  1.00  0.00    -0.093 OA 
ENDROOT
BRANCH   2   3
HETATM    3  C   UNL     1      -9.106   8.142  66.016  1.00  0.00    -0.167 C  
HETATM    4  O   UNL     1     -10.084   7.626  66.532  1.00  0.00    -0.220 OA 
BRANCH   3   5
HETATM    5  C   UNL     1      -9.098   9.456  65.354  1.00  0.00    -0.280 C  
HETATM    6  C   UNL     1     -10.016  10.356  65.726  1.00  0.00    -0.334 C  
BRANCH   6   7
HETATM    7  C   UNL     1     -10.145  11.625  64.992  1.00  0.00    -0.263 C  
HETATM    8  O   UNL     1      -9.850  11.796  63.824  1.00  0.00    -0.305 OA 
BRANCH   7   9
HETATM    9  O   UNL     1     -10.805  12.484  65.804  1.00  0.00    -0.265 OA 
BRANCH   9  10
HETATM   10  C   UNL     1     -10.074  13.673  66.144  1.00  0.00    -0.306 C  
BRANCH  10  11
HETATM   11  C   UNL     1      -9.527  13.438  67.548  1.00  0.00    -0.219 C  
BRANCH  11  12
HETATM   12  N   UNL     1     -10.330  13.998  68.607  1.00  0.00    -0.239 N  
HETATM   13  C   UNL     1     -11.466  13.416  69.089  1.00  0.00    -0.300 C  
HETATM   14  O   UNL     1     -11.889  12.306  68.817  1.00  0.00    -0.309 OA 
HETATM   15  C   UNL     1     -12.148  14.402  69.989  1.00  0.00    -0.401 C  
HETATM   16  C   UNL     1     -11.073  15.434  70.280  1.00  0.00    -0.331 C  
HETATM   17  C   UNL     1     -10.011  15.149  69.263  1.00  0.00    -0.242 C  
HETATM   18  O   UNL     1      -9.005  15.823  69.099  1.00  0.00    -0.224 OA 
ENDBRANCH  11  12
ENDBRANCH  10  11
ENDBRANCH   9  10
ENDBRANCH   7   9
ENDBRANCH   6   7
ENDBRANCH   3   5
ENDBRANCH   2   3
TORSDOF 7
ENDMDL
MODEL      252
REMARK 921   NORMALIZED FREE ENERGY PREDICTED BY IDOCK:   -3.24 KCAL/MOL
REMARK 922        TOTAL FREE ENERGY PREDICTED BY IDOCK:   -5.00 KCAL/MOL
REMARK 923 INTER-LIGAND FREE ENERGY PREDICTED BY IDOCK:   -4.61 KCAL/MOL
REMARK 924 INTRA-LIGAND FREE ENERGY PREDICTED BY IDOCK:   -0.39 KCAL/MOL
REMARK 927      BINDING AFFINITY PREDICTED BY RF-SCORE:    0.00 PKD
ROOT
HETATM    1  C   UNL     1      -8.278   8.588  64.141  1.00  0.00    -0.139 C  
HETATM    2  O   UNL     1      -8.860   9.741  64.748  1.00  0.00    -0.176 OA 
ENDROOT
BRANCH   2   3
HETATM    3  C   UNL     1      -9.514   9.473  65.903  1.00  0.00    -0.244 C  
HETATM    4  O   UNL     1     -10.146   8.463  66.167  1.00  0.00    -0.182 OA 
BRANCH   3   5
HETATM    5  C   UNL     1      -9.358  10.627  66.802  1.00  0.00    -0.179 C  
HETATM    6  C   UNL     1      -8.840  11.754  66.301  1.00  0.00    -0.142 C  
BRANCH   6   7
HETATM    7  C   UNL     1      -8.525  12.882  67.191  1.00  0.00    -0.179 C  
HETATM    8  O   UNL     1      -7.435  13.414  67.293  1.00  0.00    -0.146 OA 
BRANCH   7   9
HETATM    9  O   UNL     1      -9.696  13.306  67.721  1.00  0.00    -0.205 OA 
BRANCH   9  10
HETATM   10  C   UNL     1     -10.518  14.074  66.828  1.00  0.00    -0.277 C  
BRANCH  10  11
HETATM   11  C   UNL     1     -11.954  13.850  67.289  1.00  0.00    -0.411 C  
BRANCH  11  12
HETATM   12  N   UNL     1     -12.111  13.695  68.714  1.00  0.00    -0.348 N  
HETATM   13  C   UNL     1     -12.272  12.491  69.335  1.00  0.00    -0.062 C  
HETATM   14  O   UNL     1     -12.168  11.388  68.827  1.00  0.00    -0.502 OA 
HETATM   15  C   UNL     1     -12.653  12.750  70.762  1.00  0.00    -0.308 C  
HETATM   16  C   UNL     1     -12.290  14.208  70.977  1.00  0.00    -0.438 C  
HETATM   17  C   UNL     1     -12.074  14.737  69.592  1.00  0.00    -0.304 C  
HETATM   18  O   UNL     1     -11.852  15.907  69.319  1.00  0.00    -0.371 OA 
ENDBRANCH  11  12
ENDBRANCH  10  11
ENDBRANCH   9  10
ENDBRANCH   7   9
ENDBRANCH   6   7
ENDBRANCH   3   5
ENDBRANCH   2   3
TORSDOF 7
ENDMDL
MODEL      253
REMARK 921   NORMALIZED FREE ENERGY PREDICTED BY IDOCK:   -3.23 KCAL/MOL
REMARK 922        TOTAL FREE ENERGY PREDICTED BY IDOCK:   -4.99 KCAL/MOL
REMARK 923 INTER-LIGAND FREE ENERGY PREDICTED BY IDOCK:   -4.27 KCAL/MOL
REMARK 924 INTRA-LIGAND FREE ENERGY PREDICTED BY IDOCK:   -0.72 KCAL/MOL
REMARK 927      BINDING AFFINITY PREDICTED BY RF-SCORE:    0.00 PKD
ROOT
HETATM    1  C   UNL     1     -10.903  12.133  63.592  1.00  0.00    -0.464 C  
HETATM    2  O   UNL     1     -10.365  12.209  64.912  1.00  0.00    -0.273 OA 
ENDROOT
BRANCH   2   3
HETATM    3  C   UNL     1      -9.922  11.021  65.385  1.00  0.00    -0.260 C  
HETATM    4  O   UNL     1     -10.026   9.933  64.841  1.00  0.00    -0.306 OA 
BRANCH   3   5
HETATM    5  C   UNL     1      -9.300  11.249  66.699  1.00  0.00    -0.196 C  
HETATM    6  C   UNL     1      -8.012  11.607  66.736  1.00  0.00    -0.140 C  
BRANCH   6   7
HETATM    7  C   UNL     1      -7.307  11.699  68.024  1.00  0.00    -0.089 C  
HETATM    8  O   UNL     1      -6.401  10.970  68.383  1.00  0.00    -0.052 OA 
BRANCH   7   9
HETATM    9  O   UNL     1      -7.735  12.832  68.628  1.00  0.00    -0.124 OA 
BRANCH   9  10
HETATM   10  C   UNL     1      -7.266  14.050  68.029  1.00  0.00    -0.144 C  
BRANCH  10  11
HETATM   11  C   UNL     1      -8.315  15.107  68.357  1.00  0.00    -0.154 C  
BRANCH  11  12
HETATM   12  N   UNL     1      -9.448  15.126  67.465  1.00  0.00    -0.205 N  
HETATM   13  C   UNL     1      -9.480  15.822  66.292  1.00  0.00    -0.317 C  
HETATM   14  O   UNL     1      -8.546  16.397  65.759  1.00  0.00    -0.398 OA 
HETATM   15  C   UNL     1     -10.888  15.805  65.779  1.00  0.00    -0.286 C  
HETATM   16  C   UNL     1     -11.551  14.691  66.569  1.00  0.00    -0.350 C  
HETATM   17  C   UNL     1     -10.590  14.416  67.685  1.00  0.00    -0.260 C  
HETATM   18  O   UNL     1     -10.796  13.640  68.606  1.00  0.00    -0.250 OA 
ENDBRANCH  11  12
ENDBRANCH  10  11
ENDBRANCH   9  10
ENDBRANCH   7   9
ENDBRANCH   6   7
ENDBRANCH   3   5
ENDBRANCH   2   3
TORSDOF 7
ENDMDL
MODEL      254
REMARK 921   NORMALIZED FREE ENERGY PREDICTED BY IDOCK:   -3.23 KCAL/MOL
REMARK 922        TOTAL FREE ENERGY PREDICTED BY IDOCK:   -4.99 KCAL/MOL
REMARK 923 INTER-LIGAND FREE ENERGY PREDICTED BY IDOCK:   -4.59 KCAL/MOL
REMARK 924 INTRA-LIGAND FREE ENERGY PREDICTED BY IDOCK:   -0.40 KCAL/MOL
REMARK 927      BINDING AFFINITY PREDICTED BY RF-SCORE:    0.00 PKD
ROOT
HETATM    1  C   UNL     1      -7.352   4.983  71.124  1.00  0.00    -0.073 C  
HETATM    2  O   UNL     1      -8.191   6.078  70.758  1.00  0.00    -0.120 OA 
ENDROOT
BRANCH   2   3
HETATM    3  C   UNL     1      -9.409   5.698  70.305  1.00  0.00    -0.152 C  
HETATM    4  O   UNL     1     -10.173   4.909  70.837  1.00  0.00    -0.227 OA 
BRANCH   3   5
HETATM    5  C   UNL     1      -9.663   6.385  69.029  1.00  0.00    -0.145 C  
HETATM    6  C   UNL     1      -8.791   7.316  68.627  1.00  0.00    -0.129 C  
BRANCH   6   7
HETATM    7  C   UNL     1      -9.079   8.135  67.439  1.00  0.00    -0.134 C  
HETATM    8  O   UNL     1      -9.148   7.719  66.297  1.00  0.00    -0.172 OA 
BRANCH   7   9
HETATM    9  O   UNL     1      -9.416   9.369  67.883  1.00  0.00    -0.132 OA 
BRANCH   9  10
HETATM   10  C   UNL     1     -10.541   9.962  67.216  1.00  0.00    -0.252 C  
BRANCH  10  11
HETATM   11  C   UNL     1      -9.993  11.182  66.483  1.00  0.00    -0.214 C  
BRANCH  11  12
HETATM   12  N   UNL     1     -10.919  11.798  65.565  1.00  0.00    -0.297 N  
HETATM   13  C   UNL     1     -11.856  12.717  65.933  1.00  0.00    -0.437 C  
HETATM   14  O   UNL     1     -11.964  13.254  67.022  1.00  0.00    -0.379 OA 
HETATM   15  C   UNL     1     -12.782  12.930  64.772  1.00  0.00    -0.442 C  
HETATM   16  C   UNL     1     -12.026  12.346  63.593  1.00  0.00    -0.626 C  
HETATM   17  C   UNL     1     -10.924  11.551  64.224  1.00  0.00    -0.341 C  
HETATM   18  O   UNL     1     -10.137  10.844  63.614  1.00  0.00    -0.318 OA 
ENDBRANCH  11  12
ENDBRANCH  10  11
ENDBRANCH   9  10
ENDBRANCH   7   9
ENDBRANCH   6   7
ENDBRANCH   3   5
ENDBRANCH   2   3
TORSDOF 7
ENDMDL
MODEL      255
REMARK 921   NORMALIZED FREE ENERGY PREDICTED BY IDOCK:   -3.23 KCAL/MOL
REMARK 922        TOTAL FREE ENERGY PREDICTED BY IDOCK:   -4.99 KCAL/MOL
REMARK 923 INTER-LIGAND FREE ENERGY PREDICTED BY IDOCK:   -4.68 KCAL/MOL
REMARK 924 INTRA-LIGAND FREE ENERGY PREDICTED BY IDOCK:   -0.31 KCAL/MOL
REMARK 927      BINDING AFFINITY PREDICTED BY RF-SCORE:    0.00 PKD
ROOT
HETATM    1  C   UNL     1      -8.905   9.257  62.407  1.00  0.00    -0.233 C  
HETATM    2  O   UNL     1      -9.225   9.912  63.634  1.00  0.00    -0.257 OA 
ENDROOT
BRANCH   2   3
HETATM    3  C   UNL     1      -8.716   9.294  64.726  1.00  0.00    -0.188 C  
HETATM    4  O   UNL     1      -8.351   8.131  64.804  1.00  0.00    -0.157 OA 
BRANCH   3   5
HETATM    5  C   UNL     1      -8.690  10.260  65.835  1.00  0.00    -0.169 C  
HETATM    6  C   UNL     1      -9.567  11.270  65.814  1.00  0.00    -0.256 C  
BRANCH   6   7
HETATM    7  C   UNL     1      -9.482  12.343  66.817  1.00  0.00    -0.228 C  
HETATM    8  O   UNL     1      -8.502  13.034  67.027  1.00  0.00    -0.193 OA 
BRANCH   7   9
HETATM    9  O   UNL     1     -10.729  12.518  67.314  1.00  0.00    -0.228 OA 
BRANCH   9  10
HETATM   10  C   UNL     1     -11.739  12.789  66.329  1.00  0.00    -0.402 C  
BRANCH  10  11
HETATM   11  C   UNL     1     -12.435  14.066  66.788  1.00  0.00    -0.201 C  
BRANCH  11  12
HETATM   12  N   UNL     1     -11.659  14.883  67.688  1.00  0.00    -0.346 N  
HETATM   13  C   UNL     1     -11.740  14.804  69.047  1.00  0.00    -0.312 C  
HETATM   14  O   UNL     1     -12.345  13.967  69.695  1.00  0.00    -0.334 OA 
HETATM   15  C   UNL     1     -10.989  15.965  69.627  1.00  0.00    -0.319 C  
HETATM   16  C   UNL     1     -10.143  16.465  68.470  1.00  0.00    -0.248 C  
HETATM   17  C   UNL     1     -10.734  15.792  67.270  1.00  0.00    -0.313 C  
HETATM   18  O   UNL     1     -10.394  16.003  66.115  1.00  0.00    -0.298 OA 
ENDBRANCH  11  12
ENDBRANCH  10  11
ENDBRANCH   9  10
ENDBRANCH   7   9
ENDBRANCH   6   7
ENDBRANCH   3   5
ENDBRANCH   2   3
TORSDOF 7
ENDMDL
MODEL      256
REMARK 921   NORMALIZED FREE ENERGY PREDICTED BY IDOCK:   -3.23 KCAL/MOL
REMARK 922        TOTAL FREE ENERGY PREDICTED BY IDOCK:   -4.99 KCAL/MOL
REMARK 923 INTER-LIGAND FREE ENERGY PREDICTED BY IDOCK:   -4.73 KCAL/MOL
REMARK 924 INTRA-LIGAND FREE ENERGY PREDICTED BY IDOCK:   -0.26 KCAL/MOL
REMARK 927      BINDING AFFINITY PREDICTED BY RF-SCORE:    0.00 PKD
ROOT
HETATM    1  C   UNL     1     -12.110  14.275  69.909  1.00  0.00    -0.347 C  
HETATM    2  O   UNL     1     -12.130  14.589  71.301  1.00  0.00    -0.331 OA 
ENDROOT
BRANCH   2   3
HETATM    3  C   UNL     1     -13.020  13.855  72.009  1.00  0.00    -0.349 C  
HETATM    4  O   UNL     1     -13.631  14.209  73.005  1.00  0.00    -0.651 OA 
BRANCH   3   5
HETATM    5  C   UNL     1     -13.121  12.525  71.389  1.00  0.00    -0.303 C  
HETATM    6  C   UNL     1     -12.931  11.450  72.162  1.00  0.00    -0.210 C  
BRANCH   6   7
HETATM    7  C   UNL     1     -12.871  10.108  71.561  1.00  0.00    -0.443 C  
HETATM    8  O   UNL     1     -13.825   9.489  71.127  1.00  0.00    -0.266 OA 
BRANCH   7   9
HETATM    9  O   UNL     1     -11.561   9.791  71.433  1.00  0.00    -0.364 OA 
BRANCH   9  10
HETATM   10  C   UNL     1     -11.055   9.853  70.090  1.00  0.00    -0.296 C  
BRANCH  10  11
HETATM   11  C   UNL     1      -9.811   8.972  70.074  1.00  0.00    -0.184 C  
BRANCH  11  12
HETATM   12  N   UNL     1      -8.627   9.612  69.555  1.00  0.00    -0.157 N  
HETATM   13  C   UNL     1      -8.508  10.064  68.274  1.00  0.00    -0.111 C  
HETATM   14  O   UNL     1      -9.393  10.131  67.438  1.00  0.00    -0.146 OA 
HETATM   15  C   UNL     1      -7.072  10.429  68.041  1.00  0.00    -0.082 C  
HETATM   16  C   UNL     1      -6.488  10.519  69.439  1.00  0.00    -0.062 C  
HETATM   17  C   UNL     1      -7.519   9.866  70.307  1.00  0.00    -0.162 C  
HETATM   18  O   UNL     1      -7.389   9.651  71.503  1.00  0.00    -0.266 OA 
ENDBRANCH  11  12
ENDBRANCH  10  11
ENDBRANCH   9  10
ENDBRANCH   7   9
ENDBRANCH   6   7
ENDBRANCH   3   5
ENDBRANCH   2   3
TORSDOF 7
ENDMDL
MODEL      257
REMARK 921   NORMALIZED FREE ENERGY PREDICTED BY IDOCK:   -3.20 KCAL/MOL
REMARK 922        TOTAL FREE ENERGY PREDICTED BY IDOCK:   -4.95 KCAL/MOL
REMARK 923 INTER-LIGAND FREE ENERGY PREDICTED BY IDOCK:   -4.51 KCAL/MOL
REMARK 924 INTRA-LIGAND FREE ENERGY PREDICTED BY IDOCK:   -0.44 KCAL/MOL
REMARK 927      BINDING AFFINITY PREDICTED BY RF-SCORE:    0.00 PKD
ROOT
HETATM    1  C   UNL     1      -6.080   8.712  72.302  1.00  0.00    -0.072 C  
HETATM    2  O   UNL     1      -7.450   9.068  72.122  1.00  0.00    -0.339 OA 
ENDROOT
BRANCH   2   3
HETATM    3  C   UNL     1      -8.281   8.501  73.028  1.00  0.00    -0.026 C  
HETATM    4  O   UNL     1      -8.079   8.376  74.226  1.00  0.00    -0.273 OA 
BRANCH   3   5
HETATM    5  C   UNL     1      -9.483   8.029  72.323  1.00  0.00    -0.272 C  
HETATM    6  C   UNL     1      -9.656   8.400  71.050  1.00  0.00    -0.212 C  
BRANCH   6   7
HETATM    7  C   UNL     1     -10.911   8.081  70.351  1.00  0.00    -0.247 C  
HETATM    8  O   UNL     1     -11.377   6.965  70.217  1.00  0.00    -0.293 OA 
BRANCH   7   9
HETATM    9  O   UNL     1     -11.508   9.260  70.055  1.00  0.00    -0.181 OA 
BRANCH   9  10
HETATM   10  C   UNL     1     -10.695  10.176  69.305  1.00  0.00    -0.231 C  
BRANCH  10  11
HETATM   11  C   UNL     1     -11.665  11.000  68.465  1.00  0.00    -0.278 C  
BRANCH  11  12
HETATM   12  N   UNL     1     -11.663  12.412  68.756  1.00  0.00    -0.317 N  
HETATM   13  C   UNL     1     -11.228  13.367  67.886  1.00  0.00    -0.275 C  
HETATM   14  O   UNL     1     -10.919  13.204  66.718  1.00  0.00    -0.273 OA 
HETATM   15  C   UNL     1     -11.141  14.668  68.627  1.00  0.00    -0.276 C  
HETATM   16  C   UNL     1     -11.959  14.426  69.883  1.00  0.00    -0.391 C  
HETATM   17  C   UNL     1     -12.136  12.939  69.921  1.00  0.00    -0.265 C  
HETATM   18  O   UNL     1     -12.666  12.324  70.834  1.00  0.00    -0.289 OA 
ENDBRANCH  11  12
ENDBRANCH  10  11
ENDBRANCH   9  10
ENDBRANCH   7   9
ENDBRANCH   6   7
ENDBRANCH   3   5
ENDBRANCH   2   3
TORSDOF 7
ENDMDL
MODEL      258
REMARK 921   NORMALIZED FREE ENERGY PREDICTED BY IDOCK:   -3.20 KCAL/MOL
REMARK 922        TOTAL FREE ENERGY PREDICTED BY IDOCK:   -4.95 KCAL/MOL
REMARK 923 INTER-LIGAND FREE ENERGY PREDICTED BY IDOCK:   -4.49 KCAL/MOL
REMARK 924 INTRA-LIGAND FREE ENERGY PREDICTED BY IDOCK:   -0.46 KCAL/MOL
REMARK 927      BINDING AFFINITY PREDICTED BY RF-SCORE:    0.00 PKD
ROOT
HETATM    1  C   UNL     1      -8.050   6.555  69.774  1.00  0.00    -0.125 C  
HETATM    2  O   UNL     1      -8.622   5.760  70.812  1.00  0.00    -0.126 OA 
ENDROOT
BRANCH   2   3
HETATM    3  C   UNL     1      -9.423   6.459  71.650  1.00  0.00    -0.153 C  
HETATM    4  O   UNL     1      -9.746   6.144  72.785  1.00  0.00    -0.159 OA 
BRANCH   3   5
HETATM    5  C   UNL     1      -9.872   7.675  70.955  1.00  0.00    -0.181 C  
HETATM    6  C   UNL     1     -10.678   8.518  71.611  1.00  0.00    -0.351 C  
BRANCH   6   7
HETATM    7  C   UNL     1     -11.273   9.667  70.911  1.00  0.00    -0.352 C  
HETATM    8  O   UNL     1     -11.975  10.518  71.425  1.00  0.00    -0.330 OA 
BRANCH   7   9
HETATM    9  O   UNL     1     -10.753   9.680  69.661  1.00  0.00    -0.220 OA 
BRANCH   9  10
HETATM   10  C   UNL     1     -10.459  10.988  69.145  1.00  0.00    -0.210 C  
BRANCH  10  11
HETATM   11  C   UNL     1     -11.401  11.189  67.962  1.00  0.00    -0.312 C  
BRANCH  11  12
HETATM   12  N   UNL     1     -10.753  11.204  66.674  1.00  0.00    -0.268 N  
HETATM   13  C   UNL     1     -10.529  12.338  65.949  1.00  0.00    -0.256 C  
HETATM   14  O   UNL     1     -10.699  13.487  66.320  1.00  0.00    -0.284 OA 
HETATM   15  C   UNL     1     -10.076  11.933  64.579  1.00  0.00    -0.302 C  
HETATM   16  C   UNL     1      -9.680  10.476  64.742  1.00  0.00    -0.365 C  
HETATM   17  C   UNL     1     -10.263  10.088  66.066  1.00  0.00    -0.207 C  
HETATM   18  O   UNL     1     -10.246   8.957  66.530  1.00  0.00    -0.284 OA 
ENDBRANCH  11  12
ENDBRANCH  10  11
ENDBRANCH   9  10
ENDBRANCH   7   9
ENDBRANCH   6   7
ENDBRANCH   3   5
ENDBRANCH   2   3
TORSDOF 7
ENDMDL
MODEL      259
REMARK 921   NORMALIZED FREE ENERGY PREDICTED BY IDOCK:   -3.20 KCAL/MOL
REMARK 922        TOTAL FREE ENERGY PREDICTED BY IDOCK:   -4.94 KCAL/MOL
REMARK 923 INTER-LIGAND FREE ENERGY PREDICTED BY IDOCK:   -4.29 KCAL/MOL
REMARK 924 INTRA-LIGAND FREE ENERGY PREDICTED BY IDOCK:   -0.65 KCAL/MOL
REMARK 927      BINDING AFFINITY PREDICTED BY RF-SCORE:    0.00 PKD
ROOT
HETATM    1  C   UNL     1      -7.005   4.445  70.204  1.00  0.00    -0.041 C  
HETATM    2  O   UNL     1      -7.970   5.307  69.602  1.00  0.00    -0.081 OA 
ENDROOT
BRANCH   2   3
HETATM    3  C   UNL     1      -9.222   5.143  70.092  1.00  0.00    -0.142 C  
HETATM    4  O   UNL     1     -10.094   4.418  69.640  1.00  0.00    -0.202 OA 
BRANCH   3   5
HETATM    5  C   UNL     1      -9.377   6.013  71.268  1.00  0.00    -0.170 C  
HETATM    6  C   UNL     1     -10.613   6.377  71.627  1.00  0.00    -0.261 C  
BRANCH   6   7
HETATM    7  C   UNL     1     -10.810   7.364  72.700  1.00  0.00    -0.303 C  
HETATM    8  O   UNL     1     -10.015   7.605  73.589  1.00  0.00    -0.312 OA 
BRANCH   7   9
HETATM    9  O   UNL     1     -11.939   8.049  72.403  1.00  0.00    -0.345 OA 
BRANCH   9  10
HETATM   10  C   UNL     1     -12.005   8.547  71.057  1.00  0.00    -0.231 C  
BRANCH  10  11
HETATM   11  C   UNL     1     -11.289   9.893  71.076  1.00  0.00    -0.386 C  
BRANCH  11  12
HETATM   12  N   UNL     1     -10.503  10.172  69.900  1.00  0.00    -0.266 N  
HETATM   13  C   UNL     1      -9.163   9.937  69.807  1.00  0.00    -0.227 C  
HETATM   14  O   UNL     1      -8.468   9.344  70.615  1.00  0.00    -0.205 OA 
HETATM   15  C   UNL     1      -8.662  10.581  68.550  1.00  0.00    -0.140 C  
HETATM   16  C   UNL     1      -9.925  10.846  67.749  1.00  0.00    -0.198 C  
HETATM   17  C   UNL     1     -11.030  10.664  68.743  1.00  0.00    -0.246 C  
HETATM   18  O   UNL     1     -12.212  10.879  68.519  1.00  0.00    -0.535 OA 
ENDBRANCH  11  12
ENDBRANCH  10  11
ENDBRANCH   9  10
ENDBRANCH   7   9
ENDBRANCH   6   7
ENDBRANCH   3   5
ENDBRANCH   2   3
TORSDOF 7
ENDMDL
MODEL      260
REMARK 921   NORMALIZED FREE ENERGY PREDICTED BY IDOCK:   -3.20 KCAL/MOL
REMARK 922        TOTAL FREE ENERGY PREDICTED BY IDOCK:   -4.94 KCAL/MOL
REMARK 923 INTER-LIGAND FREE ENERGY PREDICTED BY IDOCK:   -4.53 KCAL/MOL
REMARK 924 INTRA-LIGAND FREE ENERGY PREDICTED BY IDOCK:   -0.41 KCAL/MOL
REMARK 927      BINDING AFFINITY PREDICTED BY RF-SCORE:    0.00 PKD
ROOT
HETATM    1  C   UNL     1     -12.477  15.526  70.811  1.00  0.00    -0.440 C  
HETATM    2  O   UNL     1     -12.709  15.075  72.145  1.00  0.00    -0.303 OA 
ENDROOT
BRANCH   2   3
HETATM    3  C   UNL     1     -13.281  13.850  72.211  1.00  0.00    -0.473 C  
HETATM    4  O   UNL     1     -14.318  13.557  72.785  1.00  0.00    -0.640 OA 
BRANCH   3   5
HETATM    5  C   UNL     1     -12.425  12.899  71.482  1.00  0.00    -0.160 C  
HETATM    6  C   UNL     1     -12.710  11.596  71.571  1.00  0.00    -0.423 C  
BRANCH   6   7
HETATM    7  C   UNL     1     -11.799  10.599  70.988  1.00  0.00    -0.296 C  
HETATM    8  O   UNL     1     -10.938   9.991  71.597  1.00  0.00     0.005 OA 
BRANCH   7   9
HETATM    9  O   UNL     1     -12.220  10.373  69.721  1.00  0.00    -0.211 OA 
BRANCH   9  10
HETATM   10  C   UNL     1     -11.577  11.178  68.720  1.00  0.00    -0.322 C  
BRANCH  10  11
HETATM   11  C   UNL     1     -10.384  10.362  68.234  1.00  0.00    -0.171 C  
BRANCH  11  12
HETATM   12  N   UNL     1      -9.145  11.097  68.156  1.00  0.00    -0.153 N  
HETATM   13  C   UNL     1      -8.133  10.977  69.061  1.00  0.00    -0.104 C  
HETATM   14  O   UNL     1      -8.051  10.159  69.962  1.00  0.00    -0.166 OA 
HETATM   15  C   UNL     1      -7.138  12.066  68.794  1.00  0.00    -0.111 C  
HETATM   16  C   UNL     1      -7.493  12.549  67.399  1.00  0.00    -0.153 C  
HETATM   17  C   UNL     1      -8.845  11.958  67.143  1.00  0.00    -0.180 C  
HETATM   18  O   UNL     1      -9.529  12.184  66.156  1.00  0.00    -0.234 OA 
ENDBRANCH  11  12
ENDBRANCH  10  11
ENDBRANCH   9  10
ENDBRANCH   7   9
ENDBRANCH   6   7
ENDBRANCH   3   5
ENDBRANCH   2   3
TORSDOF 7
ENDMDL
MODEL      261
REMARK 921   NORMALIZED FREE ENERGY PREDICTED BY IDOCK:   -3.19 KCAL/MOL
REMARK 922        TOTAL FREE ENERGY PREDICTED BY IDOCK:   -4.94 KCAL/MOL
REMARK 923 INTER-LIGAND FREE ENERGY PREDICTED BY IDOCK:   -4.53 KCAL/MOL
REMARK 924 INTRA-LIGAND FREE ENERGY PREDICTED BY IDOCK:   -0.41 KCAL/MOL
REMARK 927      BINDING AFFINITY PREDICTED BY RF-SCORE:    0.00 PKD
ROOT
HETATM    1  C   UNL     1     -10.551  17.320  67.882  1.00  0.00    -0.384 C  
HETATM    2  O   UNL     1     -10.238  17.667  66.533  1.00  0.00    -0.330 OA 
ENDROOT
BRANCH   2   3
HETATM    3  C   UNL     1     -10.635  16.740  65.630  1.00  0.00    -0.246 C  
HETATM    4  O   UNL     1     -11.153  16.953  64.545  1.00  0.00    -1.054 OA 
BRANCH   3   5
HETATM    5  C   UNL     1     -10.358  15.405  66.183  1.00  0.00    -0.325 C  
HETATM    6  C   UNL     1     -11.218  14.418  65.912  1.00  0.00    -0.324 C  
BRANCH   6   7
HETATM    7  C   UNL     1     -11.067  13.107  66.563  1.00  0.00    -0.294 C  
HETATM    8  O   UNL     1     -11.926  12.543  67.216  1.00  0.00    -0.474 OA 
BRANCH   7   9
HETATM    9  O   UNL     1      -9.883  12.596  66.153  1.00  0.00    -0.253 OA 
BRANCH   9  10
HETATM   10  C   UNL     1      -8.989  12.220  67.212  1.00  0.00    -0.187 C  
BRANCH  10  11
HETATM   11  C   UNL     1      -7.674  12.934  66.919  1.00  0.00     0.171 C  
BRANCH  11  12
HETATM   12  N   UNL     1      -7.132  13.675  68.032  1.00  0.00    -0.113 N  
HETATM   13  C   UNL     1      -6.802  13.114  69.230  1.00  0.00    -0.024 C  
HETATM   14  O   UNL     1      -6.774  11.924  69.496  1.00  0.00    -0.112 OA 
HETATM   15  C   UNL     1      -6.518  14.221  70.201  1.00  0.00    -0.110 C  
HETATM   16  C   UNL     1      -6.326  15.440  69.316  1.00  0.00    -0.128 C  
HETATM   17  C   UNL     1      -6.856  15.009  67.983  1.00  0.00    -0.141 C  
HETATM   18  O   UNL     1      -6.968  15.738  67.009  1.00  0.00    -0.197 OA 
ENDBRANCH  11  12
ENDBRANCH  10  11
ENDBRANCH   9  10
ENDBRANCH   7   9
ENDBRANCH   6   7
ENDBRANCH   3   5
ENDBRANCH   2   3
TORSDOF 7
ENDMDL
MODEL      262
REMARK 921   NORMALIZED FREE ENERGY PREDICTED BY IDOCK:   -3.18 KCAL/MOL
REMARK 922        TOTAL FREE ENERGY PREDICTED BY IDOCK:   -4.92 KCAL/MOL
REMARK 923 INTER-LIGAND FREE ENERGY PREDICTED BY IDOCK:   -4.25 KCAL/MOL
REMARK 924 INTRA-LIGAND FREE ENERGY PREDICTED BY IDOCK:   -0.67 KCAL/MOL
REMARK 927      BINDING AFFINITY PREDICTED BY RF-SCORE:    0.00 PKD
ROOT
HETATM    1  C   UNL     1     -13.719   7.494  71.448  1.00  0.00    -0.324 C  
HETATM    2  O   UNL     1     -13.845   8.894  71.697  1.00  0.00    -0.386 OA 
ENDROOT
BRANCH   2   3
HETATM    3  C   UNL     1     -12.688   9.579  71.540  1.00  0.00    -0.372 C  
HETATM    4  O   UNL     1     -12.559  10.695  71.063  1.00  0.00    -0.348 OA 
BRANCH   3   5
HETATM    5  C   UNL     1     -11.583   8.738  72.024  1.00  0.00    -0.436 C  
HETATM    6  C   UNL     1     -10.336   9.067  71.672  1.00  0.00    -0.420 C  
BRANCH   6   7
HETATM    7  C   UNL     1      -9.213   8.176  72.004  1.00  0.00    -0.191 C  
HETATM    8  O   UNL     1      -9.317   7.071  72.503  1.00  0.00    -0.139 OA 
BRANCH   7   9
HETATM    9  O   UNL     1      -8.095   8.742  71.493  1.00  0.00    -0.160 OA 
BRANCH   9  10
HETATM   10  C   UNL     1      -8.324   9.664  70.416  1.00  0.00    -0.151 C  
BRANCH  10  11
HETATM   11  C   UNL     1      -7.864   8.949  69.151  1.00  0.00    -0.093 C  
BRANCH  11  12
HETATM   12  N   UNL     1      -8.927   8.574  68.252  1.00  0.00    -0.139 N  
HETATM   13  C   UNL     1      -9.560   7.367  68.284  1.00  0.00    -0.150 C  
HETATM   14  O   UNL     1      -9.437   6.500  69.133  1.00  0.00    -0.136 OA 
HETATM   15  C   UNL     1     -10.413   7.255  67.056  1.00  0.00    -0.398 C  
HETATM   16  C   UNL     1     -10.506   8.682  66.546  1.00  0.00    -0.127 C  
HETATM   17  C   UNL     1      -9.435   9.408  67.301  1.00  0.00    -0.133 C  
HETATM   18  O   UNL     1      -9.119  10.573  67.113  1.00  0.00    -0.143 OA 
ENDBRANCH  11  12
ENDBRANCH  10  11
ENDBRANCH   9  10
ENDBRANCH   7   9
ENDBRANCH   6   7
ENDBRANCH   3   5
ENDBRANCH   2   3
TORSDOF 7
ENDMDL
MODEL      263
REMARK 921   NORMALIZED FREE ENERGY PREDICTED BY IDOCK:   -3.18 KCAL/MOL
REMARK 922        TOTAL FREE ENERGY PREDICTED BY IDOCK:   -4.92 KCAL/MOL
REMARK 923 INTER-LIGAND FREE ENERGY PREDICTED BY IDOCK:   -4.45 KCAL/MOL
REMARK 924 INTRA-LIGAND FREE ENERGY PREDICTED BY IDOCK:   -0.47 KCAL/MOL
REMARK 927      BINDING AFFINITY PREDICTED BY RF-SCORE:    0.00 PKD
ROOT
HETATM    1  C   UNL     1      -5.903  10.100  64.431  1.00  0.00    -0.131 C  
HETATM    2  O   UNL     1      -6.405   8.778  64.630  1.00  0.00    -0.065 OA 
ENDROOT
BRANCH   2   3
HETATM    3  C   UNL     1      -6.499   8.426  65.933  1.00  0.00    -0.053 C  
HETATM    4  O   UNL     1      -5.581   8.326  66.732  1.00  0.00    -0.032 OA 
BRANCH   3   5
HETATM    5  C   UNL     1      -7.913   8.154  66.238  1.00  0.00    -0.101 C  
HETATM    6  C   UNL     1      -8.601   9.075  66.921  1.00  0.00    -0.128 C  
BRANCH   6   7
HETATM    7  C   UNL     1      -9.969   8.786  67.380  1.00  0.00    -0.208 C  
HETATM    8  O   UNL     1     -10.626   7.812  67.064  1.00  0.00    -0.335 OA 
BRANCH   7   9
HETATM    9  O   UNL     1     -10.267   9.701  68.333  1.00  0.00    -0.173 OA 
BRANCH   9  10
HETATM   10  C   UNL     1     -11.318  10.614  67.983  1.00  0.00    -0.278 C  
BRANCH  10  11
HETATM   11  C   UNL     1     -10.623  11.883  67.501  1.00  0.00    -0.219 C  
BRANCH  11  12
HETATM   12  N   UNL     1     -11.288  12.555  66.411  1.00  0.00    -0.310 N  
HETATM   13  C   UNL     1     -11.984  13.719  66.548  1.00  0.00    -0.434 C  
HETATM   14  O   UNL     1     -12.035  14.428  67.539  1.00  0.00    -0.384 OA 
HETATM   15  C   UNL     1     -12.732  13.967  65.272  1.00  0.00    -0.468 C  
HETATM   16  C   UNL     1     -12.062  13.042  64.272  1.00  0.00    -0.480 C  
HETATM   17  C   UNL     1     -11.252  12.113  65.122  1.00  0.00    -0.329 C  
HETATM   18  O   UNL     1     -10.628  11.150  64.702  1.00  0.00    -0.325 OA 
ENDBRANCH  11  12
ENDBRANCH  10  11
ENDBRANCH   9  10
ENDBRANCH   7   9
ENDBRANCH   6   7
ENDBRANCH   3   5
ENDBRANCH   2   3
TORSDOF 7
ENDMDL
MODEL      264
REMARK 921   NORMALIZED FREE ENERGY PREDICTED BY IDOCK:   -3.18 KCAL/MOL
REMARK 922        TOTAL FREE ENERGY PREDICTED BY IDOCK:   -4.91 KCAL/MOL
REMARK 923 INTER-LIGAND FREE ENERGY PREDICTED BY IDOCK:   -4.48 KCAL/MOL
REMARK 924 INTRA-LIGAND FREE ENERGY PREDICTED BY IDOCK:   -0.43 KCAL/MOL
REMARK 927      BINDING AFFINITY PREDICTED BY RF-SCORE:    0.00 PKD
ROOT
HETATM    1  C   UNL     1     -10.460  11.766  63.447  1.00  0.00    -0.434 C  
HETATM    2  O   UNL     1     -10.698  12.685  64.512  1.00  0.00    -0.303 OA 
ENDROOT
BRANCH   2   3
HETATM    3  C   UNL     1     -11.970  12.661  64.974  1.00  0.00    -0.419 C  
HETATM    4  O   UNL     1     -12.988  12.825  64.321  1.00  0.00    -0.708 OA 
BRANCH   3   5
HETATM    5  C   UNL     1     -11.931  12.421  66.425  1.00  0.00    -0.346 C  
HETATM    6  C   UNL     1     -11.385  11.282  66.863  1.00  0.00    -0.231 C  
BRANCH   6   7
HETATM    7  C   UNL     1     -11.457  10.928  68.290  1.00  0.00    -0.305 C  
HETATM    8  O   UNL     1     -12.421  11.108  69.011  1.00  0.00    -0.439 OA 
BRANCH   7   9
HETATM    9  O   UNL     1     -10.338  10.223  68.579  1.00  0.00    -0.163 OA 
BRANCH   9  10
HETATM   10  C   UNL     1     -10.367   8.849  68.161  1.00  0.00    -0.212 C  
BRANCH  10  11
HETATM   11  C   UNL     1      -9.945   8.035  69.380  1.00  0.00    -0.190 C  
BRANCH  11  12
HETATM   12  N   UNL     1      -8.532   7.758  69.458  1.00  0.00    -0.130 N  
HETATM   13  C   UNL     1      -7.634   8.562  70.095  1.00  0.00    -0.068 C  
HETATM   14  O   UNL     1      -7.886   9.527  70.795  1.00  0.00    -0.242 OA 
HETATM   15  C   UNL     1      -6.255   8.087  69.747  1.00  0.00    -0.029 C  
HETATM   16  C   UNL     1      -6.480   6.695  69.186  1.00  0.00    -0.040 C  
HETATM   17  C   UNL     1      -7.956   6.639  68.935  1.00  0.00    -0.112 C  
HETATM   18  O   UNL     1      -8.536   5.709  68.394  1.00  0.00    -0.111 OA 
ENDBRANCH  11  12
ENDBRANCH  10  11
ENDBRANCH   9  10
ENDBRANCH   7   9
ENDBRANCH   6   7
ENDBRANCH   3   5
ENDBRANCH   2   3
TORSDOF 7
ENDMDL
MODEL      265
REMARK 921   NORMALIZED FREE ENERGY PREDICTED BY IDOCK:   -3.17 KCAL/MOL
REMARK 922        TOTAL FREE ENERGY PREDICTED BY IDOCK:   -4.90 KCAL/MOL
REMARK 923 INTER-LIGAND FREE ENERGY PREDICTED BY IDOCK:   -4.38 KCAL/MOL
REMARK 924 INTRA-LIGAND FREE ENERGY PREDICTED BY IDOCK:   -0.52 KCAL/MOL
REMARK 927      BINDING AFFINITY PREDICTED BY RF-SCORE:    0.00 PKD
ROOT
HETATM    1  C   UNL     1      -7.971   6.781  65.157  1.00  0.00    -0.128 C  
HETATM    2  O   UNL     1      -7.177   6.257  66.222  1.00  0.00    -0.066 OA 
ENDROOT
BRANCH   2   3
HETATM    3  C   UNL     1      -7.868   6.070  67.371  1.00  0.00    -0.102 C  
HETATM    4  O   UNL     1      -7.707   5.172  68.182  1.00  0.00    -0.082 OA 
BRANCH   3   5
HETATM    5  C   UNL     1      -8.881   7.131  67.480  1.00  0.00    -0.119 C  
HETATM    6  C   UNL     1      -8.941   7.834  68.616  1.00  0.00    -0.133 C  
BRANCH   6   7
HETATM    7  C   UNL     1     -10.030   8.799  68.832  1.00  0.00    -0.192 C  
HETATM    8  O   UNL     1     -10.693   8.897  69.848  1.00  0.00    -0.225 OA 
BRANCH   7   9
HETATM    9  O   UNL     1     -10.024   9.644  67.774  1.00  0.00    -0.156 OA 
BRANCH   9  10
HETATM   10  C   UNL     1     -11.165  10.512  67.690  1.00  0.00    -0.265 C  
BRANCH  10  11
HETATM   11  C   UNL     1     -10.668  11.786  67.015  1.00  0.00    -0.246 C  
BRANCH  11  12
HETATM   12  N   UNL     1     -10.885  11.836  65.590  1.00  0.00    -0.286 N  
HETATM   13  C   UNL     1     -11.964  12.431  65.006  1.00  0.00    -0.402 C  
HETATM   14  O   UNL     1     -12.809  13.114  65.558  1.00  0.00    -0.494 OA 
HETATM   15  C   UNL     1     -11.970  12.061  63.553  1.00  0.00    -0.605 C  
HETATM   16  C   UNL     1     -10.566  11.539  63.304  1.00  0.00    -0.405 C  
HETATM   17  C   UNL     1     -10.009  11.327  64.679  1.00  0.00    -0.281 C  
HETATM   18  O   UNL     1      -8.922  10.823  64.919  1.00  0.00    -0.192 OA 
ENDBRANCH  11  12
ENDBRANCH  10  11
ENDBRANCH   9  10
ENDBRANCH   7   9
ENDBRANCH   6   7
ENDBRANCH   3   5
ENDBRANCH   2   3
TORSDOF 7
ENDMDL
MODEL      266
REMARK 921   NORMALIZED FREE ENERGY PREDICTED BY IDOCK:   -3.17 KCAL/MOL
REMARK 922        TOTAL FREE ENERGY PREDICTED BY IDOCK:   -4.90 KCAL/MOL
REMARK 923 INTER-LIGAND FREE ENERGY PREDICTED BY IDOCK:   -4.56 KCAL/MOL
REMARK 924 INTRA-LIGAND FREE ENERGY PREDICTED BY IDOCK:   -0.34 KCAL/MOL
REMARK 927      BINDING AFFINITY PREDICTED BY RF-SCORE:    0.00 PKD
ROOT
HETATM    1  C   UNL     1     -11.085  11.877  63.694  1.00  0.00    -0.440 C  
HETATM    2  O   UNL     1     -12.040  12.675  64.394  1.00  0.00    -0.369 OA 
ENDROOT
BRANCH   2   3
HETATM    3  C   UNL     1     -11.870  14.006  64.215  1.00  0.00    -0.410 C  
HETATM    4  O   UNL     1     -12.663  14.782  63.707  1.00  0.00    -0.767 OA 
BRANCH   3   5
HETATM    5  C   UNL     1     -10.538  14.374  64.721  1.00  0.00    -0.417 C  
HETATM    6  C   UNL     1     -10.378  14.504  66.042  1.00  0.00    -0.320 C  
BRANCH   6   7
HETATM    7  C   UNL     1      -9.110  15.017  66.586  1.00  0.00    -0.280 C  
HETATM    8  O   UNL     1      -8.603  16.086  66.301  1.00  0.00    -0.308 OA 
BRANCH   7   9
HETATM    9  O   UNL     1      -8.728  14.165  67.566  1.00  0.00    -0.181 OA 
BRANCH   9  10
HETATM   10  C   UNL     1      -8.807  12.773  67.220  1.00  0.00    -0.198 C  
BRANCH  10  11
HETATM   11  C   UNL     1      -7.467  12.168  67.623  1.00  0.00    -0.129 C  
BRANCH  11  12
HETATM   12  N   UNL     1      -7.432  10.726  67.618  1.00  0.00    -0.094 N  
HETATM   13  C   UNL     1      -7.824   9.954  68.671  1.00  0.00    -0.086 C  
HETATM   14  O   UNL     1      -8.379  10.332  69.688  1.00  0.00    -0.169 OA 
HETATM   15  C   UNL     1      -7.409   8.540  68.391  1.00  0.00    -0.094 C  
HETATM   16  C   UNL     1      -7.114   8.536  66.902  1.00  0.00    -0.075 C  
HETATM   17  C   UNL     1      -7.041   9.988  66.542  1.00  0.00    -0.097 C  
HETATM   18  O   UNL     1      -6.729  10.418  65.441  1.00  0.00    -0.127 OA 
ENDBRANCH  11  12
ENDBRANCH  10  11
ENDBRANCH   9  10
ENDBRANCH   7   9
ENDBRANCH   6   7
ENDBRANCH   3   5
ENDBRANCH   2   3
TORSDOF 7
ENDMDL
MODEL      267
REMARK 921   NORMALIZED FREE ENERGY PREDICTED BY IDOCK:   -3.16 KCAL/MOL
REMARK 922        TOTAL FREE ENERGY PREDICTED BY IDOCK:   -4.90 KCAL/MOL
REMARK 923 INTER-LIGAND FREE ENERGY PREDICTED BY IDOCK:   -4.38 KCAL/MOL
REMARK 924 INTRA-LIGAND FREE ENERGY PREDICTED BY IDOCK:   -0.51 KCAL/MOL
REMARK 927      BINDING AFFINITY PREDICTED BY RF-SCORE:    0.00 PKD
ROOT
HETATM    1  C   UNL     1      -5.907   9.211  71.710  1.00  0.00    -0.072 C  
HETATM    2  O   UNL     1      -7.220   9.475  71.218  1.00  0.00    -0.325 OA 
ENDROOT
BRANCH   2   3
HETATM    3  C   UNL     1      -8.195   8.836  71.906  1.00  0.00    -0.046 C  
HETATM    4  O   UNL     1      -8.200   8.582  73.100  1.00  0.00    -0.368 OA 
BRANCH   3   5
HETATM    5  C   UNL     1      -9.262   8.467  70.963  1.00  0.00    -0.227 C  
HETATM    6  C   UNL     1      -9.161   8.889  69.698  1.00  0.00    -0.152 C  
BRANCH   6   7
HETATM    7  C   UNL     1     -10.272   8.676  68.757  1.00  0.00    -0.207 C  
HETATM    8  O   UNL     1     -10.749   7.595  68.464  1.00  0.00    -0.158 OA 
BRANCH   7   9
HETATM    9  O   UNL     1     -10.755   9.899  68.433  1.00  0.00    -0.218 OA 
BRANCH   9  10
HETATM   10  C   UNL     1      -9.763  10.934  68.346  1.00  0.00    -0.176 C  
BRANCH  10  11
HETATM   11  C   UNL     1      -9.781  11.407  66.897  1.00  0.00    -0.192 C  
BRANCH  11  12
HETATM   12  N   UNL     1     -10.355  12.716  66.698  1.00  0.00    -0.235 N  
HETATM   13  C   UNL     1      -9.683  13.882  66.919  1.00  0.00    -0.268 C  
HETATM   14  O   UNL     1      -8.496  14.004  67.169  1.00  0.00    -0.207 OA 
HETATM   15  C   UNL     1     -10.670  15.008  66.852  1.00  0.00    -0.308 C  
HETATM   16  C   UNL     1     -11.879  14.393  66.170  1.00  0.00    -0.391 C  
HETATM   17  C   UNL     1     -11.619  12.919  66.230  1.00  0.00    -0.372 C  
HETATM   18  O   UNL     1     -12.405  12.057  65.866  1.00  0.00    -0.463 OA 
ENDBRANCH  11  12
ENDBRANCH  10  11
ENDBRANCH   9  10
ENDBRANCH   7   9
ENDBRANCH   6   7
ENDBRANCH   3   5
ENDBRANCH   2   3
TORSDOF 7
ENDMDL
MODEL      268
REMARK 921   NORMALIZED FREE ENERGY PREDICTED BY IDOCK:   -3.14 KCAL/MOL
REMARK 922        TOTAL FREE ENERGY PREDICTED BY IDOCK:   -4.87 KCAL/MOL
REMARK 923 INTER-LIGAND FREE ENERGY PREDICTED BY IDOCK:   -4.39 KCAL/MOL
REMARK 924 INTRA-LIGAND FREE ENERGY PREDICTED BY IDOCK:   -0.48 KCAL/MOL
REMARK 927      BINDING AFFINITY PREDICTED BY RF-SCORE:    0.00 PKD
ROOT
HETATM    1  C   UNL     1      -6.666   3.957  69.085  1.00  0.00    -0.045 C  
HETATM    2  O   UNL     1      -8.060   4.118  68.824  1.00  0.00    -0.071 OA 
ENDROOT
BRANCH   2   3
HETATM    3  C   UNL     1      -8.851   3.375  69.633  1.00  0.00    -0.090 C  
HETATM    4  O   UNL     1      -9.352   2.293  69.372  1.00  0.00    -0.122 OA 
BRANCH   3   5
HETATM    5  C   UNL     1      -9.034   4.104  70.898  1.00  0.00    -0.150 C  
HETATM    6  C   UNL     1     -10.258   4.141  71.435  1.00  0.00    -0.091 C  
BRANCH   6   7
HETATM    7  C   UNL     1     -10.523   4.981  72.614  1.00  0.00    -0.209 C  
HETATM    8  O   UNL     1     -10.852   4.569  73.711  1.00  0.00    -0.243 OA 
BRANCH   7   9
HETATM    9  O   UNL     1     -10.165   6.244  72.287  1.00  0.00    -0.185 OA 
BRANCH   9  10
HETATM   10  C   UNL     1     -11.021   7.270  72.816  1.00  0.00    -0.323 C  
BRANCH  10  11
HETATM   11  C   UNL     1     -12.056   7.547  71.732  1.00  0.00    -0.308 C  
BRANCH  11  12
HETATM   12  N   UNL     1     -12.325   8.945  71.502  1.00  0.00    -0.310 N  
HETATM   13  C   UNL     1     -11.682   9.699  70.565  1.00  0.00    -0.242 C  
HETATM   14  O   UNL     1     -10.913   9.298  69.708  1.00  0.00    -0.234 OA 
HETATM   15  C   UNL     1     -12.044  11.136  70.794  1.00  0.00    -0.458 C  
HETATM   16  C   UNL     1     -13.267  11.065  71.690  1.00  0.00    -0.461 C  
HETATM   17  C   UNL     1     -13.282   9.647  72.173  1.00  0.00    -0.444 C  
HETATM   18  O   UNL     1     -14.065   9.200  72.997  1.00  0.00    -0.406 OA 
ENDBRANCH  11  12
ENDBRANCH  10  11
ENDBRANCH   9  10
ENDBRANCH   7   9
ENDBRANCH   6   7
ENDBRANCH   3   5
ENDBRANCH   2   3
TORSDOF 7
ENDMDL
MODEL      269
REMARK 921   NORMALIZED FREE ENERGY PREDICTED BY IDOCK:   -3.12 KCAL/MOL
REMARK 922        TOTAL FREE ENERGY PREDICTED BY IDOCK:   -4.84 KCAL/MOL
REMARK 923 INTER-LIGAND FREE ENERGY PREDICTED BY IDOCK:   -4.45 KCAL/MOL
REMARK 924 INTRA-LIGAND FREE ENERGY PREDICTED BY IDOCK:   -0.38 KCAL/MOL
REMARK 927      BINDING AFFINITY PREDICTED BY RF-SCORE:    0.00 PKD
ROOT
HETATM    1  C   UNL     1      -6.195   6.573  71.199  1.00  0.00    -0.040 C  
HETATM    2  O   UNL     1      -7.349   7.047  71.892  1.00  0.00    -0.083 OA 
ENDROOT
BRANCH   2   3
HETATM    3  C   UNL     1      -7.322   8.377  72.143  1.00  0.00    -0.098 C  
HETATM    4  O   UNL     1      -6.570   8.961  72.907  1.00  0.00    -0.296 OA 
BRANCH   3   5
HETATM    5  C   UNL     1      -8.380   9.020  71.347  1.00  0.00    -0.135 C  
HETATM    6  C   UNL     1      -9.607   8.490  71.382  1.00  0.00    -0.282 C  
BRANCH   6   7
HETATM    7  C   UNL     1     -10.659   9.003  70.490  1.00  0.00    -0.227 C  
HETATM    8  O   UNL     1     -11.857   8.885  70.673  1.00  0.00    -0.241 OA 
BRANCH   7   9
HETATM    9  O   UNL     1     -10.045   9.762  69.552  1.00  0.00    -0.190 OA 
BRANCH   9  10
HETATM   10  C   UNL     1     -10.835  10.030  68.383  1.00  0.00    -0.235 C  
BRANCH  10  11
HETATM   11  C   UNL     1     -10.015  11.002  67.541  1.00  0.00    -0.174 C  
BRANCH  11  12
HETATM   12  N   UNL     1     -10.707  11.534  66.393  1.00  0.00    -0.264 N  
HETATM   13  C   UNL     1     -10.598  11.019  65.135  1.00  0.00    -0.226 C  
HETATM   14  O   UNL     1     -10.040   9.983  64.815  1.00  0.00    -0.296 OA 
HETATM   15  C   UNL     1     -11.248  11.977  64.182  1.00  0.00    -0.441 C  
HETATM   16  C   UNL     1     -12.084  12.872  65.079  1.00  0.00    -0.480 C  
HETATM   17  C   UNL     1     -11.572  12.585  66.457  1.00  0.00    -0.388 C  
HETATM   18  O   UNL     1     -11.924  13.174  67.468  1.00  0.00    -0.358 OA 
ENDBRANCH  11  12
ENDBRANCH  10  11
ENDBRANCH   9  10
ENDBRANCH   7   9
ENDBRANCH   6   7
ENDBRANCH   3   5
ENDBRANCH   2   3
TORSDOF 7
ENDMDL
MODEL      270
REMARK 921   NORMALIZED FREE ENERGY PREDICTED BY IDOCK:   -3.11 KCAL/MOL
REMARK 922        TOTAL FREE ENERGY PREDICTED BY IDOCK:   -4.83 KCAL/MOL
REMARK 923 INTER-LIGAND FREE ENERGY PREDICTED BY IDOCK:   -4.21 KCAL/MOL
REMARK 924 INTRA-LIGAND FREE ENERGY PREDICTED BY IDOCK:   -0.61 KCAL/MOL
REMARK 927      BINDING AFFINITY PREDICTED BY RF-SCORE:    0.00 PKD
ROOT
HETATM    1  C   UNL     1      -6.148  11.635  67.157  1.00  0.00    -0.130 C  
HETATM    2  O   UNL     1      -6.816  10.761  68.066  1.00  0.00    -0.067 OA 
ENDROOT
BRANCH   2   3
HETATM    3  C   UNL     1      -7.715   9.944  67.469  1.00  0.00    -0.091 C  
HETATM    4  O   UNL     1      -7.547   9.291  66.452  1.00  0.00    -0.092 OA 
BRANCH   3   5
HETATM    5  C   UNL     1      -8.964   9.983  68.247  1.00  0.00    -0.119 C  
HETATM    6  C   UNL     1      -9.956  10.766  67.810  1.00  0.00    -0.195 C  
BRANCH   6   7
HETATM    7  C   UNL     1     -11.163  10.957  68.629  1.00  0.00    -0.267 C  
HETATM    8  O   UNL     1     -12.269  11.230  68.200  1.00  0.00    -0.622 OA 
BRANCH   7   9
HETATM    9  O   UNL     1     -10.840  10.602  69.895  1.00  0.00    -0.267 OA 
BRANCH   9  10
HETATM   10  C   UNL     1     -11.934  10.096  70.677  1.00  0.00    -0.332 C  
BRANCH  10  11
HETATM   11  C   UNL     1     -11.304   9.217  71.752  1.00  0.00    -0.381 C  
BRANCH  11  12
HETATM   12  N   UNL     1     -10.470   8.154  71.247  1.00  0.00    -0.206 N  
HETATM   13  C   UNL     1     -10.953   7.032  70.641  1.00  0.00    -0.260 C  
HETATM   14  O   UNL     1     -12.107   6.820  70.310  1.00  0.00    -0.328 OA 
HETATM   15  C   UNL     1      -9.820   6.062  70.487  1.00  0.00    -0.222 C  
HETATM   16  C   UNL     1      -8.581   6.913  70.696  1.00  0.00    -0.141 C  
HETATM   17  C   UNL     1      -9.108   8.184  71.289  1.00  0.00    -0.150 C  
HETATM   18  O   UNL     1      -8.414   9.105  71.692  1.00  0.00    -0.344 OA 
ENDBRANCH  11  12
ENDBRANCH  10  11
ENDBRANCH   9  10
ENDBRANCH   7   9
ENDBRANCH   6   7
ENDBRANCH   3   5
ENDBRANCH   2   3
TORSDOF 7
ENDMDL
MODEL      271
REMARK 921   NORMALIZED FREE ENERGY PREDICTED BY IDOCK:   -3.09 KCAL/MOL
REMARK 922        TOTAL FREE ENERGY PREDICTED BY IDOCK:   -4.79 KCAL/MOL
REMARK 923 INTER-LIGAND FREE ENERGY PREDICTED BY IDOCK:   -4.34 KCAL/MOL
REMARK 924 INTRA-LIGAND FREE ENERGY PREDICTED BY IDOCK:   -0.44 KCAL/MOL
REMARK 927      BINDING AFFINITY PREDICTED BY RF-SCORE:    0.00 PKD
ROOT
HETATM    1  C   UNL     1      -7.467   8.226  65.224  1.00  0.00    -0.083 C  
HETATM    2  O   UNL     1      -7.893   9.488  65.736  1.00  0.00    -0.101 OA 
ENDROOT
BRANCH   2   3
HETATM    3  C   UNL     1      -8.307   9.438  67.024  1.00  0.00    -0.127 C  
HETATM    4  O   UNL     1      -8.670   8.446  67.637  1.00  0.00    -0.135 OA 
BRANCH   3   5
HETATM    5  C   UNL     1      -8.270  10.801  67.576  1.00  0.00    -0.112 C  
HETATM    6  C   UNL     1      -8.194  11.827  66.721  1.00  0.00    -0.147 C  
BRANCH   6   7
HETATM    7  C   UNL     1      -8.002  13.196  67.225  1.00  0.00    -0.133 C  
HETATM    8  O   UNL     1      -6.947  13.803  67.230  1.00  0.00    -0.149 OA 
BRANCH   7   9
HETATM    9  O   UNL     1      -9.231  13.689  67.506  1.00  0.00    -0.200 OA 
BRANCH   9  10
HETATM   10  C   UNL     1     -10.041  13.981  66.357  1.00  0.00    -0.294 C  
BRANCH  10  11
HETATM   11  C   UNL     1     -11.182  14.856  66.864  1.00  0.00    -0.343 C  
BRANCH  11  12
HETATM   12  N   UNL     1     -10.778  16.155  67.342  1.00  0.00    -0.310 N  
HETATM   13  C   UNL     1     -10.375  17.172  66.528  1.00  0.00    -0.306 C  
HETATM   14  O   UNL     1     -10.427  17.198  65.310  1.00  0.00    -0.655 OA 
HETATM   15  C   UNL     1      -9.801  18.257  67.389  1.00  0.00    -0.323 C  
HETATM   16  C   UNL     1     -10.297  17.917  68.783  1.00  0.00    -0.311 C  
HETATM   17  C   UNL     1     -10.797  16.511  68.657  1.00  0.00    -0.345 C  
HETATM   18  O   UNL     1     -11.199  15.829  69.588  1.00  0.00    -0.269 OA 
ENDBRANCH  11  12
ENDBRANCH  10  11
ENDBRANCH   9  10
ENDBRANCH   7   9
ENDBRANCH   6   7
ENDBRANCH   3   5
ENDBRANCH   2   3
TORSDOF 7
ENDMDL
MODEL      272
REMARK 921   NORMALIZED FREE ENERGY PREDICTED BY IDOCK:   -3.08 KCAL/MOL
REMARK 922        TOTAL FREE ENERGY PREDICTED BY IDOCK:   -4.78 KCAL/MOL
REMARK 923 INTER-LIGAND FREE ENERGY PREDICTED BY IDOCK:   -4.11 KCAL/MOL
REMARK 924 INTRA-LIGAND FREE ENERGY PREDICTED BY IDOCK:   -0.66 KCAL/MOL
REMARK 927      BINDING AFFINITY PREDICTED BY RF-SCORE:    0.00 PKD
ROOT
HETATM    1  C   UNL     1     -11.398  15.542  66.333  1.00  0.00    -0.005 C  
HETATM    2  O   UNL     1     -10.882  14.279  65.912  1.00  0.00    -0.291 OA 
ENDROOT
BRANCH   2   3
HETATM    3  C   UNL     1     -11.632  13.679  64.959  1.00  0.00    -0.332 C  
HETATM    4  O   UNL     1     -12.555  14.177  64.333  1.00  0.00    -0.658 OA 
BRANCH   3   5
HETATM    5  C   UNL     1     -11.165  12.292  64.808  1.00  0.00    -0.364 C  
HETATM    6  C   UNL     1     -10.241  12.034  63.876  1.00  0.00    -0.424 C  
BRANCH   6   7
HETATM    7  C   UNL     1      -9.853  10.645  63.583  1.00  0.00    -0.333 C  
HETATM    8  O   UNL     1      -9.500  10.227  62.496  1.00  0.00    -0.296 OA 
BRANCH   7   9
HETATM    9  O   UNL     1      -9.800   9.993  64.768  1.00  0.00    -0.322 OA 
BRANCH   9  10
HETATM   10  C   UNL     1      -8.739   9.031  64.880  1.00  0.00    -0.166 C  
BRANCH  10  11
HETATM   11  C   UNL     1      -7.559   9.782  65.489  1.00  0.00    -0.118 C  
BRANCH  11  12
HETATM   12  N   UNL     1      -7.666  10.020  66.907  1.00  0.00    -0.095 N  
HETATM   13  C   UNL     1      -7.994  11.226  67.454  1.00  0.00    -0.132 C  
HETATM   14  O   UNL     1      -8.378  12.217  66.857  1.00  0.00    -0.181 OA 
HETATM   15  C   UNL     1      -7.757  11.148  68.932  1.00  0.00    -0.137 C  
HETATM   16  C   UNL     1      -7.654   9.658  69.206  1.00  0.00    -0.091 C  
HETATM   17  C   UNL     1      -7.487   9.049  67.847  1.00  0.00    -0.085 C  
HETATM   18  O   UNL     1      -7.275   7.865  67.636  1.00  0.00    -0.083 OA 
ENDBRANCH  11  12
ENDBRANCH  10  11
ENDBRANCH   9  10
ENDBRANCH   7   9
ENDBRANCH   6   7
ENDBRANCH   3   5
ENDBRANCH   2   3
TORSDOF 7
ENDMDL
MODEL      273
REMARK 921   NORMALIZED FREE ENERGY PREDICTED BY IDOCK:   -3.07 KCAL/MOL
REMARK 922        TOTAL FREE ENERGY PREDICTED BY IDOCK:   -4.77 KCAL/MOL
REMARK 923 INTER-LIGAND FREE ENERGY PREDICTED BY IDOCK:   -4.43 KCAL/MOL
REMARK 924 INTRA-LIGAND FREE ENERGY PREDICTED BY IDOCK:   -0.33 KCAL/MOL
REMARK 927      BINDING AFFINITY PREDICTED BY RF-SCORE:    0.00 PKD
ROOT
HETATM    1  C   UNL     1     -10.882   6.911  69.219  1.00  0.00    -0.237 C  
HETATM    2  O   UNL     1     -11.387   7.554  70.388  1.00  0.00    -0.275 OA 
ENDROOT
BRANCH   2   3
HETATM    3  C   UNL     1     -10.867   8.787  70.595  1.00  0.00    -0.232 C  
HETATM    4  O   UNL     1     -10.682   9.331  71.672  1.00  0.00    -0.354 OA 
BRANCH   3   5
HETATM    5  C   UNL     1     -10.574   9.391  69.286  1.00  0.00    -0.239 C  
HETATM    6  C   UNL     1      -9.519  10.209  69.189  1.00  0.00    -0.215 C  
BRANCH   6   7
HETATM    7  C   UNL     1      -9.274  10.954  67.944  1.00  0.00    -0.152 C  
HETATM    8  O   UNL     1      -9.432  10.516  66.820  1.00  0.00    -0.158 OA 
BRANCH   7   9
HETATM    9  O   UNL     1      -9.017  12.236  68.296  1.00  0.00    -0.190 OA 
BRANCH   9  10
HETATM   10  C   UNL     1      -8.357  13.017  67.287  1.00  0.00    -0.185 C  
BRANCH  10  11
HETATM   11  C   UNL     1      -9.445  13.869  66.643  1.00  0.00    -0.285 C  
BRANCH  11  12
HETATM   12  N   UNL     1     -10.085  14.803  67.536  1.00  0.00    -0.224 N  
HETATM   13  C   UNL     1     -11.362  14.664  67.994  1.00  0.00    -0.311 C  
HETATM   14  O   UNL     1     -12.088  13.696  67.847  1.00  0.00    -0.357 OA 
HETATM   15  C   UNL     1     -11.753  15.939  68.679  1.00  0.00    -0.328 C  
HETATM   16  C   UNL     1     -10.430  16.646  68.913  1.00  0.00    -0.322 C  
HETATM   17  C   UNL     1      -9.462  15.903  68.045  1.00  0.00    -0.206 C  
HETATM   18  O   UNL     1      -8.293  16.219  67.875  1.00  0.00    -0.163 OA 
ENDBRANCH  11  12
ENDBRANCH  10  11
ENDBRANCH   9  10
ENDBRANCH   7   9
ENDBRANCH   6   7
ENDBRANCH   3   5
ENDBRANCH   2   3
TORSDOF 7
ENDMDL
MODEL      274
REMARK 921   NORMALIZED FREE ENERGY PREDICTED BY IDOCK:   -3.07 KCAL/MOL
REMARK 922        TOTAL FREE ENERGY PREDICTED BY IDOCK:   -4.76 KCAL/MOL
REMARK 923 INTER-LIGAND FREE ENERGY PREDICTED BY IDOCK:   -3.97 KCAL/MOL
REMARK 924 INTRA-LIGAND FREE ENERGY PREDICTED BY IDOCK:   -0.79 KCAL/MOL
REMARK 927      BINDING AFFINITY PREDICTED BY RF-SCORE:    0.00 PKD
ROOT
HETATM    1  C   UNL     1      -6.909   4.482  70.139  1.00  0.00    -0.037 C  
HETATM    2  O   UNL     1      -7.705   5.284  69.267  1.00  0.00    -0.081 OA 
ENDROOT
BRANCH   2   3
HETATM    3  C   UNL     1      -9.034   5.056  69.384  1.00  0.00    -0.092 C  
HETATM    4  O   UNL     1      -9.793   4.687  68.502  1.00  0.00    -0.156 OA 
BRANCH   3   5
HETATM    5  C   UNL     1      -9.434   5.349  70.769  1.00  0.00    -0.215 C  
HETATM    6  C   UNL     1     -10.736   5.503  71.032  1.00  0.00    -0.275 C  
BRANCH   6   7
HETATM    7  C   UNL     1     -11.174   5.946  72.366  1.00  0.00    -0.291 C  
HETATM    8  O   UNL     1     -10.507   5.881  73.382  1.00  0.00    -0.215 OA 
BRANCH   7   9
HETATM    9  O   UNL     1     -12.358   6.581  72.202  1.00  0.00    -0.297 OA 
BRANCH   9  10
HETATM   10  C   UNL     1     -12.382   7.546  71.139  1.00  0.00    -0.291 C  
BRANCH  10  11
HETATM   11  C   UNL     1     -11.716   8.798  71.699  1.00  0.00    -0.332 C  
BRANCH  11  12
HETATM   12  N   UNL     1     -10.597   9.280  70.927  1.00  0.00    -0.270 N  
HETATM   13  C   UNL     1     -10.722  10.011  69.783  1.00  0.00    -0.271 C  
HETATM   14  O   UNL     1     -11.750  10.480  69.324  1.00  0.00    -0.260 OA 
HETATM   15  C   UNL     1      -9.370  10.105  69.140  1.00  0.00    -0.205 C  
HETATM   16  C   UNL     1      -8.413   9.703  70.247  1.00  0.00    -0.221 C  
HETATM   17  C   UNL     1      -9.297   9.086  71.287  1.00  0.00    -0.254 C  
HETATM   18  O   UNL     1      -8.900   8.547  72.309  1.00  0.00    -0.210 OA 
ENDBRANCH  11  12
ENDBRANCH  10  11
ENDBRANCH   9  10
ENDBRANCH   7   9
ENDBRANCH   6   7
ENDBRANCH   3   5
ENDBRANCH   2   3
TORSDOF 7
ENDMDL
MODEL      275
REMARK 921   NORMALIZED FREE ENERGY PREDICTED BY IDOCK:   -3.06 KCAL/MOL
REMARK 922        TOTAL FREE ENERGY PREDICTED BY IDOCK:   -4.75 KCAL/MOL
REMARK 923 INTER-LIGAND FREE ENERGY PREDICTED BY IDOCK:   -4.51 KCAL/MOL
REMARK 924 INTRA-LIGAND FREE ENERGY PREDICTED BY IDOCK:   -0.24 KCAL/MOL
REMARK 927      BINDING AFFINITY PREDICTED BY RF-SCORE:    0.00 PKD
ROOT
HETATM    1  C   UNL     1     -11.415  10.129  70.611  1.00  0.00    -0.349 C  
HETATM    2  O   UNL     1     -11.701  11.500  70.337  1.00  0.00    -0.320 OA 
ENDROOT
BRANCH   2   3
HETATM    3  C   UNL     1     -11.927  11.755  69.027  1.00  0.00    -0.280 C  
HETATM    4  O   UNL     1     -12.121  10.933  68.146  1.00  0.00    -0.563 OA 
BRANCH   3   5
HETATM    5  C   UNL     1     -11.880  13.211  68.824  1.00  0.00    -0.361 C  
HETATM    6  C   UNL     1     -11.161  13.946  69.680  1.00  0.00    -0.196 C  
BRANCH   6   7
HETATM    7  C   UNL     1     -11.205  15.415  69.610  1.00  0.00    -0.283 C  
HETATM    8  O   UNL     1     -11.924  16.130  70.284  1.00  0.00    -0.264 OA 
BRANCH   7   9
HETATM    9  O   UNL     1     -10.191  15.803  68.801  1.00  0.00    -0.205 OA 
BRANCH   9  10
HETATM   10  C   UNL     1      -8.885  15.392  69.233  1.00  0.00    -0.258 C  
BRANCH  10  11
HETATM   11  C   UNL     1      -7.974  15.561  68.022  1.00  0.00    -0.133 C  
BRANCH  11  12
HETATM   12  N   UNL     1      -7.024  16.641  68.131  1.00  0.00    -0.148 N  
HETATM   13  C   UNL     1      -6.136  16.771  69.157  1.00  0.00    -0.180 C  
HETATM   14  O   UNL     1      -5.911  15.956  70.036  1.00  0.00    -0.159 OA 
HETATM   15  C   UNL     1      -5.504  18.127  69.057  1.00  0.00    -0.194 C  
HETATM   16  C   UNL     1      -5.826  18.575  67.643  1.00  0.00    -0.165 C  
HETATM   17  C   UNL     1      -6.889  17.621  67.193  1.00  0.00    -0.165 C  
HETATM   18  O   UNL     1      -7.491  17.697  66.132  1.00  0.00    -0.285 OA 
ENDBRANCH  11  12
ENDBRANCH  10  11
ENDBRANCH   9  10
ENDBRANCH   7   9
ENDBRANCH   6   7
ENDBRANCH   3   5
ENDBRANCH   2   3
TORSDOF 7
ENDMDL
MODEL      276
REMARK 921   NORMALIZED FREE ENERGY PREDICTED BY IDOCK:   -3.02 KCAL/MOL
REMARK 922        TOTAL FREE ENERGY PREDICTED BY IDOCK:   -4.70 KCAL/MOL
REMARK 923 INTER-LIGAND FREE ENERGY PREDICTED BY IDOCK:   -4.15 KCAL/MOL
REMARK 924 INTRA-LIGAND FREE ENERGY PREDICTED BY IDOCK:   -0.55 KCAL/MOL
REMARK 927      BINDING AFFINITY PREDICTED BY RF-SCORE:    0.00 PKD
ROOT
HETATM    1  C   UNL     1     -11.982  12.575  69.862  1.00  0.00    -0.301 C  
HETATM    2  O   UNL     1     -11.050  12.757  68.796  1.00  0.00    -0.239 OA 
ENDROOT
BRANCH   2   3
HETATM    3  C   UNL     1     -11.491  12.287  67.606  1.00  0.00    -0.336 C  
HETATM    4  O   UNL     1     -12.055  12.927  66.732  1.00  0.00    -0.399 OA 
BRANCH   3   5
HETATM    5  C   UNL     1     -11.197  10.847  67.538  1.00  0.00    -0.364 C  
HETATM    6  C   UNL     1      -9.927  10.470  67.353  1.00  0.00    -0.214 C  
BRANCH   6   7
HETATM    7  C   UNL     1      -9.603   9.052  67.127  1.00  0.00    -0.167 C  
HETATM    8  O   UNL     1     -10.336   8.239  66.596  1.00  0.00    -0.308 OA 
BRANCH   7   9
HETATM    9  O   UNL     1      -8.301   8.888  67.459  1.00  0.00    -0.109 OA 
BRANCH   9  10
HETATM   10  C   UNL     1      -7.916   9.487  68.706  1.00  0.00    -0.088 C  
BRANCH  10  11
HETATM   11  C   UNL     1      -7.818   8.340  69.706  1.00  0.00    -0.100 C  
BRANCH  11  12
HETATM   12  N   UNL     1      -9.032   7.578  69.866  1.00  0.00    -0.141 N  
HETATM   13  C   UNL     1      -9.150   6.260  69.536  1.00  0.00    -0.137 C  
HETATM   14  O   UNL     1      -8.251   5.506  69.205  1.00  0.00    -0.094 OA 
HETATM   15  C   UNL     1     -10.602   5.892  69.602  1.00  0.00    -0.383 C  
HETATM   16  C   UNL     1     -11.229   7.025  70.394  1.00  0.00    -0.339 C  
HETATM   17  C   UNL     1     -10.176   8.090  70.402  1.00  0.00    -0.201 C  
HETATM   18  O   UNL     1     -10.322   9.211  70.864  1.00  0.00    -0.233 OA 
ENDBRANCH  11  12
ENDBRANCH  10  11
ENDBRANCH   9  10
ENDBRANCH   7   9
ENDBRANCH   6   7
ENDBRANCH   3   5
ENDBRANCH   2   3
TORSDOF 7
ENDMDL
MODEL      277
REMARK 921   NORMALIZED FREE ENERGY PREDICTED BY IDOCK:   -3.00 KCAL/MOL
REMARK 922        TOTAL FREE ENERGY PREDICTED BY IDOCK:   -4.66 KCAL/MOL
REMARK 923 INTER-LIGAND FREE ENERGY PREDICTED BY IDOCK:   -4.49 KCAL/MOL
REMARK 924 INTRA-LIGAND FREE ENERGY PREDICTED BY IDOCK:   -0.17 KCAL/MOL
REMARK 927      BINDING AFFINITY PREDICTED BY RF-SCORE:    0.00 PKD
ROOT
HETATM    1  C   UNL     1      -6.965   4.993  66.759  1.00  0.00    -0.064 C  
HETATM    2  O   UNL     1      -8.274   4.758  66.240  1.00  0.00    -0.107 OA 
ENDROOT
BRANCH   2   3
HETATM    3  C   UNL     1      -9.214   4.588  67.200  1.00  0.00    -0.135 C  
HETATM    4  O   UNL     1      -9.700   3.530  67.567  1.00  0.00    -0.178 OA 
BRANCH   3   5
HETATM    5  C   UNL     1      -9.581   5.911  67.728  1.00  0.00    -0.118 C  
HETATM    6  C   UNL     1     -10.094   6.810  66.881  1.00  0.00    -0.268 C  
BRANCH   6   7
HETATM    7  C   UNL     1     -10.335   8.192  67.325  1.00  0.00    -0.303 C  
HETATM    8  O   UNL     1     -10.637   9.122  66.601  1.00  0.00    -0.202 OA 
BRANCH   7   9
HETATM    9  O   UNL     1     -10.327   8.178  68.679  1.00  0.00    -0.205 OA 
BRANCH   9  10
HETATM   10  C   UNL     1      -9.158   8.756  69.281  1.00  0.00    -0.145 C  
BRANCH  10  11
HETATM   11  C   UNL     1      -9.653   9.957  70.079  1.00  0.00    -0.214 C  
BRANCH  11  12
HETATM   12  N   UNL     1     -10.923   9.763  70.733  1.00  0.00    -0.315 N  
HETATM   13  C   UNL     1     -12.104  10.253  70.260  1.00  0.00    -0.249 C  
HETATM   14  O   UNL     1     -12.293  10.787  69.181  1.00  0.00    -0.400 OA 
HETATM   15  C   UNL     1     -13.144  10.069  71.324  1.00  0.00    -0.493 C  
HETATM   16  C   UNL     1     -12.520   9.062  72.273  1.00  0.00    -0.427 C  
HETATM   17  C   UNL     1     -11.077   9.032  71.873  1.00  0.00    -0.363 C  
HETATM   18  O   UNL     1     -10.205   8.407  72.458  1.00  0.00    -0.306 OA 
ENDBRANCH  11  12
ENDBRANCH  10  11
ENDBRANCH   9  10
ENDBRANCH   7   9
ENDBRANCH   6   7
ENDBRANCH   3   5
ENDBRANCH   2   3
TORSDOF 7
ENDMDL
MODEL      278
REMARK 921   NORMALIZED FREE ENERGY PREDICTED BY IDOCK:   -2.99 KCAL/MOL
REMARK 922        TOTAL FREE ENERGY PREDICTED BY IDOCK:   -4.65 KCAL/MOL
REMARK 923 INTER-LIGAND FREE ENERGY PREDICTED BY IDOCK:   -4.07 KCAL/MOL
REMARK 924 INTRA-LIGAND FREE ENERGY PREDICTED BY IDOCK:   -0.58 KCAL/MOL
REMARK 927      BINDING AFFINITY PREDICTED BY RF-SCORE:    0.00 PKD
ROOT
HETATM    1  C   UNL     1     -12.018  13.630  69.700  1.00  0.00    -0.343 C  
HETATM    2  O   UNL     1     -11.252  13.182  68.583  1.00  0.00    -0.245 OA 
ENDROOT
BRANCH   2   3
HETATM    3  C   UNL     1     -11.223  11.835  68.451  1.00  0.00    -0.251 C  
HETATM    4  O   UNL     1     -12.075  11.133  67.929  1.00  0.00    -0.627 OA 
BRANCH   3   5
HETATM    5  C   UNL     1      -9.986  11.335  69.071  1.00  0.00    -0.124 C  
HETATM    6  C   UNL     1      -9.844  10.014  69.224  1.00  0.00    -0.227 C  
BRANCH   6   7
HETATM    7  C   UNL     1      -8.697   9.476  69.972  1.00  0.00    -0.221 C  
HETATM    8  O   UNL     1      -8.578   9.490  71.183  1.00  0.00    -0.269 OA 
BRANCH   7   9
HETATM    9  O   UNL     1      -7.914   8.825  69.079  1.00  0.00    -0.106 OA 
BRANCH   9  10
HETATM   10  C   UNL     1      -7.030   7.848  69.652  1.00  0.00    -0.053 C  
BRANCH  10  11
HETATM   11  C   UNL     1      -7.574   6.492  69.218  1.00  0.00    -0.100 C  
BRANCH  11  12
HETATM   12  N   UNL     1      -8.983   6.303  69.459  1.00  0.00    -0.134 N  
HETATM   13  C   UNL     1      -9.928   6.297  68.477  1.00  0.00    -0.144 C  
HETATM   14  O   UNL     1      -9.731   6.304  67.274  1.00  0.00    -0.121 OA 
HETATM   15  C   UNL     1     -11.278   6.330  69.129  1.00  0.00    -0.439 C  
HETATM   16  C   UNL     1     -10.996   5.943  70.570  1.00  0.00    -0.362 C  
HETATM   17  C   UNL     1      -9.508   6.070  70.695  1.00  0.00    -0.168 C  
HETATM   18  O   UNL     1      -8.883   5.933  71.736  1.00  0.00    -0.138 OA 
ENDBRANCH  11  12
ENDBRANCH  10  11
ENDBRANCH   9  10
ENDBRANCH   7   9
ENDBRANCH   6   7
ENDBRANCH   3   5
ENDBRANCH   2   3
TORSDOF 7
ENDMDL
MODEL      279
REMARK 921   NORMALIZED FREE ENERGY PREDICTED BY IDOCK:   -2.97 KCAL/MOL
REMARK 922        TOTAL FREE ENERGY PREDICTED BY IDOCK:   -4.62 KCAL/MOL
REMARK 923 INTER-LIGAND FREE ENERGY PREDICTED BY IDOCK:   -4.39 KCAL/MOL
REMARK 924 INTRA-LIGAND FREE ENERGY PREDICTED BY IDOCK:   -0.23 KCAL/MOL
REMARK 927      BINDING AFFINITY PREDICTED BY RF-SCORE:    0.00 PKD
ROOT
HETATM    1  C   UNL     1     -10.813  15.752  70.146  1.00  0.00    -0.351 C  
HETATM    2  O   UNL     1     -10.836  16.454  68.903  1.00  0.00    -0.293 OA 
ENDROOT
BRANCH   2   3
HETATM    3  C   UNL     1     -10.479  15.690  67.844  1.00  0.00    -0.267 C  
HETATM    4  O   UNL     1     -10.742  15.899  66.670  1.00  0.00    -0.316 OA 
BRANCH   3   5
HETATM    5  C   UNL     1      -9.726  14.529  68.343  1.00  0.00    -0.224 C  
HETATM    6  C   UNL     1      -9.929  13.344  67.757  1.00  0.00    -0.233 C  
BRANCH   6   7
HETATM    7  C   UNL     1      -9.316  12.128  68.315  1.00  0.00    -0.198 C  
HETATM    8  O   UNL     1      -8.139  11.999  68.595  1.00  0.00    -0.137 OA 
BRANCH   7   9
HETATM    9  O   UNL     1     -10.327  11.277  68.610  1.00  0.00    -0.188 OA 
BRANCH   9  10
HETATM   10  C   UNL     1      -9.948  10.146  69.411  1.00  0.00    -0.228 C  
BRANCH  10  11
HETATM   11  C   UNL     1     -10.761   8.970  68.881  1.00  0.00    -0.123 C  
BRANCH  11  12
HETATM   12  N   UNL     1     -10.824   7.835  69.767  1.00  0.00    -0.239 N  
HETATM   13  C   UNL     1     -10.061   6.714  69.622  1.00  0.00    -0.181 C  
HETATM   14  O   UNL     1      -9.139   6.555  68.841  1.00  0.00    -0.131 OA 
HETATM   15  C   UNL     1     -10.582   5.670  70.564  1.00  0.00    -0.354 C  
HETATM   16  C   UNL     1     -11.447   6.455  71.534  1.00  0.00    -0.360 C  
HETATM   17  C   UNL     1     -11.628   7.784  70.867  1.00  0.00    -0.274 C  
HETATM   18  O   UNL     1     -12.344   8.681  71.284  1.00  0.00    -0.295 OA 
ENDBRANCH  11  12
ENDBRANCH  10  11
ENDBRANCH   9  10
ENDBRANCH   7   9
ENDBRANCH   6   7
ENDBRANCH   3   5
ENDBRANCH   2   3
TORSDOF 7
ENDMDL
MODEL      280
REMARK 921   NORMALIZED FREE ENERGY PREDICTED BY IDOCK:   -2.96 KCAL/MOL
REMARK 922        TOTAL FREE ENERGY PREDICTED BY IDOCK:   -4.61 KCAL/MOL
REMARK 923 INTER-LIGAND FREE ENERGY PREDICTED BY IDOCK:   -4.37 KCAL/MOL
REMARK 924 INTRA-LIGAND FREE ENERGY PREDICTED BY IDOCK:   -0.25 KCAL/MOL
REMARK 927      BINDING AFFINITY PREDICTED BY RF-SCORE:    0.00 PKD
ROOT
HETATM    1  C   UNL     1      -6.045  11.777  67.200  1.00  0.00    -0.144 C  
HETATM    2  O   UNL     1      -6.533  10.670  67.959  1.00  0.00    -0.061 OA 
ENDROOT
BRANCH   2   3
HETATM    3  C   UNL     1      -7.159   9.733  67.209  1.00  0.00    -0.085 C  
HETATM    4  O   UNL     1      -6.756   9.244  66.165  1.00  0.00    -0.072 OA 
BRANCH   3   5
HETATM    5  C   UNL     1      -8.441   9.405  67.852  1.00  0.00    -0.116 C  
HETATM    6  C   UNL     1      -9.502  10.170  67.573  1.00  0.00    -0.172 C  
BRANCH   6   7
HETATM    7  C   UNL     1     -10.764   9.977  68.304  1.00  0.00    -0.240 C  
HETATM    8  O   UNL     1     -11.866  10.304  67.904  1.00  0.00    -0.162 OA 
BRANCH   7   9
HETATM    9  O   UNL     1     -10.479   9.226  69.394  1.00  0.00    -0.208 OA 
BRANCH   9  10
HETATM   10  C   UNL     1     -10.360   9.964  70.620  1.00  0.00    -0.187 C  
BRANCH  10  11
HETATM   11  C   UNL     1     -10.741   8.991  71.730  1.00  0.00    -0.367 C  
BRANCH  11  12
HETATM   12  N   UNL     1     -12.067   8.434  71.613  1.00  0.00    -0.297 N  
HETATM   13  C   UNL     1     -13.210   9.173  71.687  1.00  0.00    -0.377 C  
HETATM   14  O   UNL     1     -13.294  10.389  71.717  1.00  0.00    -0.393 OA 
HETATM   15  C   UNL     1     -14.371   8.228  71.776  1.00  0.00    -0.574 C  
HETATM   16  C   UNL     1     -13.790   6.896  71.334  1.00  0.00    -0.224 C  
HETATM   17  C   UNL     1     -12.309   7.114  71.375  1.00  0.00    -0.377 C  
HETATM   18  O   UNL     1     -11.471   6.248  71.174  1.00  0.00    -0.310 OA 
ENDBRANCH  11  12
ENDBRANCH  10  11
ENDBRANCH   9  10
ENDBRANCH   7   9
ENDBRANCH   6   7
ENDBRANCH   3   5
ENDBRANCH   2   3
TORSDOF 7
ENDMDL
MODEL      281
REMARK 921   NORMALIZED FREE ENERGY PREDICTED BY IDOCK:   -2.95 KCAL/MOL
REMARK 922        TOTAL FREE ENERGY PREDICTED BY IDOCK:   -4.60 KCAL/MOL
REMARK 923 INTER-LIGAND FREE ENERGY PREDICTED BY IDOCK:   -5.09 KCAL/MOL
REMARK 924 INTRA-LIGAND FREE ENERGY PREDICTED BY IDOCK:    0.49 KCAL/MOL
REMARK 927      BINDING AFFINITY PREDICTED BY RF-SCORE:    0.00 PKD
ROOT
HETATM    1  C   UNL     1      -9.683   6.708  70.098  1.00  0.00    -0.164 C  
HETATM    2  O   UNL     1      -9.265   6.916  71.446  1.00  0.00    -0.155 OA 
ENDROOT
BRANCH   2   3
HETATM    3  C   UNL     1      -9.476   8.178  71.890  1.00  0.00    -0.197 C  
HETATM    4  O   UNL     1      -8.867   8.751  72.780  1.00  0.00    -0.382 OA 
BRANCH   3   5
HETATM    5  C   UNL     1     -10.593   8.756  71.127  1.00  0.00    -0.310 C  
HETATM    6  C   UNL     1     -11.413   9.607  71.754  1.00  0.00    -0.258 C  
BRANCH   6   7
HETATM    7  C   UNL     1     -12.628  10.093  71.082  1.00  0.00    -0.386 C  
HETATM    8  O   UNL     1     -13.760   9.999  71.520  1.00  0.00    -0.239 OA 
BRANCH   7   9
HETATM    9  O   UNL     1     -12.225  10.799  70.000  1.00  0.00    -0.312 OA 
BRANCH   9  10
HETATM   10  C   UNL     1     -12.217  12.224  70.179  1.00  0.00    -0.226 C  
BRANCH  10  11
HETATM   11  C   UNL     1     -11.884  12.813  68.812  1.00  0.00    -0.307 C  
BRANCH  11  12
HETATM   12  N   UNL     1     -11.583  14.223  68.822  1.00  0.00    -0.302 N  
HETATM   13  C   UNL     1     -11.517  14.994  67.699  1.00  0.00    -0.333 C  
HETATM   14  O   UNL     1     -11.830  14.665  66.568  1.00  0.00    -0.373 OA 
HETATM   15  C   UNL     1     -10.939  16.324  68.081  1.00  0.00    -0.343 C  
HETATM   16  C   UNL     1     -11.071  16.358  69.593  1.00  0.00    -0.306 C  
HETATM   17  C   UNL     1     -11.374  14.939  69.963  1.00  0.00    -0.274 C  
HETATM   18  O   UNL     1     -11.464  14.522  71.108  1.00  0.00    -0.223 OA 
ENDBRANCH  11  12
ENDBRANCH  10  11
ENDBRANCH   9  10
ENDBRANCH   7   9
ENDBRANCH   6   7
ENDBRANCH   3   5
ENDBRANCH   2   3
TORSDOF 7
ENDMDL
MODEL      282
REMARK 921   NORMALIZED FREE ENERGY PREDICTED BY IDOCK:   -2.94 KCAL/MOL
REMARK 922        TOTAL FREE ENERGY PREDICTED BY IDOCK:   -4.59 KCAL/MOL
REMARK 923 INTER-LIGAND FREE ENERGY PREDICTED BY IDOCK:   -4.15 KCAL/MOL
REMARK 924 INTRA-LIGAND FREE ENERGY PREDICTED BY IDOCK:   -0.43 KCAL/MOL
REMARK 927      BINDING AFFINITY PREDICTED BY RF-SCORE:    0.00 PKD
ROOT
HETATM    1  C   UNL     1     -10.255   4.699  65.924  1.00  0.00    -0.276 C  
HETATM    2  O   UNL     1      -8.953   5.242  66.141  1.00  0.00    -0.130 OA 
ENDROOT
BRANCH   2   3
HETATM    3  C   UNL     1      -8.720   5.593  67.428  1.00  0.00    -0.107 C  
HETATM    4  O   UNL     1      -8.796   4.870  68.408  1.00  0.00    -0.100 OA 
BRANCH   3   5
HETATM    5  C   UNL     1      -8.375   7.023  67.462  1.00  0.00    -0.119 C  
HETATM    6  C   UNL     1      -9.342   7.900  67.752  1.00  0.00    -0.153 C  
BRANCH   6   7
HETATM    7  C   UNL     1      -9.084   9.345  67.651  1.00  0.00    -0.121 C  
HETATM    8  O   UNL     1      -8.723   9.926  66.644  1.00  0.00    -0.127 OA 
BRANCH   7   9
HETATM    9  O   UNL     1      -9.489   9.901  68.817  1.00  0.00    -0.148 OA 
BRANCH   9  10
HETATM   10  C   UNL     1     -10.824   9.556  69.218  1.00  0.00    -0.191 C  
BRANCH  10  11
HETATM   11  C   UNL     1     -10.883   9.799  70.722  1.00  0.00    -0.333 C  
BRANCH  11  12
HETATM   12  N   UNL     1     -12.104   9.364  71.354  1.00  0.00    -0.339 N  
HETATM   13  C   UNL     1     -12.426   8.056  71.565  1.00  0.00    -0.310 C  
HETATM   14  O   UNL     1     -11.703   7.089  71.395  1.00  0.00    -0.272 OA 
HETATM   15  C   UNL     1     -13.858   7.994  72.004  1.00  0.00    -0.350 C  
HETATM   16  C   UNL     1     -14.177   9.422  72.408  1.00  0.00    -0.161 C  
HETATM   17  C   UNL     1     -13.044  10.222  71.842  1.00  0.00    -0.463 C  
HETATM   18  O   UNL     1     -12.969  11.441  71.869  1.00  0.00    -0.453 OA 
ENDBRANCH  11  12
ENDBRANCH  10  11
ENDBRANCH   9  10
ENDBRANCH   7   9
ENDBRANCH   6   7
ENDBRANCH   3   5
ENDBRANCH   2   3
TORSDOF 7
ENDMDL
MODEL      283
REMARK 921   NORMALIZED FREE ENERGY PREDICTED BY IDOCK:   -2.94 KCAL/MOL
REMARK 922        TOTAL FREE ENERGY PREDICTED BY IDOCK:   -4.59 KCAL/MOL
REMARK 923 INTER-LIGAND FREE ENERGY PREDICTED BY IDOCK:   -4.07 KCAL/MOL
REMARK 924 INTRA-LIGAND FREE ENERGY PREDICTED BY IDOCK:   -0.51 KCAL/MOL
REMARK 927      BINDING AFFINITY PREDICTED BY RF-SCORE:    0.00 PKD
ROOT
HETATM    1  C   UNL     1     -10.833   2.261  63.074  1.00  0.00    -0.224 C  
HETATM    2  O   UNL     1     -10.578   3.279  64.042  1.00  0.00    -0.214 OA 
ENDROOT
BRANCH   2   3
HETATM    3  C   UNL     1      -9.348   3.833  63.934  1.00  0.00    -0.143 C  
HETATM    4  O   UNL     1      -8.443   3.466  63.202  1.00  0.00    -0.088 OA 
BRANCH   3   5
HETATM    5  C   UNL     1      -9.263   4.961  64.875  1.00  0.00    -0.084 C  
HETATM    6  C   UNL     1      -9.440   4.712  66.177  1.00  0.00    -0.169 C  
BRANCH   6   7
HETATM    7  C   UNL     1      -9.515   5.824  67.138  1.00  0.00    -0.117 C  
HETATM    8  O   UNL     1      -9.347   5.727  68.340  1.00  0.00    -0.119 OA 
BRANCH   7   9
HETATM    9  O   UNL     1      -9.629   6.963  66.416  1.00  0.00    -0.166 OA 
BRANCH   9  10
HETATM   10  C   UNL     1     -10.511   7.948  66.978  1.00  0.00    -0.349 C  
BRANCH  10  11
HETATM   11  C   UNL     1      -9.729   9.257  66.973  1.00  0.00    -0.185 C  
BRANCH  11  12
HETATM   12  N   UNL     1     -10.181  10.223  66.002  1.00  0.00    -0.248 N  
HETATM   13  C   UNL     1      -9.767  10.245  64.703  1.00  0.00    -0.333 C  
HETATM   14  O   UNL     1      -9.092   9.403  64.137  1.00  0.00    -0.206 OA 
HETATM   15  C   UNL     1     -10.248  11.524  64.083  1.00  0.00    -0.374 C  
HETATM   16  C   UNL     1     -11.312  12.017  65.046  1.00  0.00    -0.365 C  
HETATM   17  C   UNL     1     -11.101  11.190  66.277  1.00  0.00    -0.111 C  
HETATM   18  O   UNL     1     -11.702  11.342  67.330  1.00  0.00    -0.580 OA 
ENDBRANCH  11  12
ENDBRANCH  10  11
ENDBRANCH   9  10
ENDBRANCH   7   9
ENDBRANCH   6   7
ENDBRANCH   3   5
ENDBRANCH   2   3
TORSDOF 7
ENDMDL
MODEL      284
REMARK 921   NORMALIZED FREE ENERGY PREDICTED BY IDOCK:   -2.93 KCAL/MOL
REMARK 922        TOTAL FREE ENERGY PREDICTED BY IDOCK:   -4.57 KCAL/MOL
REMARK 923 INTER-LIGAND FREE ENERGY PREDICTED BY IDOCK:   -4.00 KCAL/MOL
REMARK 924 INTRA-LIGAND FREE ENERGY PREDICTED BY IDOCK:   -0.57 KCAL/MOL
REMARK 927      BINDING AFFINITY PREDICTED BY RF-SCORE:    0.00 PKD
ROOT
HETATM    1  C   UNL     1     -12.207  14.151  69.634  1.00  0.00    -0.326 C  
HETATM    2  O   UNL     1     -11.460  13.603  68.548  1.00  0.00    -0.269 OA 
ENDROOT
BRANCH   2   3
HETATM    3  C   UNL     1     -11.666  12.278  68.364  1.00  0.00    -0.337 C  
HETATM    4  O   UNL     1     -12.253  11.753  67.431  1.00  0.00    -0.501 OA 
BRANCH   3   5
HETATM    5  C   UNL     1     -11.077  11.555  69.502  1.00  0.00    -0.256 C  
HETATM    6  C   UNL     1     -10.779  10.261  69.342  1.00  0.00    -0.272 C  
BRANCH   6   7
HETATM    7  C   UNL     1     -10.331   9.458  70.492  1.00  0.00    -0.281 C  
HETATM    8  O   UNL     1     -11.054   9.016  71.365  1.00  0.00    -0.274 OA 
BRANCH   7   9
HETATM    9  O   UNL     1      -9.023   9.173  70.288  1.00  0.00    -0.178 OA 
BRANCH   9  10
HETATM   10  C   UNL     1      -8.547   8.005  70.974  1.00  0.00    -0.133 C  
BRANCH  10  11
HETATM   11  C   UNL     1      -7.803   7.183  69.928  1.00  0.00    -0.113 C  
BRANCH  11  12
HETATM   12  N   UNL     1      -8.525   6.981  68.696  1.00  0.00    -0.121 N  
HETATM   13  C   UNL     1      -8.177   7.553  67.508  1.00  0.00    -0.113 C  
HETATM   14  O   UNL     1      -7.160   8.182  67.272  1.00  0.00    -0.076 OA 
HETATM   15  C   UNL     1      -9.292   7.319  66.534  1.00  0.00    -0.216 C  
HETATM   16  C   UNL     1     -10.110   6.213  67.176  1.00  0.00    -0.210 C  
HETATM   17  C   UNL     1      -9.610   6.163  68.587  1.00  0.00    -0.127 C  
HETATM   18  O   UNL     1     -10.080   5.460  69.468  1.00  0.00    -0.196 OA 
ENDBRANCH  11  12
ENDBRANCH  10  11
ENDBRANCH   9  10
ENDBRANCH   7   9
ENDBRANCH   6   7
ENDBRANCH   3   5
ENDBRANCH   2   3
TORSDOF 7
ENDMDL
MODEL      285
REMARK 921   NORMALIZED FREE ENERGY PREDICTED BY IDOCK:   -2.93 KCAL/MOL
REMARK 922        TOTAL FREE ENERGY PREDICTED BY IDOCK:   -4.57 KCAL/MOL
REMARK 923 INTER-LIGAND FREE ENERGY PREDICTED BY IDOCK:   -3.91 KCAL/MOL
REMARK 924 INTRA-LIGAND FREE ENERGY PREDICTED BY IDOCK:   -0.66 KCAL/MOL
REMARK 927      BINDING AFFINITY PREDICTED BY RF-SCORE:    0.00 PKD
ROOT
HETATM    1  C   UNL     1      -8.058   5.744  66.170  1.00  0.00    -0.108 C  
HETATM    2  O   UNL     1      -8.814   4.763  66.879  1.00  0.00    -0.111 OA 
ENDROOT
BRANCH   2   3
HETATM    3  C   UNL     1      -9.884   5.274  67.533  1.00  0.00    -0.156 C  
HETATM    4  O   UNL     1     -10.914   5.697  67.031  1.00  0.00    -0.237 OA 
BRANCH   3   5
HETATM    5  C   UNL     1      -9.596   5.258  68.976  1.00  0.00    -0.199 C  
HETATM    6  C   UNL     1      -9.815   4.126  69.653  1.00  0.00    -0.208 C  
BRANCH   6   7
HETATM    7  C   UNL     1      -9.687   4.104  71.118  1.00  0.00    -0.188 C  
HETATM    8  O   UNL     1      -9.842   3.124  71.823  1.00  0.00    -0.163 OA 
BRANCH   7   9
HETATM    9  O   UNL     1      -9.204   5.312  71.490  1.00  0.00    -0.143 OA 
BRANCH   9  10
HETATM   10  C   UNL     1      -9.298   5.593  72.895  1.00  0.00    -0.141 C  
BRANCH  10  11
HETATM   11  C   UNL     1     -10.427   6.608  73.042  1.00  0.00    -0.243 C  
BRANCH  11  12
HETATM   12  N   UNL     1     -10.504   7.579  71.979  1.00  0.00    -0.204 N  
HETATM   13  C   UNL     1      -9.605   8.589  71.806  1.00  0.00    -0.267 C  
HETATM   14  O   UNL     1      -8.555   8.744  72.406  1.00  0.00    -0.395 OA 
HETATM   15  C   UNL     1     -10.151   9.526  70.769  1.00  0.00    -0.352 C  
HETATM   16  C   UNL     1     -11.245   8.721  70.092  1.00  0.00    -0.162 C  
HETATM   17  C   UNL     1     -11.465   7.559  71.012  1.00  0.00    -0.278 C  
HETATM   18  O   UNL     1     -12.337   6.715  70.873  1.00  0.00    -0.353 OA 
ENDBRANCH  11  12
ENDBRANCH  10  11
ENDBRANCH   9  10
ENDBRANCH   7   9
ENDBRANCH   6   7
ENDBRANCH   3   5
ENDBRANCH   2   3
TORSDOF 7
ENDMDL
MODEL      286
REMARK 921   NORMALIZED FREE ENERGY PREDICTED BY IDOCK:   -2.91 KCAL/MOL
REMARK 922        TOTAL FREE ENERGY PREDICTED BY IDOCK:   -4.54 KCAL/MOL
REMARK 923 INTER-LIGAND FREE ENERGY PREDICTED BY IDOCK:   -4.38 KCAL/MOL
REMARK 924 INTRA-LIGAND FREE ENERGY PREDICTED BY IDOCK:   -0.16 KCAL/MOL
REMARK 927      BINDING AFFINITY PREDICTED BY RF-SCORE:    0.00 PKD
ROOT
HETATM    1  C   UNL     1     -10.782  11.090  64.087  1.00  0.00    -0.274 C  
HETATM    2  O   UNL     1      -9.614  10.434  64.581  1.00  0.00    -0.248 OA 
ENDROOT
BRANCH   2   3
HETATM    3  C   UNL     1      -9.801   9.821  65.773  1.00  0.00    -0.290 C  
HETATM    4  O   UNL     1     -10.646   8.980  66.038  1.00  0.00     0.154 OA 
BRANCH   3   5
HETATM    5  C   UNL     1      -8.818  10.355  66.728  1.00  0.00    -0.139 C  
HETATM    6  C   UNL     1      -8.401   9.559  67.719  1.00  0.00    -0.118 C  
BRANCH   6   7
HETATM    7  C   UNL     1      -7.537  10.093  68.783  1.00  0.00    -0.089 C  
HETATM    8  O   UNL     1      -6.400  10.499  68.629  1.00  0.00    -0.047 OA 
BRANCH   7   9
HETATM    9  O   UNL     1      -8.302  10.203  69.894  1.00  0.00    -0.172 OA 
BRANCH   9  10
HETATM   10  C   UNL     1      -9.380   9.258  69.980  1.00  0.00    -0.209 C  
BRANCH  10  11
HETATM   11  C   UNL     1      -9.844   9.286  71.432  1.00  0.00    -0.226 C  
BRANCH  11  12
HETATM   12  N   UNL     1     -11.273   9.374  71.606  1.00  0.00    -0.382 N  
HETATM   13  C   UNL     1     -12.038  10.388  71.109  1.00  0.00    -0.386 C  
HETATM   14  O   UNL     1     -11.677  11.269  70.348  1.00  0.00    -0.328 OA 
HETATM   15  C   UNL     1     -13.410  10.269  71.702  1.00  0.00    -0.451 C  
HETATM   16  C   UNL     1     -13.446   8.856  72.256  1.00  0.00    -0.503 C  
HETATM   17  C   UNL     1     -12.011   8.427  72.252  1.00  0.00    -0.389 C  
HETATM   18  O   UNL     1     -11.596   7.374  72.712  1.00  0.00    -0.286 OA 
ENDBRANCH  11  12
ENDBRANCH  10  11
ENDBRANCH   9  10
ENDBRANCH   7   9
ENDBRANCH   6   7
ENDBRANCH   3   5
ENDBRANCH   2   3
TORSDOF 7
ENDMDL
MODEL      287
REMARK 921   NORMALIZED FREE ENERGY PREDICTED BY IDOCK:   -2.90 KCAL/MOL
REMARK 922        TOTAL FREE ENERGY PREDICTED BY IDOCK:   -4.53 KCAL/MOL
REMARK 923 INTER-LIGAND FREE ENERGY PREDICTED BY IDOCK:   -4.18 KCAL/MOL
REMARK 924 INTRA-LIGAND FREE ENERGY PREDICTED BY IDOCK:   -0.35 KCAL/MOL
REMARK 927      BINDING AFFINITY PREDICTED BY RF-SCORE:    0.00 PKD
ROOT
HETATM    1  C   UNL     1      -7.513   7.430  69.793  1.00  0.00    -0.092 C  
HETATM    2  O   UNL     1      -8.401   8.518  69.534  1.00  0.00    -0.114 OA 
ENDROOT
BRANCH   2   3
HETATM    3  C   UNL     1      -9.695   8.142  69.407  1.00  0.00    -0.170 C  
HETATM    4  O   UNL     1     -10.159   7.035  69.627  1.00  0.00    -0.180 OA 
BRANCH   3   5
HETATM    5  C   UNL     1     -10.469   9.299  68.931  1.00  0.00    -0.235 C  
HETATM    6  C   UNL     1     -10.059   9.920  67.819  1.00  0.00    -0.221 C  
BRANCH   6   7
HETATM    7  C   UNL     1     -10.706  11.169  67.388  1.00  0.00    -0.250 C  
HETATM    8  O   UNL     1     -11.897  11.307  67.175  1.00  0.00    -0.524 OA 
BRANCH   7   9
HETATM    9  O   UNL     1      -9.767  12.141  67.448  1.00  0.00    -0.178 OA 
BRANCH   9  10
HETATM   10  C   UNL     1     -10.281  13.481  67.388  1.00  0.00    -0.237 C  
BRANCH  10  11
HETATM   11  C   UNL     1      -9.465  14.193  66.315  1.00  0.00    -0.241 C  
BRANCH  11  12
HETATM   12  N   UNL     1      -8.741  15.350  66.780  1.00  0.00    -0.249 N  
HETATM   13  C   UNL     1      -7.730  15.298  67.693  1.00  0.00    -0.165 C  
HETATM   14  O   UNL     1      -7.198  14.295  68.137  1.00  0.00    -0.101 OA 
HETATM   15  C   UNL     1      -7.403  16.702  68.107  1.00  0.00    -0.172 C  
HETATM   16  C   UNL     1      -8.051  17.558  67.034  1.00  0.00    -0.240 C  
HETATM   17  C   UNL     1      -8.968  16.613  66.320  1.00  0.00    -0.305 C  
HETATM   18  O   UNL     1      -9.750  16.934  65.437  1.00  0.00    -0.506 OA 
ENDBRANCH  11  12
ENDBRANCH  10  11
ENDBRANCH   9  10
ENDBRANCH   7   9
ENDBRANCH   6   7
ENDBRANCH   3   5
ENDBRANCH   2   3
TORSDOF 7
ENDMDL
MODEL      288
REMARK 921   NORMALIZED FREE ENERGY PREDICTED BY IDOCK:   -2.90 KCAL/MOL
REMARK 922        TOTAL FREE ENERGY PREDICTED BY IDOCK:   -4.53 KCAL/MOL
REMARK 923 INTER-LIGAND FREE ENERGY PREDICTED BY IDOCK:   -4.13 KCAL/MOL
REMARK 924 INTRA-LIGAND FREE ENERGY PREDICTED BY IDOCK:   -0.39 KCAL/MOL
REMARK 927      BINDING AFFINITY PREDICTED BY RF-SCORE:    0.00 PKD
ROOT
HETATM    1  C   UNL     1     -12.960  12.246  71.529  1.00  0.00    -0.289 C  
HETATM    2  O   UNL     1     -12.085  12.342  70.404  1.00  0.00    -0.355 OA 
ENDROOT
BRANCH   2   3
HETATM    3  C   UNL     1     -11.983  11.191  69.699  1.00  0.00    -0.359 C  
HETATM    4  O   UNL     1     -12.386  10.991  68.564  1.00  0.00    -0.536 OA 
BRANCH   3   5
HETATM    5  C   UNL     1     -11.313  10.189  70.542  1.00  0.00    -0.416 C  
HETATM    6  C   UNL     1     -11.908   9.002  70.708  1.00  0.00    -0.251 C  
BRANCH   6   7
HETATM    7  C   UNL     1     -11.356   8.025  71.660  1.00  0.00    -0.262 C  
HETATM    8  O   UNL     1     -11.394   8.125  72.872  1.00  0.00    -0.387 OA 
BRANCH   7   9
HETATM    9  O   UNL     1     -10.972   6.946  70.939  1.00  0.00    -0.237 OA 
BRANCH   9  10
HETATM   10  C   UNL     1     -10.760   5.751  71.707  1.00  0.00    -0.249 C  
BRANCH  10  11
HETATM   11  C   UNL     1      -9.449   5.159  71.203  1.00  0.00    -0.153 C  
BRANCH  11  12
HETATM   12  N   UNL     1      -8.314   6.044  71.298  1.00  0.00    -0.123 N  
HETATM   13  C   UNL     1      -7.756   6.682  70.230  1.00  0.00    -0.098 C  
HETATM   14  O   UNL     1      -8.195   6.723  69.093  1.00  0.00    -0.118 OA 
HETATM   15  C   UNL     1      -6.465   7.299  70.677  1.00  0.00    -0.043 C  
HETATM   16  C   UNL     1      -6.561   7.287  72.192  1.00  0.00    -0.051 C  
HETATM   17  C   UNL     1      -7.707   6.365  72.476  1.00  0.00    -0.101 C  
HETATM   18  O   UNL     1      -8.057   6.011  73.592  1.00  0.00    -0.106 OA 
ENDBRANCH  11  12
ENDBRANCH  10  11
ENDBRANCH   9  10
ENDBRANCH   7   9
ENDBRANCH   6   7
ENDBRANCH   3   5
ENDBRANCH   2   3
TORSDOF 7
ENDMDL
MODEL      289
REMARK 921   NORMALIZED FREE ENERGY PREDICTED BY IDOCK:   -2.90 KCAL/MOL
REMARK 922        TOTAL FREE ENERGY PREDICTED BY IDOCK:   -4.52 KCAL/MOL
REMARK 923 INTER-LIGAND FREE ENERGY PREDICTED BY IDOCK:   -3.98 KCAL/MOL
REMARK 924 INTRA-LIGAND FREE ENERGY PREDICTED BY IDOCK:   -0.54 KCAL/MOL
REMARK 927      BINDING AFFINITY PREDICTED BY RF-SCORE:    0.00 PKD
ROOT
HETATM    1  C   UNL     1     -12.355  12.815  63.434  1.00  0.00    -0.437 C  
HETATM    2  O   UNL     1     -11.730  11.800  64.220  1.00  0.00    -0.317 OA 
ENDROOT
BRANCH   2   3
HETATM    3  C   UNL     1     -11.502  12.172  65.502  1.00  0.00    -0.343 C  
HETATM    4  O   UNL     1     -12.052  13.077  66.109  1.00  0.00    -0.412 OA 
BRANCH   3   5
HETATM    5  C   UNL     1     -10.448  11.307  66.054  1.00  0.00    -0.310 C  
HETATM    6  C   UNL     1     -10.557  10.911  67.327  1.00  0.00    -0.296 C  
BRANCH   6   7
HETATM    7  C   UNL     1      -9.458  10.173  67.969  1.00  0.00    -0.145 C  
HETATM    8  O   UNL     1      -8.559   9.599  67.382  1.00  0.00    -0.125 OA 
BRANCH   7   9
HETATM    9  O   UNL     1      -9.549  10.407  69.299  1.00  0.00    -0.207 OA 
BRANCH   9  10
HETATM   10  C   UNL     1     -10.377   9.481  70.018  1.00  0.00    -0.247 C  
BRANCH  10  11
HETATM   11  C   UNL     1      -9.518   8.957  71.163  1.00  0.00    -0.265 C  
BRANCH  11  12
HETATM   12  N   UNL     1      -8.892   7.682  70.911  1.00  0.00    -0.145 N  
HETATM   13  C   UNL     1      -9.486   6.481  71.164  1.00  0.00    -0.167 C  
HETATM   14  O   UNL     1     -10.645   6.294  71.494  1.00  0.00    -0.224 OA 
HETATM   15  C   UNL     1      -8.449   5.408  71.017  1.00  0.00    -0.124 C  
HETATM   16  C   UNL     1      -7.324   6.091  70.260  1.00  0.00    -0.088 C  
HETATM   17  C   UNL     1      -7.656   7.549  70.354  1.00  0.00    -0.090 C  
HETATM   18  O   UNL     1      -6.942   8.453  69.947  1.00  0.00    -0.042 OA 
ENDBRANCH  11  12
ENDBRANCH  10  11
ENDBRANCH   9  10
ENDBRANCH   7   9
ENDBRANCH   6   7
ENDBRANCH   3   5
ENDBRANCH   2   3
TORSDOF 7
ENDMDL
MODEL      290
REMARK 921   NORMALIZED FREE ENERGY PREDICTED BY IDOCK:   -2.89 KCAL/MOL
REMARK 922        TOTAL FREE ENERGY PREDICTED BY IDOCK:   -4.51 KCAL/MOL
REMARK 923 INTER-LIGAND FREE ENERGY PREDICTED BY IDOCK:   -4.02 KCAL/MOL
REMARK 924 INTRA-LIGAND FREE ENERGY PREDICTED BY IDOCK:   -0.49 KCAL/MOL
REMARK 927      BINDING AFFINITY PREDICTED BY RF-SCORE:    0.00 PKD
ROOT
HETATM    1  C   UNL     1      -5.757  10.363  64.534  1.00  0.00    -0.131 C  
HETATM    2  O   UNL     1      -5.833   9.126  65.243  1.00  0.00    -0.053 OA 
ENDROOT
BRANCH   2   3
HETATM    3  C   UNL     1      -6.189   9.267  66.541  1.00  0.00    -0.065 C  
HETATM    4  O   UNL     1      -5.742  10.077  67.338  1.00  0.00    -0.045 OA 
BRANCH   3   5
HETATM    5  C   UNL     1      -7.208   8.253  66.854  1.00  0.00    -0.083 C  
HETATM    6  C   UNL     1      -8.494   8.575  66.683  1.00  0.00    -0.116 C  
BRANCH   6   7
HETATM    7  C   UNL     1      -9.553   7.652  67.123  1.00  0.00    -0.162 C  
HETATM    8  O   UNL     1      -9.828   6.593  66.592  1.00  0.00    -0.173 OA 
BRANCH   7   9
HETATM    9  O   UNL     1     -10.020   8.123  68.304  1.00  0.00    -0.174 OA 
BRANCH   9  10
HETATM   10  C   UNL     1     -10.657   9.407  68.231  1.00  0.00    -0.210 C  
BRANCH  10  11
HETATM   11  C   UNL     1     -10.213  10.163  69.478  1.00  0.00    -0.236 C  
BRANCH  11  12
HETATM   12  N   UNL     1     -11.244  10.348  70.469  1.00  0.00    -0.325 N  
HETATM   13  C   UNL     1     -11.449   9.503  71.520  1.00  0.00    -0.395 C  
HETATM   14  O   UNL     1     -10.734   8.576  71.861  1.00  0.00    -0.272 OA 
HETATM   15  C   UNL     1     -12.746   9.876  72.172  1.00  0.00    -0.387 C  
HETATM   16  C   UNL     1     -13.038  11.265  71.633  1.00  0.00    -0.513 C  
HETATM   17  C   UNL     1     -12.095  11.412  70.478  1.00  0.00    -0.394 C  
HETATM   18  O   UNL     1     -12.076  12.363  69.711  1.00  0.00    -0.285 OA 
ENDBRANCH  11  12
ENDBRANCH  10  11
ENDBRANCH   9  10
ENDBRANCH   7   9
ENDBRANCH   6   7
ENDBRANCH   3   5
ENDBRANCH   2   3
TORSDOF 7
ENDMDL
MODEL      291
REMARK 921   NORMALIZED FREE ENERGY PREDICTED BY IDOCK:   -2.85 KCAL/MOL
REMARK 922        TOTAL FREE ENERGY PREDICTED BY IDOCK:   -4.46 KCAL/MOL
REMARK 923 INTER-LIGAND FREE ENERGY PREDICTED BY IDOCK:   -4.01 KCAL/MOL
REMARK 924 INTRA-LIGAND FREE ENERGY PREDICTED BY IDOCK:   -0.45 KCAL/MOL
REMARK 927      BINDING AFFINITY PREDICTED BY RF-SCORE:    0.00 PKD
ROOT
HETATM    1  C   UNL     1     -10.231   3.966  64.486  1.00  0.00    -0.223 C  
HETATM    2  O   UNL     1      -9.293   3.187  65.228  1.00  0.00    -0.149 OA 
ENDROOT
BRANCH   2   3
HETATM    3  C   UNL     1      -8.695   3.872  66.232  1.00  0.00    -0.115 C  
HETATM    4  O   UNL     1      -7.738   4.622  66.135  1.00  0.00    -0.089 OA 
BRANCH   3   5
HETATM    5  C   UNL     1      -9.384   3.544  67.490  1.00  0.00    -0.249 C  
HETATM    6  C   UNL     1      -9.321   4.426  68.493  1.00  0.00    -0.203 C  
BRANCH   6   7
HETATM    7  C   UNL     1      -9.863   4.080  69.817  1.00  0.00    -0.103 C  
HETATM    8  O   UNL     1      -9.645   3.045  70.417  1.00  0.00    -0.159 OA 
BRANCH   7   9
HETATM    9  O   UNL     1     -10.486   5.186  70.289  1.00  0.00    -0.275 OA 
BRANCH   9  10
HETATM   10  C   UNL     1      -9.931   6.430  69.836  1.00  0.00    -0.168 C  
BRANCH  10  11
HETATM   11  C   UNL     1      -9.713   7.269  71.090  1.00  0.00    -0.171 C  
BRANCH  11  12
HETATM   12  N   UNL     1     -10.674   8.327  71.281  1.00  0.00    -0.221 N  
HETATM   13  C   UNL     1     -11.713   8.260  72.161  1.00  0.00    -0.365 C  
HETATM   14  O   UNL     1     -11.907   7.394  72.998  1.00  0.00    -0.076 OA 
HETATM   15  C   UNL     1     -12.624   9.421  71.896  1.00  0.00    -0.481 C  
HETATM   16  C   UNL     1     -11.779  10.363  71.057  1.00  0.00    -0.430 C  
HETATM   17  C   UNL     1     -10.616   9.522  70.627  1.00  0.00    -0.308 C  
HETATM   18  O   UNL     1      -9.742   9.884  69.854  1.00  0.00    -0.224 OA 
ENDBRANCH  11  12
ENDBRANCH  10  11
ENDBRANCH   9  10
ENDBRANCH   7   9
ENDBRANCH   6   7
ENDBRANCH   3   5
ENDBRANCH   2   3
TORSDOF 7
ENDMDL
MODEL      292
REMARK 921   NORMALIZED FREE ENERGY PREDICTED BY IDOCK:   -2.81 KCAL/MOL
REMARK 922        TOTAL FREE ENERGY PREDICTED BY IDOCK:   -4.39 KCAL/MOL
REMARK 923 INTER-LIGAND FREE ENERGY PREDICTED BY IDOCK:   -4.01 KCAL/MOL
REMARK 924 INTRA-LIGAND FREE ENERGY PREDICTED BY IDOCK:   -0.38 KCAL/MOL
REMARK 927      BINDING AFFINITY PREDICTED BY RF-SCORE:    0.00 PKD
ROOT
HETATM    1  C   UNL     1      -8.895   9.867  62.487  1.00  0.00    -0.244 C  
HETATM    2  O   UNL     1      -9.197   9.894  63.882  1.00  0.00    -0.253 OA 
ENDROOT
BRANCH   2   3
HETATM    3  C   UNL     1      -8.616   8.891  64.581  1.00  0.00    -0.143 C  
HETATM    4  O   UNL     1      -8.079   7.895  64.121  1.00  0.00    -0.146 OA 
BRANCH   3   5
HETATM    5  C   UNL     1      -8.755   9.185  66.015  1.00  0.00    -0.176 C  
HETATM    6  C   UNL     1      -9.420  10.289  66.373  1.00  0.00    -0.218 C  
BRANCH   6   7
HETATM    7  C   UNL     1      -9.456  10.706  67.783  1.00  0.00    -0.153 C  
HETATM    8  O   UNL     1      -8.906  10.128  68.702  1.00  0.00    -0.125 OA 
BRANCH   7   9
HETATM    9  O   UNL     1     -10.057  11.919  67.821  1.00  0.00    -0.185 OA 
BRANCH   9  10
HETATM   10  C   UNL     1      -9.887  12.712  66.636  1.00  0.00    -0.244 C  
BRANCH  10  11
HETATM   11  C   UNL     1      -8.873  13.792  67.000  1.00  0.00    -0.218 C  
BRANCH  11  12
HETATM   12  N   UNL     1      -9.422  15.121  67.104  1.00  0.00    -0.212 N  
HETATM   13  C   UNL     1      -9.866  15.846  66.038  1.00  0.00    -0.337 C  
HETATM   14  O   UNL     1     -10.001  15.451  64.892  1.00  0.00    -0.274 OA 
HETATM   15  C   UNL     1     -10.121  17.249  66.501  1.00  0.00    -0.311 C  
HETATM   16  C   UNL     1     -10.164  17.130  68.014  1.00  0.00    -0.332 C  
HETATM   17  C   UNL     1      -9.590  15.774  68.289  1.00  0.00    -0.201 C  
HETATM   18  O   UNL     1      -9.364  15.326  69.403  1.00  0.00    -0.237 OA 
ENDBRANCH  11  12
ENDBRANCH  10  11
ENDBRANCH   9  10
ENDBRANCH   7   9
ENDBRANCH   6   7
ENDBRANCH   3   5
ENDBRANCH   2   3
TORSDOF 7
ENDMDL
MODEL      293
REMARK 921   NORMALIZED FREE ENERGY PREDICTED BY IDOCK:   -2.80 KCAL/MOL
REMARK 922        TOTAL FREE ENERGY PREDICTED BY IDOCK:   -4.38 KCAL/MOL
REMARK 923 INTER-LIGAND FREE ENERGY PREDICTED BY IDOCK:   -4.10 KCAL/MOL
REMARK 924 INTRA-LIGAND FREE ENERGY PREDICTED BY IDOCK:   -0.28 KCAL/MOL
REMARK 927      BINDING AFFINITY PREDICTED BY RF-SCORE:    0.00 PKD
ROOT
HETATM    1  C   UNL     1     -10.256  10.824  68.259  1.00  0.00    -0.167 C  
HETATM    2  O   UNL     1      -9.275  10.080  67.537  1.00  0.00    -0.137 OA 
ENDROOT
BRANCH   2   3
HETATM    3  C   UNL     1      -9.665   9.742  66.285  1.00  0.00    -0.234 C  
HETATM    4  O   UNL     1      -9.549  10.419  65.276  1.00  0.00    -0.216 OA 
BRANCH   3   5
HETATM    5  C   UNL     1     -10.285   8.408  66.337  1.00  0.00    -0.168 C  
HETATM    6  C   UNL     1      -9.764   7.502  67.172  1.00  0.00    -0.228 C  
BRANCH   6   7
HETATM    7  C   UNL     1     -10.250   6.113  67.151  1.00  0.00    -0.199 C  
HETATM    8  O   UNL     1     -10.048   5.310  66.259  1.00  0.00    -0.185 OA 
BRANCH   7   9
HETATM    9  O   UNL     1     -10.797   5.868  68.365  1.00  0.00    -0.265 OA 
BRANCH   9  10
HETATM   10  C   UNL     1     -10.700   6.954  69.300  1.00  0.00    -0.238 C  
BRANCH  10  11
HETATM   11  C   UNL     1     -11.750   6.676  70.371  1.00  0.00    -0.386 C  
BRANCH  11  12
HETATM   12  N   UNL     1     -11.249   6.695  71.723  1.00  0.00    -0.248 N  
HETATM   13  C   UNL     1     -11.517   7.688  72.618  1.00  0.00    -0.349 C  
HETATM   14  O   UNL     1     -12.307   8.606  72.476  1.00  0.00    -0.390 OA 
HETATM   15  C   UNL     1     -10.630   7.492  73.811  1.00  0.00    -0.064 C  
HETATM   16  C   UNL     1     -10.136   6.064  73.666  1.00  0.00    -0.218 C  
HETATM   17  C   UNL     1     -10.487   5.699  72.256  1.00  0.00    -0.213 C  
HETATM   18  O   UNL     1     -10.174   4.652  71.709  1.00  0.00    -0.193 OA 
ENDBRANCH  11  12
ENDBRANCH  10  11
ENDBRANCH   9  10
ENDBRANCH   7   9
ENDBRANCH   6   7
ENDBRANCH   3   5
ENDBRANCH   2   3
TORSDOF 7
ENDMDL
MODEL      294
REMARK 921   NORMALIZED FREE ENERGY PREDICTED BY IDOCK:   -2.79 KCAL/MOL
REMARK 922        TOTAL FREE ENERGY PREDICTED BY IDOCK:   -4.37 KCAL/MOL
REMARK 923 INTER-LIGAND FREE ENERGY PREDICTED BY IDOCK:   -4.26 KCAL/MOL
REMARK 924 INTRA-LIGAND FREE ENERGY PREDICTED BY IDOCK:   -0.12 KCAL/MOL
REMARK 927      BINDING AFFINITY PREDICTED BY RF-SCORE:    0.00 PKD
ROOT
HETATM    1  C   UNL     1     -12.432  11.915  70.828  1.00  0.00    -0.291 C  
HETATM    2  O   UNL     1     -13.088  10.648  70.787  1.00  0.00    -0.341 OA 
ENDROOT
BRANCH   2   3
HETATM    3  C   UNL     1     -12.448   9.685  71.491  1.00  0.00    -0.386 C  
HETATM    4  O   UNL     1     -12.886   9.067  72.449  1.00  0.00    -0.401 OA 
BRANCH   3   5
HETATM    5  C   UNL     1     -11.104   9.510  70.919  1.00  0.00    -0.406 C  
HETATM    6  C   UNL     1     -10.998   8.932  69.718  1.00  0.00    -0.164 C  
BRANCH   6   7
HETATM    7  C   UNL     1      -9.673   8.598  69.172  1.00  0.00    -0.173 C  
HETATM    8  O   UNL     1      -8.741   8.149  69.814  1.00  0.00    -0.133 OA 
BRANCH   7   9
HETATM    9  O   UNL     1      -9.757   8.720  67.827  1.00  0.00    -0.148 OA 
BRANCH   9  10
HETATM   10  C   UNL     1     -10.484   9.872  67.371  1.00  0.00    -0.267 C  
BRANCH  10  11
HETATM   11  C   UNL     1      -9.488  10.702  66.569  1.00  0.00    -0.169 C  
BRANCH  11  12
HETATM   12  N   UNL     1      -9.234  12.017  67.103  1.00  0.00    -0.184 N  
HETATM   13  C   UNL     1      -7.986  12.535  67.286  1.00  0.00    -0.173 C  
HETATM   14  O   UNL     1      -6.932  12.052  66.909  1.00  0.00    -0.122 OA 
HETATM   15  C   UNL     1      -8.118  13.798  68.083  1.00  0.00    -0.155 C  
HETATM   16  C   UNL     1      -9.592  14.144  67.975  1.00  0.00    -0.218 C  
HETATM   17  C   UNL     1     -10.221  12.894  67.442  1.00  0.00    -0.230 C  
HETATM   18  O   UNL     1     -11.422  12.726  67.296  1.00  0.00    -0.298 OA 
ENDBRANCH  11  12
ENDBRANCH  10  11
ENDBRANCH   9  10
ENDBRANCH   7   9
ENDBRANCH   6   7
ENDBRANCH   3   5
ENDBRANCH   2   3
TORSDOF 7
ENDMDL
MODEL      295
REMARK 921   NORMALIZED FREE ENERGY PREDICTED BY IDOCK:   -2.79 KCAL/MOL
REMARK 922        TOTAL FREE ENERGY PREDICTED BY IDOCK:   -4.37 KCAL/MOL
REMARK 923 INTER-LIGAND FREE ENERGY PREDICTED BY IDOCK:   -3.67 KCAL/MOL
REMARK 924 INTRA-LIGAND FREE ENERGY PREDICTED BY IDOCK:   -0.69 KCAL/MOL
REMARK 927      BINDING AFFINITY PREDICTED BY RF-SCORE:    0.00 PKD
ROOT
HETATM    1  C   UNL     1      -7.800  10.876  66.952  1.00  0.00    -0.135 C  
HETATM    2  O   UNL     1      -6.998   9.902  67.620  1.00  0.00    -0.084 OA 
ENDROOT
BRANCH   2   3
HETATM    3  C   UNL     1      -7.245   9.816  68.948  1.00  0.00    -0.072 C  
HETATM    4  O   UNL     1      -6.495  10.146  69.853  1.00  0.00    -0.061 OA 
BRANCH   3   5
HETATM    5  C   UNL     1      -8.581   9.230  69.134  1.00  0.00    -0.134 C  
HETATM    6  C   UNL     1      -9.235   9.495  70.271  1.00  0.00    -0.303 C  
BRANCH   6   7
HETATM    7  C   UNL     1     -10.504   8.813  70.569  1.00  0.00    -0.209 C  
HETATM    8  O   UNL     1     -11.068   8.023  69.835  1.00  0.00    -0.215 OA 
BRANCH   7   9
HETATM    9  O   UNL     1     -10.812   9.098  71.857  1.00  0.00    -0.359 OA 
BRANCH   9  10
HETATM   10  C   UNL     1     -11.512   8.056  72.554  1.00  0.00    -0.409 C  
BRANCH  10  11
HETATM   11  C   UNL     1     -10.458   7.327  73.380  1.00  0.00    -0.377 C  
BRANCH  11  12
HETATM   12  N   UNL     1      -9.960   6.113  72.782  1.00  0.00    -0.171 N  
HETATM   13  C   UNL     1      -8.720   5.992  72.229  1.00  0.00    -0.131 C  
HETATM   14  O   UNL     1      -7.816   6.808  72.277  1.00  0.00    -0.094 OA 
HETATM   15  C   UNL     1      -8.662   4.685  71.496  1.00  0.00    -0.137 C  
HETATM   16  C   UNL     1      -9.851   3.911  72.037  1.00  0.00    -0.245 C  
HETATM   17  C   UNL     1     -10.667   4.948  72.746  1.00  0.00    -0.228 C  
HETATM   18  O   UNL     1     -11.764   4.750  73.247  1.00  0.00    -0.312 OA 
ENDBRANCH  11  12
ENDBRANCH  10  11
ENDBRANCH   9  10
ENDBRANCH   7   9
ENDBRANCH   6   7
ENDBRANCH   3   5
ENDBRANCH   2   3
TORSDOF 7
ENDMDL
MODEL      296
REMARK 921   NORMALIZED FREE ENERGY PREDICTED BY IDOCK:   -2.78 KCAL/MOL
REMARK 922        TOTAL FREE ENERGY PREDICTED BY IDOCK:   -4.35 KCAL/MOL
REMARK 923 INTER-LIGAND FREE ENERGY PREDICTED BY IDOCK:   -3.91 KCAL/MOL
REMARK 924 INTRA-LIGAND FREE ENERGY PREDICTED BY IDOCK:   -0.44 KCAL/MOL
REMARK 927      BINDING AFFINITY PREDICTED BY RF-SCORE:    0.00 PKD
ROOT
HETATM    1  C   UNL     1      -7.055   4.245  69.943  1.00  0.00    -0.042 C  
HETATM    2  O   UNL     1      -8.302   4.434  69.276  1.00  0.00    -0.073 OA 
ENDROOT
BRANCH   2   3
HETATM    3  C   UNL     1      -9.160   5.236  69.951  1.00  0.00    -0.130 C  
HETATM    4  O   UNL     1     -10.142   4.884  70.586  1.00  0.00    -0.224 OA 
BRANCH   3   5
HETATM    5  C   UNL     1      -8.726   6.630  69.776  1.00  0.00    -0.140 C  
HETATM    6  C   UNL     1      -9.275   7.566  70.558  1.00  0.00    -0.157 C  
BRANCH   6   7
HETATM    7  C   UNL     1      -8.987   8.990  70.320  1.00  0.00    -0.198 C  
HETATM    8  O   UNL     1      -8.040   9.602  70.779  1.00  0.00    -0.279 OA 
BRANCH   7   9
HETATM    9  O   UNL     1      -9.860   9.417  69.378  1.00  0.00    -0.165 OA 
BRANCH   9  10
HETATM   10  C   UNL     1     -10.651  10.553  69.759  1.00  0.00    -0.227 C  
BRANCH  10  11
HETATM   11  C   UNL     1     -11.782  10.633  68.740  1.00  0.00    -0.188 C  
BRANCH  11  12
HETATM   12  N   UNL     1     -11.596  11.626  67.711  1.00  0.00    -0.303 N  
HETATM   13  C   UNL     1     -11.927  12.941  67.855  1.00  0.00    -0.282 C  
HETATM   14  O   UNL     1     -12.282  13.496  68.880  1.00  0.00    -0.315 OA 
HETATM   15  C   UNL     1     -11.827  13.596  66.510  1.00  0.00    -0.441 C  
HETATM   16  C   UNL     1     -11.016  12.613  65.685  1.00  0.00    -0.313 C  
HETATM   17  C   UNL     1     -11.031  11.356  66.500  1.00  0.00    -0.272 C  
HETATM   18  O   UNL     1     -10.562  10.287  66.141  1.00  0.00    -0.161 OA 
ENDBRANCH  11  12
ENDBRANCH  10  11
ENDBRANCH   9  10
ENDBRANCH   7   9
ENDBRANCH   6   7
ENDBRANCH   3   5
ENDBRANCH   2   3
TORSDOF 7
ENDMDL
MODEL      297
REMARK 921   NORMALIZED FREE ENERGY PREDICTED BY IDOCK:   -2.77 KCAL/MOL
REMARK 922        TOTAL FREE ENERGY PREDICTED BY IDOCK:   -4.35 KCAL/MOL
REMARK 923 INTER-LIGAND FREE ENERGY PREDICTED BY IDOCK:   -3.86 KCAL/MOL
REMARK 924 INTRA-LIGAND FREE ENERGY PREDICTED BY IDOCK:   -0.49 KCAL/MOL
REMARK 927      BINDING AFFINITY PREDICTED BY RF-SCORE:    0.00 PKD
ROOT
HETATM    1  C   UNL     1     -11.196   1.926  62.869  1.00  0.00    -0.263 C  
HETATM    2  O   UNL     1     -11.069   3.086  63.691  1.00  0.00    -0.286 OA 
ENDROOT
BRANCH   2   3
HETATM    3  C   UNL     1      -9.925   3.778  63.477  1.00  0.00    -0.177 C  
HETATM    4  O   UNL     1      -9.290   3.836  62.436  1.00  0.00    -0.092 OA 
BRANCH   3   5
HETATM    5  C   UNL     1      -9.548   4.448  64.731  1.00  0.00    -0.145 C  
HETATM    6  C   UNL     1      -9.910   3.879  65.886  1.00  0.00    -0.137 C  
BRANCH   6   7
HETATM    7  C   UNL     1      -9.690   4.584  67.159  1.00  0.00    -0.197 C  
HETATM    8  O   UNL     1      -9.653   4.059  68.256  1.00  0.00    -0.163 OA 
BRANCH   7   9
HETATM    9  O   UNL     1      -9.372   5.863  66.852  1.00  0.00    -0.123 OA 
BRANCH   9  10
HETATM   10  C   UNL     1      -9.049   6.692  67.979  1.00  0.00    -0.114 C  
BRANCH  10  11
HETATM   11  C   UNL     1     -10.186   7.701  68.092  1.00  0.00    -0.196 C  
BRANCH  11  12
HETATM   12  N   UNL     1     -10.538   8.061  69.444  1.00  0.00    -0.226 N  
HETATM   13  C   UNL     1     -11.242   7.253  70.287  1.00  0.00    -0.262 C  
HETATM   14  O   UNL     1     -11.549   6.089  70.096  1.00  0.00    -0.308 OA 
HETATM   15  C   UNL     1     -11.628   8.059  71.491  1.00  0.00    -0.313 C  
HETATM   16  C   UNL     1     -10.722   9.275  71.420  1.00  0.00    -0.432 C  
HETATM   17  C   UNL     1     -10.167   9.235  70.029  1.00  0.00    -0.215 C  
HETATM   18  O   UNL     1      -9.458  10.099  69.537  1.00  0.00    -0.211 OA 
ENDBRANCH  11  12
ENDBRANCH  10  11
ENDBRANCH   9  10
ENDBRANCH   7   9
ENDBRANCH   6   7
ENDBRANCH   3   5
ENDBRANCH   2   3
TORSDOF 7
ENDMDL
MODEL      298
REMARK 921   NORMALIZED FREE ENERGY PREDICTED BY IDOCK:   -2.77 KCAL/MOL
REMARK 922        TOTAL FREE ENERGY PREDICTED BY IDOCK:   -4.34 KCAL/MOL
REMARK 923 INTER-LIGAND FREE ENERGY PREDICTED BY IDOCK:   -3.76 KCAL/MOL
REMARK 924 INTRA-LIGAND FREE ENERGY PREDICTED BY IDOCK:   -0.57 KCAL/MOL
REMARK 927      BINDING AFFINITY PREDICTED BY RF-SCORE:    0.00 PKD
ROOT
HETATM    1  C   UNL     1      -8.774   9.355  62.864  1.00  0.00    -0.224 C  
HETATM    2  O   UNL     1      -8.594  10.022  64.113  1.00  0.00    -0.159 OA 
ENDROOT
BRANCH   2   3
HETATM    3  C   UNL     1      -8.051   9.236  65.073  1.00  0.00    -0.127 C  
HETATM    4  O   UNL     1      -7.962   8.018  65.056  1.00  0.00    -0.112 OA 
BRANCH   3   5
HETATM    5  C   UNL     1      -7.596  10.098  66.175  1.00  0.00    -0.114 C  
HETATM    6  C   UNL     1      -8.145  11.311  66.297  1.00  0.00    -0.108 C  
BRANCH   6   7
HETATM    7  C   UNL     1      -7.618  12.265  67.286  1.00  0.00    -0.152 C  
HETATM    8  O   UNL     1      -6.714  13.055  67.089  1.00  0.00    -0.137 OA 
BRANCH   7   9
HETATM    9  O   UNL     1      -8.437  12.208  68.363  1.00  0.00    -0.169 OA 
BRANCH   9  10
HETATM   10  C   UNL     1      -9.828  12.031  68.055  1.00  0.00    -0.199 C  
BRANCH  10  11
HETATM   11  C   UNL     1     -10.467  13.406  68.215  1.00  0.00    -0.250 C  
BRANCH  11  12
HETATM   12  N   UNL     1     -10.334  14.269  67.067  1.00  0.00    -0.265 N  
HETATM   13  C   UNL     1      -9.523  15.364  67.029  1.00  0.00    -0.220 C  
HETATM   14  O   UNL     1      -8.705  15.696  67.870  1.00  0.00    -0.164 OA 
HETATM   15  C   UNL     1      -9.841  16.137  65.784  1.00  0.00    -0.354 C  
HETATM   16  C   UNL     1     -10.619  15.151  64.933  1.00  0.00    -0.392 C  
HETATM   17  C   UNL     1     -10.977  14.051  65.885  1.00  0.00    -0.286 C  
HETATM   18  O   UNL     1     -11.691  13.098  65.612  1.00  0.00    -0.332 OA 
ENDBRANCH  11  12
ENDBRANCH  10  11
ENDBRANCH   9  10
ENDBRANCH   7   9
ENDBRANCH   6   7
ENDBRANCH   3   5
ENDBRANCH   2   3
TORSDOF 7
ENDMDL
MODEL      299
REMARK 921   NORMALIZED FREE ENERGY PREDICTED BY IDOCK:   -2.77 KCAL/MOL
REMARK 922        TOTAL FREE ENERGY PREDICTED BY IDOCK:   -4.34 KCAL/MOL
REMARK 923 INTER-LIGAND FREE ENERGY PREDICTED BY IDOCK:   -4.17 KCAL/MOL
REMARK 924 INTRA-LIGAND FREE ENERGY PREDICTED BY IDOCK:   -0.17 KCAL/MOL
REMARK 927      BINDING AFFINITY PREDICTED BY RF-SCORE:    0.00 PKD
ROOT
HETATM    1  C   UNL     1      -7.917  19.918  66.058  1.00  0.00    -0.314 C  
HETATM    2  O   UNL     1      -8.777  19.400  67.072  1.00  0.00    -0.277 OA 
ENDROOT
BRANCH   2   3
HETATM    3  C   UNL     1      -9.848  18.731  66.584  1.00  0.00    -0.356 C  
HETATM    4  O   UNL     1     -10.346  18.858  65.476  1.00  0.00    -0.499 OA 
BRANCH   3   5
HETATM    5  C   UNL     1     -10.343  17.822  67.630  1.00  0.00    -0.375 C  
HETATM    6  C   UNL     1     -10.186  16.506  67.450  1.00  0.00    -0.287 C  
BRANCH   6   7
HETATM    7  C   UNL     1     -10.796  15.554  68.392  1.00  0.00    -0.273 C  
HETATM    8  O   UNL     1     -11.980  15.501  68.671  1.00  0.00    -0.335 OA 
BRANCH   7   9
HETATM    9  O   UNL     1      -9.834  14.666  68.734  1.00  0.00    -0.221 OA 
BRANCH   9  10
HETATM   10  C   UNL     1      -9.388  13.818  67.664  1.00  0.00    -0.213 C  
BRANCH  10  11
HETATM   11  C   UNL     1      -7.901  14.108  67.496  1.00  0.00    -0.192 C  
BRANCH  11  12
HETATM   12  N   UNL     1      -7.064  13.593  68.551  1.00  0.00    -0.099 N  
HETATM   13  C   UNL     1      -6.401  14.377  69.448  1.00  0.00    -0.122 C  
HETATM   14  O   UNL     1      -6.518  15.583  69.590  1.00  0.00    -0.153 OA 
HETATM   15  C   UNL     1      -5.450  13.508  70.214  1.00  0.00    -0.127 C  
HETATM   16  C   UNL     1      -5.942  12.099  69.938  1.00  0.00    -0.149 C  
HETATM   17  C   UNL     1      -6.882  12.262  68.783  1.00  0.00    -0.092 C  
HETATM   18  O   UNL     1      -7.426  11.341  68.192  1.00  0.00    -0.083 OA 
ENDBRANCH  11  12
ENDBRANCH  10  11
ENDBRANCH   9  10
ENDBRANCH   7   9
ENDBRANCH   6   7
ENDBRANCH   3   5
ENDBRANCH   2   3
TORSDOF 7
ENDMDL
MODEL      300
REMARK 921   NORMALIZED FREE ENERGY PREDICTED BY IDOCK:   -2.75 KCAL/MOL
REMARK 922        TOTAL FREE ENERGY PREDICTED BY IDOCK:   -4.32 KCAL/MOL
REMARK 923 INTER-LIGAND FREE ENERGY PREDICTED BY IDOCK:   -3.97 KCAL/MOL
REMARK 924 INTRA-LIGAND FREE ENERGY PREDICTED BY IDOCK:   -0.34 KCAL/MOL
REMARK 927      BINDING AFFINITY PREDICTED BY RF-SCORE:    0.00 PKD
ROOT
HETATM    1  C   UNL     1     -11.418  11.471  69.381  1.00  0.00    -0.309 C  
HETATM    2  O   UNL     1     -12.477  10.620  69.817  1.00  0.00    -0.280 OA 
ENDROOT
BRANCH   2   3
HETATM    3  C   UNL     1     -12.322  10.168  71.084  1.00  0.00    -0.385 C  
HETATM    4  O   UNL     1     -12.970  10.503  72.063  1.00  0.00    -0.458 OA 
BRANCH   3   5
HETATM    5  C   UNL     1     -11.211   9.205  71.099  1.00  0.00    -0.395 C  
HETATM    6  C   UNL     1     -11.417   7.994  70.570  1.00  0.00    -0.192 C  
BRANCH   6   7
HETATM    7  C   UNL     1     -10.390   6.947  70.696  1.00  0.00    -0.200 C  
HETATM    8  O   UNL     1      -9.852   6.611  71.735  1.00  0.00    -0.163 OA 
BRANCH   7   9
HETATM    9  O   UNL     1     -10.300   6.336  69.492  1.00  0.00    -0.182 OA 
BRANCH   9  10
HETATM   10  C   UNL     1     -10.844   7.084  68.393  1.00  0.00    -0.138 C  
BRANCH  10  11
HETATM   11  C   UNL     1     -10.788   6.152  67.188  1.00  0.00    -0.360 C  
BRANCH  11  12
HETATM   12  N   UNL     1      -9.456   5.827  66.741  1.00  0.00    -0.137 N  
HETATM   13  C   UNL     1      -8.900   4.587  66.849  1.00  0.00    -0.112 C  
HETATM   14  O   UNL     1      -9.464   3.561  67.192  1.00  0.00    -0.198 OA 
HETATM   15  C   UNL     1      -7.442   4.699  66.518  1.00  0.00    -0.082 C  
HETATM   16  C   UNL     1      -7.330   6.043  65.821  1.00  0.00    -0.076 C  
HETATM   17  C   UNL     1      -8.631   6.720  66.126  1.00  0.00    -0.143 C  
HETATM   18  O   UNL     1      -8.906   7.871  65.820  1.00  0.00    -0.163 OA 
ENDBRANCH  11  12
ENDBRANCH  10  11
ENDBRANCH   9  10
ENDBRANCH   7   9
ENDBRANCH   6   7
ENDBRANCH   3   5
ENDBRANCH   2   3
TORSDOF 7
ENDMDL
MODEL      301
REMARK 921   NORMALIZED FREE ENERGY PREDICTED BY IDOCK:   -2.75 KCAL/MOL
REMARK 922        TOTAL FREE ENERGY PREDICTED BY IDOCK:   -4.32 KCAL/MOL
REMARK 923 INTER-LIGAND FREE ENERGY PREDICTED BY IDOCK:   -3.86 KCAL/MOL
REMARK 924 INTRA-LIGAND FREE ENERGY PREDICTED BY IDOCK:   -0.46 KCAL/MOL
REMARK 927      BINDING AFFINITY PREDICTED BY RF-SCORE:    0.00 PKD
ROOT
HETATM    1  C   UNL     1     -10.929  14.084  68.714  1.00  0.00    -0.262 C  
HETATM    2  O   UNL     1     -10.825  13.729  67.336  1.00  0.00    -0.272 OA 
ENDROOT
BRANCH   2   3
HETATM    3  C   UNL     1     -11.510  12.607  67.013  1.00  0.00    -0.346 C  
HETATM    4  O   UNL     1     -12.166  12.417  66.001  1.00  0.00    -0.636 OA 
BRANCH   3   5
HETATM    5  C   UNL     1     -11.354  11.637  68.109  1.00  0.00    -0.358 C  
HETATM    6  C   UNL     1     -10.800  10.453  67.830  1.00  0.00    -0.331 C  
BRANCH   6   7
HETATM    7  C   UNL     1     -10.760   9.396  68.854  1.00  0.00    -0.178 C  
HETATM    8  O   UNL     1     -11.515   9.310  69.805  1.00  0.00    -0.086 OA 
BRANCH   7   9
HETATM    9  O   UNL     1      -9.860   8.476  68.437  1.00  0.00    -0.163 OA 
BRANCH   9  10
HETATM   10  C   UNL     1     -10.431   7.260  67.930  1.00  0.00    -0.209 C  
BRANCH  10  11
HETATM   11  C   UNL     1      -9.259   6.309  67.711  1.00  0.00    -0.115 C  
BRANCH  11  12
HETATM   12  N   UNL     1      -8.954   6.040  66.327  1.00  0.00    -0.146 N  
HETATM   13  C   UNL     1      -9.476   4.996  65.623  1.00  0.00    -0.141 C  
HETATM   14  O   UNL     1     -10.359   4.238  65.987  1.00  0.00    -0.209 OA 
HETATM   15  C   UNL     1      -8.741   4.899  64.320  1.00  0.00    -0.130 C  
HETATM   16  C   UNL     1      -8.038   6.239  64.197  1.00  0.00    -0.067 C  
HETATM   17  C   UNL     1      -8.141   6.830  65.570  1.00  0.00    -0.128 C  
HETATM   18  O   UNL     1      -7.615   7.876  65.920  1.00  0.00    -0.079 OA 
ENDBRANCH  11  12
ENDBRANCH  10  11
ENDBRANCH   9  10
ENDBRANCH   7   9
ENDBRANCH   6   7
ENDBRANCH   3   5
ENDBRANCH   2   3
TORSDOF 7
ENDMDL
MODEL      302
REMARK 921   NORMALIZED FREE ENERGY PREDICTED BY IDOCK:   -2.74 KCAL/MOL
REMARK 922        TOTAL FREE ENERGY PREDICTED BY IDOCK:   -4.30 KCAL/MOL
REMARK 923 INTER-LIGAND FREE ENERGY PREDICTED BY IDOCK:   -3.66 KCAL/MOL
REMARK 924 INTRA-LIGAND FREE ENERGY PREDICTED BY IDOCK:   -0.64 KCAL/MOL
REMARK 927      BINDING AFFINITY PREDICTED BY RF-SCORE:    0.00 PKD
ROOT
HETATM    1  C   UNL     1      -8.160   6.764  65.407  1.00  0.00    -0.129 C  
HETATM    2  O   UNL     1      -7.308   5.698  65.828  1.00  0.00    -0.071 OA 
ENDROOT
BRANCH   2   3
HETATM    3  C   UNL     1      -7.729   5.083  66.958  1.00  0.00    -0.092 C  
HETATM    4  O   UNL     1      -7.823   3.880  67.144  1.00  0.00    -0.086 OA 
BRANCH   3   5
HETATM    5  C   UNL     1      -8.083   6.117  67.943  1.00  0.00    -0.114 C  
HETATM    6  C   UNL     1      -7.804   5.885  69.231  1.00  0.00    -0.095 C  
BRANCH   6   7
HETATM    7  C   UNL     1      -8.274   6.817  70.268  1.00  0.00    -0.125 C  
HETATM    8  O   UNL     1      -8.490   6.527  71.430  1.00  0.00    -0.124 OA 
BRANCH   7   9
HETATM    9  O   UNL     1      -8.245   8.058  69.726  1.00  0.00    -0.116 OA 
BRANCH   9  10
HETATM   10  C   UNL     1      -9.150   8.999  70.326  1.00  0.00    -0.202 C  
BRANCH  10  11
HETATM   11  C   UNL     1     -10.496   8.771  69.648  1.00  0.00    -0.220 C  
BRANCH  11  12
HETATM   12  N   UNL     1     -11.603   8.588  70.555  1.00  0.00    -0.194 N  
HETATM   13  C   UNL     1     -12.164   9.596  71.282  1.00  0.00    -0.363 C  
HETATM   14  O   UNL     1     -11.931  10.788  71.179  1.00  0.00    -0.329 OA 
HETATM   15  C   UNL     1     -13.100   8.985  72.281  1.00  0.00    -0.508 C  
HETATM   16  C   UNL     1     -13.310   7.572  71.766  1.00  0.00    -0.370 C  
HETATM   17  C   UNL     1     -12.226   7.391  70.748  1.00  0.00    -0.170 C  
HETATM   18  O   UNL     1     -11.989   6.347  70.160  1.00  0.00    -0.354 OA 
ENDBRANCH  11  12
ENDBRANCH  10  11
ENDBRANCH   9  10
ENDBRANCH   7   9
ENDBRANCH   6   7
ENDBRANCH   3   5
ENDBRANCH   2   3
TORSDOF 7
ENDMDL
MODEL      303
REMARK 921   NORMALIZED FREE ENERGY PREDICTED BY IDOCK:   -2.73 KCAL/MOL
REMARK 922        TOTAL FREE ENERGY PREDICTED BY IDOCK:   -4.28 KCAL/MOL
REMARK 923 INTER-LIGAND FREE ENERGY PREDICTED BY IDOCK:   -3.94 KCAL/MOL
REMARK 924 INTRA-LIGAND FREE ENERGY PREDICTED BY IDOCK:   -0.34 KCAL/MOL
REMARK 927      BINDING AFFINITY PREDICTED BY RF-SCORE:    0.00 PKD
ROOT
HETATM    1  C   UNL     1      -8.936   3.947  65.316  1.00  0.00    -0.132 C  
HETATM    2  O   UNL     1      -9.846   4.918  65.831  1.00  0.00    -0.172 OA 
ENDROOT
BRANCH   2   3
HETATM    3  C   UNL     1      -9.338   5.648  66.852  1.00  0.00    -0.125 C  
HETATM    4  O   UNL     1      -8.428   5.326  67.599  1.00  0.00    -0.106 OA 
BRANCH   3   5
HETATM    5  C   UNL     1     -10.088   6.911  66.935  1.00  0.00    -0.286 C  
HETATM    6  C   UNL     1      -9.396   8.054  67.003  1.00  0.00    -0.197 C  
BRANCH   6   7
HETATM    7  C   UNL     1     -10.094   9.328  67.239  1.00  0.00    -0.231 C  
HETATM    8  O   UNL     1     -11.139   9.455  67.850  1.00  0.00    -0.136 OA 
BRANCH   7   9
HETATM    9  O   UNL     1      -9.272  10.314  66.809  1.00  0.00    -0.154 OA 
BRANCH   9  10
HETATM   10  C   UNL     1      -9.921  11.568  66.547  1.00  0.00    -0.210 C  
BRANCH  10  11
HETATM   11  C   UNL     1      -9.311  12.564  67.528  1.00  0.00    -0.187 C  
BRANCH  11  12
HETATM   12  N   UNL     1     -10.079  13.770  67.714  1.00  0.00    -0.240 N  
HETATM   13  C   UNL     1      -9.886  14.912  66.994  1.00  0.00    -0.237 C  
HETATM   14  O   UNL     1      -9.166  15.048  66.020  1.00  0.00    -0.293 OA 
HETATM   15  C   UNL     1     -10.683  16.008  67.636  1.00  0.00    -0.320 C  
HETATM   16  C   UNL     1     -11.654  15.270  68.540  1.00  0.00    -0.368 C  
HETATM   17  C   UNL     1     -11.105  13.878  68.605  1.00  0.00    -0.265 C  
HETATM   18  O   UNL     1     -11.550  12.986  69.311  1.00  0.00    -0.279 OA 
ENDBRANCH  11  12
ENDBRANCH  10  11
ENDBRANCH   9  10
ENDBRANCH   7   9
ENDBRANCH   6   7
ENDBRANCH   3   5
ENDBRANCH   2   3
TORSDOF 7
ENDMDL
MODEL      304
REMARK 921   NORMALIZED FREE ENERGY PREDICTED BY IDOCK:   -2.72 KCAL/MOL
REMARK 922        TOTAL FREE ENERGY PREDICTED BY IDOCK:   -4.28 KCAL/MOL
REMARK 923 INTER-LIGAND FREE ENERGY PREDICTED BY IDOCK:   -3.46 KCAL/MOL
REMARK 924 INTRA-LIGAND FREE ENERGY PREDICTED BY IDOCK:   -0.82 KCAL/MOL
REMARK 927      BINDING AFFINITY PREDICTED BY RF-SCORE:    0.00 PKD
ROOT
HETATM    1  C   UNL     1      -6.473  11.191  69.926  1.00  0.00    -0.142 C  
HETATM    2  O   UNL     1      -6.439   9.765  69.980  1.00  0.00    -0.056 OA 
ENDROOT
BRANCH   2   3
HETATM    3  C   UNL     1      -7.665   9.193  69.936  1.00  0.00    -0.087 C  
HETATM    4  O   UNL     1      -8.681   9.598  70.479  1.00  0.00    -0.218 OA 
BRANCH   3   5
HETATM    5  C   UNL     1      -7.575   7.965  69.130  1.00  0.00    -0.098 C  
HETATM    6  C   UNL     1      -8.606   7.651  68.339  1.00  0.00    -0.124 C  
BRANCH   6   7
HETATM    7  C   UNL     1      -8.629   6.361  67.631  1.00  0.00    -0.115 C  
HETATM    8  O   UNL     1      -7.651   5.777  67.201  1.00  0.00    -0.096 OA 
BRANCH   7   9
HETATM    9  O   UNL     1      -9.895   5.889  67.711  1.00  0.00    -0.114 OA 
BRANCH   9  10
HETATM   10  C   UNL     1     -10.791   6.695  68.492  1.00  0.00    -0.258 C  
BRANCH  10  11
HETATM   11  C   UNL     1     -11.120   5.870  69.731  1.00  0.00    -0.352 C  
BRANCH  11  12
HETATM   12  N   UNL     1     -10.812   6.515  70.983  1.00  0.00    -0.242 N  
HETATM   13  C   UNL     1     -11.668   7.348  71.640  1.00  0.00    -0.279 C  
HETATM   14  O   UNL     1     -12.837   7.560  71.364  1.00  0.00    -0.347 OA 
HETATM   15  C   UNL     1     -10.911   8.013  72.751  1.00  0.00    -0.449 C  
HETATM   16  C   UNL     1      -9.663   7.163  72.900  1.00  0.00    -0.200 C  
HETATM   17  C   UNL     1      -9.644   6.324  71.659  1.00  0.00    -0.154 C  
HETATM   18  O   UNL     1      -8.741   5.562  71.347  1.00  0.00    -0.129 OA 
ENDBRANCH  11  12
ENDBRANCH  10  11
ENDBRANCH   9  10
ENDBRANCH   7   9
ENDBRANCH   6   7
ENDBRANCH   3   5
ENDBRANCH   2   3
TORSDOF 7
ENDMDL
MODEL      305
REMARK 921   NORMALIZED FREE ENERGY PREDICTED BY IDOCK:   -2.70 KCAL/MOL
REMARK 922        TOTAL FREE ENERGY PREDICTED BY IDOCK:   -4.25 KCAL/MOL
REMARK 923 INTER-LIGAND FREE ENERGY PREDICTED BY IDOCK:   -3.65 KCAL/MOL
REMARK 924 INTRA-LIGAND FREE ENERGY PREDICTED BY IDOCK:   -0.60 KCAL/MOL
REMARK 927      BINDING AFFINITY PREDICTED BY RF-SCORE:    0.00 PKD
ROOT
HETATM    1  C   UNL     1     -10.541   4.882  66.033  1.00  0.00    -0.261 C  
HETATM    2  O   UNL     1      -9.200   4.553  66.393  1.00  0.00    -0.124 OA 
ENDROOT
BRANCH   2   3
HETATM    3  C   UNL     1      -9.039   4.305  67.714  1.00  0.00    -0.131 C  
HETATM    4  O   UNL     1      -9.734   3.584  68.412  1.00  0.00    -0.127 OA 
BRANCH   3   5
HETATM    5  C   UNL     1      -7.881   5.077  68.192  1.00  0.00    -0.087 C  
HETATM    6  C   UNL     1      -8.006   6.404  68.299  1.00  0.00    -0.106 C  
BRANCH   6   7
HETATM    7  C   UNL     1      -6.835   7.233  68.626  1.00  0.00    -0.076 C  
HETATM    8  O   UNL     1      -5.725   7.103  68.145  1.00  0.00    -0.020 OA 
BRANCH   7   9
HETATM    9  O   UNL     1      -7.276   8.246  69.408  1.00  0.00    -0.057 OA 
BRANCH   9  10
HETATM   10  C   UNL     1      -8.520   8.832  68.994  1.00  0.00    -0.130 C  
BRANCH  10  11
HETATM   11  C   UNL     1      -8.918   9.794  70.107  1.00  0.00    -0.195 C  
BRANCH  11  12
HETATM   12  N   UNL     1      -9.899   9.275  71.028  1.00  0.00    -0.290 N  
HETATM   13  C   UNL     1      -9.587   8.622  72.183  1.00  0.00    -0.307 C  
HETATM   14  O   UNL     1      -8.479   8.503  72.678  1.00  0.00    -0.313 OA 
HETATM   15  C   UNL     1     -10.845   8.020  72.733  1.00  0.00    -0.438 C  
HETATM   16  C   UNL     1     -11.951   8.745  71.989  1.00  0.00    -0.446 C  
HETATM   17  C   UNL     1     -11.243   9.422  70.855  1.00  0.00    -0.325 C  
HETATM   18  O   UNL     1     -11.796  10.041  69.958  1.00  0.00    -0.216 OA 
ENDBRANCH  11  12
ENDBRANCH  10  11
ENDBRANCH   9  10
ENDBRANCH   7   9
ENDBRANCH   6   7
ENDBRANCH   3   5
ENDBRANCH   2   3
TORSDOF 7
ENDMDL
MODEL      306
REMARK 921   NORMALIZED FREE ENERGY PREDICTED BY IDOCK:   -2.70 KCAL/MOL
REMARK 922        TOTAL FREE ENERGY PREDICTED BY IDOCK:   -4.24 KCAL/MOL
REMARK 923 INTER-LIGAND FREE ENERGY PREDICTED BY IDOCK:   -3.89 KCAL/MOL
REMARK 924 INTRA-LIGAND FREE ENERGY PREDICTED BY IDOCK:   -0.36 KCAL/MOL
REMARK 927      BINDING AFFINITY PREDICTED BY RF-SCORE:    0.00 PKD
ROOT
HETATM    1  C   UNL     1      -7.318   2.984  68.591  1.00  0.00    -0.049 C  
HETATM    2  O   UNL     1      -8.682   2.805  68.972  1.00  0.00    -0.069 OA 
ENDROOT
BRANCH   2   3
HETATM    3  C   UNL     1      -9.175   3.823  69.716  1.00  0.00    -0.143 C  
HETATM    4  O   UNL     1      -9.821   3.728  70.747  1.00  0.00    -0.181 OA 
BRANCH   3   5
HETATM    5  C   UNL     1      -8.818   5.091  69.060  1.00  0.00    -0.112 C  
HETATM    6  C   UNL     1      -9.594   5.526  68.062  1.00  0.00    -0.147 C  
BRANCH   6   7
HETATM    7  C   UNL     1      -9.196   6.706  67.277  1.00  0.00    -0.125 C  
HETATM    8  O   UNL     1      -8.982   6.714  66.078  1.00  0.00    -0.154 OA 
BRANCH   7   9
HETATM    9  O   UNL     1      -9.287   7.777  68.099  1.00  0.00    -0.145 OA 
BRANCH   9  10
HETATM   10  C   UNL     1     -10.370   8.673  67.804  1.00  0.00    -0.242 C  
BRANCH  10  11
HETATM   11  C   UNL     1      -9.733  10.045  67.609  1.00  0.00    -0.158 C  
BRANCH  11  12
HETATM   12  N   UNL     1     -10.306  10.828  66.543  1.00  0.00    -0.238 N  
HETATM   13  C   UNL     1      -9.937  10.718  65.235  1.00  0.00    -0.282 C  
HETATM   14  O   UNL     1      -9.199   9.875  64.753  1.00  0.00    -0.219 OA 
HETATM   15  C   UNL     1     -10.559  11.853  64.478  1.00  0.00    -0.358 C  
HETATM   16  C   UNL     1     -11.637  12.367  65.415  1.00  0.00    -0.426 C  
HETATM   17  C   UNL     1     -11.308  11.733  66.731  1.00  0.00    -0.320 C  
HETATM   18  O   UNL     1     -11.889  11.965  67.781  1.00  0.00    -0.518 OA 
ENDBRANCH  11  12
ENDBRANCH  10  11
ENDBRANCH   9  10
ENDBRANCH   7   9
ENDBRANCH   6   7
ENDBRANCH   3   5
ENDBRANCH   2   3
TORSDOF 7
ENDMDL
MODEL      307
REMARK 921   NORMALIZED FREE ENERGY PREDICTED BY IDOCK:   -2.70 KCAL/MOL
REMARK 922        TOTAL FREE ENERGY PREDICTED BY IDOCK:   -4.24 KCAL/MOL
REMARK 923 INTER-LIGAND FREE ENERGY PREDICTED BY IDOCK:   -3.88 KCAL/MOL
REMARK 924 INTRA-LIGAND FREE ENERGY PREDICTED BY IDOCK:   -0.36 KCAL/MOL
REMARK 927      BINDING AFFINITY PREDICTED BY RF-SCORE:    0.00 PKD
ROOT
HETATM    1  C   UNL     1      -6.002   4.017  67.798  1.00  0.00    -0.027 C  
HETATM    2  O   UNL     1      -6.939   2.982  68.094  1.00  0.00    -0.048 OA 
ENDROOT
BRANCH   2   3
HETATM    3  C   UNL     1      -7.658   3.207  69.219  1.00  0.00    -0.047 C  
HETATM    4  O   UNL     1      -7.772   2.457  70.176  1.00  0.00    -0.043 OA 
BRANCH   3   5
HETATM    5  C   UNL     1      -8.311   4.520  69.096  1.00  0.00    -0.086 C  
HETATM    6  C   UNL     1      -9.622   4.552  68.833  1.00  0.00    -0.235 C  
BRANCH   6   7
HETATM    7  C   UNL     1     -10.288   5.833  68.552  1.00  0.00    -0.215 C  
HETATM    8  O   UNL     1     -11.142   6.010  67.702  1.00  0.00    -0.297 OA 
BRANCH   7   9
HETATM    9  O   UNL     1      -9.900   6.700  69.516  1.00  0.00    -0.152 OA 
BRANCH   9  10
HETATM   10  C   UNL     1     -10.969   7.437  70.130  1.00  0.00    -0.255 C  
BRANCH  10  11
HETATM   11  C   UNL     1     -10.330   8.699  70.700  1.00  0.00    -0.202 C  
BRANCH  11  12
HETATM   12  N   UNL     1     -11.144   9.885  70.594  1.00  0.00    -0.317 N  
HETATM   13  C   UNL     1     -11.006  10.815  69.606  1.00  0.00    -0.264 C  
HETATM   14  O   UNL     1     -10.304  10.727  68.614  1.00  0.00    -0.174 OA 
HETATM   15  C   UNL     1     -11.839  12.007  69.970  1.00  0.00    -0.392 C  
HETATM   16  C   UNL     1     -12.769  11.485  71.051  1.00  0.00    -0.426 C  
HETATM   17  C   UNL     1     -12.162  10.176  71.451  1.00  0.00    -0.397 C  
HETATM   18  O   UNL     1     -12.562   9.474  72.368  1.00  0.00    -0.305 OA 
ENDBRANCH  11  12
ENDBRANCH  10  11
ENDBRANCH   9  10
ENDBRANCH   7   9
ENDBRANCH   6   7
ENDBRANCH   3   5
ENDBRANCH   2   3
TORSDOF 7
ENDMDL
MODEL      308
REMARK 921   NORMALIZED FREE ENERGY PREDICTED BY IDOCK:   -2.68 KCAL/MOL
REMARK 922        TOTAL FREE ENERGY PREDICTED BY IDOCK:   -4.21 KCAL/MOL
REMARK 923 INTER-LIGAND FREE ENERGY PREDICTED BY IDOCK:   -3.80 KCAL/MOL
REMARK 924 INTRA-LIGAND FREE ENERGY PREDICTED BY IDOCK:   -0.41 KCAL/MOL
REMARK 927      BINDING AFFINITY PREDICTED BY RF-SCORE:    0.00 PKD
ROOT
HETATM    1  C   UNL     1     -12.437  11.388  70.816  1.00  0.00    -0.365 C  
HETATM    2  O   UNL     1     -13.242  10.211  70.748  1.00  0.00    -0.379 OA 
ENDROOT
BRANCH   2   3
HETATM    3  C   UNL     1     -13.161   9.436  71.855  1.00  0.00    -0.429 C  
HETATM    4  O   UNL     1     -14.049   9.227  72.667  1.00  0.00    -0.477 OA 
BRANCH   3   5
HETATM    5  C   UNL     1     -11.798   8.889  71.940  1.00  0.00    -0.440 C  
HETATM    6  C   UNL     1     -11.592   7.637  71.518  1.00  0.00    -0.304 C  
BRANCH   6   7
HETATM    7  C   UNL     1     -10.283   6.995  71.721  1.00  0.00    -0.192 C  
HETATM    8  O   UNL     1      -9.364   7.461  72.368  1.00  0.00    -0.139 OA 
BRANCH   7   9
HETATM    9  O   UNL     1     -10.374   5.745  71.209  1.00  0.00    -0.206 OA 
BRANCH   9  10
HETATM   10  C   UNL     1     -10.063   5.642  69.811  1.00  0.00    -0.218 C  
BRANCH  10  11
HETATM   11  C   UNL     1      -8.647   5.080  69.740  1.00  0.00    -0.088 C  
BRANCH  11  12
HETATM   12  N   UNL     1      -8.000   5.239  68.461  1.00  0.00    -0.087 N  
HETATM   13  C   UNL     1      -7.059   6.191  68.198  1.00  0.00    -0.082 C  
HETATM   14  O   UNL     1      -6.528   6.935  69.005  1.00  0.00    -0.034 OA 
HETATM   15  C   UNL     1      -6.814   6.207  66.719  1.00  0.00    -0.062 C  
HETATM   16  C   UNL     1      -7.408   4.896  66.237  1.00  0.00    -0.078 C  
HETATM   17  C   UNL     1      -8.236   4.426  67.394  1.00  0.00    -0.100 C  
HETATM   18  O   UNL     1      -8.959   3.441  67.378  1.00  0.00    -0.123 OA 
ENDBRANCH  11  12
ENDBRANCH  10  11
ENDBRANCH   9  10
ENDBRANCH   7   9
ENDBRANCH   6   7
ENDBRANCH   3   5
ENDBRANCH   2   3
TORSDOF 7
ENDMDL
MODEL      309
REMARK 921   NORMALIZED FREE ENERGY PREDICTED BY IDOCK:   -2.67 KCAL/MOL
REMARK 922        TOTAL FREE ENERGY PREDICTED BY IDOCK:   -4.20 KCAL/MOL
REMARK 923 INTER-LIGAND FREE ENERGY PREDICTED BY IDOCK:   -3.77 KCAL/MOL
REMARK 924 INTRA-LIGAND FREE ENERGY PREDICTED BY IDOCK:   -0.44 KCAL/MOL
REMARK 927      BINDING AFFINITY PREDICTED BY RF-SCORE:    0.00 PKD
ROOT
HETATM    1  C   UNL     1     -10.576   4.878  66.100  1.00  0.00    -0.271 C  
HETATM    2  O   UNL     1      -9.180   5.057  65.861  1.00  0.00    -0.147 OA 
ENDROOT
BRANCH   2   3
HETATM    3  C   UNL     1      -8.455   5.228  66.991  1.00  0.00    -0.106 C  
HETATM    4  O   UNL     1      -8.478   4.523  67.988  1.00  0.00    -0.097 OA 
BRANCH   3   5
HETATM    5  C   UNL     1      -7.632   6.437  66.834  1.00  0.00    -0.095 C  
HETATM    6  C   UNL     1      -8.234   7.628  66.923  1.00  0.00    -0.120 C  
BRANCH   6   7
HETATM    7  C   UNL     1      -7.486   8.859  66.624  1.00  0.00    -0.086 C  
HETATM    8  O   UNL     1      -6.790   9.038  65.642  1.00  0.00    -0.074 OA 
BRANCH   7   9
HETATM    9  O   UNL     1      -7.861   9.781  67.541  1.00  0.00    -0.095 OA 
BRANCH   9  10
HETATM   10  C   UNL     1      -9.276   9.858  67.775  1.00  0.00    -0.130 C  
BRANCH  10  11
HETATM   11  C   UNL     1      -9.453  10.832  68.936  1.00  0.00    -0.181 C  
BRANCH  11  12
HETATM   12  N   UNL     1     -10.544  10.516  69.824  1.00  0.00    -0.247 N  
HETATM   13  C   UNL     1     -11.733  11.184  69.834  1.00  0.00    -0.355 C  
HETATM   14  O   UNL     1     -12.106  12.024  69.032  1.00  0.00    -0.271 OA 
HETATM   15  C   UNL     1     -12.504  10.746  71.043  1.00  0.00    -0.522 C  
HETATM   16  C   UNL     1     -11.803   9.472  71.479  1.00  0.00    -0.478 C  
HETATM   17  C   UNL     1     -10.512   9.489  70.719  1.00  0.00    -0.314 C  
HETATM   18  O   UNL     1      -9.611   8.675  70.857  1.00  0.00    -0.175 OA 
ENDBRANCH  11  12
ENDBRANCH  10  11
ENDBRANCH   9  10
ENDBRANCH   7   9
ENDBRANCH   6   7
ENDBRANCH   3   5
ENDBRANCH   2   3
TORSDOF 7
ENDMDL
MODEL      310
REMARK 921   NORMALIZED FREE ENERGY PREDICTED BY IDOCK:   -2.64 KCAL/MOL
REMARK 922        TOTAL FREE ENERGY PREDICTED BY IDOCK:   -4.16 KCAL/MOL
REMARK 923 INTER-LIGAND FREE ENERGY PREDICTED BY IDOCK:   -3.80 KCAL/MOL
REMARK 924 INTRA-LIGAND FREE ENERGY PREDICTED BY IDOCK:   -0.36 KCAL/MOL
REMARK 927      BINDING AFFINITY PREDICTED BY RF-SCORE:    0.00 PKD
ROOT
HETATM    1  C   UNL     1      -7.352   4.716  69.409  1.00  0.00    -0.052 C  
HETATM    2  O   UNL     1      -8.386   5.387  68.690  1.00  0.00    -0.094 OA 
ENDROOT
BRANCH   2   3
HETATM    3  C   UNL     1      -8.643   4.844  67.477  1.00  0.00    -0.104 C  
HETATM    4  O   UNL     1      -8.650   3.656  67.196  1.00  0.00    -0.102 OA 
BRANCH   3   5
HETATM    5  C   UNL     1      -8.898   5.936  66.525  1.00  0.00    -0.128 C  
HETATM    6  C   UNL     1      -8.314   7.118  66.748  1.00  0.00    -0.116 C  
BRANCH   6   7
HETATM    7  C   UNL     1      -8.655   8.281  65.913  1.00  0.00    -0.150 C  
HETATM    8  O   UNL     1      -8.741   8.274  64.699  1.00  0.00    -0.051 OA 
BRANCH   7   9
HETATM    9  O   UNL     1      -9.016   9.278  66.754  1.00  0.00    -0.128 OA 
BRANCH   9  10
HETATM   10  C   UNL     1     -10.182  10.014  66.351  1.00  0.00    -0.221 C  
BRANCH  10  11
HETATM   11  C   UNL     1      -9.671  11.357  65.843  1.00  0.00    -0.227 C  
BRANCH  11  12
HETATM   12  N   UNL     1     -10.660  12.407  65.819  1.00  0.00    -0.250 N  
HETATM   13  C   UNL     1     -10.984  13.171  66.901  1.00  0.00    -0.276 C  
HETATM   14  O   UNL     1     -10.413  13.190  67.978  1.00  0.00    -0.226 OA 
HETATM   15  C   UNL     1     -12.209  13.965  66.561  1.00  0.00    -0.482 C  
HETATM   16  C   UNL     1     -12.295  13.872  65.049  1.00  0.00    -0.452 C  
HETATM   17  C   UNL     1     -11.345  12.768  64.698  1.00  0.00    -0.321 C  
HETATM   18  O   UNL     1     -11.189  12.315  63.574  1.00  0.00    -0.425 OA 
ENDBRANCH  11  12
ENDBRANCH  10  11
ENDBRANCH   9  10
ENDBRANCH   7   9
ENDBRANCH   6   7
ENDBRANCH   3   5
ENDBRANCH   2   3
TORSDOF 7
ENDMDL
MODEL      311
REMARK 921   NORMALIZED FREE ENERGY PREDICTED BY IDOCK:   -2.62 KCAL/MOL
REMARK 922        TOTAL FREE ENERGY PREDICTED BY IDOCK:   -4.14 KCAL/MOL
REMARK 923 INTER-LIGAND FREE ENERGY PREDICTED BY IDOCK:   -3.75 KCAL/MOL
REMARK 924 INTRA-LIGAND FREE ENERGY PREDICTED BY IDOCK:   -0.38 KCAL/MOL
REMARK 927      BINDING AFFINITY PREDICTED BY RF-SCORE:    0.00 PKD
ROOT
HETATM    1  C   UNL     1     -11.112  13.753  65.044  1.00  0.00    -0.346 C  
HETATM    2  O   UNL     1     -10.274  12.751  65.619  1.00  0.00    -0.273 OA 
ENDROOT
BRANCH   2   3
HETATM    3  C   UNL     1     -10.193  11.622  64.877  1.00  0.00    -0.270 C  
HETATM    4  O   UNL     1     -10.169  11.548  63.659  1.00  0.00    -0.323 OA 
BRANCH   3   5
HETATM    5  C   UNL     1     -10.159  10.468  65.790  1.00  0.00    -0.329 C  
HETATM    6  C   UNL     1      -9.332   9.458  65.502  1.00  0.00    -0.315 C  
BRANCH   6   7
HETATM    7  C   UNL     1      -9.371   8.221  66.297  1.00  0.00    -0.204 C  
HETATM    8  O   UNL     1      -8.970   7.133  65.927  1.00  0.00    -0.146 OA 
BRANCH   7   9
HETATM    9  O   UNL     1      -9.766   8.566  67.545  1.00  0.00    -0.148 OA 
BRANCH   9  10
HETATM   10  C   UNL     1      -8.800   8.309  68.576  1.00  0.00    -0.137 C  
BRANCH  10  11
HETATM   11  C   UNL     1      -9.508   8.607  69.893  1.00  0.00    -0.167 C  
BRANCH  11  12
HETATM   12  N   UNL     1      -9.919   7.439  70.633  1.00  0.00    -0.186 N  
HETATM   13  C   UNL     1     -11.203   6.982  70.681  1.00  0.00    -0.288 C  
HETATM   14  O   UNL     1     -12.145   7.382  70.019  1.00  0.00     0.140 OA 
HETATM   15  C   UNL     1     -11.281   5.919  71.735  1.00  0.00    -0.311 C  
HETATM   16  C   UNL     1      -9.830   5.546  71.983  1.00  0.00    -0.204 C  
HETATM   17  C   UNL     1      -9.054   6.648  71.329  1.00  0.00    -0.151 C  
HETATM   18  O   UNL     1      -7.840   6.771  71.381  1.00  0.00    -0.096 OA 
ENDBRANCH  11  12
ENDBRANCH  10  11
ENDBRANCH   9  10
ENDBRANCH   7   9
ENDBRANCH   6   7
ENDBRANCH   3   5
ENDBRANCH   2   3
TORSDOF 7
ENDMDL
MODEL      312
REMARK 921   NORMALIZED FREE ENERGY PREDICTED BY IDOCK:   -2.61 KCAL/MOL
REMARK 922        TOTAL FREE ENERGY PREDICTED BY IDOCK:   -4.11 KCAL/MOL
REMARK 923 INTER-LIGAND FREE ENERGY PREDICTED BY IDOCK:   -3.85 KCAL/MOL
REMARK 924 INTRA-LIGAND FREE ENERGY PREDICTED BY IDOCK:   -0.26 KCAL/MOL
REMARK 927      BINDING AFFINITY PREDICTED BY RF-SCORE:    0.00 PKD
ROOT
HETATM    1  C   UNL     1     -11.737  11.469  69.929  1.00  0.00    -0.343 C  
HETATM    2  O   UNL     1     -12.604  10.370  70.208  1.00  0.00    -0.280 OA 
ENDROOT
BRANCH   2   3
HETATM    3  C   UNL     1     -12.158   9.567  71.202  1.00  0.00    -0.347 C  
HETATM    4  O   UNL     1     -12.643   9.445  72.316  1.00  0.00    -0.359 OA 
BRANCH   3   5
HETATM    5  C   UNL     1     -10.957   8.864  70.726  1.00  0.00    -0.305 C  
HETATM    6  C   UNL     1     -11.021   8.227  69.552  1.00  0.00    -0.051 C  
BRANCH   6   7
HETATM    7  C   UNL     1      -9.899   7.386  69.105  1.00  0.00    -0.168 C  
HETATM    8  O   UNL     1      -9.031   6.930  69.825  1.00  0.00    -0.141 OA 
BRANCH   7   9
HETATM    9  O   UNL     1     -10.124   7.088  67.803  1.00  0.00    -0.148 OA 
BRANCH   9  10
HETATM   10  C   UNL     1     -10.555   8.195  66.997  1.00  0.00    -0.275 C  
BRANCH  10  11
HETATM   11  C   UNL     1      -9.291   8.976  66.654  1.00  0.00    -0.177 C  
BRANCH  11  12
HETATM   12  N   UNL     1      -8.944   8.974  65.254  1.00  0.00    -0.198 N  
HETATM   13  C   UNL     1      -9.222  10.000  64.400  1.00  0.00    -0.266 C  
HETATM   14  O   UNL     1      -9.658  11.099  64.697  1.00  0.00    -0.234 OA 
HETATM   15  C   UNL     1      -8.944   9.532  63.003  1.00  0.00    -0.221 C  
HETATM   16  C   UNL     1      -8.099   8.286  63.198  1.00  0.00    -0.142 C  
HETATM   17  C   UNL     1      -8.265   7.958  64.650  1.00  0.00    -0.091 C  
HETATM   18  O   UNL     1      -7.814   6.962  65.195  1.00  0.00    -0.105 OA 
ENDBRANCH  11  12
ENDBRANCH  10  11
ENDBRANCH   9  10
ENDBRANCH   7   9
ENDBRANCH   6   7
ENDBRANCH   3   5
ENDBRANCH   2   3
TORSDOF 7
ENDMDL
MODEL      313
REMARK 921   NORMALIZED FREE ENERGY PREDICTED BY IDOCK:   -2.59 KCAL/MOL
REMARK 922        TOTAL FREE ENERGY PREDICTED BY IDOCK:   -4.09 KCAL/MOL
REMARK 923 INTER-LIGAND FREE ENERGY PREDICTED BY IDOCK:   -3.74 KCAL/MOL
REMARK 924 INTRA-LIGAND FREE ENERGY PREDICTED BY IDOCK:   -0.36 KCAL/MOL
REMARK 927      BINDING AFFINITY PREDICTED BY RF-SCORE:    0.00 PKD
ROOT
HETATM    1  C   UNL     1     -10.773  10.195  68.905  1.00  0.00    -0.223 C  
HETATM    2  O   UNL     1      -9.770   9.532  68.136  1.00  0.00    -0.143 OA 
ENDROOT
BRANCH   2   3
HETATM    3  C   UNL     1     -10.204   9.118  66.922  1.00  0.00    -0.266 C  
HETATM    4  O   UNL     1     -10.249   9.780  65.898  1.00  0.00    -0.259 OA 
BRANCH   3   5
HETATM    5  C   UNL     1     -10.644   7.719  67.040  1.00  0.00    -0.396 C  
HETATM    6  C   UNL     1      -9.957   6.907  67.851  1.00  0.00    -0.174 C  
BRANCH   6   7
HETATM    7  C   UNL     1     -10.263   5.468  67.888  1.00  0.00    -0.181 C  
HETATM    8  O   UNL     1     -10.057   4.682  66.981  1.00  0.00    -0.203 OA 
BRANCH   7   9
HETATM    9  O   UNL     1     -10.639   5.177  69.155  1.00  0.00    -0.166 OA 
BRANCH   9  10
HETATM   10  C   UNL     1     -10.539   6.271  70.080  1.00  0.00    -0.248 C  
BRANCH  10  11
HETATM   11  C   UNL     1     -11.086   5.747  71.404  1.00  0.00    -0.204 C  
BRANCH  11  12
HETATM   12  N   UNL     1     -10.155   5.806  72.504  1.00  0.00    -0.178 N  
HETATM   13  C   UNL     1      -9.335   4.777  72.862  1.00  0.00    -0.127 C  
HETATM   14  O   UNL     1      -9.157   3.738  72.250  1.00  0.00    -0.109 OA 
HETATM   15  C   UNL     1      -8.712   5.117  74.183  1.00  0.00    -0.113 C  
HETATM   16  C   UNL     1      -8.950   6.609  74.325  1.00  0.00    -0.195 C  
HETATM   17  C   UNL     1      -9.973   6.916  73.274  1.00  0.00    -0.215 C  
HETATM   18  O   UNL     1     -10.507   8.003  73.118  1.00  0.00    -0.338 OA 
ENDBRANCH  11  12
ENDBRANCH  10  11
ENDBRANCH   9  10
ENDBRANCH   7   9
ENDBRANCH   6   7
ENDBRANCH   3   5
ENDBRANCH   2   3
TORSDOF 7
ENDMDL
MODEL      314
REMARK 921   NORMALIZED FREE ENERGY PREDICTED BY IDOCK:   -2.59 KCAL/MOL
REMARK 922        TOTAL FREE ENERGY PREDICTED BY IDOCK:   -4.09 KCAL/MOL
REMARK 923 INTER-LIGAND FREE ENERGY PREDICTED BY IDOCK:   -3.57 KCAL/MOL
REMARK 924 INTRA-LIGAND FREE ENERGY PREDICTED BY IDOCK:   -0.51 KCAL/MOL
REMARK 927      BINDING AFFINITY PREDICTED BY RF-SCORE:    0.00 PKD
ROOT
HETATM    1  C   UNL     1     -13.551  10.563  70.973  1.00  0.00     0.228 C  
HETATM    2  O   UNL     1     -12.468  11.392  70.550  1.00  0.00    -0.318 OA 
ENDROOT
BRANCH   2   3
HETATM    3  C   UNL     1     -11.746  10.862  69.535  1.00  0.00    -0.328 C  
HETATM    4  O   UNL     1     -12.109  10.714  68.379  1.00  0.00    -0.423 OA 
BRANCH   3   5
HETATM    5  C   UNL     1     -10.431  10.464  70.061  1.00  0.00    -0.235 C  
HETATM    6  C   UNL     1      -9.366  10.589  69.261  1.00  0.00    -0.177 C  
BRANCH   6   7
HETATM    7  C   UNL     1      -8.058  10.066  69.686  1.00  0.00    -0.172 C  
HETATM    8  O   UNL     1      -6.994  10.308  69.145  1.00  0.00    -0.056 OA 
BRANCH   7   9
HETATM    9  O   UNL     1      -8.251   9.428  70.864  1.00  0.00    -0.255 OA 
BRANCH   9  10
HETATM   10  C   UNL     1      -7.173   8.571  71.270  1.00  0.00    -0.081 C  
BRANCH  10  11
HETATM   11  C   UNL     1      -7.807   7.484  72.130  1.00  0.00    -0.093 C  
BRANCH  11  12
HETATM   12  N   UNL     1      -9.081   7.006  71.653  1.00  0.00    -0.139 N  
HETATM   13  C   UNL     1     -10.270   7.271  72.265  1.00  0.00    -0.196 C  
HETATM   14  O   UNL     1     -10.459   8.041  73.191  1.00  0.00    -0.338 OA 
HETATM   15  C   UNL     1     -11.322   6.408  71.634  1.00  0.00    -0.339 C  
HETATM   16  C   UNL     1     -10.679   5.939  70.341  1.00  0.00    -0.373 C  
HETATM   17  C   UNL     1      -9.229   6.272  70.514  1.00  0.00    -0.158 C  
HETATM   18  O   UNL     1      -8.346   5.970  69.725  1.00  0.00    -0.121 OA 
ENDBRANCH  11  12
ENDBRANCH  10  11
ENDBRANCH   9  10
ENDBRANCH   7   9
ENDBRANCH   6   7
ENDBRANCH   3   5
ENDBRANCH   2   3
TORSDOF 7
ENDMDL
MODEL      315
REMARK 921   NORMALIZED FREE ENERGY PREDICTED BY IDOCK:   -2.59 KCAL/MOL
REMARK 922        TOTAL FREE ENERGY PREDICTED BY IDOCK:   -4.08 KCAL/MOL
REMARK 923 INTER-LIGAND FREE ENERGY PREDICTED BY IDOCK:   -3.64 KCAL/MOL
REMARK 924 INTRA-LIGAND FREE ENERGY PREDICTED BY IDOCK:   -0.44 KCAL/MOL
REMARK 927      BINDING AFFINITY PREDICTED BY RF-SCORE:    0.00 PKD
ROOT
HETATM    1  C   UNL     1      -5.864  12.448  67.903  1.00  0.00    -0.086 C  
HETATM    2  O   UNL     1      -6.914  12.086  68.800  1.00  0.00    -0.090 OA 
ENDROOT
BRANCH   2   3
HETATM    3  C   UNL     1      -7.918  11.397  68.210  1.00  0.00    -0.136 C  
HETATM    4  O   UNL     1      -8.222  11.417  67.027  1.00  0.00    -0.146 OA 
BRANCH   3   5
HETATM    5  C   UNL     1      -8.615  10.616  69.244  1.00  0.00    -0.096 C  
HETATM    6  C   UNL     1      -9.949  10.692  69.302  1.00  0.00    -0.215 C  
BRANCH   6   7
HETATM    7  C   UNL     1     -10.678  10.053  70.408  1.00  0.00    -0.307 C  
HETATM    8  O   UNL     1     -11.890  10.010  70.520  1.00  0.00    -0.280 OA 
BRANCH   7   9
HETATM    9  O   UNL     1      -9.763   9.393  71.155  1.00  0.00    -0.270 OA 
BRANCH   9  10
HETATM   10  C   UNL     1     -10.085   8.020  71.429  1.00  0.00    -0.185 C  
BRANCH  10  11
HETATM   11  C   UNL     1      -9.133   7.191  70.574  1.00  0.00    -0.155 C  
BRANCH  11  12
HETATM   12  N   UNL     1      -9.609   6.912  69.242  1.00  0.00    -0.149 N  
HETATM   13  C   UNL     1     -10.864   6.456  68.964  1.00  0.00    -0.327 C  
HETATM   14  O   UNL     1     -11.794   6.353  69.746  1.00  0.00    -0.357 OA 
HETATM   15  C   UNL     1     -10.902   6.047  67.522  1.00  0.00    -0.393 C  
HETATM   16  C   UNL     1      -9.668   6.700  66.926  1.00  0.00    -0.209 C  
HETATM   17  C   UNL     1      -8.864   7.115  68.119  1.00  0.00    -0.126 C  
HETATM   18  O   UNL     1      -7.743   7.600  68.070  1.00  0.00    -0.114 OA 
ENDBRANCH  11  12
ENDBRANCH  10  11
ENDBRANCH   9  10
ENDBRANCH   7   9
ENDBRANCH   6   7
ENDBRANCH   3   5
ENDBRANCH   2   3
TORSDOF 7
ENDMDL
MODEL      316
REMARK 921   NORMALIZED FREE ENERGY PREDICTED BY IDOCK:   -2.58 KCAL/MOL
REMARK 922        TOTAL FREE ENERGY PREDICTED BY IDOCK:   -4.08 KCAL/MOL
REMARK 923 INTER-LIGAND FREE ENERGY PREDICTED BY IDOCK:   -3.67 KCAL/MOL
REMARK 924 INTRA-LIGAND FREE ENERGY PREDICTED BY IDOCK:   -0.41 KCAL/MOL
REMARK 927      BINDING AFFINITY PREDICTED BY RF-SCORE:    0.00 PKD
ROOT
HETATM    1  C   UNL     1      -8.954   4.223  66.107  1.00  0.00    -0.123 C  
HETATM    2  O   UNL     1      -8.823   5.576  65.672  1.00  0.00    -0.150 OA 
ENDROOT
BRANCH   2   3
HETATM    3  C   UNL     1      -8.148   6.362  66.544  1.00  0.00    -0.111 C  
HETATM    4  O   UNL     1      -7.430   5.990  67.458  1.00  0.00    -0.079 OA 
BRANCH   3   5
HETATM    5  C   UNL     1      -8.440   7.768  66.222  1.00  0.00    -0.143 C  
HETATM    6  C   UNL     1      -8.808   8.066  64.971  1.00  0.00     0.126 C  
BRANCH   6   7
HETATM    7  C   UNL     1      -8.964   9.471  64.562  1.00  0.00    -0.212 C  
HETATM    8  O   UNL     1      -8.244  10.059  63.776  1.00  0.00    -0.146 OA 
BRANCH   7   9
HETATM    9  O   UNL     1     -10.134   9.907  65.084  1.00  0.00    -0.309 OA 
BRANCH   9  10
HETATM   10  C   UNL     1     -10.291  11.334  65.105  1.00  0.00    -0.295 C  
BRANCH  10  11
HETATM   11  C   UNL     1     -11.009  11.655  66.411  1.00  0.00    -0.295 C  
BRANCH  11  12
HETATM   12  N   UNL     1     -10.781  12.988  66.912  1.00  0.00    -0.261 N  
HETATM   13  C   UNL     1     -11.429  14.095  66.448  1.00  0.00    -0.354 C  
HETATM   14  O   UNL     1     -12.369  14.120  65.673  1.00  0.00    -0.429 OA 
HETATM   15  C   UNL     1     -10.752  15.304  67.022  1.00  0.00    -0.313 C  
HETATM   16  C   UNL     1      -9.926  14.749  68.168  1.00  0.00    -0.221 C  
HETATM   17  C   UNL     1      -9.921  13.270  67.930  1.00  0.00    -0.233 C  
HETATM   18  O   UNL     1      -9.282  12.461  68.586  1.00  0.00    -0.119 OA 
ENDBRANCH  11  12
ENDBRANCH  10  11
ENDBRANCH   9  10
ENDBRANCH   7   9
ENDBRANCH   6   7
ENDBRANCH   3   5
ENDBRANCH   2   3
TORSDOF 7
ENDMDL
MODEL      317
REMARK 921   NORMALIZED FREE ENERGY PREDICTED BY IDOCK:   -2.57 KCAL/MOL
REMARK 922        TOTAL FREE ENERGY PREDICTED BY IDOCK:   -4.06 KCAL/MOL
REMARK 923 INTER-LIGAND FREE ENERGY PREDICTED BY IDOCK:   -3.58 KCAL/MOL
REMARK 924 INTRA-LIGAND FREE ENERGY PREDICTED BY IDOCK:   -0.48 KCAL/MOL
REMARK 927      BINDING AFFINITY PREDICTED BY RF-SCORE:    0.00 PKD
ROOT
HETATM    1  C   UNL     1      -5.774   4.451  70.427  1.00  0.00    -0.013 C  
HETATM    2  O   UNL     1      -7.200   4.480  70.482  1.00  0.00    -0.046 OA 
ENDROOT
BRANCH   2   3
HETATM    3  C   UNL     1      -7.692   4.613  71.736  1.00  0.00    -0.096 C  
HETATM    4  O   UNL     1      -8.127   3.722  72.448  1.00  0.00    -0.071 OA 
BRANCH   3   5
HETATM    5  C   UNL     1      -7.637   6.036  72.107  1.00  0.00    -0.097 C  
HETATM    6  C   UNL     1      -8.229   6.416  73.244  1.00  0.00    -0.114 C  
BRANCH   6   7
HETATM    7  C   UNL     1      -8.333   7.845  73.581  1.00  0.00    -0.227 C  
HETATM    8  O   UNL     1      -7.438   8.523  74.051  1.00  0.00    -0.318 OA 
BRANCH   7   9
HETATM    9  O   UNL     1      -9.527   8.275  73.112  1.00  0.00    -0.257 OA 
BRANCH   9  10
HETATM   10  C   UNL     1     -10.639   7.418  73.415  1.00  0.00    -0.377 C  
BRANCH  10  11
HETATM   11  C   UNL     1     -11.703   7.731  72.369  1.00  0.00    -0.341 C  
BRANCH  11  12
HETATM   12  N   UNL     1     -11.196   8.313  71.150  1.00  0.00    -0.252 N  
HETATM   13  C   UNL     1     -10.688   7.585  70.115  1.00  0.00    -0.239 C  
HETATM   14  O   UNL     1     -10.713   6.372  69.993  1.00  0.00    -0.213 OA 
HETATM   15  C   UNL     1     -10.038   8.534  69.153  1.00  0.00    -0.207 C  
HETATM   16  C   UNL     1     -10.590   9.891  69.551  1.00  0.00    -0.264 C  
HETATM   17  C   UNL     1     -11.210   9.651  70.894  1.00  0.00    -0.352 C  
HETATM   18  O   UNL     1     -11.689  10.521  71.606  1.00  0.00    -0.096 OA 
ENDBRANCH  11  12
ENDBRANCH  10  11
ENDBRANCH   9  10
ENDBRANCH   7   9
ENDBRANCH   6   7
ENDBRANCH   3   5
ENDBRANCH   2   3
TORSDOF 7
ENDMDL
MODEL      318
REMARK 921   NORMALIZED FREE ENERGY PREDICTED BY IDOCK:   -2.57 KCAL/MOL
REMARK 922        TOTAL FREE ENERGY PREDICTED BY IDOCK:   -4.06 KCAL/MOL
REMARK 923 INTER-LIGAND FREE ENERGY PREDICTED BY IDOCK:   -3.95 KCAL/MOL
REMARK 924 INTRA-LIGAND FREE ENERGY PREDICTED BY IDOCK:   -0.11 KCAL/MOL
REMARK 927      BINDING AFFINITY PREDICTED BY RF-SCORE:    0.00 PKD
ROOT
HETATM    1  C   UNL     1      -9.489   4.340  71.205  1.00  0.00    -0.160 C  
HETATM    2  O   UNL     1     -10.637   5.002  71.736  1.00  0.00    -0.201 OA 
ENDROOT
BRANCH   2   3
HETATM    3  C   UNL     1     -10.833   6.239  71.223  1.00  0.00    -0.265 C  
HETATM    4  O   UNL     1     -11.382   7.180  71.775  1.00  0.00    -0.241 OA 
BRANCH   3   5
HETATM    5  C   UNL     1     -10.289   6.266  69.856  1.00  0.00    -0.249 C  
HETATM    6  C   UNL     1     -11.148   6.353  68.835  1.00  0.00    -0.420 C  
BRANCH   6   7
HETATM    7  C   UNL     1     -10.666   6.231  67.450  1.00  0.00    -0.331 C  
HETATM    8  O   UNL     1     -10.307   5.197  66.919  1.00  0.00    -0.224 OA 
BRANCH   7   9
HETATM    9  O   UNL     1     -10.865   7.431  66.856  1.00  0.00    -0.357 OA 
BRANCH   9  10
HETATM   10  C   UNL     1     -10.465   8.566  67.640  1.00  0.00    -0.241 C  
BRANCH  10  11
HETATM   11  C   UNL     1     -10.346   9.728  66.659  1.00  0.00    -0.206 C  
BRANCH  11  12
HETATM   12  N   UNL     1      -9.200  10.577  66.869  1.00  0.00    -0.154 N  
HETATM   13  C   UNL     1      -9.214  11.694  67.651  1.00  0.00    -0.178 C  
HETATM   14  O   UNL     1     -10.116  12.060  68.385  1.00  0.00    -0.204 OA 
HETATM   15  C   UNL     1      -7.934  12.440  67.422  1.00  0.00    -0.178 C  
HETATM   16  C   UNL     1      -7.035  11.420  66.746  1.00  0.00    -0.128 C  
HETATM   17  C   UNL     1      -7.971  10.325  66.336  1.00  0.00    -0.121 C  
HETATM   18  O   UNL     1      -7.654   9.349  65.673  1.00  0.00    -0.093 OA 
ENDBRANCH  11  12
ENDBRANCH  10  11
ENDBRANCH   9  10
ENDBRANCH   7   9
ENDBRANCH   6   7
ENDBRANCH   3   5
ENDBRANCH   2   3
TORSDOF 7
ENDMDL
MODEL      319
REMARK 921   NORMALIZED FREE ENERGY PREDICTED BY IDOCK:   -2.56 KCAL/MOL
REMARK 922        TOTAL FREE ENERGY PREDICTED BY IDOCK:   -4.05 KCAL/MOL
REMARK 923 INTER-LIGAND FREE ENERGY PREDICTED BY IDOCK:   -3.47 KCAL/MOL
REMARK 924 INTRA-LIGAND FREE ENERGY PREDICTED BY IDOCK:   -0.59 KCAL/MOL
REMARK 927      BINDING AFFINITY PREDICTED BY RF-SCORE:    0.00 PKD
ROOT
HETATM    1  C   UNL     1      -9.801   3.927  71.502  1.00  0.00    -0.177 C  
HETATM    2  O   UNL     1     -10.667   4.870  72.132  1.00  0.00    -0.198 OA 
ENDROOT
BRANCH   2   3
HETATM    3  C   UNL     1     -10.914   5.967  71.378  1.00  0.00    -0.276 C  
HETATM    4  O   UNL     1     -11.512   6.973  71.724  1.00  0.00    -0.248 OA 
BRANCH   3   5
HETATM    5  C   UNL     1     -10.353   5.742  70.036  1.00  0.00    -0.328 C  
HETATM    6  C   UNL     1     -11.044   6.184  68.980  1.00  0.00    -0.437 C  
BRANCH   6   7
HETATM    7  C   UNL     1     -10.602   5.852  67.616  1.00  0.00    -0.262 C  
HETATM    8  O   UNL     1     -10.187   4.766  67.256  1.00  0.00    -0.171 OA 
BRANCH   7   9
HETATM    9  O   UNL     1     -10.910   6.912  66.832  1.00  0.00    -0.351 OA 
BRANCH   9  10
HETATM   10  C   UNL     1     -10.506   8.186  67.356  1.00  0.00    -0.285 C  
BRANCH  10  11
HETATM   11  C   UNL     1      -9.069   8.392  66.888  1.00  0.00    -0.148 C  
BRANCH  11  12
HETATM   12  N   UNL     1      -8.063   7.965  67.829  1.00  0.00    -0.127 N  
HETATM   13  C   UNL     1      -7.941   8.468  69.091  1.00  0.00    -0.112 C  
HETATM   14  O   UNL     1      -8.716   9.221  69.655  1.00  0.00    -0.132 OA 
HETATM   15  C   UNL     1      -6.647   7.974  69.666  1.00  0.00    -0.038 C  
HETATM   16  C   UNL     1      -6.261   6.822  68.756  1.00  0.00    -0.027 C  
HETATM   17  C   UNL     1      -7.155   6.984  67.565  1.00  0.00    -0.085 C  
HETATM   18  O   UNL     1      -7.097   6.303  66.552  1.00  0.00    -0.065 OA 
ENDBRANCH  11  12
ENDBRANCH  10  11
ENDBRANCH   9  10
ENDBRANCH   7   9
ENDBRANCH   6   7
ENDBRANCH   3   5
ENDBRANCH   2   3
TORSDOF 7
ENDMDL
MODEL      320
REMARK 921   NORMALIZED FREE ENERGY PREDICTED BY IDOCK:   -2.56 KCAL/MOL
REMARK 922        TOTAL FREE ENERGY PREDICTED BY IDOCK:   -4.05 KCAL/MOL
REMARK 923 INTER-LIGAND FREE ENERGY PREDICTED BY IDOCK:   -3.58 KCAL/MOL
REMARK 924 INTRA-LIGAND FREE ENERGY PREDICTED BY IDOCK:   -0.47 KCAL/MOL
REMARK 927      BINDING AFFINITY PREDICTED BY RF-SCORE:    0.00 PKD
ROOT
HETATM    1  C   UNL     1      -8.984  11.994  68.954  1.00  0.00     0.213 C  
HETATM    2  O   UNL     1      -8.703  10.647  68.571  1.00  0.00    -0.127 OA 
ENDROOT
BRANCH   2   3
HETATM    3  C   UNL     1      -9.446  10.216  67.525  1.00  0.00    -0.152 C  
HETATM    4  O   UNL     1      -9.510  10.723  66.416  1.00  0.00    -0.165 OA 
BRANCH   3   5
HETATM    5  C   UNL     1     -10.199   9.026  67.951  1.00  0.00    -0.272 C  
HETATM    6  C   UNL     1     -10.292   8.772  69.261  1.00  0.00    -0.221 C  
BRANCH   6   7
HETATM    7  C   UNL     1     -10.903   7.518  69.729  1.00  0.00    -0.225 C  
HETATM    8  O   UNL     1     -10.485   6.400  69.490  1.00  0.00    -0.194 OA 
BRANCH   7   9
HETATM    9  O   UNL     1     -11.885   7.857  70.597  1.00  0.00    -0.226 OA 
BRANCH   9  10
HETATM   10  C   UNL     1     -11.503   8.815  71.596  1.00  0.00    -0.316 C  
BRANCH  10  11
HETATM   11  C   UNL     1     -11.512   8.061  72.921  1.00  0.00    -0.264 C  
BRANCH  11  12
HETATM   12  N   UNL     1     -10.409   7.149  73.100  1.00  0.00    -0.260 N  
HETATM   13  C   UNL     1     -10.550   5.796  73.200  1.00  0.00    -0.244 C  
HETATM   14  O   UNL     1     -11.569   5.153  73.016  1.00  0.00    -0.320 OA 
HETATM   15  C   UNL     1      -9.233   5.221  73.629  1.00  0.00    -0.129 C  
HETATM   16  C   UNL     1      -8.243   6.340  73.362  1.00  0.00    -0.114 C  
HETATM   17  C   UNL     1      -9.106   7.546  73.148  1.00  0.00    -0.177 C  
HETATM   18  O   UNL     1      -8.688   8.683  72.993  1.00  0.00    -0.380 OA 
ENDBRANCH  11  12
ENDBRANCH  10  11
ENDBRANCH   9  10
ENDBRANCH   7   9
ENDBRANCH   6   7
ENDBRANCH   3   5
ENDBRANCH   2   3
TORSDOF 7
ENDMDL
MODEL      321
REMARK 921   NORMALIZED FREE ENERGY PREDICTED BY IDOCK:   -2.54 KCAL/MOL
REMARK 922        TOTAL FREE ENERGY PREDICTED BY IDOCK:   -4.02 KCAL/MOL
REMARK 923 INTER-LIGAND FREE ENERGY PREDICTED BY IDOCK:   -4.25 KCAL/MOL
REMARK 924 INTRA-LIGAND FREE ENERGY PREDICTED BY IDOCK:    0.23 KCAL/MOL
REMARK 927      BINDING AFFINITY PREDICTED BY RF-SCORE:    0.00 PKD
ROOT
HETATM    1  C   UNL     1      -8.509   4.919  67.372  1.00  0.00    -0.105 C  
HETATM    2  O   UNL     1      -9.875   5.283  67.175  1.00  0.00    -0.139 OA 
ENDROOT
BRANCH   2   3
HETATM    3  C   UNL     1     -10.331   6.183  68.078  1.00  0.00    -0.199 C  
HETATM    4  O   UNL     1     -11.064   5.956  69.028  1.00  0.00    -0.336 OA 
BRANCH   3   5
HETATM    5  C   UNL     1      -9.810   7.510  67.714  1.00  0.00    -0.191 C  
HETATM    6  C   UNL     1     -10.680   8.518  67.590  1.00  0.00    -0.189 C  
BRANCH   6   7
HETATM    7  C   UNL     1     -10.231   9.824  67.082  1.00  0.00    -0.228 C  
HETATM    8  O   UNL     1      -9.974  10.076  65.919  1.00  0.00    -0.247 OA 
BRANCH   7   9
HETATM    9  O   UNL     1     -10.330  10.701  68.108  1.00  0.00    -0.163 OA 
BRANCH   9  10
HETATM   10  C   UNL     1     -11.596  11.372  68.207  1.00  0.00    -0.306 C  
BRANCH  10  11
HETATM   11  C   UNL     1     -11.431  12.409  69.313  1.00  0.00    -0.288 C  
BRANCH  11  12
HETATM   12  N   UNL     1     -11.361  13.774  68.851  1.00  0.00    -0.270 N  
HETATM   13  C   UNL     1     -11.921  14.829  69.510  1.00  0.00    -0.311 C  
HETATM   14  O   UNL     1     -12.423  14.812  70.621  1.00  0.00    -0.305 OA 
HETATM   15  C   UNL     1     -11.860  16.026  68.610  1.00  0.00    -0.174 C  
HETATM   16  C   UNL     1     -10.848  15.632  67.549  1.00  0.00    -0.316 C  
HETATM   17  C   UNL     1     -10.691  14.153  67.727  1.00  0.00    -0.247 C  
HETATM   18  O   UNL     1     -10.026  13.431  67.000  1.00  0.00    -0.238 OA 
ENDBRANCH  11  12
ENDBRANCH  10  11
ENDBRANCH   9  10
ENDBRANCH   7   9
ENDBRANCH   6   7
ENDBRANCH   3   5
ENDBRANCH   2   3
TORSDOF 7
ENDMDL
MODEL      322
REMARK 921   NORMALIZED FREE ENERGY PREDICTED BY IDOCK:   -2.53 KCAL/MOL
REMARK 922        TOTAL FREE ENERGY PREDICTED BY IDOCK:   -4.00 KCAL/MOL
REMARK 923 INTER-LIGAND FREE ENERGY PREDICTED BY IDOCK:   -3.49 KCAL/MOL
REMARK 924 INTRA-LIGAND FREE ENERGY PREDICTED BY IDOCK:   -0.52 KCAL/MOL
REMARK 927      BINDING AFFINITY PREDICTED BY RF-SCORE:    0.00 PKD
ROOT
HETATM    1  C   UNL     1      -9.987  10.996  64.759  1.00  0.00    -0.294 C  
HETATM    2  O   UNL     1      -9.093  10.997  65.872  1.00  0.00    -0.186 OA 
ENDROOT
BRANCH   2   3
HETATM    3  C   UNL     1      -9.517  10.238  66.909  1.00  0.00    -0.169 C  
HETATM    4  O   UNL     1     -10.505   9.522  66.934  1.00  0.00    -0.240 OA 
BRANCH   3   5
HETATM    5  C   UNL     1      -8.591  10.433  68.035  1.00  0.00    -0.123 C  
HETATM    6  C   UNL     1      -8.309   9.381  68.811  1.00  0.00    -0.117 C  
BRANCH   6   7
HETATM    7  C   UNL     1      -7.510   9.558  70.035  1.00  0.00    -0.126 C  
HETATM    8  O   UNL     1      -6.824  10.530  70.293  1.00  0.00    -0.182 OA 
BRANCH   7   9
HETATM    9  O   UNL     1      -7.826   8.535  70.863  1.00  0.00    -0.086 OA 
BRANCH   9  10
HETATM   10  C   UNL     1      -8.155   7.304  70.202  1.00  0.00    -0.129 C  
BRANCH  10  11
HETATM   11  C   UNL     1      -9.108   6.570  71.139  1.00  0.00    -0.152 C  
BRANCH  11  12
HETATM   12  N   UNL     1     -10.399   7.194  71.294  1.00  0.00    -0.198 N  
HETATM   13  C   UNL     1     -10.744   7.973  72.358  1.00  0.00    -0.320 C  
HETATM   14  O   UNL     1     -10.005   8.371  73.242  1.00  0.00    -0.102 OA 
HETATM   15  C   UNL     1     -12.221   8.226  72.291  1.00  0.00    -0.428 C  
HETATM   16  C   UNL     1     -12.590   7.852  70.867  1.00  0.00    -0.009 C  
HETATM   17  C   UNL     1     -11.394   7.101  70.367  1.00  0.00    -0.289 C  
HETATM   18  O   UNL     1     -11.325   6.544  69.281  1.00  0.00    -0.335 OA 
ENDBRANCH  11  12
ENDBRANCH  10  11
ENDBRANCH   9  10
ENDBRANCH   7   9
ENDBRANCH   6   7
ENDBRANCH   3   5
ENDBRANCH   2   3
TORSDOF 7
ENDMDL
MODEL      323
REMARK 921   NORMALIZED FREE ENERGY PREDICTED BY IDOCK:   -2.48 KCAL/MOL
REMARK 922        TOTAL FREE ENERGY PREDICTED BY IDOCK:   -3.93 KCAL/MOL
REMARK 923 INTER-LIGAND FREE ENERGY PREDICTED BY IDOCK:   -3.55 KCAL/MOL
REMARK 924 INTRA-LIGAND FREE ENERGY PREDICTED BY IDOCK:   -0.37 KCAL/MOL
REMARK 927      BINDING AFFINITY PREDICTED BY RF-SCORE:    0.00 PKD
ROOT
HETATM    1  C   UNL     1     -10.625   3.344  63.195  1.00  0.00    -0.236 C  
HETATM    2  O   UNL     1      -9.609   2.376  63.456  1.00  0.00    -0.099 OA 
ENDROOT
BRANCH   2   3
HETATM    3  C   UNL     1      -8.677   2.795  64.344  1.00  0.00    -0.097 C  
HETATM    4  O   UNL     1      -7.495   2.999  64.120  1.00  0.00    -0.064 OA 
BRANCH   3   5
HETATM    5  C   UNL     1      -9.324   2.947  65.657  1.00  0.00    -0.071 C  
HETATM    6  C   UNL     1      -8.543   3.100  66.732  1.00  0.00    -0.121 C  
BRANCH   6   7
HETATM    7  C   UNL     1      -9.134   3.104  68.080  1.00  0.00    -0.172 C  
HETATM    8  O   UNL     1      -8.997   2.226  68.911  1.00  0.00    -0.087 OA 
BRANCH   7   9
HETATM    9  O   UNL     1      -9.692   4.324  68.262  1.00  0.00    -0.151 OA 
BRANCH   9  10
HETATM   10  C   UNL     1      -9.877   4.704  69.634  1.00  0.00    -0.223 C  
BRANCH  10  11
HETATM   11  C   UNL     1     -10.917   5.819  69.621  1.00  0.00    -0.315 C  
BRANCH  11  12
HETATM   12  N   UNL     1     -10.707   6.849  70.608  1.00  0.00    -0.229 N  
HETATM   13  C   UNL     1      -9.998   7.990  70.377  1.00  0.00    -0.188 C  
HETATM   14  O   UNL     1      -9.568   8.378  69.304  1.00  0.00    -0.161 OA 
HETATM   15  C   UNL     1      -9.786   8.681  71.690  1.00  0.00    -0.348 C  
HETATM   16  C   UNL     1     -10.795   8.024  72.614  1.00  0.00    -0.436 C  
HETATM   17  C   UNL     1     -11.233   6.804  71.865  1.00  0.00    -0.260 C  
HETATM   18  O   UNL     1     -11.981   5.945  72.308  1.00  0.00    -0.295 OA 
ENDBRANCH  11  12
ENDBRANCH  10  11
ENDBRANCH   9  10
ENDBRANCH   7   9
ENDBRANCH   6   7
ENDBRANCH   3   5
ENDBRANCH   2   3
TORSDOF 7
ENDMDL
MODEL      324
REMARK 921   NORMALIZED FREE ENERGY PREDICTED BY IDOCK:   -2.46 KCAL/MOL
REMARK 922        TOTAL FREE ENERGY PREDICTED BY IDOCK:   -3.91 KCAL/MOL
REMARK 923 INTER-LIGAND FREE ENERGY PREDICTED BY IDOCK:   -3.33 KCAL/MOL
REMARK 924 INTRA-LIGAND FREE ENERGY PREDICTED BY IDOCK:   -0.57 KCAL/MOL
REMARK 927      BINDING AFFINITY PREDICTED BY RF-SCORE:    0.00 PKD
ROOT
HETATM    1  C   UNL     1      -9.829  11.160  65.495  1.00  0.00    -0.235 C  
HETATM    2  O   UNL     1      -8.955  11.057  66.619  1.00  0.00    -0.159 OA 
ENDROOT
BRANCH   2   3
HETATM    3  C   UNL     1      -9.565  10.603  67.739  1.00  0.00    -0.157 C  
HETATM    4  O   UNL     1     -10.738  10.283  67.854  1.00  0.00    -0.224 OA 
BRANCH   3   5
HETATM    5  C   UNL     1      -8.575  10.576  68.827  1.00  0.00    -0.146 C  
HETATM    6  C   UNL     1      -8.653   9.591  69.728  1.00  0.00    -0.201 C  
BRANCH   6   7
HETATM    7  C   UNL     1      -7.783   9.605  70.915  1.00  0.00     0.137 C  
HETATM    8  O   UNL     1      -6.712  10.177  70.996  1.00  0.00    -0.342 OA 
BRANCH   7   9
HETATM    9  O   UNL     1      -8.478   9.022  71.920  1.00  0.00    -0.363 OA 
BRANCH   9  10
HETATM   10  C   UNL     1      -7.814   7.915  72.549  1.00  0.00    -0.117 C  
BRANCH  10  11
HETATM   11  C   UNL     1      -8.875   6.832  72.713  1.00  0.00    -0.121 C  
BRANCH  11  12
HETATM   12  N   UNL     1      -9.330   6.244  71.477  1.00  0.00    -0.149 N  
HETATM   13  C   UNL     1     -10.481   6.605  70.843  1.00  0.00    -0.215 C  
HETATM   14  O   UNL     1     -11.208   7.542  71.126  1.00  0.00    -0.249 OA 
HETATM   15  C   UNL     1     -10.741   5.613  69.749  1.00  0.00    -0.401 C  
HETATM   16  C   UNL     1      -9.409   4.905  69.576  1.00  0.00    -0.190 C  
HETATM   17  C   UNL     1      -8.631   5.293  70.796  1.00  0.00    -0.130 C  
HETATM   18  O   UNL     1      -7.528   4.854  71.087  1.00  0.00    -0.069 OA 
ENDBRANCH  11  12
ENDBRANCH  10  11
ENDBRANCH   9  10
ENDBRANCH   7   9
ENDBRANCH   6   7
ENDBRANCH   3   5
ENDBRANCH   2   3
TORSDOF 7
ENDMDL
MODEL      325
REMARK 921   NORMALIZED FREE ENERGY PREDICTED BY IDOCK:   -2.43 KCAL/MOL
REMARK 922        TOTAL FREE ENERGY PREDICTED BY IDOCK:   -3.86 KCAL/MOL
REMARK 923 INTER-LIGAND FREE ENERGY PREDICTED BY IDOCK:   -4.04 KCAL/MOL
REMARK 924 INTRA-LIGAND FREE ENERGY PREDICTED BY IDOCK:    0.18 KCAL/MOL
REMARK 927      BINDING AFFINITY PREDICTED BY RF-SCORE:    0.00 PKD
ROOT
HETATM    1  C   UNL     1      -8.471   6.994  67.201  1.00  0.00    -0.121 C  
HETATM    2  O   UNL     1      -9.213   8.157  67.568  1.00  0.00    -0.135 OA 
ENDROOT
BRANCH   2   3
HETATM    3  C   UNL     1      -8.821   8.700  68.744  1.00  0.00    -0.139 C  
HETATM    4  O   UNL     1      -7.883   8.341  69.438  1.00  0.00    -0.100 OA 
BRANCH   3   5
HETATM    5  C   UNL     1      -9.737   9.803  69.073  1.00  0.00    -0.177 C  
HETATM    6  C   UNL     1      -9.944  10.749  68.150  1.00  0.00    -0.176 C  
BRANCH   6   7
HETATM    7  C   UNL     1     -10.729  11.948  68.484  1.00  0.00    -0.224 C  
HETATM    8  O   UNL     1     -11.871  11.946  68.905  1.00  0.00    -0.296 OA 
BRANCH   7   9
HETATM    9  O   UNL     1      -9.889  13.006  68.400  1.00  0.00    -0.228 OA 
BRANCH   9  10
HETATM   10  C   UNL     1      -8.888  12.901  67.375  1.00  0.00    -0.199 C  
BRANCH  10  11
HETATM   11  C   UNL     1      -8.405  14.324  67.118  1.00  0.00    -0.180 C  
BRANCH  11  12
HETATM   12  N   UNL     1      -9.358  15.170  66.442  1.00  0.00    -0.281 N  
HETATM   13  C   UNL     1     -10.265  14.715  65.530  1.00  0.00    -0.370 C  
HETATM   14  O   UNL     1     -10.506  13.551  65.258  1.00  0.00    -0.307 OA 
HETATM   15  C   UNL     1     -10.896  15.903  64.868  1.00  0.00    -0.420 C  
HETATM   16  C   UNL     1     -10.547  17.059  65.787  1.00  0.00    -0.218 C  
HETATM   17  C   UNL     1      -9.476  16.507  66.676  1.00  0.00    -0.258 C  
HETATM   18  O   UNL     1      -8.855  17.155  67.505  1.00  0.00    -0.213 OA 
ENDBRANCH  11  12
ENDBRANCH  10  11
ENDBRANCH   9  10
ENDBRANCH   7   9
ENDBRANCH   6   7
ENDBRANCH   3   5
ENDBRANCH   2   3
TORSDOF 7
ENDMDL
MODEL      326
REMARK 921   NORMALIZED FREE ENERGY PREDICTED BY IDOCK:   -2.41 KCAL/MOL
REMARK 922        TOTAL FREE ENERGY PREDICTED BY IDOCK:   -3.83 KCAL/MOL
REMARK 923 INTER-LIGAND FREE ENERGY PREDICTED BY IDOCK:   -3.38 KCAL/MOL
REMARK 924 INTRA-LIGAND FREE ENERGY PREDICTED BY IDOCK:   -0.45 KCAL/MOL
REMARK 927      BINDING AFFINITY PREDICTED BY RF-SCORE:    0.00 PKD
ROOT
HETATM    1  C   UNL     1      -8.700  10.535  67.912  1.00  0.00    -0.126 C  
HETATM    2  O   UNL     1      -7.972   9.436  67.363  1.00  0.00    -0.105 OA 
ENDROOT
BRANCH   2   3
HETATM    3  C   UNL     1      -8.251   9.200  66.059  1.00  0.00    -0.115 C  
HETATM    4  O   UNL     1      -8.068   9.962  65.123  1.00  0.00    -0.125 OA 
BRANCH   3   5
HETATM    5  C   UNL     1      -8.844   7.858  65.948  1.00  0.00    -0.183 C  
HETATM    6  C   UNL     1      -8.544   6.955  66.888  1.00  0.00    -0.116 C  
BRANCH   6   7
HETATM    7  C   UNL     1      -8.988   5.560  66.741  1.00  0.00    -0.114 C  
HETATM    8  O   UNL     1      -8.844   4.877  65.743  1.00  0.00    -0.126 OA 
BRANCH   7   9
HETATM    9  O   UNL     1      -9.413   5.150  67.959  1.00  0.00    -0.117 OA 
BRANCH   9  10
HETATM   10  C   UNL     1      -9.391   6.164  68.977  1.00  0.00    -0.128 C  
BRANCH  10  11
HETATM   11  C   UNL     1     -10.052   5.538  70.200  1.00  0.00    -0.239 C  
BRANCH  11  12
HETATM   12  N   UNL     1     -10.356   6.467  71.261  1.00  0.00    -0.202 N  
HETATM   13  C   UNL     1      -9.458   6.857  72.210  1.00  0.00    -0.140 C  
HETATM   14  O   UNL     1      -8.264   6.608  72.232  1.00  0.00    -0.105 OA 
HETATM   15  C   UNL     1     -10.199   7.615  73.270  1.00  0.00    -0.398 C  
HETATM   16  C   UNL     1     -11.524   7.958  72.612  1.00  0.00    -0.454 C  
HETATM   17  C   UNL     1     -11.564   7.083  71.397  1.00  0.00    -0.292 C  
HETATM   18  O   UNL     1     -12.516   6.989  70.637  1.00  0.00    -0.295 OA 
ENDBRANCH  11  12
ENDBRANCH  10  11
ENDBRANCH   9  10
ENDBRANCH   7   9
ENDBRANCH   6   7
ENDBRANCH   3   5
ENDBRANCH   2   3
TORSDOF 7
ENDMDL
MODEL      327
REMARK 921   NORMALIZED FREE ENERGY PREDICTED BY IDOCK:   -2.38 KCAL/MOL
REMARK 922        TOTAL FREE ENERGY PREDICTED BY IDOCK:   -3.80 KCAL/MOL
REMARK 923 INTER-LIGAND FREE ENERGY PREDICTED BY IDOCK:   -4.13 KCAL/MOL
REMARK 924 INTRA-LIGAND FREE ENERGY PREDICTED BY IDOCK:    0.33 KCAL/MOL
REMARK 927      BINDING AFFINITY PREDICTED BY RF-SCORE:    0.00 PKD
ROOT
HETATM    1  C   UNL     1     -10.632   3.686  64.051  1.00  0.00    -0.263 C  
HETATM    2  O   UNL     1     -10.455   4.406  65.270  1.00  0.00    -0.255 OA 
ENDROOT
BRANCH   2   3
HETATM    3  C   UNL     1      -9.510   3.875  66.081  1.00  0.00    -0.184 C  
HETATM    4  O   UNL     1      -8.870   2.853  65.886  1.00  0.00    -0.130 OA 
BRANCH   3   5
HETATM    5  C   UNL     1      -9.386   4.731  67.271  1.00  0.00    -0.150 C  
HETATM    6  C   UNL     1     -10.024   4.359  68.386  1.00  0.00    -0.070 C  
BRANCH   6   7
HETATM    7  C   UNL     1     -10.056   5.254  69.553  1.00  0.00    -0.252 C  
HETATM    8  O   UNL     1      -9.153   5.396  70.357  1.00  0.00    -0.135 OA 
BRANCH   7   9
HETATM    9  O   UNL     1     -11.186   5.994  69.452  1.00  0.00    -0.395 OA 
BRANCH   9  10
HETATM   10  C   UNL     1     -11.087   7.321  69.991  1.00  0.00    -0.240 C  
BRANCH  10  11
HETATM   11  C   UNL     1     -10.320   8.135  68.954  1.00  0.00    -0.211 C  
BRANCH  11  12
HETATM   12  N   UNL     1     -10.858   9.449  68.702  1.00  0.00    -0.159 N  
HETATM   13  C   UNL     1     -10.729  10.108  67.516  1.00  0.00    -0.290 C  
HETATM   14  O   UNL     1     -10.284   9.657  66.474  1.00  0.00    -0.239 OA 
HETATM   15  C   UNL     1     -11.187  11.522  67.716  1.00  0.00    -0.343 C  
HETATM   16  C   UNL     1     -11.963  11.471  69.020  1.00  0.00    -0.377 C  
HETATM   17  C   UNL     1     -11.588  10.149  69.615  1.00  0.00    -0.153 C  
HETATM   18  O   UNL     1     -11.933   9.760  70.721  1.00  0.00    -0.284 OA 
ENDBRANCH  11  12
ENDBRANCH  10  11
ENDBRANCH   9  10
ENDBRANCH   7   9
ENDBRANCH   6   7
ENDBRANCH   3   5
ENDBRANCH   2   3
TORSDOF 7
ENDMDL
MODEL      328
REMARK 921   NORMALIZED FREE ENERGY PREDICTED BY IDOCK:   -2.37 KCAL/MOL
REMARK 922        TOTAL FREE ENERGY PREDICTED BY IDOCK:   -3.77 KCAL/MOL
REMARK 923 INTER-LIGAND FREE ENERGY PREDICTED BY IDOCK:   -3.54 KCAL/MOL
REMARK 924 INTRA-LIGAND FREE ENERGY PREDICTED BY IDOCK:   -0.24 KCAL/MOL
REMARK 927      BINDING AFFINITY PREDICTED BY RF-SCORE:    0.00 PKD
ROOT
HETATM    1  C   UNL     1      -9.113   3.188  63.292  1.00  0.00    -0.091 C  
HETATM    2  O   UNL     1     -10.034   3.927  64.093  1.00  0.00    -0.172 OA 
ENDROOT
BRANCH   2   3
HETATM    3  C   UNL     1      -9.830   3.785  65.423  1.00  0.00    -0.130 C  
HETATM    4  O   UNL     1      -9.356   2.814  65.990  1.00  0.00    -0.118 OA 
BRANCH   3   5
HETATM    5  C   UNL     1     -10.301   5.006  66.096  1.00  0.00    -0.309 C  
HETATM    6  C   UNL     1      -9.600   5.462  67.141  1.00  0.00    -0.144 C  
BRANCH   6   7
HETATM    7  C   UNL     1     -10.111   6.588  67.939  1.00  0.00    -0.147 C  
HETATM    8  O   UNL     1      -9.631   7.705  67.967  1.00  0.00    -0.142 OA 
BRANCH   7   9
HETATM    9  O   UNL     1     -11.288   6.188  68.476  1.00  0.00    -0.289 OA 
BRANCH   9  10
HETATM   10  C   UNL     1     -11.436   6.466  69.877  1.00  0.00    -0.415 C  
BRANCH  10  11
HETATM   11  C   UNL     1     -10.332   5.681  70.576  1.00  0.00    -0.258 C  
BRANCH  11  12
HETATM   12  N   UNL     1     -10.333   5.792  72.014  1.00  0.00    -0.201 N  
HETATM   13  C   UNL     1     -10.642   4.765  72.855  1.00  0.00    -0.218 C  
HETATM   14  O   UNL     1     -10.819   3.598  72.549  1.00  0.00    -0.019 OA 
HETATM   15  C   UNL     1     -10.781   5.323  74.240  1.00  0.00    -0.151 C  
HETATM   16  C   UNL     1     -10.118   6.686  74.151  1.00  0.00    -0.390 C  
HETATM   17  C   UNL     1      -9.983   6.929  72.679  1.00  0.00    -0.171 C  
HETATM   18  O   UNL     1      -9.576   7.967  72.179  1.00  0.00    -0.170 OA 
ENDBRANCH  11  12
ENDBRANCH  10  11
ENDBRANCH   9  10
ENDBRANCH   7   9
ENDBRANCH   6   7
ENDBRANCH   3   5
ENDBRANCH   2   3
TORSDOF 7
ENDMDL
MODEL      329
REMARK 921   NORMALIZED FREE ENERGY PREDICTED BY IDOCK:   -2.36 KCAL/MOL
REMARK 922        TOTAL FREE ENERGY PREDICTED BY IDOCK:   -3.77 KCAL/MOL
REMARK 923 INTER-LIGAND FREE ENERGY PREDICTED BY IDOCK:   -3.28 KCAL/MOL
REMARK 924 INTRA-LIGAND FREE ENERGY PREDICTED BY IDOCK:   -0.49 KCAL/MOL
REMARK 927      BINDING AFFINITY PREDICTED BY RF-SCORE:    0.00 PKD
ROOT
HETATM    1  C   UNL     1     -10.624   3.871  62.580  1.00  0.00    -0.197 C  
HETATM    2  O   UNL     1      -9.785   2.777  62.951  1.00  0.00    -0.092 OA 
ENDROOT
BRANCH   2   3
HETATM    3  C   UNL     1      -9.001   3.036  64.024  1.00  0.00    -0.102 C  
HETATM    4  O   UNL     1      -7.878   2.604  64.229  1.00  0.00    -0.075 OA 
BRANCH   3   5
HETATM    5  C   UNL     1      -9.742   3.922  64.935  1.00  0.00    -0.188 C  
HETATM    6  C   UNL     1      -9.234   4.143  66.153  1.00  0.00    -0.150 C  
BRANCH   6   7
HETATM    7  C   UNL     1     -10.010   4.897  67.150  1.00  0.00    -0.197 C  
HETATM    8  O   UNL     1      -9.865   4.823  68.357  1.00  0.00    -0.152 OA 
BRANCH   7   9
HETATM    9  O   UNL     1     -10.765   5.791  66.470  1.00  0.00    -0.276 OA 
BRANCH   9  10
HETATM   10  C   UNL     1     -11.132   6.962  67.215  1.00  0.00    -0.285 C  
BRANCH  10  11
HETATM   11  C   UNL     1     -10.181   8.062  66.757  1.00  0.00    -0.297 C  
BRANCH  11  12
HETATM   12  N   UNL     1      -9.737   8.948  67.805  1.00  0.00    -0.155 N  
HETATM   13  C   UNL     1      -8.505   8.884  68.384  1.00  0.00    -0.129 C  
HETATM   14  O   UNL     1      -7.566   8.193  68.028  1.00  0.00    -0.101 OA 
HETATM   15  C   UNL     1      -8.506   9.782  69.584  1.00  0.00    -0.194 C  
HETATM   16  C   UNL     1      -9.726  10.662  69.379  1.00  0.00    -0.141 C  
HETATM   17  C   UNL     1     -10.495   9.970  68.295  1.00  0.00    -0.213 C  
HETATM   18  O   UNL     1     -11.598  10.311  67.896  1.00  0.00    -0.338 OA 
ENDBRANCH  11  12
ENDBRANCH  10  11
ENDBRANCH   9  10
ENDBRANCH   7   9
ENDBRANCH   6   7
ENDBRANCH   3   5
ENDBRANCH   2   3
TORSDOF 7
ENDMDL
MODEL      330
REMARK 921   NORMALIZED FREE ENERGY PREDICTED BY IDOCK:   -2.36 KCAL/MOL
REMARK 922        TOTAL FREE ENERGY PREDICTED BY IDOCK:   -3.76 KCAL/MOL
REMARK 923 INTER-LIGAND FREE ENERGY PREDICTED BY IDOCK:   -3.11 KCAL/MOL
REMARK 924 INTRA-LIGAND FREE ENERGY PREDICTED BY IDOCK:   -0.65 KCAL/MOL
REMARK 927      BINDING AFFINITY PREDICTED BY RF-SCORE:    0.00 PKD
ROOT
HETATM    1  C   UNL     1      -6.053   3.598  69.248  1.00  0.00    -0.027 C  
HETATM    2  O   UNL     1      -7.461   3.794  69.117  1.00  0.00    -0.053 OA 
ENDROOT
BRANCH   2   3
HETATM    3  C   UNL     1      -7.962   4.709  69.980  1.00  0.00    -0.064 C  
HETATM    4  O   UNL     1      -8.678   4.488  70.944  1.00  0.00    -0.097 OA 
BRANCH   3   5
HETATM    5  C   UNL     1      -7.517   6.043  69.551  1.00  0.00    -0.088 C  
HETATM    6  C   UNL     1      -7.655   7.062  70.407  1.00  0.00    -0.090 C  
BRANCH   6   7
HETATM    7  C   UNL     1      -7.365   8.437  69.972  1.00  0.00    -0.059 C  
HETATM    8  O   UNL     1      -6.336   9.046  70.200  1.00  0.00    -0.039 OA 
BRANCH   7   9
HETATM    9  O   UNL     1      -8.370   8.809  69.145  1.00  0.00    -0.121 OA 
BRANCH   9  10
HETATM   10  C   UNL     1      -9.209   9.860  69.648  1.00  0.00    -0.227 C  
BRANCH  10  11
HETATM   11  C   UNL     1     -10.623   9.520  69.190  1.00  0.00    -0.222 C  
BRANCH  11  12
HETATM   12  N   UNL     1     -11.427   8.840  70.176  1.00  0.00    -0.102 N  
HETATM   13  C   UNL     1     -11.522   7.483  70.274  1.00  0.00    -0.152 C  
HETATM   14  O   UNL     1     -10.859   6.659  69.668  1.00  0.00    -0.239 OA 
HETATM   15  C   UNL     1     -12.629   7.162  71.233  1.00  0.00    -0.421 C  
HETATM   16  C   UNL     1     -12.866   8.470  71.966  1.00  0.00    -0.414 C  
HETATM   17  C   UNL     1     -12.143   9.488  71.137  1.00  0.00    -0.347 C  
HETATM   18  O   UNL     1     -12.166  10.693  71.338  1.00  0.00    -0.350 OA 
ENDBRANCH  11  12
ENDBRANCH  10  11
ENDBRANCH   9  10
ENDBRANCH   7   9
ENDBRANCH   6   7
ENDBRANCH   3   5
ENDBRANCH   2   3
TORSDOF 7
ENDMDL
MODEL      331
REMARK 921   NORMALIZED FREE ENERGY PREDICTED BY IDOCK:   -2.33 KCAL/MOL
REMARK 922        TOTAL FREE ENERGY PREDICTED BY IDOCK:   -3.72 KCAL/MOL
REMARK 923 INTER-LIGAND FREE ENERGY PREDICTED BY IDOCK:   -3.11 KCAL/MOL
REMARK 924 INTRA-LIGAND FREE ENERGY PREDICTED BY IDOCK:   -0.61 KCAL/MOL
REMARK 927      BINDING AFFINITY PREDICTED BY RF-SCORE:    0.00 PKD
ROOT
HETATM    1  C   UNL     1      -5.553   3.955  70.073  1.00  0.00    -0.016 C  
HETATM    2  O   UNL     1      -6.943   4.018  70.388  1.00  0.00    -0.033 OA 
ENDROOT
BRANCH   2   3
HETATM    3  C   UNL     1      -7.225   4.827  71.436  1.00  0.00    -0.060 C  
HETATM    4  O   UNL     1      -7.439   4.483  72.588  1.00  0.00    -0.079 OA 
BRANCH   3   5
HETATM    5  C   UNL     1      -7.254   6.217  70.954  1.00  0.00    -0.074 C  
HETATM    6  C   UNL     1      -7.360   7.197  71.857  1.00  0.00    -0.081 C  
BRANCH   6   7
HETATM    7  C   UNL     1      -7.545   8.590  71.419  1.00  0.00    -0.105 C  
HETATM    8  O   UNL     1      -6.697   9.462  71.469  1.00  0.00    -0.277 OA 
BRANCH   7   9
HETATM    9  O   UNL     1      -8.750   8.653  70.805  1.00  0.00    -0.143 OA 
BRANCH   9  10
HETATM   10  C   UNL     1      -9.845   9.012  71.662  1.00  0.00    -0.296 C  
BRANCH  10  11
HETATM   11  C   UNL     1     -11.108   8.587  70.922  1.00  0.00    -0.255 C  
BRANCH  11  12
HETATM   12  N   UNL     1     -10.911   7.546  69.944  1.00  0.00    -0.240 N  
HETATM   13  C   UNL     1     -10.741   7.778  68.611  1.00  0.00    -0.047 C  
HETATM   14  O   UNL     1     -10.589   8.861  68.072  1.00  0.00    -0.221 OA 
HETATM   15  C   UNL     1     -10.822   6.463  67.895  1.00  0.00    -0.404 C  
HETATM   16  C   UNL     1     -10.645   5.437  68.999  1.00  0.00    -0.217 C  
HETATM   17  C   UNL     1     -10.834   6.223  70.260  1.00  0.00    -0.304 C  
HETATM   18  O   UNL     1     -10.861   5.743  71.384  1.00  0.00    -0.254 OA 
ENDBRANCH  11  12
ENDBRANCH  10  11
ENDBRANCH   9  10
ENDBRANCH   7   9
ENDBRANCH   6   7
ENDBRANCH   3   5
ENDBRANCH   2   3
TORSDOF 7
ENDMDL
MODEL      332
REMARK 921   NORMALIZED FREE ENERGY PREDICTED BY IDOCK:   -2.32 KCAL/MOL
REMARK 922        TOTAL FREE ENERGY PREDICTED BY IDOCK:   -3.70 KCAL/MOL
REMARK 923 INTER-LIGAND FREE ENERGY PREDICTED BY IDOCK:   -3.19 KCAL/MOL
REMARK 924 INTRA-LIGAND FREE ENERGY PREDICTED BY IDOCK:   -0.52 KCAL/MOL
REMARK 927      BINDING AFFINITY PREDICTED BY RF-SCORE:    0.00 PKD
ROOT
HETATM    1  C   UNL     1      -5.576  10.668  70.828  1.00  0.00    -0.107 C  
HETATM    2  O   UNL     1      -6.228   9.410  70.998  1.00  0.00    -0.068 OA 
ENDROOT
BRANCH   2   3
HETATM    3  C   UNL     1      -7.566   9.461  70.797  1.00  0.00    -0.114 C  
HETATM    4  O   UNL     1      -8.159  10.181  70.009  1.00  0.00    -0.166 OA 
BRANCH   3   5
HETATM    5  C   UNL     1      -8.209   8.508  71.714  1.00  0.00    -0.209 C  
HETATM    6  C   UNL     1      -7.432   7.640  72.371  1.00  0.00    -0.089 C  
BRANCH   6   7
HETATM    7  C   UNL     1      -8.038   6.571  73.181  1.00  0.00    -0.106 C  
HETATM    8  O   UNL     1      -8.848   6.738  74.074  1.00  0.00    -0.144 OA 
BRANCH   7   9
HETATM    9  O   UNL     1      -7.658   5.395  72.629  1.00  0.00    -0.095 OA 
BRANCH   9  10
HETATM   10  C   UNL     1      -8.056   5.215  71.260  1.00  0.00    -0.113 C  
BRANCH  10  11
HETATM   11  C   UNL     1      -9.398   4.493  71.309  1.00  0.00    -0.148 C  
BRANCH  11  12
HETATM   12  N   UNL     1     -10.549   5.362  71.318  1.00  0.00    -0.228 N  
HETATM   13  C   UNL     1     -10.905   6.162  70.272  1.00  0.00    -0.319 C  
HETATM   14  O   UNL     1     -10.415   6.165  69.156  1.00  0.00    -0.199 OA 
HETATM   15  C   UNL     1     -11.985   7.090  70.743  1.00  0.00    -0.392 C  
HETATM   16  C   UNL     1     -12.476   6.453  72.030  1.00  0.00    -0.212 C  
HETATM   17  C   UNL     1     -11.422   5.442  72.361  1.00  0.00    -0.148 C  
HETATM   18  O   UNL     1     -11.396   4.772  73.382  1.00  0.00    -0.331 OA 
ENDBRANCH  11  12
ENDBRANCH  10  11
ENDBRANCH   9  10
ENDBRANCH   7   9
ENDBRANCH   6   7
ENDBRANCH   3   5
ENDBRANCH   2   3
TORSDOF 7
ENDMDL
MODEL      333
REMARK 921   NORMALIZED FREE ENERGY PREDICTED BY IDOCK:   -2.29 KCAL/MOL
REMARK 922        TOTAL FREE ENERGY PREDICTED BY IDOCK:   -3.66 KCAL/MOL
REMARK 923 INTER-LIGAND FREE ENERGY PREDICTED BY IDOCK:   -3.35 KCAL/MOL
REMARK 924 INTRA-LIGAND FREE ENERGY PREDICTED BY IDOCK:   -0.31 KCAL/MOL
REMARK 927      BINDING AFFINITY PREDICTED BY RF-SCORE:    0.00 PKD
ROOT
HETATM    1  C   UNL     1      -9.874   3.742  64.535  1.00  0.00    -0.190 C  
HETATM    2  O   UNL     1     -10.272   4.811  65.395  1.00  0.00    -0.155 OA 
ENDROOT
BRANCH   2   3
HETATM    3  C   UNL     1      -9.547   4.886  66.535  1.00  0.00    -0.169 C  
HETATM    4  O   UNL     1      -8.754   4.058  66.953  1.00  0.00    -0.110 OA 
BRANCH   3   5
HETATM    5  C   UNL     1      -9.890   6.143  67.219  1.00  0.00    -0.158 C  
HETATM    6  C   UNL     1      -8.934   6.762  67.921  1.00  0.00    -0.113 C  
BRANCH   6   7
HETATM    7  C   UNL     1      -9.265   7.936  68.744  1.00  0.00    -0.143 C  
HETATM    8  O   UNL     1     -10.086   7.958  69.642  1.00  0.00    -0.188 OA 
BRANCH   7   9
HETATM    9  O   UNL     1      -8.372   8.903  68.427  1.00  0.00    -0.122 OA 
BRANCH   9  10
HETATM   10  C   UNL     1      -8.839  10.246  68.632  1.00  0.00    -0.137 C  
BRANCH  10  11
HETATM   11  C   UNL     1      -9.054  10.829  67.239  1.00  0.00    -0.144 C  
BRANCH  11  12
HETATM   12  N   UNL     1      -9.753  12.090  67.217  1.00  0.00    -0.184 N  
HETATM   13  C   UNL     1     -11.060  12.228  66.853  1.00  0.00    -0.290 C  
HETATM   14  O   UNL     1     -11.857  11.331  66.638  1.00  0.00    -0.311 OA 
HETATM   15  C   UNL     1     -11.352  13.692  66.710  1.00  0.00    -0.346 C  
HETATM   16  C   UNL     1     -10.194  14.365  67.426  1.00  0.00    -0.247 C  
HETATM   17  C   UNL     1      -9.186  13.270  67.597  1.00  0.00    -0.209 C  
HETATM   18  O   UNL     1      -8.063  13.422  68.052  1.00  0.00    -0.136 OA 
ENDBRANCH  11  12
ENDBRANCH  10  11
ENDBRANCH   9  10
ENDBRANCH   7   9
ENDBRANCH   6   7
ENDBRANCH   3   5
ENDBRANCH   2   3
TORSDOF 7
ENDMDL
MODEL      334
REMARK 921   NORMALIZED FREE ENERGY PREDICTED BY IDOCK:   -2.28 KCAL/MOL
REMARK 922        TOTAL FREE ENERGY PREDICTED BY IDOCK:   -3.65 KCAL/MOL
REMARK 923 INTER-LIGAND FREE ENERGY PREDICTED BY IDOCK:   -2.71 KCAL/MOL
REMARK 924 INTRA-LIGAND FREE ENERGY PREDICTED BY IDOCK:   -0.94 KCAL/MOL
REMARK 927      BINDING AFFINITY PREDICTED BY RF-SCORE:    0.00 PKD
ROOT
HETATM    1  C   UNL     1     -10.964   8.794  70.311  1.00  0.00    -0.235 C  
HETATM    2  O   UNL     1     -10.794   7.654  71.152  1.00  0.00    -0.231 OA 
ENDROOT
BRANCH   2   3
HETATM    3  C   UNL     1     -11.204   6.496  70.584  1.00  0.00    -0.329 C  
HETATM    4  O   UNL     1     -11.652   6.353  69.457  1.00  0.00    -0.404 OA 
BRANCH   3   5
HETATM    5  C   UNL     1     -11.041   5.414  71.568  1.00  0.00    -0.095 C  
HETATM    6  C   UNL     1     -10.717   5.745  72.823  1.00  0.00    -0.278 C  
BRANCH   6   7
HETATM    7  C   UNL     1     -10.395   4.696  73.804  1.00  0.00    -0.211 C  
HETATM    8  O   UNL     1     -11.141   3.795  74.140  1.00  0.00    -0.152 OA 
BRANCH   7   9
HETATM    9  O   UNL     1      -9.083   4.831  74.110  1.00  0.00    -0.112 OA 
BRANCH   9  10
HETATM   10  C   UNL     1      -8.497   6.080  73.712  1.00  0.00    -0.117 C  
BRANCH  10  11
HETATM   11  C   UNL     1      -7.184   5.723  73.024  1.00  0.00    -0.090 C  
BRANCH  11  12
HETATM   12  N   UNL     1      -7.308   5.396  71.625  1.00  0.00    -0.087 N  
HETATM   13  C   UNL     1      -7.407   4.123  71.148  1.00  0.00    -0.044 C  
HETATM   14  O   UNL     1      -7.549   3.106  71.805  1.00  0.00    -0.050 OA 
HETATM   15  C   UNL     1      -7.263   4.171  69.656  1.00  0.00    -0.049 C  
HETATM   16  C   UNL     1      -7.482   5.634  69.317  1.00  0.00    -0.079 C  
HETATM   17  C   UNL     1      -7.378   6.333  70.638  1.00  0.00    -0.082 C  
HETATM   18  O   UNL     1      -7.405   7.546  70.789  1.00  0.00    -0.066 OA 
ENDBRANCH  11  12
ENDBRANCH  10  11
ENDBRANCH   9  10
ENDBRANCH   7   9
ENDBRANCH   6   7
ENDBRANCH   3   5
ENDBRANCH   2   3
TORSDOF 7
ENDMDL
MODEL      335
REMARK 921   NORMALIZED FREE ENERGY PREDICTED BY IDOCK:   -2.24 KCAL/MOL
REMARK 922        TOTAL FREE ENERGY PREDICTED BY IDOCK:   -3.60 KCAL/MOL
REMARK 923 INTER-LIGAND FREE ENERGY PREDICTED BY IDOCK:   -3.64 KCAL/MOL
REMARK 924 INTRA-LIGAND FREE ENERGY PREDICTED BY IDOCK:    0.04 KCAL/MOL
REMARK 927      BINDING AFFINITY PREDICTED BY RF-SCORE:    0.00 PKD
ROOT
HETATM    1  C   UNL     1      -9.602   7.304  68.210  1.00  0.00    -0.148 C  
HETATM    2  O   UNL     1      -9.546   8.709  68.453  1.00  0.00    -0.144 OA 
ENDROOT
BRANCH   2   3
HETATM    3  C   UNL     1     -10.382   9.123  69.435  1.00  0.00    -0.216 C  
HETATM    4  O   UNL     1     -11.088   8.419  70.138  1.00  0.00    -0.245 OA 
BRANCH   3   5
HETATM    5  C   UNL     1     -10.318  10.591  69.508  1.00  0.00    -0.251 C  
HETATM    6  C   UNL     1     -10.547  11.290  68.391  1.00  0.00    -0.226 C  
BRANCH   6   7
HETATM    7  C   UNL     1     -10.347  12.748  68.378  1.00  0.00    -0.243 C  
HETATM    8  O   UNL     1     -11.037  13.558  68.968  1.00  0.00    -0.252 OA 
BRANCH   7   9
HETATM    9  O   UNL     1      -9.175  12.980  67.742  1.00  0.00    -0.183 OA 
BRANCH   9  10
HETATM   10  C   UNL     1      -8.228  13.760  68.489  1.00  0.00    -0.124 C  
BRANCH  10  11
HETATM   11  C   UNL     1      -8.772  15.184  68.492  1.00  0.00    -0.172 C  
BRANCH  11  12
HETATM   12  N   UNL     1      -7.944  16.145  67.804  1.00  0.00    -0.140 N  
HETATM   13  C   UNL     1      -7.984  16.356  66.458  1.00  0.00    -0.307 C  
HETATM   14  O   UNL     1      -8.790  15.893  65.669  1.00  0.00    -0.218 OA 
HETATM   15  C   UNL     1      -6.822  17.229  66.089  1.00  0.00    -0.227 C  
HETATM   16  C   UNL     1      -6.371  17.814  67.415  1.00  0.00    -0.172 C  
HETATM   17  C   UNL     1      -7.065  16.970  68.440  1.00  0.00    -0.188 C  
HETATM   18  O   UNL     1      -6.894  17.057  69.646  1.00  0.00    -0.184 OA 
ENDBRANCH  11  12
ENDBRANCH  10  11
ENDBRANCH   9  10
ENDBRANCH   7   9
ENDBRANCH   6   7
ENDBRANCH   3   5
ENDBRANCH   2   3
TORSDOF 7
ENDMDL
MODEL      336
REMARK 921   NORMALIZED FREE ENERGY PREDICTED BY IDOCK:   -2.21 KCAL/MOL
REMARK 922        TOTAL FREE ENERGY PREDICTED BY IDOCK:   -3.55 KCAL/MOL
REMARK 923 INTER-LIGAND FREE ENERGY PREDICTED BY IDOCK:   -2.97 KCAL/MOL
REMARK 924 INTRA-LIGAND FREE ENERGY PREDICTED BY IDOCK:   -0.59 KCAL/MOL
REMARK 927      BINDING AFFINITY PREDICTED BY RF-SCORE:    0.00 PKD
ROOT
HETATM    1  C   UNL     1     -10.618   3.913  62.567  1.00  0.00    -0.197 C  
HETATM    2  O   UNL     1      -9.642   2.888  62.754  1.00  0.00    -0.093 OA 
ENDROOT
BRANCH   2   3
HETATM    3  C   UNL     1      -8.816   3.112  63.803  1.00  0.00    -0.092 C  
HETATM    4  O   UNL     1      -7.604   2.967  63.823  1.00  0.00    -0.065 OA 
BRANCH   3   5
HETATM    5  C   UNL     1      -9.631   3.545  64.949  1.00  0.00    -0.166 C  
HETATM    6  C   UNL     1      -9.000   3.974  66.047  1.00  0.00    -0.129 C  
BRANCH   6   7
HETATM    7  C   UNL     1      -9.763   4.274  67.269  1.00  0.00    -0.175 C  
HETATM    8  O   UNL     1      -9.516   3.838  68.378  1.00  0.00    -0.164 OA 
BRANCH   7   9
HETATM    9  O   UNL     1     -10.655   5.241  66.949  1.00  0.00    -0.260 OA 
BRANCH   9  10
HETATM   10  C   UNL     1     -10.998   6.125  68.028  1.00  0.00    -0.305 C  
BRANCH  10  11
HETATM   11  C   UNL     1     -10.061   7.321  67.900  1.00  0.00    -0.177 C  
BRANCH  11  12
HETATM   12  N   UNL     1      -9.551   7.823  69.152  1.00  0.00    -0.155 N  
HETATM   13  C   UNL     1     -10.203   8.736  69.927  1.00  0.00    -0.200 C  
HETATM   14  O   UNL     1     -11.338   9.151  69.768  1.00  0.00    -0.126 OA 
HETATM   15  C   UNL     1      -9.260   9.194  70.999  1.00  0.00    -0.321 C  
HETATM   16  C   UNL     1      -8.162   8.146  70.990  1.00  0.00    -0.114 C  
HETATM   17  C   UNL     1      -8.381   7.401  69.709  1.00  0.00    -0.134 C  
HETATM   18  O   UNL     1      -7.645   6.527  69.277  1.00  0.00    -0.095 OA 
ENDBRANCH  11  12
ENDBRANCH  10  11
ENDBRANCH   9  10
ENDBRANCH   7   9
ENDBRANCH   6   7
ENDBRANCH   3   5
ENDBRANCH   2   3
TORSDOF 7
ENDMDL
MODEL      337
REMARK 921   NORMALIZED FREE ENERGY PREDICTED BY IDOCK:   -2.11 KCAL/MOL
REMARK 922        TOTAL FREE ENERGY PREDICTED BY IDOCK:   -3.42 KCAL/MOL
REMARK 923 INTER-LIGAND FREE ENERGY PREDICTED BY IDOCK:   -2.90 KCAL/MOL
REMARK 924 INTRA-LIGAND FREE ENERGY PREDICTED BY IDOCK:   -0.52 KCAL/MOL
REMARK 927      BINDING AFFINITY PREDICTED BY RF-SCORE:    0.00 PKD
ROOT
HETATM    1  C   UNL     1      -5.973   4.234  70.150  1.00  0.00    -0.018 C  
HETATM    2  O   UNL     1      -6.987   5.042  70.747  1.00  0.00    -0.045 OA 
ENDROOT
BRANCH   2   3
HETATM    3  C   UNL     1      -6.559   6.280  71.092  1.00  0.00    -0.050 C  
HETATM    4  O   UNL     1      -5.731   6.555  71.946  1.00  0.00    -0.035 OA 
BRANCH   3   5
HETATM    5  C   UNL     1      -7.282   7.265  70.273  1.00  0.00    -0.067 C  
HETATM    6  C   UNL     1      -7.015   8.562  70.461  1.00  0.00    -0.040 C  
BRANCH   6   7
HETATM    7  C   UNL     1      -7.817   9.588  69.777  1.00  0.00    -0.128 C  
HETATM    8  O   UNL     1      -7.399  10.661  69.384  1.00  0.00    -0.109 OA 
BRANCH   7   9
HETATM    9  O   UNL     1      -9.029   9.039  69.526  1.00  0.00    -0.139 OA 
BRANCH   9  10
HETATM   10  C   UNL     1     -10.126   9.966  69.547  1.00  0.00    -0.221 C  
BRANCH  10  11
HETATM   11  C   UNL     1     -11.346   9.156  69.973  1.00  0.00    -0.090 C  
BRANCH  11  12
HETATM   12  N   UNL     1     -11.065   7.785  70.323  1.00  0.00    -0.255 N  
HETATM   13  C   UNL     1     -10.976   7.331  71.606  1.00  0.00    -0.226 C  
HETATM   14  O   UNL     1     -11.250   7.949  72.620  1.00  0.00    -0.344 OA 
HETATM   15  C   UNL     1     -10.428   5.936  71.569  1.00  0.00    -0.287 C  
HETATM   16  C   UNL     1     -10.606   5.513  70.122  1.00  0.00    -0.367 C  
HETATM   17  C   UNL     1     -10.900   6.794  69.403  1.00  0.00    -0.271 C  
HETATM   18  O   UNL     1     -11.018   6.901  68.191  1.00  0.00    -0.207 OA 
ENDBRANCH  11  12
ENDBRANCH  10  11
ENDBRANCH   9  10
ENDBRANCH   7   9
ENDBRANCH   6   7
ENDBRANCH   3   5
ENDBRANCH   2   3
TORSDOF 7
ENDMDL
MODEL      338
REMARK 921   NORMALIZED FREE ENERGY PREDICTED BY IDOCK:   -2.07 KCAL/MOL
REMARK 922        TOTAL FREE ENERGY PREDICTED BY IDOCK:   -3.36 KCAL/MOL
REMARK 923 INTER-LIGAND FREE ENERGY PREDICTED BY IDOCK:   -2.71 KCAL/MOL
REMARK 924 INTRA-LIGAND FREE ENERGY PREDICTED BY IDOCK:   -0.66 KCAL/MOL
REMARK 927      BINDING AFFINITY PREDICTED BY RF-SCORE:    0.00 PKD
ROOT
HETATM    1  C   UNL     1      -6.478  10.872  70.087  1.00  0.00    -0.145 C  
HETATM    2  O   UNL     1      -6.477   9.459  70.291  1.00  0.00    -0.050 OA 
ENDROOT
BRANCH   2   3
HETATM    3  C   UNL     1      -7.716   8.933  70.437  1.00  0.00    -0.098 C  
HETATM    4  O   UNL     1      -8.653   9.427  71.042  1.00  0.00    -0.274 OA 
BRANCH   3   5
HETATM    5  C   UNL     1      -7.749   7.630  69.753  1.00  0.00    -0.098 C  
HETATM    6  C   UNL     1      -7.092   7.508  68.594  1.00  0.00    -0.081 C  
BRANCH   6   7
HETATM    7  C   UNL     1      -7.219   6.277  67.799  1.00  0.00    -0.083 C  
HETATM    8  O   UNL     1      -7.688   5.227  68.198  1.00  0.00    -0.083 OA 
BRANCH   7   9
HETATM    9  O   UNL     1      -6.885   6.593  66.526  1.00  0.00    -0.058 OA 
BRANCH   9  10
HETATM   10  C   UNL     1      -7.002   7.987  66.200  1.00  0.00    -0.058 C  
BRANCH  10  11
HETATM   11  C   UNL     1      -8.354   8.140  65.511  1.00  0.00    -0.153 C  
BRANCH  11  12
HETATM   12  N   UNL     1      -9.304   8.958  66.224  1.00  0.00    -0.200 N  
HETATM   13  C   UNL     1      -9.436  10.302  66.043  1.00  0.00    -0.185 C  
HETATM   14  O   UNL     1      -8.900  10.979  65.182  1.00  0.00    -0.183 OA 
HETATM   15  C   UNL     1     -10.328  10.833  67.124  1.00  0.00    -0.269 C  
HETATM   16  C   UNL     1     -11.004   9.592  67.680  1.00  0.00    -0.190 C  
HETATM   17  C   UNL     1     -10.195   8.459  67.127  1.00  0.00    -0.292 C  
HETATM   18  O   UNL     1     -10.358   7.283  67.413  1.00  0.00    -0.206 OA 
ENDBRANCH  11  12
ENDBRANCH  10  11
ENDBRANCH   9  10
ENDBRANCH   7   9
ENDBRANCH   6   7
ENDBRANCH   3   5
ENDBRANCH   2   3
TORSDOF 7
ENDMDL
MODEL      339
REMARK 921   NORMALIZED FREE ENERGY PREDICTED BY IDOCK:   -2.05 KCAL/MOL
REMARK 922        TOTAL FREE ENERGY PREDICTED BY IDOCK:   -3.33 KCAL/MOL
REMARK 923 INTER-LIGAND FREE ENERGY PREDICTED BY IDOCK:   -3.10 KCAL/MOL
REMARK 924 INTRA-LIGAND FREE ENERGY PREDICTED BY IDOCK:   -0.23 KCAL/MOL
REMARK 927      BINDING AFFINITY PREDICTED BY RF-SCORE:    0.00 PKD
ROOT
HETATM    1  C   UNL     1     -10.723   3.828  64.145  1.00  0.00    -0.225 C  
HETATM    2  O   UNL     1      -9.438   3.323  64.508  1.00  0.00    -0.137 OA 
ENDROOT
BRANCH   2   3
HETATM    3  C   UNL     1      -8.678   4.214  65.187  1.00  0.00    -0.123 C  
HETATM    4  O   UNL     1      -7.485   4.423  65.036  1.00  0.00    -0.071 OA 
BRANCH   3   5
HETATM    5  C   UNL     1      -9.532   4.892  66.175  1.00  0.00    -0.165 C  
HETATM    6  C   UNL     1      -8.961   5.358  67.291  1.00  0.00    -0.111 C  
BRANCH   6   7
HETATM    7  C   UNL     1      -9.793   5.906  68.374  1.00  0.00    -0.134 C  
HETATM    8  O   UNL     1     -10.542   5.259  69.082  1.00  0.00    -0.204 OA 
BRANCH   7   9
HETATM    9  O   UNL     1      -9.432   7.201  68.531  1.00  0.00    -0.140 OA 
BRANCH   9  10
HETATM   10  C   UNL     1      -9.437   7.668  69.890  1.00  0.00    -0.160 C  
BRANCH  10  11
HETATM   11  C   UNL     1      -8.919   9.101  69.839  1.00  0.00    -0.174 C  
BRANCH  11  12
HETATM   12  N   UNL     1      -9.510   9.917  68.807  1.00  0.00    -0.152 N  
HETATM   13  C   UNL     1     -10.647  10.651  68.975  1.00  0.00    -0.219 C  
HETATM   14  O   UNL     1     -11.243  10.844  70.021  1.00  0.00    -0.281 OA 
HETATM   15  C   UNL     1     -11.082  11.151  67.631  1.00  0.00    -0.348 C  
HETATM   16  C   UNL     1      -9.853  10.966  66.758  1.00  0.00    -0.231 C  
HETATM   17  C   UNL     1      -8.966  10.069  67.567  1.00  0.00    -0.134 C  
HETATM   18  O   UNL     1      -7.906   9.602  67.176  1.00  0.00    -0.092 OA 
ENDBRANCH  11  12
ENDBRANCH  10  11
ENDBRANCH   9  10
ENDBRANCH   7   9
ENDBRANCH   6   7
ENDBRANCH   3   5
ENDBRANCH   2   3
TORSDOF 7
ENDMDL
MODEL      340
REMARK 921   NORMALIZED FREE ENERGY PREDICTED BY IDOCK:   -2.04 KCAL/MOL
REMARK 922        TOTAL FREE ENERGY PREDICTED BY IDOCK:   -3.31 KCAL/MOL
REMARK 923 INTER-LIGAND FREE ENERGY PREDICTED BY IDOCK:   -3.56 KCAL/MOL
REMARK 924 INTRA-LIGAND FREE ENERGY PREDICTED BY IDOCK:    0.25 KCAL/MOL
REMARK 927      BINDING AFFINITY PREDICTED BY RF-SCORE:    0.00 PKD
ROOT
HETATM    1  C   UNL     1     -10.912  12.285  65.770  1.00  0.00    -0.301 C  
HETATM    2  O   UNL     1     -10.277  11.906  66.991  1.00  0.00    -0.207 OA 
ENDROOT
BRANCH   2   3
HETATM    3  C   UNL     1     -11.096  11.965  68.068  1.00  0.00    -0.240 C  
HETATM    4  O   UNL     1     -12.136  12.598  68.162  1.00  0.00    -0.278 OA 
BRANCH   3   5
HETATM    5  C   UNL     1     -10.511  11.144  69.140  1.00  0.00    -0.211 C  
HETATM    6  C   UNL     1     -11.107   9.986  69.447  1.00  0.00    -0.265 C  
BRANCH   6   7
HETATM    7  C   UNL     1     -10.651   9.206  70.607  1.00  0.00    -0.246 C  
HETATM    8  O   UNL     1      -9.601   9.373  71.199  1.00  0.00    -0.253 OA 
BRANCH   7   9
HETATM    9  O   UNL     1     -11.683   8.411  70.978  1.00  0.00    -0.277 OA 
BRANCH   9  10
HETATM   10  C   UNL     1     -11.348   7.024  71.137  1.00  0.00    -0.282 C  
BRANCH  10  11
HETATM   11  C   UNL     1     -10.279   6.731  70.090  1.00  0.00    -0.195 C  
BRANCH  11  12
HETATM   12  N   UNL     1      -9.122   6.032  70.592  1.00  0.00    -0.149 N  
HETATM   13  C   UNL     1      -9.173   4.804  71.184  1.00  0.00    -0.142 C  
HETATM   14  O   UNL     1     -10.141   4.066  71.252  1.00  0.00    -0.163 OA 
HETATM   15  C   UNL     1      -7.831   4.525  71.793  1.00  0.00    -0.096 C  
HETATM   16  C   UNL     1      -6.913   5.536  71.130  1.00  0.00    -0.065 C  
HETATM   17  C   UNL     1      -7.851   6.512  70.488  1.00  0.00    -0.106 C  
HETATM   18  O   UNL     1      -7.507   7.540  69.924  1.00  0.00    -0.080 OA 
ENDBRANCH  11  12
ENDBRANCH  10  11
ENDBRANCH   9  10
ENDBRANCH   7   9
ENDBRANCH   6   7
ENDBRANCH   3   5
ENDBRANCH   2   3
TORSDOF 7
ENDMDL
MODEL      341
REMARK 921   NORMALIZED FREE ENERGY PREDICTED BY IDOCK:   -1.94 KCAL/MOL
REMARK 922        TOTAL FREE ENERGY PREDICTED BY IDOCK:   -3.17 KCAL/MOL
REMARK 923 INTER-LIGAND FREE ENERGY PREDICTED BY IDOCK:   -3.03 KCAL/MOL
REMARK 924 INTRA-LIGAND FREE ENERGY PREDICTED BY IDOCK:   -0.14 KCAL/MOL
REMARK 927      BINDING AFFINITY PREDICTED BY RF-SCORE:    0.00 PKD
ROOT
HETATM    1  C   UNL     1      -6.677  12.516  68.814  1.00  0.00    -0.093 C  
HETATM    2  O   UNL     1      -7.776  11.886  69.472  1.00  0.00     0.279 OA 
ENDROOT
BRANCH   2   3
HETATM    3  C   UNL     1      -8.572  11.175  68.639  1.00  0.00    -0.151 C  
HETATM    4  O   UNL     1      -8.758  11.386  67.451  1.00  0.00    -0.140 OA 
BRANCH   3   5
HETATM    5  C   UNL     1      -9.209  10.098  69.412  1.00  0.00    -0.229 C  
HETATM    6  C   UNL     1     -10.525  10.175  69.637  1.00  0.00    -0.282 C  
BRANCH   6   7
HETATM    7  C   UNL     1     -11.180   9.206  70.530  1.00  0.00    -0.264 C  
HETATM    8  O   UNL     1     -12.299   9.322  70.995  1.00  0.00    -0.291 OA 
BRANCH   7   9
HETATM    9  O   UNL     1     -10.380   8.115  70.583  1.00  0.00    -0.196 OA 
BRANCH   9  10
HETATM   10  C   UNL     1     -10.853   6.984  69.834  1.00  0.00    -0.251 C  
BRANCH  10  11
HETATM   11  C   UNL     1      -9.638   6.438  69.093  1.00  0.00    -0.136 C  
BRANCH  11  12
HETATM   12  N   UNL     1      -9.557   4.999  69.049  1.00  0.00    -0.137 N  
HETATM   13  C   UNL     1      -9.566   4.203  70.156  1.00  0.00    -0.202 C  
HETATM   14  O   UNL     1      -9.781   4.551  71.304  1.00  0.00    -0.161 OA 
HETATM   15  C   UNL     1      -9.213   2.809  69.731  1.00  0.00    -0.206 C  
HETATM   16  C   UNL     1      -9.407   2.828  68.225  1.00  0.00    -0.258 C  
HETATM   17  C   UNL     1      -9.503   4.284  67.890  1.00  0.00    -0.165 C  
HETATM   18  O   UNL     1      -9.572   4.735  66.756  1.00  0.00    -0.145 OA 
ENDBRANCH  11  12
ENDBRANCH  10  11
ENDBRANCH   9  10
ENDBRANCH   7   9
ENDBRANCH   6   7
ENDBRANCH   3   5
ENDBRANCH   2   3
TORSDOF 7
ENDMDL
MODEL      342
REMARK 921   NORMALIZED FREE ENERGY PREDICTED BY IDOCK:   -1.63 KCAL/MOL
REMARK 922        TOTAL FREE ENERGY PREDICTED BY IDOCK:   -2.73 KCAL/MOL
REMARK 923 INTER-LIGAND FREE ENERGY PREDICTED BY IDOCK:   -2.21 KCAL/MOL
REMARK 924 INTRA-LIGAND FREE ENERGY PREDICTED BY IDOCK:   -0.52 KCAL/MOL
REMARK 927      BINDING AFFINITY PREDICTED BY RF-SCORE:    0.00 PKD
ROOT
HETATM    1  C   UNL     1      -5.835  12.415  67.761  1.00  0.00    -0.110 C  
HETATM    2  O   UNL     1      -6.364  11.150  68.157  1.00  0.00    -0.053 OA 
ENDROOT
BRANCH   2   3
HETATM    3  C   UNL     1      -6.543  10.291  67.125  1.00  0.00    -0.073 C  
HETATM    4  O   UNL     1      -6.016  10.351  66.026  1.00  0.00    -0.075 OA 
BRANCH   3   5
HETATM    5  C   UNL     1      -7.512   9.265  67.540  1.00  0.00    -0.088 C  
HETATM    6  C   UNL     1      -8.703   9.238  66.934  1.00  0.00    -0.136 C  
BRANCH   6   7
HETATM    7  C   UNL     1      -9.758   8.331  67.415  1.00  0.00    -0.174 C  
HETATM    8  O   UNL     1     -10.813   8.115  66.848  1.00  0.00    -0.250 OA 
BRANCH   7   9
HETATM    9  O   UNL     1      -9.255   7.676  68.488  1.00  0.00    -0.144 OA 
BRANCH   9  10
HETATM   10  C   UNL     1      -9.624   6.290  68.575  1.00  0.00    -0.126 C  
BRANCH  10  11
HETATM   11  C   UNL     1      -8.431   5.508  68.035  1.00  0.00    -0.098 C  
BRANCH  11  12
HETATM   12  N   UNL     1      -8.336   5.474  66.596  1.00  0.00    -0.109 N  
HETATM   13  C   UNL     1      -9.306   4.968  65.782  1.00  0.00    -0.160 C  
HETATM   14  O   UNL     1     -10.425   4.612  66.113  1.00  0.00    -0.289 OA 
HETATM   15  C   UNL     1      -8.747   4.873  64.394  1.00  0.00    -0.140 C  
HETATM   16  C   UNL     1      -7.512   5.755  64.439  1.00  0.00    -0.075 C  
HETATM   17  C   UNL     1      -7.280   5.982  65.901  1.00  0.00    -0.075 C  
HETATM   18  O   UNL     1      -6.318   6.572  66.370  1.00  0.00    -0.039 OA 
ENDBRANCH  11  12
ENDBRANCH  10  11
ENDBRANCH   9  10
ENDBRANCH   7   9
ENDBRANCH   6   7
ENDBRANCH   3   5
ENDBRANCH   2   3
TORSDOF 7
ENDMDL
MODEL      343
REMARK 921   NORMALIZED FREE ENERGY PREDICTED BY IDOCK:   -1.46 KCAL/MOL
REMARK 922        TOTAL FREE ENERGY PREDICTED BY IDOCK:   -2.49 KCAL/MOL
REMARK 923 INTER-LIGAND FREE ENERGY PREDICTED BY IDOCK:   -2.24 KCAL/MOL
REMARK 924 INTRA-LIGAND FREE ENERGY PREDICTED BY IDOCK:   -0.25 KCAL/MOL
REMARK 927      BINDING AFFINITY PREDICTED BY RF-SCORE:    0.00 PKD
ROOT
HETATM    1  C   UNL     1      -5.846  12.449  67.904  1.00  0.00    -0.086 C  
HETATM    2  O   UNL     1      -6.850  11.997  68.813  1.00  0.00    -0.082 OA 
ENDROOT
BRANCH   2   3
HETATM    3  C   UNL     1      -7.809  11.243  68.227  1.00  0.00    -0.130 C  
HETATM    4  O   UNL     1      -8.154  11.278  67.056  1.00  0.00    -0.136 OA 
BRANCH   3   5
HETATM    5  C   UNL     1      -8.401  10.369  69.252  1.00  0.00    -0.161 C  
HETATM    6  C   UNL     1      -9.734  10.296  69.328  1.00  0.00    -0.240 C  
BRANCH   6   7
HETATM    7  C   UNL     1     -10.373   9.557  70.429  1.00  0.00    -0.276 C  
HETATM    8  O   UNL     1     -11.556   9.282  70.498  1.00  0.00    -0.267 OA 
BRANCH   7   9
HETATM    9  O   UNL     1      -9.379   9.108  71.231  1.00  0.00    -0.254 OA 
BRANCH   9  10
HETATM   10  C   UNL     1      -9.265   7.678  71.306  1.00  0.00    -0.145 C  
BRANCH  10  11
HETATM   11  C   UNL     1      -7.771   7.385  71.403  1.00  0.00    -0.086 C  
BRANCH  11  12
HETATM   12  N   UNL     1      -7.087   7.324  70.134  1.00  0.00    -0.064 N  
HETATM   13  C   UNL     1      -7.478   6.530  69.097  1.00  0.00    -0.095 C  
HETATM   14  O   UNL     1      -8.507   5.880  69.023  1.00  0.00    -0.105 OA 
HETATM   15  C   UNL     1      -6.393   6.548  68.062  1.00  0.00    -0.040 C  
HETATM   16  C   UNL     1      -5.546   7.749  68.444  1.00  0.00    -0.028 C  
HETATM   17  C   UNL     1      -6.000   8.088  69.830  1.00  0.00    -0.023 C  
HETATM   18  O   UNL     1      -5.497   8.948  70.537  1.00  0.00    -0.027 OA 
ENDBRANCH  11  12
ENDBRANCH  10  11
ENDBRANCH   9  10
ENDBRANCH   7   9
ENDBRANCH   6   7
ENDBRANCH   3   5
ENDBRANCH   2   3
TORSDOF 7
ENDMDL
MODEL      344
REMARK 921   NORMALIZED FREE ENERGY PREDICTED BY IDOCK:   -1.44 KCAL/MOL
REMARK 922        TOTAL FREE ENERGY PREDICTED BY IDOCK:   -2.47 KCAL/MOL
REMARK 923 INTER-LIGAND FREE ENERGY PREDICTED BY IDOCK:   -1.91 KCAL/MOL
REMARK 924 INTRA-LIGAND FREE ENERGY PREDICTED BY IDOCK:   -0.56 KCAL/MOL
REMARK 927      BINDING AFFINITY PREDICTED BY RF-SCORE:    0.00 PKD
ROOT
HETATM    1  C   UNL     1      -5.681  12.831  67.610  1.00  0.00    -0.134 C  
HETATM    2  O   UNL     1      -6.258  11.578  67.978  1.00  0.00    -0.046 OA 
ENDROOT
BRANCH   2   3
HETATM    3  C   UNL     1      -6.472  10.751  66.928  1.00  0.00    -0.090 C  
HETATM    4  O   UNL     1      -5.982  10.844  65.813  1.00  0.00    -0.136 OA 
BRANCH   3   5
HETATM    5  C   UNL     1      -7.428   9.712  67.343  1.00  0.00    -0.091 C  
HETATM    6  C   UNL     1      -8.704   9.841  66.967  1.00  0.00    -0.141 C  
BRANCH   6   7
HETATM    7  C   UNL     1      -9.724   8.913  67.482  1.00  0.00    -0.170 C  
HETATM    8  O   UNL     1     -10.860   8.810  67.057  1.00  0.00    -0.193 OA 
BRANCH   7   9
HETATM    9  O   UNL     1      -9.106   8.103  68.373  1.00  0.00    -0.137 OA 
BRANCH   9  10
HETATM   10  C   UNL     1      -9.505   6.724  68.313  1.00  0.00    -0.125 C  
BRANCH  10  11
HETATM   11  C   UNL     1      -8.577   6.067  67.297  1.00  0.00    -0.106 C  
BRANCH  11  12
HETATM   12  N   UNL     1      -7.906   4.883  67.775  1.00  0.00    -0.093 N  
HETATM   13  C   UNL     1      -6.709   4.900  68.429  1.00  0.00    -0.050 C  
HETATM   14  O   UNL     1      -6.109   5.883  68.828  1.00  0.00    -0.022 OA 
HETATM   15  C   UNL     1      -6.218   3.487  68.537  1.00  0.00    -0.032 C  
HETATM   16  C   UNL     1      -7.449   2.650  68.242  1.00  0.00    -0.048 C  
HETATM   17  C   UNL     1      -8.421   3.627  67.656  1.00  0.00    -0.095 C  
HETATM   18  O   UNL     1      -9.515   3.332  67.197  1.00  0.00    -0.200 OA 
ENDBRANCH  11  12
ENDBRANCH  10  11
ENDBRANCH   9  10
ENDBRANCH   7   9
ENDBRANCH   6   7
ENDBRANCH   3   5
ENDBRANCH   2   3
TORSDOF 7
ENDMDL
