MODEL        1
REMARK 921   NORMALIZED FREE ENERGY PREDICTED BY IDOCK:   -5.90 KCAL/MOL
REMARK 922        TOTAL FREE ENERGY PREDICTED BY IDOCK:  -10.36 KCAL/MOL
REMARK 923 INTER-LIGAND FREE ENERGY PREDICTED BY IDOCK:   -8.66 KCAL/MOL
REMARK 924 INTRA-LIGAND FREE ENERGY PREDICTED BY IDOCK:   -1.71 KCAL/MOL
REMARK 927      BINDING AFFINITY PREDICTED BY RF-SCORE:    0.00 PKD
ROOT
HETATM    1  C   UNL     1      -7.722  16.709  68.879  1.00  0.00    -0.239 C  
HETATM    2  C   UNL     1      -8.248  17.637  67.756  1.00  0.00    -0.225 C  
HETATM    3  C   UNL     1      -7.216  17.528  66.621  1.00  0.00    -0.269 C  
ENDROOT
BRANCH   2   4
HETATM    4  N   UNL     1      -9.673  17.324  67.398  1.00  0.00    -0.253 NA 
BRANCH   4   5
HETATM    5  C   UNL     1     -10.232  16.264  68.309  1.00  0.00    -0.253 C  
BRANCH   5   6
HETATM    6  C   UNL     1     -11.167  15.257  67.610  1.00  0.00    -0.320 C  
BRANCH   6   7
HETATM    7  C   UNL     1     -10.741  13.746  67.581  1.00  0.00    -0.256 C  
BRANCH   7   8
HETATM    8  C   UNL     1     -11.382  13.046  68.814  1.00  0.00    -0.332 A  
HETATM    9  C   UNL     1     -11.920  13.773  69.892  1.00  0.00    -0.412 A  
HETATM   10  C   UNL     1     -12.547  13.132  70.965  1.00  0.00    -0.397 A  
HETATM   11  C   UNL     1     -11.527  11.642  68.854  1.00  0.00    -0.349 A  
HETATM   12  C   UNL     1     -12.653  11.746  70.989  1.00  0.00    -0.409 A  
HETATM   13  C   UNL     1     -12.140  11.001  69.935  1.00  0.00    -0.435 A  
ENDBRANCH   7   8
BRANCH   7  14
HETATM   14  C   UNL     1      -9.181  13.637  67.514  1.00  0.00    -0.218 C  
HETATM   15  N   UNL     1      -8.566  14.246  66.449  1.00  0.00    -0.400 N  
HETATM   16  H1  UNL     1      -7.550  14.174  66.405  1.00  0.00     0.000 HD 
HETATM   17  O   UNL     1      -8.477  13.021  68.311  1.00  0.00    -0.165 OA 
HETATM   18  H2  UNL     1      -9.098  14.745  65.737  1.00  0.00     0.000 HD 
ENDBRANCH   7  14
BRANCH   7  19
HETATM   19  C   UNL     1     -11.254  13.130  66.238  1.00  0.00    -0.301 A  
HETATM   20  C   UNL     1     -12.033  12.077  63.803  1.00  0.00    -0.588 A  
HETATM   21  N   UNL     1     -10.443  12.243  65.596  1.00  0.00    -0.254 NA 
HETATM   22  C   UNL     1     -12.877  12.955  64.467  1.00  0.00    -0.273 A  
HETATM   23  C   UNL     1     -10.838  11.747  64.405  1.00  0.00    -0.334 A  
HETATM   24  C   UNL     1     -12.494  13.486  65.703  1.00  0.00    -0.528 A  
ENDBRANCH   7  19
ENDBRANCH   6   7
ENDBRANCH   5   6
ENDBRANCH   4   5
BRANCH   4  25
HETATM   25  C   UNL     1     -10.610  18.488  67.268  1.00  0.00    -0.413 C  
HETATM   26  C   UNL     1     -10.383  19.664  68.234  1.00  0.00    -0.539 C  
HETATM   27  C   UNL     1     -10.550  19.125  65.858  1.00  0.00    -0.495 C  
ENDBRANCH   4  25
ENDBRANCH   2   4
TORSDOF 8
ENDMDL
MODEL        2
REMARK 921   NORMALIZED FREE ENERGY PREDICTED BY IDOCK:   -5.69 KCAL/MOL
REMARK 922        TOTAL FREE ENERGY PREDICTED BY IDOCK:  -10.06 KCAL/MOL
REMARK 923 INTER-LIGAND FREE ENERGY PREDICTED BY IDOCK:   -8.53 KCAL/MOL
REMARK 924 INTRA-LIGAND FREE ENERGY PREDICTED BY IDOCK:   -1.53 KCAL/MOL
REMARK 927      BINDING AFFINITY PREDICTED BY RF-SCORE:    0.00 PKD
ROOT
HETATM    1  C   UNL     1     -11.496  15.065  69.231  1.00  0.00    -0.326 C  
HETATM    2  C   UNL     1     -11.559  13.625  69.798  1.00  0.00    -0.254 C  
HETATM    3  C   UNL     1     -12.498  13.706  71.014  1.00  0.00    -0.456 C  
ENDROOT
BRANCH   2   4
HETATM    4  N   UNL     1     -11.923  12.626  68.737  1.00  0.00    -0.289 NA 
BRANCH   4   5
HETATM    5  C   UNL     1     -12.186  13.313  67.424  1.00  0.00    -0.186 C  
BRANCH   5   6
HETATM    6  C   UNL     1     -12.021  12.404  66.189  1.00  0.00    -0.397 C  
BRANCH   6   7
HETATM    7  C   UNL     1     -11.313  12.998  64.920  1.00  0.00    -0.332 C  
BRANCH   7   8
HETATM    8  C   UNL     1     -10.532  14.270  65.361  1.00  0.00    -0.382 A  
HETATM    9  C   UNL     1     -10.996  15.569  65.079  1.00  0.00    -0.454 A  
HETATM   10  C   UNL     1     -10.314  16.702  65.533  1.00  0.00    -0.268 A  
HETATM   11  C   UNL     1      -9.362  14.165  66.144  1.00  0.00    -0.166 A  
HETATM   12  C   UNL     1      -9.150  16.568  66.282  1.00  0.00    -0.348 A  
HETATM   13  C   UNL     1      -8.673  15.299  66.585  1.00  0.00    -0.327 A  
ENDBRANCH   7   8
BRANCH   7  14
HETATM   14  C   UNL     1     -12.370  13.247  63.792  1.00  0.00    -0.367 C  
HETATM   15  N   UNL     1     -13.002  12.140  63.285  1.00  0.00    -0.745 N  
HETATM   16  H1  UNL     1     -13.691  12.302  62.551  1.00  0.00     0.000 HD 
HETATM   17  O   UNL     1     -12.645  14.341  63.305  1.00  0.00    -0.716 OA 
HETATM   18  H2  UNL     1     -12.794  11.202  63.626  1.00  0.00     0.000 HD 
ENDBRANCH   7  14
BRANCH   7  19
HETATM   19  C   UNL     1     -10.354  11.903  64.350  1.00  0.00    -0.299 A  
HETATM   20  C   UNL     1      -8.735   9.969  63.217  1.00  0.00    -0.223 A  
HETATM   21  N   UNL     1      -9.810  12.115  63.118  1.00  0.00    -0.345 NA 
HETATM   22  C   UNL     1      -9.260   9.761  64.484  1.00  0.00    -0.310 A  
HETATM   23  C   UNL     1      -9.029  11.155  62.579  1.00  0.00    -0.299 A  
HETATM   24  C   UNL     1     -10.074  10.738  65.068  1.00  0.00    -0.377 A  
ENDBRANCH   7  19
ENDBRANCH   6   7
ENDBRANCH   5   6
ENDBRANCH   4   5
BRANCH   4  25
HETATM   25  C   UNL     1     -11.006  11.451  68.570  1.00  0.00    -0.221 C  
HETATM   26  C   UNL     1      -9.498  11.734  68.691  1.00  0.00    -0.107 C  
HETATM   27  C   UNL     1     -11.279  10.348  69.620  1.00  0.00    -0.333 C  
ENDBRANCH   4  25
ENDBRANCH   2   4
TORSDOF 8
ENDMDL
MODEL        3
REMARK 921   NORMALIZED FREE ENERGY PREDICTED BY IDOCK:   -5.66 KCAL/MOL
REMARK 922        TOTAL FREE ENERGY PREDICTED BY IDOCK:  -10.02 KCAL/MOL
REMARK 923 INTER-LIGAND FREE ENERGY PREDICTED BY IDOCK:   -8.33 KCAL/MOL
REMARK 924 INTRA-LIGAND FREE ENERGY PREDICTED BY IDOCK:   -1.69 KCAL/MOL
REMARK 927      BINDING AFFINITY PREDICTED BY RF-SCORE:    0.00 PKD
ROOT
HETATM    1  C   UNL     1     -10.470   9.413  68.112  1.00  0.00    -0.267 C  
HETATM    2  C   UNL     1     -10.755   9.597  69.623  1.00  0.00    -0.240 C  
HETATM    3  C   UNL     1      -9.386   9.484  70.314  1.00  0.00    -0.305 C  
ENDROOT
BRANCH   2   4
HETATM    4  N   UNL     1     -11.539  10.850  69.892  1.00  0.00    -0.301 NA 
BRANCH   4   5
HETATM    5  C   UNL     1     -11.813  11.594  68.613  1.00  0.00    -0.308 C  
BRANCH   5   6
HETATM    6  C   UNL     1     -11.321  13.055  68.612  1.00  0.00    -0.329 C  
BRANCH   6   7
HETATM    7  C   UNL     1     -10.449  13.544  67.402  1.00  0.00    -0.247 C  
BRANCH   7   8
HETATM    8  C   UNL     1     -11.049  12.931  66.103  1.00  0.00    -0.314 A  
HETATM    9  C   UNL     1     -12.364  13.207  65.684  1.00  0.00    -0.519 A  
HETATM   10  C   UNL     1     -12.870  12.697  64.484  1.00  0.00    -0.356 A  
HETATM   11  C   UNL     1     -10.257  12.139  65.244  1.00  0.00    -0.304 A  
HETATM   12  C   UNL     1     -12.074  11.899  63.670  1.00  0.00    -0.580 A  
HETATM   13  C   UNL     1     -10.768  11.618  64.051  1.00  0.00    -0.442 A  
ENDBRANCH   7   8
BRANCH   7  14
HETATM   14  C   UNL     1      -8.947  13.183  67.652  1.00  0.00    -0.192 C  
HETATM   15  N   UNL     1      -8.011  13.983  67.044  1.00  0.00    -0.374 N  
HETATM   16  H1  UNL     1      -7.033  13.747  67.207  1.00  0.00     0.000 HD 
HETATM   17  O   UNL     1      -8.546  12.228  68.312  1.00  0.00    -0.174 OA 
HETATM   18  H2  UNL     1      -8.282  14.772  66.458  1.00  0.00     0.000 HD 
ENDBRANCH   7  14
BRANCH   7  19
HETATM   19  C   UNL     1     -10.498  15.106  67.377  1.00  0.00    -0.264 A  
HETATM   20  C   UNL     1     -10.450  17.869  67.273  1.00  0.00    -0.373 A  
HETATM   21  N   UNL     1     -10.170  15.733  66.211  1.00  0.00    -0.287 NA 
HETATM   22  C   UNL     1     -10.815  17.238  68.453  1.00  0.00    -0.273 A  
HETATM   23  C   UNL     1     -10.145  17.082  66.184  1.00  0.00    -0.319 A  
HETATM   24  C   UNL     1     -10.849  15.840  68.512  1.00  0.00    -0.290 A  
ENDBRANCH   7  19
ENDBRANCH   6   7
ENDBRANCH   5   6
ENDBRANCH   4   5
BRANCH   4  25
HETATM   25  C   UNL     1     -12.781  10.708  70.722  1.00  0.00    -0.378 C  
HETATM   26  C   UNL     1     -12.905   9.419  71.556  1.00  0.00    -0.442 C  
HETATM   27  C   UNL     1     -12.923  11.853  71.754  1.00  0.00    -0.455 C  
ENDBRANCH   4  25
ENDBRANCH   2   4
TORSDOF 8
ENDMDL
MODEL        4
REMARK 921   NORMALIZED FREE ENERGY PREDICTED BY IDOCK:   -5.66 KCAL/MOL
REMARK 922        TOTAL FREE ENERGY PREDICTED BY IDOCK:  -10.01 KCAL/MOL
REMARK 923 INTER-LIGAND FREE ENERGY PREDICTED BY IDOCK:   -8.81 KCAL/MOL
REMARK 924 INTRA-LIGAND FREE ENERGY PREDICTED BY IDOCK:   -1.20 KCAL/MOL
REMARK 927      BINDING AFFINITY PREDICTED BY RF-SCORE:    0.00 PKD
ROOT
HETATM    1  C   UNL     1     -11.955  15.277  71.867  1.00  0.00    -0.472 C  
HETATM    2  C   UNL     1     -12.876  14.034  71.794  1.00  0.00    -0.340 C  
HETATM    3  C   UNL     1     -14.310  14.588  71.816  1.00  0.00    -0.609 C  
ENDROOT
BRANCH   2   4
HETATM    4  N   UNL     1     -12.518  13.145  70.637  1.00  0.00    -0.321 NA 
BRANCH   4   5
HETATM    5  C   UNL     1     -11.444  13.774  69.792  1.00  0.00    -0.199 C  
BRANCH   5   6
HETATM    6  C   UNL     1     -11.844  13.995  68.319  1.00  0.00    -0.406 C  
BRANCH   6   7
HETATM    7  C   UNL     1     -10.706  14.287  67.277  1.00  0.00    -0.277 C  
BRANCH   7   8
HETATM    8  C   UNL     1     -11.081  13.568  65.948  1.00  0.00    -0.292 A  
HETATM    9  C   UNL     1     -10.108  13.165  65.015  1.00  0.00    -0.240 A  
HETATM   10  C   UNL     1     -10.455  12.467  63.854  1.00  0.00    -0.469 A  
HETATM   11  C   UNL     1     -12.419  13.213  65.670  1.00  0.00    -0.485 A  
HETATM   12  C   UNL     1     -11.784  12.152  63.595  1.00  0.00    -0.588 A  
HETATM   13  C   UNL     1     -12.767  12.528  64.502  1.00  0.00    -0.440 A  
ENDBRANCH   7   8
BRANCH   7  14
HETATM   14  C   UNL     1      -9.322  13.865  67.872  1.00  0.00    -0.208 C  
HETATM   15  N   UNL     1      -8.364  14.844  67.957  1.00  0.00    -0.142 N  
HETATM   16  H1  UNL     1      -7.461  14.569  68.344  1.00  0.00     0.000 HD 
HETATM   17  O   UNL     1      -9.018  12.729  68.228  1.00  0.00    -0.194 OA 
HETATM   18  H2  UNL     1      -8.545  15.798  67.648  1.00  0.00     0.000 HD 
ENDBRANCH   7  14
BRANCH   7  19
HETATM   19  C   UNL     1     -10.618  15.836  67.087  1.00  0.00    -0.313 A  
HETATM   20  C   UNL     1     -10.578  18.590  66.839  1.00  0.00    -0.406 A  
HETATM   21  N   UNL     1     -10.653  16.616  68.205  1.00  0.00    -0.322 NA 
HETATM   22  C   UNL     1     -10.510  17.802  65.699  1.00  0.00    -0.132 A  
HETATM   23  C   UNL     1     -10.641  17.957  68.062  1.00  0.00    -0.356 A  
HETATM   24  C   UNL     1     -10.522  16.408  65.816  1.00  0.00    -0.369 A  
ENDBRANCH   7  19
ENDBRANCH   6   7
ENDBRANCH   5   6
ENDBRANCH   4   5
BRANCH   4  25
HETATM   25  C   UNL     1     -12.201  11.714  70.955  1.00  0.00    -0.298 C  
HETATM   26  C   UNL     1     -13.273  10.930  71.733  1.00  0.00    -0.513 C  
HETATM   27  C   UNL     1     -11.959  10.876  69.676  1.00  0.00    -0.414 C  
ENDBRANCH   4  25
ENDBRANCH   2   4
TORSDOF 8
ENDMDL
MODEL        5
REMARK 921   NORMALIZED FREE ENERGY PREDICTED BY IDOCK:   -5.65 KCAL/MOL
REMARK 922        TOTAL FREE ENERGY PREDICTED BY IDOCK:  -10.01 KCAL/MOL
REMARK 923 INTER-LIGAND FREE ENERGY PREDICTED BY IDOCK:   -9.02 KCAL/MOL
REMARK 924 INTRA-LIGAND FREE ENERGY PREDICTED BY IDOCK:   -0.99 KCAL/MOL
REMARK 927      BINDING AFFINITY PREDICTED BY RF-SCORE:    0.00 PKD
ROOT
HETATM    1  C   UNL     1      -8.880  11.598  66.824  1.00  0.00    -0.184 C  
HETATM    2  C   UNL     1     -10.336  11.547  66.298  1.00  0.00    -0.239 C  
HETATM    3  C   UNL     1     -11.190  11.121  67.503  1.00  0.00    -0.369 C  
ENDROOT
BRANCH   2   4
HETATM    4  N   UNL     1     -10.727  12.831  65.621  1.00  0.00    -0.269 NA 
BRANCH   4   5
HETATM    5  C   UNL     1      -9.920  13.983  66.154  1.00  0.00    -0.312 C  
BRANCH   5   6
HETATM    6  C   UNL     1     -10.766  15.143  66.716  1.00  0.00    -0.311 C  
BRANCH   6   7
HETATM    7  C   UNL     1     -10.195  15.958  67.931  1.00  0.00    -0.251 C  
BRANCH   7   8
HETATM    8  C   UNL     1     -10.235  17.467  67.553  1.00  0.00    -0.340 A  
HETATM    9  C   UNL     1     -10.116  18.484  68.519  1.00  0.00    -0.414 A  
HETATM   10  C   UNL     1     -10.093  19.835  68.158  1.00  0.00    -0.574 A  
HETATM   11  C   UNL     1     -10.306  17.873  66.203  1.00  0.00    -0.352 A  
HETATM   12  C   UNL     1     -10.189  20.206  66.821  1.00  0.00    -0.562 A  
HETATM   13  C   UNL     1     -10.299  19.225  65.844  1.00  0.00    -0.499 A  
ENDBRANCH   7   8
BRANCH   7  14
HETATM   14  C   UNL     1      -8.773  15.423  68.306  1.00  0.00    -0.164 C  
HETATM   15  N   UNL     1      -8.687  14.636  69.427  1.00  0.00    -0.400 N  
HETATM   16  H1  UNL     1      -7.760  14.288  69.672  1.00  0.00     0.000 HD 
HETATM   17  O   UNL     1      -7.735  15.682  67.703  1.00  0.00    -0.133 OA 
HETATM   18  H2  UNL     1      -9.508  14.411  69.988  1.00  0.00     0.000 HD 
ENDBRANCH   7  14
BRANCH   7  19
HETATM   19  C   UNL     1     -11.091  15.653  69.175  1.00  0.00    -0.284 A  
HETATM   20  C   UNL     1     -12.554  15.118  71.460  1.00  0.00    -0.425 A  
HETATM   21  N   UNL     1     -10.948  16.452  70.271  1.00  0.00    -0.320 NA 
HETATM   22  C   UNL     1     -12.727  14.321  70.338  1.00  0.00    -0.355 A  
HETATM   23  C   UNL     1     -11.666  16.169  71.378  1.00  0.00    -0.444 A  
HETATM   24  C   UNL     1     -11.996  14.589  69.176  1.00  0.00    -0.344 A  
ENDBRANCH   7  19
ENDBRANCH   6   7
ENDBRANCH   5   6
ENDBRANCH   4   5
BRANCH   4  25
HETATM   25  C   UNL     1     -10.754  12.824  64.121  1.00  0.00    -0.412 C  
HETATM   26  C   UNL     1     -10.114  11.608  63.428  1.00  0.00    -0.468 C  
HETATM   27  C   UNL     1     -12.198  12.872  63.567  1.00  0.00    -0.595 C  
ENDBRANCH   4  25
ENDBRANCH   2   4
TORSDOF 8
ENDMDL
MODEL        6
REMARK 921   NORMALIZED FREE ENERGY PREDICTED BY IDOCK:   -5.64 KCAL/MOL
REMARK 922        TOTAL FREE ENERGY PREDICTED BY IDOCK:   -9.99 KCAL/MOL
REMARK 923 INTER-LIGAND FREE ENERGY PREDICTED BY IDOCK:   -8.93 KCAL/MOL
REMARK 924 INTRA-LIGAND FREE ENERGY PREDICTED BY IDOCK:   -1.06 KCAL/MOL
REMARK 927      BINDING AFFINITY PREDICTED BY RF-SCORE:    0.00 PKD
ROOT
HETATM    1  C   UNL     1     -11.766  12.210  69.943  1.00  0.00    -0.361 C  
HETATM    2  C   UNL     1     -12.722  13.081  70.796  1.00  0.00    -0.165 C  
HETATM    3  C   UNL     1     -13.358  12.115  71.810  1.00  0.00    -0.342 C  
ENDROOT
BRANCH   2   4
HETATM    4  N   UNL     1     -12.020  14.281  71.364  1.00  0.00    -0.281 NA 
BRANCH   4   5
HETATM    5  C   UNL     1     -10.907  14.729  70.457  1.00  0.00     0.051 C  
BRANCH   5   6
HETATM    6  C   UNL     1     -11.380  15.471  69.191  1.00  0.00    -0.333 C  
BRANCH   6   7
HETATM    7  C   UNL     1     -10.352  15.679  68.023  1.00  0.00    -0.246 C  
BRANCH   7   8
HETATM    8  C   UNL     1     -10.833  14.834  66.808  1.00  0.00    -0.316 A  
HETATM    9  C   UNL     1     -10.001  14.572  65.703  1.00  0.00    -0.376 A  
HETATM   10  C   UNL     1     -10.426  13.762  64.646  1.00  0.00    -0.433 A  
HETATM   11  C   UNL     1     -12.104  14.220  66.812  1.00  0.00    -0.446 A  
HETATM   12  C   UNL     1     -11.694  13.190  64.665  1.00  0.00    -0.404 A  
HETATM   13  C   UNL     1     -12.534  13.422  65.747  1.00  0.00    -0.496 A  
ENDBRANCH   7   8
BRANCH   7  14
HETATM   14  C   UNL     1      -8.909  15.333  68.521  1.00  0.00    -0.185 C  
HETATM   15  N   UNL     1      -8.102  16.392  68.855  1.00  0.00    -0.228 N  
HETATM   16  H1  UNL     1      -7.162  16.167  69.179  1.00  0.00     0.000 HD 
HETATM   17  O   UNL     1      -8.436  14.202  68.597  1.00  0.00    -0.159 OA 
HETATM   18  H2  UNL     1      -8.426  17.356  68.782  1.00  0.00     0.000 HD 
ENDBRANCH   7  14
BRANCH   7  19
HETATM   19  C   UNL     1     -10.315  17.205  67.684  1.00  0.00    -0.344 A  
HETATM   20  C   UNL     1     -10.365  19.922  67.174  1.00  0.00    -0.581 A  
HETATM   21  N   UNL     1     -10.331  18.087  68.723  1.00  0.00    -0.345 NA 
HETATM   22  C   UNL     1     -10.317  19.030  66.112  1.00  0.00    -0.537 A  
HETATM   23  C   UNL     1     -10.363  19.409  68.453  1.00  0.00    -0.359 A  
HETATM   24  C   UNL     1     -10.284  17.654  66.362  1.00  0.00    -0.364 A  
ENDBRANCH   7  19
ENDBRANCH   6   7
ENDBRANCH   5   6
ENDBRANCH   4   5
BRANCH   4  25
HETATM   25  C   UNL     1     -12.883  15.433  71.787  1.00  0.00    -0.407 C  
HETATM   26  C   UNL     1     -14.385  15.317  71.474  1.00  0.00    -0.633 C  
HETATM   27  C   UNL     1     -12.822  15.673  73.315  1.00  0.00    -0.643 C  
ENDBRANCH   4  25
ENDBRANCH   2   4
TORSDOF 8
ENDMDL
MODEL        7
REMARK 921   NORMALIZED FREE ENERGY PREDICTED BY IDOCK:   -5.63 KCAL/MOL
REMARK 922        TOTAL FREE ENERGY PREDICTED BY IDOCK:   -9.98 KCAL/MOL
REMARK 923 INTER-LIGAND FREE ENERGY PREDICTED BY IDOCK:   -8.80 KCAL/MOL
REMARK 924 INTRA-LIGAND FREE ENERGY PREDICTED BY IDOCK:   -1.18 KCAL/MOL
REMARK 927      BINDING AFFINITY PREDICTED BY RF-SCORE:    0.00 PKD
ROOT
HETATM    1  C   UNL     1     -12.625  15.110  70.330  1.00  0.00    -0.370 C  
HETATM    2  C   UNL     1     -12.276  13.763  71.010  1.00  0.00    -0.319 C  
HETATM    3  C   UNL     1     -13.317  13.588  72.128  1.00  0.00    -0.593 C  
ENDROOT
BRANCH   2   4
HETATM    4  N   UNL     1     -12.173  12.646  70.010  1.00  0.00    -0.244 NA 
BRANCH   4   5
HETATM    5  C   UNL     1     -11.311  13.050  68.845  1.00  0.00    -0.287 C  
BRANCH   5   6
HETATM    6  C   UNL     1     -12.030  13.013  67.482  1.00  0.00    -0.360 C  
BRANCH   6   7
HETATM    7  C   UNL     1     -11.291  13.618  66.236  1.00  0.00    -0.325 C  
BRANCH   7   8
HETATM    8  C   UNL     1     -10.192  14.588  66.758  1.00  0.00    -0.266 A  
HETATM    9  C   UNL     1     -10.501  15.863  67.269  1.00  0.00    -0.310 A  
HETATM   10  C   UNL     1      -9.509  16.700  67.790  1.00  0.00    -0.227 A  
HETATM   11  C   UNL     1      -8.840  14.185  66.819  1.00  0.00    -0.190 A  
HETATM   12  C   UNL     1      -8.182  16.285  67.815  1.00  0.00    -0.158 A  
HETATM   13  C   UNL     1      -7.848  15.029  67.327  1.00  0.00    -0.241 A  
ENDBRANCH   7   8
BRANCH   7  14
HETATM   14  C   UNL     1     -12.332  14.279  65.272  1.00  0.00    -0.424 C  
HETATM   15  N   UNL     1     -11.830  15.102  64.294  1.00  0.00    -0.727 N  
HETATM   16  H1  UNL     1     -12.508  15.533  63.667  1.00  0.00     0.000 HD 
HETATM   17  O   UNL     1     -13.551  14.151  65.347  1.00  0.00    -0.568 OA 
HETATM   18  H2  UNL     1     -10.829  15.274  64.201  1.00  0.00     0.000 HD 
ENDBRANCH   7  14
BRANCH   7  19
HETATM   19  C   UNL     1     -10.673  12.433  65.424  1.00  0.00    -0.282 A  
HETATM   20  C   UNL     1      -9.678  10.365  63.881  1.00  0.00    -0.367 A  
HETATM   21  N   UNL     1     -10.343  12.661  64.121  1.00  0.00    -0.391 NA 
HETATM   22  C   UNL     1      -9.982  10.135  65.215  1.00  0.00    -0.381 A  
HETATM   23  C   UNL     1      -9.867  11.636  63.383  1.00  0.00    -0.404 A  
HETATM   24  C   UNL     1     -10.479  11.178  66.005  1.00  0.00    -0.312 A  
ENDBRANCH   7  19
ENDBRANCH   6   7
ENDBRANCH   5   6
ENDBRANCH   4   5
BRANCH   4  25
HETATM   25  C   UNL     1     -11.787  11.296  70.539  1.00  0.00    -0.324 C  
HETATM   26  C   UNL     1     -12.930  10.286  70.743  1.00  0.00    -0.408 C  
HETATM   27  C   UNL     1     -10.790  10.570  69.605  1.00  0.00    -0.320 C  
ENDBRANCH   4  25
ENDBRANCH   2   4
TORSDOF 8
ENDMDL
MODEL        8
REMARK 921   NORMALIZED FREE ENERGY PREDICTED BY IDOCK:   -5.61 KCAL/MOL
REMARK 922        TOTAL FREE ENERGY PREDICTED BY IDOCK:   -9.94 KCAL/MOL
REMARK 923 INTER-LIGAND FREE ENERGY PREDICTED BY IDOCK:   -8.67 KCAL/MOL
REMARK 924 INTRA-LIGAND FREE ENERGY PREDICTED BY IDOCK:   -1.27 KCAL/MOL
REMARK 927      BINDING AFFINITY PREDICTED BY RF-SCORE:    0.00 PKD
ROOT
HETATM    1  C   UNL     1     -11.542  15.252  71.604  1.00  0.00    -0.473 C  
HETATM    2  C   UNL     1     -12.693  14.225  71.464  1.00  0.00    -0.350 C  
HETATM    3  C   UNL     1     -13.983  15.061  71.426  1.00  0.00    -0.565 C  
ENDROOT
BRANCH   2   4
HETATM    4  N   UNL     1     -12.466  13.292  70.308  1.00  0.00    -0.235 NA 
BRANCH   4   5
HETATM    5  C   UNL     1     -11.489  13.883  69.328  1.00  0.00    -0.297 C  
BRANCH   5   6
HETATM    6  C   UNL     1     -12.112  14.284  67.976  1.00  0.00    -0.289 C  
BRANCH   6   7
HETATM    7  C   UNL     1     -11.148  14.706  66.811  1.00  0.00    -0.335 C  
BRANCH   7   8
HETATM    8  C   UNL     1     -10.844  16.225  66.970  1.00  0.00    -0.173 A  
HETATM    9  C   UNL     1     -10.712  16.833  68.233  1.00  0.00    -0.364 A  
HETATM   10  C   UNL     1     -10.380  18.185  68.360  1.00  0.00    -0.371 A  
HETATM   11  C   UNL     1     -10.603  17.037  65.841  1.00  0.00    -0.221 A  
HETATM   12  C   UNL     1     -10.172  18.966  67.229  1.00  0.00    -0.454 A  
HETATM   13  C   UNL     1     -10.286  18.392  65.969  1.00  0.00    -0.397 A  
ENDBRANCH   7   8
BRANCH   7  14
HETATM   14  C   UNL     1     -11.778  14.314  65.433  1.00  0.00    -0.354 C  
HETATM   15  N   UNL     1     -10.907  14.118  64.391  1.00  0.00    -0.609 N  
HETATM   16  H1  UNL     1     -11.319  13.863  63.493  1.00  0.00     0.000 HD 
HETATM   17  O   UNL     1     -12.981  14.208  65.207  1.00  0.00    -0.725 OA 
HETATM   18  H2  UNL     1      -9.900  14.222  64.508  1.00  0.00     0.000 HD 
ENDBRANCH   7  14
BRANCH   7  19
HETATM   19  C   UNL     1      -9.848  13.845  66.928  1.00  0.00    -0.268 A  
HETATM   20  C   UNL     1      -7.625  12.227  67.219  1.00  0.00    -0.152 A  
HETATM   21  N   UNL     1      -9.944  12.511  66.663  1.00  0.00    -0.231 NA 
HETATM   22  C   UNL     1      -7.513  13.588  67.460  1.00  0.00    -0.177 A  
HETATM   23  C   UNL     1      -8.850  11.738  66.819  1.00  0.00    -0.191 A  
HETATM   24  C   UNL     1      -8.631  14.415  67.308  1.00  0.00    -0.230 A  
ENDBRANCH   7  19
ENDBRANCH   6   7
ENDBRANCH   5   6
ENDBRANCH   4   5
BRANCH   4  25
HETATM   25  C   UNL     1     -12.119  11.871  70.643  1.00  0.00    -0.294 C  
HETATM   26  C   UNL     1     -13.072  11.141  71.607  1.00  0.00    -0.529 C  
HETATM   27  C   UNL     1     -12.077  10.972  69.384  1.00  0.00    -0.389 C  
ENDBRANCH   4  25
ENDBRANCH   2   4
TORSDOF 8
ENDMDL
MODEL        9
REMARK 921   NORMALIZED FREE ENERGY PREDICTED BY IDOCK:   -5.58 KCAL/MOL
REMARK 922        TOTAL FREE ENERGY PREDICTED BY IDOCK:   -9.90 KCAL/MOL
REMARK 923 INTER-LIGAND FREE ENERGY PREDICTED BY IDOCK:   -8.29 KCAL/MOL
REMARK 924 INTRA-LIGAND FREE ENERGY PREDICTED BY IDOCK:   -1.61 KCAL/MOL
REMARK 927      BINDING AFFINITY PREDICTED BY RF-SCORE:    0.00 PKD
ROOT
HETATM    1  C   UNL     1     -13.646   9.112  72.198  1.00  0.00    -0.534 C  
HETATM    2  C   UNL     1     -13.230  10.106  71.085  1.00  0.00    -0.355 C  
HETATM    3  C   UNL     1     -13.119  11.473  71.780  1.00  0.00    -0.503 C  
ENDROOT
BRANCH   2   4
HETATM    4  N   UNL     1     -12.012   9.631  70.344  1.00  0.00    -0.168 NA 
BRANCH   4   5
HETATM    5  C   UNL     1     -11.170  10.795  69.899  1.00  0.00    -0.300 C  
BRANCH   5   6
HETATM    6  C   UNL     1     -11.464  11.279  68.465  1.00  0.00    -0.372 C  
BRANCH   6   7
HETATM    7  C   UNL     1     -10.305  11.218  67.408  1.00  0.00    -0.233 C  
BRANCH   7   8
HETATM    8  C   UNL     1      -9.730   9.771  67.414  1.00  0.00    -0.202 A  
HETATM    9  C   UNL     1     -10.484   8.665  66.981  1.00  0.00    -0.354 A  
HETATM   10  C   UNL     1      -9.934   7.379  66.937  1.00  0.00    -0.307 A  
HETATM   11  C   UNL     1      -8.387   9.528  67.777  1.00  0.00    -0.118 A  
HETATM   12  C   UNL     1      -8.615   7.166  67.323  1.00  0.00    -0.121 A  
HETATM   13  C   UNL     1      -7.843   8.240  67.747  1.00  0.00    -0.114 A  
ENDBRANCH   7   8
BRANCH   7  14
HETATM   14  C   UNL     1      -9.251  12.334  67.712  1.00  0.00    -0.191 C  
HETATM   15  N   UNL     1      -9.580  13.242  68.688  1.00  0.00    -0.404 N  
HETATM   16  H1  UNL     1      -8.893  13.969  68.886  1.00  0.00     0.000 HD 
HETATM   17  O   UNL     1      -8.182  12.480  67.126  1.00  0.00    -0.180 OA 
HETATM   18  H2  UNL     1     -10.466  13.192  69.189  1.00  0.00     0.000 HD 
ENDBRANCH   7  14
BRANCH   7  19
HETATM   19  C   UNL     1     -10.908  11.590  66.014  1.00  0.00    -0.276 A  
HETATM   20  C   UNL     1     -12.104  12.201  63.597  1.00  0.00    -0.648 A  
HETATM   21  N   UNL     1     -12.051  12.334  65.995  1.00  0.00    -0.630 NA 
HETATM   22  C   UNL     1     -10.924  11.471  63.608  1.00  0.00    -0.482 A  
HETATM   23  C   UNL     1     -12.623  12.614  64.806  1.00  0.00    -0.454 A  
HETATM   24  C   UNL     1     -10.309  11.164  64.827  1.00  0.00    -0.387 A  
ENDBRANCH   7  19
ENDBRANCH   6   7
ENDBRANCH   5   6
ENDBRANCH   4   5
BRANCH   4  25
HETATM   25  C   UNL     1     -11.183   8.574  71.011  1.00  0.00    -0.268 C  
HETATM   26  C   UNL     1     -11.171   7.187  70.343  1.00  0.00    -0.320 C  
HETATM   27  C   UNL     1      -9.690   8.976  71.098  1.00  0.00    -0.369 C  
ENDBRANCH   4  25
ENDBRANCH   2   4
TORSDOF 8
ENDMDL
MODEL       10
REMARK 921   NORMALIZED FREE ENERGY PREDICTED BY IDOCK:   -5.56 KCAL/MOL
REMARK 922        TOTAL FREE ENERGY PREDICTED BY IDOCK:   -9.86 KCAL/MOL
REMARK 923 INTER-LIGAND FREE ENERGY PREDICTED BY IDOCK:   -8.21 KCAL/MOL
REMARK 924 INTRA-LIGAND FREE ENERGY PREDICTED BY IDOCK:   -1.65 KCAL/MOL
REMARK 927      BINDING AFFINITY PREDICTED BY RF-SCORE:    0.00 PKD
ROOT
HETATM    1  C   UNL     1     -10.908  19.238  67.272  1.00  0.00    -0.554 C  
HETATM    2  C   UNL     1     -10.506  17.742  67.283  1.00  0.00    -0.353 C  
HETATM    3  C   UNL     1      -9.936  17.463  65.883  1.00  0.00    -0.166 C  
ENDROOT
BRANCH   2   4
HETATM    4  N   UNL     1      -9.614  17.416  68.447  1.00  0.00    -0.281 NA 
BRANCH   4   5
HETATM    5  C   UNL     1      -9.961  16.071  69.026  1.00  0.00    -0.242 C  
BRANCH   5   6
HETATM    6  C   UNL     1     -11.013  15.285  68.217  1.00  0.00    -0.276 C  
BRANCH   6   7
HETATM    7  C   UNL     1     -10.748  13.763  67.935  1.00  0.00    -0.256 C  
BRANCH   7   8
HETATM    8  C   UNL     1     -11.498  12.940  69.023  1.00  0.00    -0.358 A  
HETATM    9  C   UNL     1     -11.631  11.541  68.943  1.00  0.00    -0.384 A  
HETATM   10  C   UNL     1     -12.256  10.809  69.957  1.00  0.00    -0.409 A  
HETATM   11  C   UNL     1     -12.002  13.565  70.184  1.00  0.00    -0.399 A  
HETATM   12  C   UNL     1     -12.764  11.455  71.079  1.00  0.00    -0.447 A  
HETATM   13  C   UNL     1     -12.640  12.834  71.190  1.00  0.00    -0.365 A  
ENDBRANCH   7   8
BRANCH   7  14
HETATM   14  C   UNL     1      -9.207  13.497  67.872  1.00  0.00    -0.211 C  
HETATM   15  N   UNL     1      -8.544  13.978  66.770  1.00  0.00    -0.431 N  
HETATM   16  H1  UNL     1      -7.540  13.804  66.729  1.00  0.00     0.000 HD 
HETATM   17  O   UNL     1      -8.561  12.864  68.702  1.00  0.00    -0.083 OA 
HETATM   18  H2  UNL     1      -9.031  14.484  66.031  1.00  0.00     0.000 HD 
ENDBRANCH   7  14
BRANCH   7  19
HETATM   19  C   UNL     1     -11.281  13.442  66.501  1.00  0.00    -0.307 A  
HETATM   20  C   UNL     1     -12.084  12.864  63.919  1.00  0.00    -0.553 A  
HETATM   21  N   UNL     1     -10.754  12.363  65.855  1.00  0.00    -0.259 NA 
HETATM   22  C   UNL     1     -12.647  13.945  64.582  1.00  0.00    -0.287 A  
HETATM   23  C   UNL     1     -11.153  12.103  64.593  1.00  0.00    -0.317 A  
HETATM   24  C   UNL     1     -12.252  14.240  65.892  1.00  0.00    -0.422 A  
ENDBRANCH   7  19
ENDBRANCH   6   7
ENDBRANCH   5   6
ENDBRANCH   4   5
BRANCH   4  25
HETATM   25  C   UNL     1      -8.137  17.557  68.228  1.00  0.00    -0.268 C  
HETATM   26  C   UNL     1      -7.509  18.905  68.626  1.00  0.00    -0.355 C  
HETATM   27  C   UNL     1      -7.329  16.504  69.025  1.00  0.00    -0.228 C  
ENDBRANCH   4  25
ENDBRANCH   2   4
TORSDOF 8
ENDMDL
MODEL       11
REMARK 921   NORMALIZED FREE ENERGY PREDICTED BY IDOCK:   -5.54 KCAL/MOL
REMARK 922        TOTAL FREE ENERGY PREDICTED BY IDOCK:   -9.84 KCAL/MOL
REMARK 923 INTER-LIGAND FREE ENERGY PREDICTED BY IDOCK:   -8.49 KCAL/MOL
REMARK 924 INTRA-LIGAND FREE ENERGY PREDICTED BY IDOCK:   -1.35 KCAL/MOL
REMARK 927      BINDING AFFINITY PREDICTED BY RF-SCORE:    0.00 PKD
ROOT
HETATM    1  C   UNL     1     -10.458  20.213  68.251  1.00  0.00    -0.357 C  
HETATM    2  C   UNL     1     -10.098  19.159  67.174  1.00  0.00    -0.373 C  
HETATM    3  C   UNL     1     -10.425  19.824  65.827  1.00  0.00    -0.545 C  
ENDROOT
BRANCH   2   4
HETATM    4  N   UNL     1      -8.695  18.649  67.345  1.00  0.00    -0.268 NA 
BRANCH   4   5
HETATM    5  C   UNL     1      -8.693  17.164  67.588  1.00  0.00    -0.213 C  
BRANCH   5   6
HETATM    6  C   UNL     1     -10.063  16.486  67.386  1.00  0.00    -0.279 C  
BRANCH   6   7
HETATM    7  C   UNL     1     -10.213  14.978  67.795  1.00  0.00    -0.236 C  
BRANCH   7   8
HETATM    8  C   UNL     1     -11.018  14.923  69.126  1.00  0.00    -0.266 A  
HETATM    9  C   UNL     1     -11.738  13.779  69.518  1.00  0.00    -0.380 A  
HETATM   10  C   UNL     1     -12.408  13.723  70.745  1.00  0.00    -0.451 A  
HETATM   11  C   UNL     1     -10.983  16.001  70.038  1.00  0.00    -0.365 A  
HETATM   12  C   UNL     1     -12.375  14.810  71.612  1.00  0.00    -0.409 A  
HETATM   13  C   UNL     1     -11.665  15.950  71.257  1.00  0.00    -0.504 A  
ENDBRANCH   7   8
BRANCH   7  14
HETATM   14  C   UNL     1      -8.802  14.305  67.865  1.00  0.00    -0.179 C  
HETATM   15  N   UNL     1      -8.300  13.802  66.691  1.00  0.00    -0.397 N  
HETATM   16  H1  UNL     1      -7.381  13.363  66.737  1.00  0.00     0.000 HD 
HETATM   17  O   UNL     1      -8.134  14.161  68.886  1.00  0.00    -0.122 OA 
HETATM   18  H2  UNL     1      -8.821  13.863  65.817  1.00  0.00     0.000 HD 
ENDBRANCH   7  14
BRANCH   7  19
HETATM   19  C   UNL     1     -10.963  14.241  66.639  1.00  0.00    -0.310 A  
HETATM   20  C   UNL     1     -12.175  12.845  64.582  1.00  0.00    -0.494 A  
HETATM   21  N   UNL     1     -11.056  12.882  66.707  1.00  0.00    -0.273 NA 
HETATM   22  C   UNL     1     -12.112  14.229  64.521  1.00  0.00    -0.499 A  
HETATM   23  C   UNL     1     -11.644  12.219  65.689  1.00  0.00    -0.380 A  
HETATM   24  C   UNL     1     -11.507  14.944  65.561  1.00  0.00    -0.307 A  
ENDBRANCH   7  19
ENDBRANCH   6   7
ENDBRANCH   5   6
ENDBRANCH   4   5
BRANCH   4  25
HETATM   25  C   UNL     1      -7.700  19.036  66.291  1.00  0.00    -0.278 C  
HETATM   26  C   UNL     1      -6.839  20.278  66.583  1.00  0.00    -0.279 C  
HETATM   27  C   UNL     1      -6.675  17.909  66.019  1.00  0.00    -0.330 C  
ENDBRANCH   4  25
ENDBRANCH   2   4
TORSDOF 8
ENDMDL
MODEL       12
REMARK 921   NORMALIZED FREE ENERGY PREDICTED BY IDOCK:   -5.54 KCAL/MOL
REMARK 922        TOTAL FREE ENERGY PREDICTED BY IDOCK:   -9.84 KCAL/MOL
REMARK 923 INTER-LIGAND FREE ENERGY PREDICTED BY IDOCK:   -8.26 KCAL/MOL
REMARK 924 INTRA-LIGAND FREE ENERGY PREDICTED BY IDOCK:   -1.58 KCAL/MOL
REMARK 927      BINDING AFFINITY PREDICTED BY RF-SCORE:    0.00 PKD
ROOT
HETATM    1  C   UNL     1     -10.300  20.569  68.012  1.00  0.00    -0.164 C  
HETATM    2  C   UNL     1     -10.143  19.190  67.323  1.00  0.00    -0.376 C  
HETATM    3  C   UNL     1     -10.582  19.410  65.866  1.00  0.00    -0.551 C  
ENDROOT
BRANCH   2   4
HETATM    4  N   UNL     1      -8.769  18.619  67.530  1.00  0.00    -0.268 NA 
BRANCH   4   5
HETATM    5  C   UNL     1      -8.827  17.381  68.383  1.00  0.00    -0.271 C  
BRANCH   5   6
HETATM    6  C   UNL     1     -10.246  16.808  68.571  1.00  0.00    -0.298 C  
BRANCH   6   7
HETATM    7  C   UNL     1     -10.445  15.257  68.423  1.00  0.00    -0.236 C  
BRANCH   7   8
HETATM    8  C   UNL     1     -11.403  14.790  69.558  1.00  0.00    -0.312 A  
HETATM    9  C   UNL     1     -12.279  15.677  70.211  1.00  0.00    -0.416 A  
HETATM   10  C   UNL     1     -13.176  15.231  71.187  1.00  0.00    -0.567 A  
HETATM   11  C   UNL     1     -11.489  13.426  69.916  1.00  0.00    -0.181 A  
HETATM   12  C   UNL     1     -13.221  13.885  71.536  1.00  0.00    -0.425 A  
HETATM   13  C   UNL     1     -12.376  12.984  70.902  1.00  0.00    -0.376 A  
ENDBRANCH   7   8
BRANCH   7  14
HETATM   14  C   UNL     1      -9.053  14.542  68.417  1.00  0.00    -0.191 C  
HETATM   15  N   UNL     1      -8.704  13.886  67.263  1.00  0.00    -0.207 N  
HETATM   16  H1  UNL     1      -7.797  13.420  67.259  1.00  0.00     0.000 HD 
HETATM   17  O   UNL     1      -8.276  14.491  69.366  1.00  0.00    -0.018 OA 
HETATM   18  H2  UNL     1      -9.320  13.865  66.451  1.00  0.00     0.000 HD 
ENDBRANCH   7  14
BRANCH   7  19
HETATM   19  C   UNL     1     -11.054  14.986  67.009  1.00  0.00    -0.334 A  
HETATM   20  C   UNL     1     -12.148  14.652  64.492  1.00  0.00    -0.490 A  
HETATM   21  N   UNL     1     -10.557  15.697  65.957  1.00  0.00    -0.317 NA 
HETATM   22  C   UNL     1     -12.637  13.902  65.552  1.00  0.00    -0.560 A  
HETATM   23  C   UNL     1     -11.110  15.525  64.738  1.00  0.00    -0.407 A  
HETATM   24  C   UNL     1     -12.084  14.060  66.827  1.00  0.00    -0.480 A  
ENDBRANCH   7  19
ENDBRANCH   6   7
ENDBRANCH   5   6
ENDBRANCH   4   5
BRANCH   4  25
HETATM   25  C   UNL     1      -7.934  18.404  66.302  1.00  0.00    -0.235 C  
HETATM   26  C   UNL     1      -6.902  19.497  65.973  1.00  0.00    -0.266 C  
HETATM   27  C   UNL     1      -7.104  17.100  66.387  1.00  0.00    -0.310 C  
ENDBRANCH   4  25
ENDBRANCH   2   4
TORSDOF 8
ENDMDL
MODEL       13
REMARK 921   NORMALIZED FREE ENERGY PREDICTED BY IDOCK:   -5.54 KCAL/MOL
REMARK 922        TOTAL FREE ENERGY PREDICTED BY IDOCK:   -9.84 KCAL/MOL
REMARK 923 INTER-LIGAND FREE ENERGY PREDICTED BY IDOCK:   -8.64 KCAL/MOL
REMARK 924 INTRA-LIGAND FREE ENERGY PREDICTED BY IDOCK:   -1.20 KCAL/MOL
REMARK 927      BINDING AFFINITY PREDICTED BY RF-SCORE:    0.00 PKD
ROOT
HETATM    1  C   UNL     1     -12.118  15.823  72.360  1.00  0.00    -0.588 C  
HETATM    2  C   UNL     1     -12.974  14.665  71.790  1.00  0.00    -0.335 C  
HETATM    3  C   UNL     1     -14.397  15.234  71.663  1.00  0.00    -0.666 C  
ENDROOT
BRANCH   2   4
HETATM    4  N   UNL     1     -12.368  14.090  70.541  1.00  0.00    -0.346 NA 
BRANCH   4   5
HETATM    5  C   UNL     1     -11.207  14.926  70.076  1.00  0.00    -0.259 C  
BRANCH   5   6
HETATM    6  C   UNL     1     -11.440  15.641  68.730  1.00  0.00    -0.382 C  
BRANCH   6   7
HETATM    7  C   UNL     1     -10.317  15.547  67.636  1.00  0.00    -0.269 C  
BRANCH   7   8
HETATM    8  C   UNL     1     -10.858  14.668  66.471  1.00  0.00    -0.315 A  
HETATM    9  C   UNL     1     -10.070  14.340  65.353  1.00  0.00    -0.379 A  
HETATM   10  C   UNL     1     -10.549  13.499  64.343  1.00  0.00    -0.394 A  
HETATM   11  C   UNL     1     -12.145  14.090  66.539  1.00  0.00    -0.488 A  
HETATM   12  C   UNL     1     -11.830  12.964  64.425  1.00  0.00    -0.441 A  
HETATM   13  C   UNL     1     -12.629  13.262  65.521  1.00  0.00    -0.505 A  
ENDBRANCH   7   8
BRANCH   7  14
HETATM   14  C   UNL     1      -8.992  15.022  68.281  1.00  0.00    -0.174 C  
HETATM   15  N   UNL     1      -8.029  15.959  68.560  1.00  0.00    -0.144 N  
HETATM   16  H1  UNL     1      -7.165  15.616  68.980  1.00  0.00     0.000 HD 
HETATM   17  O   UNL     1      -8.735  13.844  68.518  1.00  0.00    -0.175 OA 
HETATM   18  H2  UNL     1      -8.169  16.948  68.357  1.00  0.00     0.000 HD 
ENDBRANCH   7  14
BRANCH   7  19
HETATM   19  C   UNL     1      -9.994  17.000  67.157  1.00  0.00    -0.281 A  
HETATM   20  C   UNL     1      -9.282  19.547  66.351  1.00  0.00    -0.426 A  
HETATM   21  N   UNL     1      -8.917  17.174  66.339  1.00  0.00    -0.310 NA 
HETATM   22  C   UNL     1     -10.398  19.375  67.157  1.00  0.00    -0.548 A  
HETATM   23  C   UNL     1      -8.581  18.426  65.964  1.00  0.00     0.008 A  
HETATM   24  C   UNL     1     -10.769  18.088  67.563  1.00  0.00    -0.352 A  
ENDBRANCH   7  19
ENDBRANCH   6   7
ENDBRANCH   5   6
ENDBRANCH   4   5
BRANCH   4  25
HETATM   25  C   UNL     1     -12.021  12.631  70.566  1.00  0.00    -0.192 C  
HETATM   26  C   UNL     1     -12.908  11.729  71.444  1.00  0.00    -0.440 C  
HETATM   27  C   UNL     1     -12.092  11.993  69.158  1.00  0.00    -0.241 C  
ENDBRANCH   4  25
ENDBRANCH   2   4
TORSDOF 8
ENDMDL
MODEL       14
REMARK 921   NORMALIZED FREE ENERGY PREDICTED BY IDOCK:   -5.45 KCAL/MOL
REMARK 922        TOTAL FREE ENERGY PREDICTED BY IDOCK:   -9.71 KCAL/MOL
REMARK 923 INTER-LIGAND FREE ENERGY PREDICTED BY IDOCK:   -8.27 KCAL/MOL
REMARK 924 INTRA-LIGAND FREE ENERGY PREDICTED BY IDOCK:   -1.44 KCAL/MOL
REMARK 927      BINDING AFFINITY PREDICTED BY RF-SCORE:    0.00 PKD
ROOT
HETATM    1  C   UNL     1     -11.516   9.385  71.591  1.00  0.00    -0.463 C  
HETATM    2  C   UNL     1     -10.432   9.485  70.490  1.00  0.00    -0.296 C  
HETATM    3  C   UNL     1      -9.144   8.948  71.137  1.00  0.00    -0.315 C  
ENDROOT
BRANCH   2   4
HETATM    4  N   UNL     1     -10.870   8.817  69.217  1.00  0.00    -0.140 NA 
BRANCH   4   5
HETATM    5  C   UNL     1     -10.644   9.720  68.035  1.00  0.00    -0.243 C  
BRANCH   5   6
HETATM    6  C   UNL     1     -11.445  11.036  68.081  1.00  0.00    -0.374 C  
BRANCH   6   7
HETATM    7  C   UNL     1     -10.720  12.361  67.651  1.00  0.00    -0.248 C  
BRANCH   7   8
HETATM    8  C   UNL     1     -11.287  12.786  66.265  1.00  0.00    -0.365 A  
HETATM    9  C   UNL     1     -11.754  14.090  66.016  1.00  0.00    -0.378 A  
HETATM   10  C   UNL     1     -12.205  14.474  64.749  1.00  0.00    -0.441 A  
HETATM   11  C   UNL     1     -11.271  11.893  65.172  1.00  0.00    -0.346 A  
HETATM   12  C   UNL     1     -12.200  13.565  63.696  1.00  0.00    -0.438 A  
HETATM   13  C   UNL     1     -11.736  12.273  63.909  1.00  0.00    -0.536 A  
ENDBRANCH   7   8
BRANCH   7  14
HETATM   14  C   UNL     1      -9.170  12.150  67.678  1.00  0.00    -0.181 C  
HETATM   15  N   UNL     1      -8.564  12.194  68.909  1.00  0.00    -0.360 N  
HETATM   16  H1  UNL     1      -7.554  12.057  68.926  1.00  0.00     0.000 HD 
HETATM   17  O   UNL     1      -8.458  11.989  66.691  1.00  0.00    -0.180 OA 
HETATM   18  H2  UNL     1      -9.097  12.356  69.763  1.00  0.00     0.000 HD 
ENDBRANCH   7  14
BRANCH   7  19
HETATM   19  C   UNL     1     -11.008  13.440  68.745  1.00  0.00    -0.257 A  
HETATM   20  C   UNL     1     -11.373  15.348  70.713  1.00  0.00    -0.376 A  
HETATM   21  N   UNL     1     -10.217  14.551  68.765  1.00  0.00    -0.241 NA 
HETATM   22  C   UNL     1     -12.202  14.236  70.680  1.00  0.00    -0.427 A  
HETATM   23  C   UNL     1     -10.406  15.465  69.738  1.00  0.00    -0.286 A  
HETATM   24  C   UNL     1     -12.029  13.270  69.683  1.00  0.00    -0.376 A  
ENDBRANCH   7  19
ENDBRANCH   6   7
ENDBRANCH   5   6
ENDBRANCH   4   5
BRANCH   4  25
HETATM   25  C   UNL     1     -10.346   7.434  68.963  1.00  0.00    -0.210 C  
HETATM   26  C   UNL     1     -11.167   6.271  69.547  1.00  0.00    -0.500 C  
HETATM   27  C   UNL     1     -10.249   7.120  67.450  1.00  0.00    -0.291 C  
ENDBRANCH   4  25
ENDBRANCH   2   4
TORSDOF 8
ENDMDL
MODEL       15
REMARK 921   NORMALIZED FREE ENERGY PREDICTED BY IDOCK:   -5.45 KCAL/MOL
REMARK 922        TOTAL FREE ENERGY PREDICTED BY IDOCK:   -9.71 KCAL/MOL
REMARK 923 INTER-LIGAND FREE ENERGY PREDICTED BY IDOCK:   -8.31 KCAL/MOL
REMARK 924 INTRA-LIGAND FREE ENERGY PREDICTED BY IDOCK:   -1.40 KCAL/MOL
REMARK 927      BINDING AFFINITY PREDICTED BY RF-SCORE:    0.00 PKD
ROOT
HETATM    1  C   UNL     1      -9.944  10.844  63.148  1.00  0.00    -0.368 C  
HETATM    2  C   UNL     1      -9.352  10.054  64.342  1.00  0.00    -0.290 C  
HETATM    3  C   UNL     1      -7.913   9.707  63.927  1.00  0.00    -0.143 C  
ENDROOT
BRANCH   2   4
HETATM    4  N   UNL     1      -9.514  10.800  65.636  1.00  0.00    -0.197 NA 
BRANCH   4   5
HETATM    5  C   UNL     1     -10.296  12.068  65.428  1.00  0.00    -0.266 C  
BRANCH   5   6
HETATM    6  C   UNL     1      -9.763  13.279  66.220  1.00  0.00    -0.274 C  
BRANCH   6   7
HETATM    7  C   UNL     1     -10.755  14.452  66.540  1.00  0.00    -0.306 C  
BRANCH   7   8
HETATM    8  C   UNL     1     -11.362  14.192  67.949  1.00  0.00    -0.318 A  
HETATM    9  C   UNL     1     -11.542  12.893  68.458  1.00  0.00    -0.358 A  
HETATM   10  C   UNL     1     -12.032  12.676  69.750  1.00  0.00    -0.365 A  
HETATM   11  C   UNL     1     -11.675  15.266  68.811  1.00  0.00    -0.374 A  
HETATM   12  C   UNL     1     -12.356  13.753  70.568  1.00  0.00    -0.429 A  
HETATM   13  C   UNL     1     -12.180  15.048  70.097  1.00  0.00    -0.392 A  
ENDBRANCH   7   8
BRANCH   7  14
HETATM   14  C   UNL     1     -11.814  14.578  65.394  1.00  0.00    -0.344 C  
HETATM   15  N   UNL     1     -11.409  15.218  64.249  1.00  0.00    -0.697 N  
HETATM   16  H1  UNL     1     -12.099  15.301  63.503  1.00  0.00     0.000 HD 
HETATM   17  O   UNL     1     -12.976  14.187  65.454  1.00  0.00    -0.706 OA 
HETATM   18  H2  UNL     1     -10.466  15.593  64.150  1.00  0.00     0.000 HD 
ENDBRANCH   7  14
BRANCH   7  19
HETATM   19  C   UNL     1      -9.945  15.789  66.500  1.00  0.00    -0.269 A  
HETATM   20  C   UNL     1      -8.597  18.196  66.317  1.00  0.00    -0.205 A  
HETATM   21  N   UNL     1     -10.648  16.957  66.472  1.00  0.00    -0.240 NA 
HETATM   22  C   UNL     1      -7.874  17.013  66.377  1.00  0.00    -0.343 A  
HETATM   23  C   UNL     1      -9.972  18.120  66.375  1.00  0.00    -0.376 A  
HETATM   24  C   UNL     1      -8.549  15.791  66.477  1.00  0.00    -0.343 A  
ENDBRANCH   7  19
ENDBRANCH   6   7
ENDBRANCH   5   6
ENDBRANCH   4   5
BRANCH   4  25
HETATM   25  C   UNL     1     -10.033  10.019  66.807  1.00  0.00    -0.210 C  
HETATM   26  C   UNL     1     -10.138   8.494  66.623  1.00  0.00    -0.364 C  
HETATM   27  C   UNL     1      -9.146  10.198  68.063  1.00  0.00    -0.131 C  
ENDBRANCH   4  25
ENDBRANCH   2   4
TORSDOF 8
ENDMDL
MODEL       16
REMARK 921   NORMALIZED FREE ENERGY PREDICTED BY IDOCK:   -5.39 KCAL/MOL
REMARK 922        TOTAL FREE ENERGY PREDICTED BY IDOCK:   -9.62 KCAL/MOL
REMARK 923 INTER-LIGAND FREE ENERGY PREDICTED BY IDOCK:   -8.21 KCAL/MOL
REMARK 924 INTRA-LIGAND FREE ENERGY PREDICTED BY IDOCK:   -1.41 KCAL/MOL
REMARK 927      BINDING AFFINITY PREDICTED BY RF-SCORE:    0.00 PKD
ROOT
HETATM    1  C   UNL     1     -10.932   6.528  67.117  1.00  0.00    -0.480 C  
HETATM    2  C   UNL     1     -10.780   6.671  68.652  1.00  0.00    -0.254 C  
HETATM    3  C   UNL     1      -9.938   5.463  69.093  1.00  0.00    -0.267 C  
ENDROOT
BRANCH   2   4
HETATM    4  N   UNL     1     -10.257   8.027  69.034  1.00  0.00    -0.207 NA 
BRANCH   4   5
HETATM    5  C   UNL     1     -10.227   8.944  67.842  1.00  0.00    -0.222 C  
BRANCH   5   6
HETATM    6  C   UNL     1     -11.155  10.169  67.960  1.00  0.00    -0.302 C  
BRANCH   6   7
HETATM    7  C   UNL     1     -10.581  11.576  67.567  1.00  0.00    -0.243 C  
BRANCH   7   8
HETATM    8  C   UNL     1     -11.081  11.911  66.131  1.00  0.00    -0.374 A  
HETATM    9  C   UNL     1     -10.606  11.228  64.996  1.00  0.00    -0.353 A  
HETATM   10  C   UNL     1     -11.108  11.499  63.719  1.00  0.00    -0.471 A  
HETATM   11  C   UNL     1     -12.103  12.863  65.925  1.00  0.00    -0.503 A  
HETATM   12  C   UNL     1     -12.099  12.459  63.543  1.00  0.00    -0.651 A  
HETATM   13  C   UNL     1     -12.594  13.143  64.646  1.00  0.00    -0.384 A  
ENDBRANCH   7   8
BRANCH   7  14
HETATM   14  C   UNL     1      -9.025  11.576  67.726  1.00  0.00    -0.160 C  
HETATM   15  N   UNL     1      -8.536  11.705  69.002  1.00  0.00    -0.369 N  
HETATM   16  H1  UNL     1      -7.521  11.706  69.105  1.00  0.00     0.000 HD 
HETATM   17  O   UNL     1      -8.216  11.510  66.804  1.00  0.00    -0.158 OA 
HETATM   18  H2  UNL     1      -9.156  11.797  69.806  1.00  0.00     0.000 HD 
ENDBRANCH   7  14
BRANCH   7  19
HETATM   19  C   UNL     1     -11.102  12.614  68.613  1.00  0.00    -0.266 A  
HETATM   20  C   UNL     1     -11.883  14.494  70.485  1.00  0.00    -0.372 A  
HETATM   21  N   UNL     1     -10.675  13.904  68.494  1.00  0.00    -0.251 NA 
HETATM   22  C   UNL     1     -12.347  13.191  70.594  1.00  0.00    -0.405 A  
HETATM   23  C   UNL     1     -11.061  14.804  69.423  1.00  0.00    -0.281 A  
HETATM   24  C   UNL     1     -11.962  12.235  69.646  1.00  0.00    -0.347 A  
ENDBRANCH   7  19
ENDBRANCH   6   7
ENDBRANCH   5   6
ENDBRANCH   4   5
BRANCH   4  25
HETATM   25  C   UNL     1     -10.894   8.688  70.221  1.00  0.00    -0.235 C  
HETATM   26  C   UNL     1     -11.888   7.837  71.031  1.00  0.00    -0.290 C  
HETATM   27  C   UNL     1      -9.844   9.151  71.260  1.00  0.00    -0.363 C  
ENDBRANCH   4  25
ENDBRANCH   2   4
TORSDOF 8
ENDMDL
MODEL       17
REMARK 921   NORMALIZED FREE ENERGY PREDICTED BY IDOCK:   -5.39 KCAL/MOL
REMARK 922        TOTAL FREE ENERGY PREDICTED BY IDOCK:   -9.61 KCAL/MOL
REMARK 923 INTER-LIGAND FREE ENERGY PREDICTED BY IDOCK:   -8.64 KCAL/MOL
REMARK 924 INTRA-LIGAND FREE ENERGY PREDICTED BY IDOCK:   -0.97 KCAL/MOL
REMARK 927      BINDING AFFINITY PREDICTED BY RF-SCORE:    0.00 PKD
ROOT
HETATM    1  C   UNL     1      -6.950  18.567  65.841  1.00  0.00    -0.308 C  
HETATM    2  C   UNL     1      -7.660  17.814  66.993  1.00  0.00    -0.204 C  
HETATM    3  C   UNL     1      -6.899  18.210  68.269  1.00  0.00    -0.229 C  
ENDROOT
BRANCH   2   4
HETATM    4  N   UNL     1      -9.141  18.067  66.992  1.00  0.00    -0.253 NA 
BRANCH   4   5
HETATM    5  C   UNL     1      -9.785  17.478  68.217  1.00  0.00    -0.311 C  
BRANCH   5   6
HETATM    6  C   UNL     1     -10.930  16.490  67.918  1.00  0.00    -0.288 C  
BRANCH   6   7
HETATM    7  C   UNL     1     -10.732  14.983  68.311  1.00  0.00    -0.253 C  
BRANCH   7   8
HETATM    8  C   UNL     1     -11.495  14.733  69.644  1.00  0.00    -0.327 A  
HETATM    9  C   UNL     1     -11.822  15.780  70.526  1.00  0.00    -0.402 A  
HETATM   10  C   UNL     1     -12.560  15.549  71.691  1.00  0.00    -0.486 A  
HETATM   11  C   UNL     1     -11.967  13.445  69.977  1.00  0.00    -0.407 A  
HETATM   12  C   UNL     1     -12.991  14.265  72.006  1.00  0.00    -0.437 A  
HETATM   13  C   UNL     1     -12.692  13.212  71.150  1.00  0.00    -0.386 A  
ENDBRANCH   7   8
BRANCH   7  14
HETATM   14  C   UNL     1      -9.205  14.647  68.367  1.00  0.00    -0.197 C  
HETATM   15  N   UNL     1      -8.623  14.633  69.610  1.00  0.00    -0.386 N  
HETATM   16  H1  UNL     1      -7.627  14.415  69.647  1.00  0.00     0.000 HD 
HETATM   17  O   UNL     1      -8.487  14.437  67.393  1.00  0.00    -0.178 OA 
HETATM   18  H2  UNL     1      -9.159  14.831  70.455  1.00  0.00     0.000 HD 
ENDBRANCH   7  14
BRANCH   7  19
HETATM   19  C   UNL     1     -11.303  14.107  67.149  1.00  0.00    -0.332 A  
HETATM   20  C   UNL     1     -12.449  12.599  65.134  1.00  0.00    -0.531 A  
HETATM   21  N   UNL     1     -12.208  14.681  66.307  1.00  0.00    -0.230 NA 
HETATM   22  C   UNL     1     -11.505  12.017  65.968  1.00  0.00    -0.399 A  
HETATM   23  C   UNL     1     -12.762  13.926  65.335  1.00  0.00    -0.490 A  
HETATM   24  C   UNL     1     -10.915  12.775  66.985  1.00  0.00    -0.295 A  
ENDBRANCH   7  19
ENDBRANCH   6   7
ENDBRANCH   5   6
ENDBRANCH   4   5
BRANCH   4  25
HETATM   25  C   UNL     1      -9.586  19.481  66.760  1.00  0.00    -0.357 C  
HETATM   26  C   UNL     1     -10.660  19.695  65.678  1.00  0.00    -0.462 C  
HETATM   27  C   UNL     1     -10.190  20.115  68.037  1.00  0.00    -0.493 C  
ENDBRANCH   4  25
ENDBRANCH   2   4
TORSDOF 8
ENDMDL
MODEL       18
REMARK 921   NORMALIZED FREE ENERGY PREDICTED BY IDOCK:   -5.35 KCAL/MOL
REMARK 922        TOTAL FREE ENERGY PREDICTED BY IDOCK:   -9.56 KCAL/MOL
REMARK 923 INTER-LIGAND FREE ENERGY PREDICTED BY IDOCK:   -7.89 KCAL/MOL
REMARK 924 INTRA-LIGAND FREE ENERGY PREDICTED BY IDOCK:   -1.68 KCAL/MOL
REMARK 927      BINDING AFFINITY PREDICTED BY RF-SCORE:    0.00 PKD
ROOT
HETATM    1  C   UNL     1     -10.317   8.817  68.149  1.00  0.00    -0.266 C  
HETATM    2  C   UNL     1     -10.349   9.664  69.446  1.00  0.00    -0.213 C  
HETATM    3  C   UNL     1      -8.876   9.944  69.787  1.00  0.00    -0.229 C  
ENDROOT
BRANCH   2   4
HETATM    4  N   UNL     1     -11.243  10.863  69.304  1.00  0.00    -0.242 NA 
BRANCH   4   5
HETATM    5  C   UNL     1     -11.691  11.029  67.877  1.00  0.00    -0.135 C  
BRANCH   5   6
HETATM    6  C   UNL     1     -11.963  12.489  67.464  1.00  0.00    -0.287 C  
BRANCH   6   7
HETATM    7  C   UNL     1     -11.128  13.093  66.280  1.00  0.00    -0.308 C  
BRANCH   7   8
HETATM    8  C   UNL     1     -10.823  14.581  66.621  1.00  0.00    -0.311 A  
HETATM    9  C   UNL     1     -10.227  15.455  65.693  1.00  0.00    -0.403 A  
HETATM   10  C   UNL     1     -10.015  16.804  65.994  1.00  0.00    -0.334 A  
HETATM   11  C   UNL     1     -11.219  15.135  67.859  1.00  0.00    -0.334 A  
HETATM   12  C   UNL     1     -10.393  17.316  67.230  1.00  0.00    -0.331 A  
HETATM   13  C   UNL     1     -10.992  16.480  68.164  1.00  0.00    -0.336 A  
ENDBRANCH   7   8
BRANCH   7  14
HETATM   14  C   UNL     1     -11.893  12.883  64.931  1.00  0.00    -0.366 C  
HETATM   15  N   UNL     1     -11.227  13.235  63.784  1.00  0.00    -0.577 N  
HETATM   16  H1  UNL     1     -11.725  13.099  62.905  1.00  0.00     0.000 HD 
HETATM   17  O   UNL     1     -13.044  12.470  64.824  1.00  0.00    -0.853 OA 
HETATM   18  H2  UNL     1     -10.280  13.614  63.809  1.00  0.00     0.000 HD 
ENDBRANCH   7  14
BRANCH   7  19
HETATM   19  C   UNL     1      -9.815  12.255  66.143  1.00  0.00    -0.243 A  
HETATM   20  C   UNL     1      -7.576  10.650  65.907  1.00  0.00    -0.138 A  
HETATM   21  N   UNL     1      -9.786  11.271  65.200  1.00  0.00    -0.240 NA 
HETATM   22  C   UNL     1      -7.587  11.670  66.847  1.00  0.00    -0.138 A  
HETATM   23  C   UNL     1      -8.687  10.493  65.106  1.00  0.00    -0.185 A  
HETATM   24  C   UNL     1      -8.713  12.491  66.968  1.00  0.00    -0.205 A  
ENDBRANCH   7  19
ENDBRANCH   6   7
ENDBRANCH   5   6
ENDBRANCH   4   5
BRANCH   4  25
HETATM   25  C   UNL     1     -12.395  10.965  70.259  1.00  0.00    -0.330 C  
HETATM   26  C   UNL     1     -12.384   9.997  71.455  1.00  0.00    -0.513 C  
HETATM   27  C   UNL     1     -12.495  12.372  70.898  1.00  0.00    -0.367 C  
ENDBRANCH   4  25
ENDBRANCH   2   4
TORSDOF 8
ENDMDL
MODEL       19
REMARK 921   NORMALIZED FREE ENERGY PREDICTED BY IDOCK:   -5.33 KCAL/MOL
REMARK 922        TOTAL FREE ENERGY PREDICTED BY IDOCK:   -9.53 KCAL/MOL
REMARK 923 INTER-LIGAND FREE ENERGY PREDICTED BY IDOCK:   -8.39 KCAL/MOL
REMARK 924 INTRA-LIGAND FREE ENERGY PREDICTED BY IDOCK:   -1.14 KCAL/MOL
REMARK 927      BINDING AFFINITY PREDICTED BY RF-SCORE:    0.00 PKD
ROOT
HETATM    1  C   UNL     1      -9.663  15.554  65.510  1.00  0.00    -0.307 C  
HETATM    2  C   UNL     1     -11.066  14.914  65.361  1.00  0.00    -0.364 C  
HETATM    3  C   UNL     1     -11.750  15.691  64.224  1.00  0.00    -0.171 C  
ENDROOT
BRANCH   2   4
HETATM    4  N   UNL     1     -10.981  13.423  65.198  1.00  0.00    -0.294 NA 
BRANCH   4   5
HETATM    5  C   UNL     1     -11.896  12.726  66.167  1.00  0.00    -0.425 C  
BRANCH   5   6
HETATM    6  C   UNL     1     -12.158  13.512  67.468  1.00  0.00    -0.340 C  
BRANCH   6   7
HETATM    7  C   UNL     1     -11.390  13.075  68.766  1.00  0.00    -0.332 C  
BRANCH   7   8
HETATM    8  C   UNL     1      -9.943  13.644  68.678  1.00  0.00    -0.163 A  
HETATM    9  C   UNL     1      -8.907  12.955  68.020  1.00  0.00    -0.195 A  
HETATM   10  C   UNL     1      -7.628  13.505  67.897  1.00  0.00    -0.151 A  
HETATM   11  C   UNL     1      -9.638  14.926  69.184  1.00  0.00    -0.172 A  
HETATM   12  C   UNL     1      -7.349  14.760  68.427  1.00  0.00    -0.116 A  
HETATM   13  C   UNL     1      -8.354  15.469  69.074  1.00  0.00    -0.227 A  
ENDBRANCH   7   8
BRANCH   7  14
HETATM   14  C   UNL     1     -11.464  11.521  68.928  1.00  0.00    -0.289 C  
HETATM   15  N   UNL     1     -10.513  10.938  69.728  1.00  0.00    -0.448 N  
HETATM   16  H1  UNL     1     -10.561   9.925  69.833  1.00  0.00     0.000 HD 
HETATM   17  O   UNL     1     -12.275  10.786  68.370  1.00  0.00    -0.470 OA 
HETATM   18  H2  UNL     1      -9.794  11.491  70.194  1.00  0.00     0.000 HD 
ENDBRANCH   7  14
BRANCH   7  19
HETATM   19  C   UNL     1     -12.161  13.654  69.996  1.00  0.00    -0.348 A  
HETATM   20  C   UNL     1     -13.617  14.565  72.163  1.00  0.00    -0.516 A  
HETATM   21  N   UNL     1     -12.440  12.806  71.027  1.00  0.00    -0.347 NA 
HETATM   22  C   UNL     1     -13.309  15.441  71.133  1.00  0.00    -0.580 A  
HETATM   23  C   UNL     1     -13.160  13.269  72.071  1.00  0.00    -0.377 A  
HETATM   24  C   UNL     1     -12.566  14.990  70.036  1.00  0.00    -0.257 A  
ENDBRANCH   7  19
ENDBRANCH   6   7
ENDBRANCH   5   6
ENDBRANCH   4   5
BRANCH   4  25
HETATM   25  C   UNL     1     -11.140  12.885  63.806  1.00  0.00    -0.379 C  
HETATM   26  C   UNL     1     -10.080  11.872  63.337  1.00  0.00    -0.464 C  
HETATM   27  C   UNL     1     -12.489  12.149  63.619  1.00  0.00    -0.658 C  
ENDBRANCH   4  25
ENDBRANCH   2   4
TORSDOF 8
ENDMDL
MODEL       20
REMARK 921   NORMALIZED FREE ENERGY PREDICTED BY IDOCK:   -5.32 KCAL/MOL
REMARK 922        TOTAL FREE ENERGY PREDICTED BY IDOCK:   -9.51 KCAL/MOL
REMARK 923 INTER-LIGAND FREE ENERGY PREDICTED BY IDOCK:   -8.46 KCAL/MOL
REMARK 924 INTRA-LIGAND FREE ENERGY PREDICTED BY IDOCK:   -1.05 KCAL/MOL
REMARK 927      BINDING AFFINITY PREDICTED BY RF-SCORE:    0.00 PKD
ROOT
HETATM    1  C   UNL     1     -11.450  10.958  70.153  1.00  0.00    -0.405 C  
HETATM    2  C   UNL     1     -12.328  12.233  70.205  1.00  0.00    -0.189 C  
HETATM    3  C   UNL     1     -12.784  12.355  71.669  1.00  0.00    -0.299 C  
ENDROOT
BRANCH   2   4
HETATM    4  N   UNL     1     -11.615  13.422  69.625  1.00  0.00    -0.284 NA 
BRANCH   4   5
HETATM    5  C   UNL     1     -12.119  13.724  68.240  1.00  0.00    -0.279 C  
BRANCH   5   6
HETATM    6  C   UNL     1     -11.615  12.750  67.156  1.00  0.00    -0.426 C  
BRANCH   6   7
HETATM    7  C   UNL     1     -11.097  13.351  65.801  1.00  0.00    -0.295 C  
BRANCH   7   8
HETATM    8  C   UNL     1     -10.151  14.540  66.138  1.00  0.00    -0.319 A  
HETATM    9  C   UNL     1     -10.516  15.878  65.896  1.00  0.00    -0.373 A  
HETATM   10  C   UNL     1      -9.681  16.939  66.259  1.00  0.00    -0.301 A  
HETATM   11  C   UNL     1      -8.916  14.321  66.786  1.00  0.00    -0.249 A  
HETATM   12  C   UNL     1      -8.458  16.692  66.874  1.00  0.00    -0.246 A  
HETATM   13  C   UNL     1      -8.075  15.383  67.135  1.00  0.00    -0.249 A  
ENDBRANCH   7   8
BRANCH   7  14
HETATM   14  C   UNL     1     -12.312  13.729  64.891  1.00  0.00    -0.405 C  
HETATM   15  N   UNL     1     -13.260  12.756  64.694  1.00  0.00    -0.566 N  
HETATM   16  H1  UNL     1     -14.052  13.003  64.100  1.00  0.00     0.000 HD 
HETATM   17  O   UNL     1     -12.460  14.803  64.314  1.00  0.00    -0.661 OA 
HETATM   18  H2  UNL     1     -13.177  11.834  65.120  1.00  0.00     0.000 HD 
ENDBRANCH   7  14
BRANCH   7  19
HETATM   19  C   UNL     1     -10.343  12.217  65.032  1.00  0.00    -0.291 A  
HETATM   20  C   UNL     1      -9.125  10.205  63.580  1.00  0.00    -0.302 A  
HETATM   21  N   UNL     1     -10.241  12.329  63.677  1.00  0.00    -0.428 NA 
HETATM   22  C   UNL     1      -9.197  10.100  64.961  1.00  0.00    -0.266 A  
HETATM   23  C   UNL     1      -9.650  11.332  62.986  1.00  0.00    -0.377 A  
HETATM   24  C   UNL     1      -9.805  11.117  65.704  1.00  0.00    -0.280 A  
ENDBRANCH   7  19
ENDBRANCH   6   7
ENDBRANCH   5   6
ENDBRANCH   4   5
BRANCH   4  25
HETATM   25  C   UNL     1     -11.560  14.659  70.473  1.00  0.00    -0.263 C  
HETATM   26  C   UNL     1     -10.547  15.737  70.049  1.00  0.00    -0.333 C  
HETATM   27  C   UNL     1     -12.920  15.397  70.511  1.00  0.00    -0.379 C  
ENDBRANCH   4  25
ENDBRANCH   2   4
TORSDOF 8
ENDMDL
MODEL       21
REMARK 921   NORMALIZED FREE ENERGY PREDICTED BY IDOCK:   -5.31 KCAL/MOL
REMARK 922        TOTAL FREE ENERGY PREDICTED BY IDOCK:   -9.50 KCAL/MOL
REMARK 923 INTER-LIGAND FREE ENERGY PREDICTED BY IDOCK:   -8.33 KCAL/MOL
REMARK 924 INTRA-LIGAND FREE ENERGY PREDICTED BY IDOCK:   -1.17 KCAL/MOL
REMARK 927      BINDING AFFINITY PREDICTED BY RF-SCORE:    0.00 PKD
ROOT
HETATM    1  C   UNL     1     -10.092  11.833  63.383  1.00  0.00    -0.470 C  
HETATM    2  C   UNL     1     -10.771  12.977  64.176  1.00  0.00    -0.402 C  
HETATM    3  C   UNL     1     -12.270  12.863  63.854  1.00  0.00    -0.525 C  
ENDROOT
BRANCH   2   4
HETATM    4  N   UNL     1     -10.394  12.945  65.630  1.00  0.00    -0.279 NA 
BRANCH   4   5
HETATM    5  C   UNL     1     -11.262  13.879  66.429  1.00  0.00    -0.315 C  
BRANCH   5   6
HETATM    6  C   UNL     1     -10.712  15.314  66.542  1.00  0.00    -0.311 C  
BRANCH   6   7
HETATM    7  C   UNL     1      -9.985  15.728  67.871  1.00  0.00    -0.227 C  
BRANCH   7   8
HETATM    8  C   UNL     1      -9.802  17.273  67.854  1.00  0.00    -0.283 A  
HETATM    9  C   UNL     1      -8.674  17.900  68.414  1.00  0.00    -0.296 A  
HETATM   10  C   UNL     1      -8.494  19.285  68.338  1.00  0.00    -0.386 A  
HETATM   11  C   UNL     1     -10.732  18.104  67.191  1.00  0.00    -0.309 A  
HETATM   12  C   UNL     1      -9.439  20.081  67.699  1.00  0.00    -0.498 A  
HETATM   13  C   UNL     1     -10.559  19.490  67.129  1.00  0.00    -0.605 A  
ENDBRANCH   7   8
BRANCH   7  14
HETATM   14  C   UNL     1      -8.652  14.921  68.019  1.00  0.00    -0.160 C  
HETATM   15  N   UNL     1      -8.308  14.527  69.288  1.00  0.00    -0.364 N  
HETATM   16  H1  UNL     1      -7.439  14.002  69.384  1.00  0.00     0.000 HD 
HETATM   17  O   UNL     1      -7.880  14.651  67.103  1.00  0.00    -0.197 OA 
HETATM   18  H2  UNL     1      -8.891  14.748  70.094  1.00  0.00     0.000 HD 
ENDBRANCH   7  14
BRANCH   7  19
HETATM   19  C   UNL     1     -10.879  15.268  69.069  1.00  0.00    -0.244 A  
HETATM   20  C   UNL     1     -12.541  14.377  71.091  1.00  0.00    -0.422 A  
HETATM   21  N   UNL     1     -11.140  13.935  69.191  1.00  0.00    -0.252 NA 
HETATM   22  C   UNL     1     -12.254  15.731  70.992  1.00  0.00    -0.466 A  
HETATM   23  C   UNL     1     -11.960  13.522  70.180  1.00  0.00    -0.329 A  
HETATM   24  C   UNL     1     -11.408  16.189  69.976  1.00  0.00    -0.332 A  
ENDBRANCH   7  19
ENDBRANCH   6   7
ENDBRANCH   5   6
ENDBRANCH   4   5
BRANCH   4  25
HETATM   25  C   UNL     1     -10.300  11.594  66.275  1.00  0.00    -0.235 C  
HETATM   26  C   UNL     1      -9.056  11.332  67.144  1.00  0.00    -0.160 C  
HETATM   27  C   UNL     1     -11.496  11.316  67.217  1.00  0.00    -0.265 C  
ENDBRANCH   4  25
ENDBRANCH   2   4
TORSDOF 8
ENDMDL
MODEL       22
REMARK 921   NORMALIZED FREE ENERGY PREDICTED BY IDOCK:   -5.30 KCAL/MOL
REMARK 922        TOTAL FREE ENERGY PREDICTED BY IDOCK:   -9.49 KCAL/MOL
REMARK 923 INTER-LIGAND FREE ENERGY PREDICTED BY IDOCK:   -7.57 KCAL/MOL
REMARK 924 INTRA-LIGAND FREE ENERGY PREDICTED BY IDOCK:   -1.91 KCAL/MOL
REMARK 927      BINDING AFFINITY PREDICTED BY RF-SCORE:    0.00 PKD
ROOT
HETATM    1  C   UNL     1      -7.721  10.430  69.493  1.00  0.00    -0.159 C  
HETATM    2  C   UNL     1      -7.546  11.730  68.669  1.00  0.00    -0.125 C  
HETATM    3  C   UNL     1      -6.396  11.441  67.691  1.00  0.00    -0.062 C  
ENDROOT
BRANCH   2   4
HETATM    4  N   UNL     1      -8.844  12.180  68.061  1.00  0.00    -0.175 NA 
BRANCH   4   5
HETATM    5  C   UNL     1      -8.672  13.491  67.342  1.00  0.00    -0.220 C  
BRANCH   5   6
HETATM    6  C   UNL     1      -8.830  14.733  68.242  1.00  0.00    -0.179 C  
BRANCH   6   7
HETATM    7  C   UNL     1     -10.168  15.549  68.152  1.00  0.00    -0.227 C  
BRANCH   7   8
HETATM    8  C   UNL     1      -9.801  17.060  68.081  1.00  0.00    -0.273 A  
HETATM    9  C   UNL     1     -10.736  18.040  67.698  1.00  0.00    -0.360 A  
HETATM   10  C   UNL     1     -10.408  19.400  67.696  1.00  0.00    -0.550 A  
HETATM   11  C   UNL     1      -8.528  17.515  68.488  1.00  0.00    -0.280 A  
HETATM   12  C   UNL     1      -9.138  19.816  68.079  1.00  0.00    -0.393 A  
HETATM   13  C   UNL     1      -8.197  18.873  68.472  1.00  0.00    -0.388 A  
ENDBRANCH   7   8
BRANCH   7  14
HETATM   14  C   UNL     1     -11.104  15.166  69.346  1.00  0.00    -0.276 C  
HETATM   15  N   UNL     1     -11.039  13.868  69.788  1.00  0.00    -0.457 N  
HETATM   16  H1  UNL     1     -11.649  13.619  70.566  1.00  0.00     0.000 HD 
HETATM   17  O   UNL     1     -11.909  15.919  69.888  1.00  0.00    -0.336 OA 
HETATM   18  H2  UNL     1     -10.414  13.187  69.358  1.00  0.00     0.000 HD 
ENDBRANCH   7  14
BRANCH   7  19
HETATM   19  C   UNL     1     -10.929  15.082  66.868  1.00  0.00    -0.324 A  
HETATM   20  C   UNL     1     -12.262  14.117  64.646  1.00  0.00    -0.465 A  
HETATM   21  N   UNL     1     -11.986  14.236  67.029  1.00  0.00    -0.431 NA 
HETATM   22  C   UNL     1     -11.207  15.002  64.476  1.00  0.00    -0.276 A  
HETATM   23  C   UNL     1     -12.618  13.770  65.931  1.00  0.00    -0.447 A  
HETATM   24  C   UNL     1     -10.532  15.501  65.596  1.00  0.00    -0.393 A  
ENDBRANCH   7  19
ENDBRANCH   6   7
ENDBRANCH   5   6
ENDBRANCH   4   5
BRANCH   4  25
HETATM   25  C   UNL     1      -9.580  11.181  67.217  1.00  0.00    -0.165 C  
HETATM   26  C   UNL     1     -11.035  10.881  67.620  1.00  0.00    -0.350 C  
HETATM   27  C   UNL     1      -9.671  11.627  65.738  1.00  0.00    -0.262 C  
ENDBRANCH   4  25
ENDBRANCH   2   4
TORSDOF 8
ENDMDL
MODEL       23
REMARK 921   NORMALIZED FREE ENERGY PREDICTED BY IDOCK:   -5.27 KCAL/MOL
REMARK 922        TOTAL FREE ENERGY PREDICTED BY IDOCK:   -9.44 KCAL/MOL
REMARK 923 INTER-LIGAND FREE ENERGY PREDICTED BY IDOCK:   -9.48 KCAL/MOL
REMARK 924 INTRA-LIGAND FREE ENERGY PREDICTED BY IDOCK:    0.03 KCAL/MOL
REMARK 927      BINDING AFFINITY PREDICTED BY RF-SCORE:    0.00 PKD
ROOT
HETATM    1  C   UNL     1     -10.657  19.243  65.980  1.00  0.00    -0.550 C  
HETATM    2  C   UNL     1      -9.653  18.690  67.022  1.00  0.00    -0.304 C  
HETATM    3  C   UNL     1     -10.273  19.006  68.393  1.00  0.00    -0.450 C  
ENDROOT
BRANCH   2   4
HETATM    4  N   UNL     1      -9.313  17.251  66.757  1.00  0.00    -0.250 NA 
BRANCH   4   5
HETATM    5  C   UNL     1     -10.378  16.596  65.919  1.00  0.00    -0.340 C  
BRANCH   5   6
HETATM    6  C   UNL     1     -10.033  15.165  65.462  1.00  0.00    -0.384 C  
BRANCH   6   7
HETATM    7  C   UNL     1     -11.064  14.020  65.765  1.00  0.00    -0.305 C  
BRANCH   7   8
HETATM    8  C   UNL     1     -10.386  12.663  65.413  1.00  0.00    -0.311 A  
HETATM    9  C   UNL     1      -9.292  12.162  66.143  1.00  0.00    -0.198 A  
HETATM   10  C   UNL     1      -8.731  10.914  65.853  1.00  0.00    -0.190 A  
HETATM   11  C   UNL     1     -10.907  11.837  64.393  1.00  0.00    -0.389 A  
HETATM   12  C   UNL     1      -9.250  10.133  64.826  1.00  0.00    -0.291 A  
HETATM   13  C   UNL     1     -10.336  10.596  64.095  1.00  0.00    -0.293 A  
ENDBRANCH   7   8
BRANCH   7  14
HETATM   14  C   UNL     1     -12.400  14.293  64.997  1.00  0.00    -0.428 C  
HETATM   15  N   UNL     1     -12.294  14.923  63.782  1.00  0.00    -1.071 N  
HETATM   16  H1  UNL     1     -13.165  15.102  63.283  1.00  0.00     0.000 HD 
HETATM   17  O   UNL     1     -13.525  14.025  65.411  1.00  0.00    -0.679 OA 
HETATM   18  H2  UNL     1     -11.391  15.200  63.400  1.00  0.00     0.000 HD 
ENDBRANCH   7  14
BRANCH   7  19
HETATM   19  C   UNL     1     -11.436  14.100  67.281  1.00  0.00    -0.350 A  
HETATM   20  C   UNL     1     -11.989  14.343  69.979  1.00  0.00    -0.394 A  
HETATM   21  N   UNL     1     -11.630  15.336  67.822  1.00  0.00    -0.311 NA 
HETATM   22  C   UNL     1     -11.825  13.080  69.428  1.00  0.00    -0.380 A  
HETATM   23  C   UNL     1     -11.890  15.433  69.143  1.00  0.00    -0.335 A  
HETATM   24  C   UNL     1     -11.552  12.948  68.062  1.00  0.00    -0.385 A  
ENDBRANCH   7  19
ENDBRANCH   6   7
ENDBRANCH   5   6
ENDBRANCH   4   5
BRANCH   4  25
HETATM   25  C   UNL     1      -7.940  16.966  66.223  1.00  0.00    -0.315 C  
HETATM   26  C   UNL     1      -7.009  18.178  66.043  1.00  0.00    -0.327 C  
HETATM   27  C   UNL     1      -7.150  16.002  67.141  1.00  0.00    -0.248 C  
ENDBRANCH   4  25
ENDBRANCH   2   4
TORSDOF 8
ENDMDL
MODEL       24
REMARK 921   NORMALIZED FREE ENERGY PREDICTED BY IDOCK:   -5.27 KCAL/MOL
REMARK 922        TOTAL FREE ENERGY PREDICTED BY IDOCK:   -9.44 KCAL/MOL
REMARK 923 INTER-LIGAND FREE ENERGY PREDICTED BY IDOCK:   -8.33 KCAL/MOL
REMARK 924 INTRA-LIGAND FREE ENERGY PREDICTED BY IDOCK:   -1.12 KCAL/MOL
REMARK 927      BINDING AFFINITY PREDICTED BY RF-SCORE:    0.00 PKD
ROOT
HETATM    1  C   UNL     1      -9.961  11.615  63.347  1.00  0.00    -0.447 C  
HETATM    2  C   UNL     1     -10.899  12.649  64.019  1.00  0.00    -0.415 C  
HETATM    3  C   UNL     1     -12.324  12.207  63.649  1.00  0.00    -0.673 C  
ENDROOT
BRANCH   2   4
HETATM    4  N   UNL     1     -10.602  12.796  65.485  1.00  0.00    -0.276 NA 
BRANCH   4   5
HETATM    5  C   UNL     1     -11.288  14.011  66.049  1.00  0.00    -0.328 C  
BRANCH   5   6
HETATM    6  C   UNL     1     -10.440  15.298  65.999  1.00  0.00    -0.328 C  
BRANCH   6   7
HETATM    7  C   UNL     1      -9.912  15.892  67.353  1.00  0.00    -0.239 C  
BRANCH   7   8
HETATM    8  C   UNL     1      -8.417  15.483  67.502  1.00  0.00    -0.188 A  
HETATM    9  C   UNL     1      -8.010  14.137  67.546  1.00  0.00    -0.202 A  
HETATM   10  C   UNL     1      -6.659  13.785  67.620  1.00  0.00    -0.181 A  
HETATM   11  C   UNL     1      -7.398  16.460  67.509  1.00  0.00    -0.170 A  
HETATM   12  C   UNL     1      -5.678  14.769  67.651  1.00  0.00    -0.012 A  
HETATM   13  C   UNL     1      -6.048  16.107  67.598  1.00  0.00    -0.176 A  
ENDBRANCH   7   8
BRANCH   7  14
HETATM   14  C   UNL     1     -10.830  15.424  68.530  1.00  0.00    -0.264 C  
HETATM   15  N   UNL     1     -12.155  15.774  68.455  1.00  0.00    -0.472 N  
HETATM   16  H1  UNL     1     -12.753  15.470  69.223  1.00  0.00     0.000 HD 
HETATM   17  O   UNL     1     -10.453  14.808  69.524  1.00  0.00    -0.218 OA 
HETATM   18  H2  UNL     1     -12.522  16.313  67.672  1.00  0.00     0.000 HD 
ENDBRANCH   7  14
BRANCH   7  19
HETATM   19  C   UNL     1     -10.080  17.445  67.292  1.00  0.00    -0.310 A  
HETATM   20  C   UNL     1     -10.276  20.195  67.078  1.00  0.00    -0.558 A  
HETATM   21  N   UNL     1     -10.279  18.014  66.070  1.00  0.00    -0.545 NA 
HETATM   22  C   UNL     1     -10.105  19.619  68.329  1.00  0.00    -0.560 A  
HETATM   23  C   UNL     1     -10.364  19.358  65.986  1.00  0.00    -0.497 A  
HETATM   24  C   UNL     1     -10.012  18.228  68.447  1.00  0.00    -0.401 A  
ENDBRANCH   7  19
ENDBRANCH   6   7
ENDBRANCH   5   6
ENDBRANCH   4   5
BRANCH   4  25
HETATM   25  C   UNL     1     -10.826  11.588  66.346  1.00  0.00    -0.285 C  
HETATM   26  C   UNL     1      -9.567  10.829  66.803  1.00  0.00    -0.201 C  
HETATM   27  C   UNL     1     -11.565  11.941  67.659  1.00  0.00    -0.382 C  
ENDBRANCH   4  25
ENDBRANCH   2   4
TORSDOF 8
ENDMDL
MODEL       25
REMARK 921   NORMALIZED FREE ENERGY PREDICTED BY IDOCK:   -5.21 KCAL/MOL
REMARK 922        TOTAL FREE ENERGY PREDICTED BY IDOCK:   -9.36 KCAL/MOL
REMARK 923 INTER-LIGAND FREE ENERGY PREDICTED BY IDOCK:   -7.74 KCAL/MOL
REMARK 924 INTRA-LIGAND FREE ENERGY PREDICTED BY IDOCK:   -1.62 KCAL/MOL
REMARK 927      BINDING AFFINITY PREDICTED BY RF-SCORE:    0.00 PKD
ROOT
HETATM    1  C   UNL     1     -10.874  17.146  65.407  1.00  0.00    -0.051 C  
HETATM    2  C   UNL     1      -9.826  17.925  66.239  1.00  0.00    -0.301 C  
HETATM    3  C   UNL     1     -10.615  18.564  67.394  1.00  0.00    -0.463 C  
ENDROOT
BRANCH   2   4
HETATM    4  N   UNL     1      -8.664  17.055  66.623  1.00  0.00    -0.234 NA 
BRANCH   4   5
HETATM    5  C   UNL     1      -8.922  15.621  66.247  1.00  0.00    -0.342 C  
BRANCH   5   6
HETATM    6  C   UNL     1      -8.727  14.617  67.401  1.00  0.00    -0.209 C  
BRANCH   6   7
HETATM    7  C   UNL     1      -9.888  13.605  67.708  1.00  0.00    -0.232 C  
BRANCH   7   8
HETATM    8  C   UNL     1     -10.725  14.183  68.886  1.00  0.00    -0.270 A  
HETATM    9  C   UNL     1     -10.574  15.510  69.331  1.00  0.00    -0.250 A  
HETATM   10  C   UNL     1     -11.375  16.033  70.351  1.00  0.00    -0.405 A  
HETATM   11  C   UNL     1     -11.737  13.414  69.500  1.00  0.00    -0.385 A  
HETATM   12  C   UNL     1     -12.349  15.244  70.954  1.00  0.00    -0.433 A  
HETATM   13  C   UNL     1     -12.527  13.933  70.530  1.00  0.00    -0.422 A  
ENDBRANCH   7   8
BRANCH   7  14
HETATM   14  C   UNL     1      -9.292  12.183  67.975  1.00  0.00    -0.197 C  
HETATM   15  N   UNL     1     -10.074  11.111  67.620  1.00  0.00    -0.176 N  
HETATM   16  H1  UNL     1      -9.686  10.185  67.794  1.00  0.00     0.000 HD 
HETATM   17  O   UNL     1      -8.209  11.954  68.507  1.00  0.00    -0.154 OA 
HETATM   18  H2  UNL     1     -10.996  11.236  67.203  1.00  0.00     0.000 HD 
ENDBRANCH   7  14
BRANCH   7  19
HETATM   19  C   UNL     1     -10.748  13.455  66.411  1.00  0.00    -0.286 A  
HETATM   20  C   UNL     1     -12.159  13.249  64.042  1.00  0.00    -0.508 A  
HETATM   21  N   UNL     1     -10.161  12.880  65.323  1.00  0.00    -0.290 NA 
HETATM   22  C   UNL     1     -12.772  13.807  65.154  1.00  0.00    -0.439 A  
HETATM   23  C   UNL     1     -10.864  12.796  64.175  1.00  0.00    -0.406 A  
HETATM   24  C   UNL     1     -12.068  13.908  66.359  1.00  0.00    -0.489 A  
ENDBRANCH   7  19
ENDBRANCH   6   7
ENDBRANCH   5   6
ENDBRANCH   4   5
BRANCH   4  25
HETATM   25  C   UNL     1      -7.304  17.505  66.177  1.00  0.00    -0.311 C  
HETATM   26  C   UNL     1      -7.133  19.010  65.907  1.00  0.00    -0.294 C  
HETATM   27  C   UNL     1      -6.211  17.171  67.221  1.00  0.00    -0.191 C  
ENDBRANCH   4  25
ENDBRANCH   2   4
TORSDOF 8
ENDMDL
MODEL       26
REMARK 921   NORMALIZED FREE ENERGY PREDICTED BY IDOCK:   -5.21 KCAL/MOL
REMARK 922        TOTAL FREE ENERGY PREDICTED BY IDOCK:   -9.35 KCAL/MOL
REMARK 923 INTER-LIGAND FREE ENERGY PREDICTED BY IDOCK:   -8.18 KCAL/MOL
REMARK 924 INTRA-LIGAND FREE ENERGY PREDICTED BY IDOCK:   -1.17 KCAL/MOL
REMARK 927      BINDING AFFINITY PREDICTED BY RF-SCORE:    0.00 PKD
ROOT
HETATM    1  C   UNL     1     -11.212  11.929  69.538  1.00  0.00    -0.237 C  
HETATM    2  C   UNL     1     -12.411  12.594  70.258  1.00  0.00    -0.195 C  
HETATM    3  C   UNL     1     -12.908  11.549  71.271  1.00  0.00    -0.463 C  
ENDROOT
BRANCH   2   4
HETATM    4  N   UNL     1     -12.047  13.943  70.812  1.00  0.00    -0.342 NA 
BRANCH   4   5
HETATM    5  C   UNL     1     -11.954  14.965  69.712  1.00  0.00    -0.323 C  
BRANCH   5   6
HETATM    6  C   UNL     1     -10.539  15.541  69.501  1.00  0.00    -0.258 C  
BRANCH   6   7
HETATM    7  C   UNL     1     -10.016  15.705  68.030  1.00  0.00    -0.222 C  
BRANCH   7   8
HETATM    8  C   UNL     1     -10.106  17.214  67.657  1.00  0.00    -0.305 A  
HETATM    9  C   UNL     1     -10.338  17.646  66.338  1.00  0.00    -0.345 A  
HETATM   10  C   UNL     1     -10.476  19.002  66.028  1.00  0.00    -0.530 A  
HETATM   11  C   UNL     1     -10.044  18.210  68.655  1.00  0.00    -0.406 A  
HETATM   12  C   UNL     1     -10.386  19.964  67.029  1.00  0.00    -0.592 A  
HETATM   13  C   UNL     1     -10.167  19.567  68.342  1.00  0.00    -0.536 A  
ENDBRANCH   7   8
BRANCH   7  14
HETATM   14  C   UNL     1     -10.812  14.755  67.076  1.00  0.00    -0.315 C  
HETATM   15  N   UNL     1     -10.078  14.052  66.153  1.00  0.00    -0.300 N  
HETATM   16  H1  UNL     1     -10.597  13.433  65.531  1.00  0.00     0.000 HD 
HETATM   17  O   UNL     1     -12.033  14.621  67.063  1.00  0.00    -0.382 OA 
HETATM   18  H2  UNL     1      -9.065  14.144  66.093  1.00  0.00     0.000 HD 
ENDBRANCH   7  14
BRANCH   7  19
HETATM   19  C   UNL     1      -8.540  15.189  67.987  1.00  0.00    -0.156 A  
HETATM   20  C   UNL     1      -5.945  14.237  68.051  1.00  0.00    -0.150 A  
HETATM   21  N   UNL     1      -8.294  13.931  68.450  1.00  0.00    -0.157 NA 
HETATM   22  C   UNL     1      -6.193  15.506  67.549  1.00  0.00    -0.141 A  
HETATM   23  C   UNL     1      -7.019  13.489  68.481  1.00  0.00    -0.102 A  
HETATM   24  C   UNL     1      -7.504  15.993  67.506  1.00  0.00    -0.186 A  
ENDBRANCH   7  19
ENDBRANCH   6   7
ENDBRANCH   5   6
ENDBRANCH   4   5
BRANCH   4  25
HETATM   25  C   UNL     1     -12.868  14.446  71.963  1.00  0.00    -0.343 C  
HETATM   26  C   UNL     1     -12.193  15.473  72.890  1.00  0.00    -0.547 C  
HETATM   27  C   UNL     1     -14.165  15.144  71.489  1.00  0.00    -0.647 C  
ENDBRANCH   4  25
ENDBRANCH   2   4
TORSDOF 8
ENDMDL
MODEL       27
REMARK 921   NORMALIZED FREE ENERGY PREDICTED BY IDOCK:   -5.18 KCAL/MOL
REMARK 922        TOTAL FREE ENERGY PREDICTED BY IDOCK:   -9.31 KCAL/MOL
REMARK 923 INTER-LIGAND FREE ENERGY PREDICTED BY IDOCK:   -7.78 KCAL/MOL
REMARK 924 INTRA-LIGAND FREE ENERGY PREDICTED BY IDOCK:   -1.53 KCAL/MOL
REMARK 927      BINDING AFFINITY PREDICTED BY RF-SCORE:    0.00 PKD
ROOT
HETATM    1  C   UNL     1     -10.586   5.549  66.422  1.00  0.00    -0.291 C  
HETATM    2  C   UNL     1     -10.992   6.825  67.200  1.00  0.00    -0.388 C  
HETATM    3  C   UNL     1     -11.048   6.401  68.677  1.00  0.00    -0.393 C  
ENDROOT
BRANCH   2   4
HETATM    4  N   UNL     1     -10.098   7.985  66.869  1.00  0.00    -0.266 NA 
BRANCH   4   5
HETATM    5  C   UNL     1     -10.007   8.938  68.030  1.00  0.00    -0.178 C  
BRANCH   5   6
HETATM    6  C   UNL     1     -11.005  10.112  67.966  1.00  0.00    -0.326 C  
BRANCH   6   7
HETATM    7  C   UNL     1     -10.463  11.524  67.542  1.00  0.00    -0.229 C  
BRANCH   7   8
HETATM    8  C   UNL     1     -10.957  11.809  66.094  1.00  0.00    -0.355 A  
HETATM    9  C   UNL     1     -10.408  11.156  64.974  1.00  0.00    -0.362 A  
HETATM   10  C   UNL     1     -10.902  11.378  63.685  1.00  0.00    -0.459 A  
HETATM   11  C   UNL     1     -12.045  12.677  65.858  1.00  0.00    -0.459 A  
HETATM   12  C   UNL     1     -11.960  12.258  63.480  1.00  0.00    -0.625 A  
HETATM   13  C   UNL     1     -12.529  12.909  64.567  1.00  0.00    -0.468 A  
ENDBRANCH   7   8
BRANCH   7  14
HETATM   14  C   UNL     1      -8.909  11.569  67.716  1.00  0.00    -0.153 C  
HETATM   15  N   UNL     1      -8.437  11.802  68.983  1.00  0.00    -0.366 N  
HETATM   16  H1  UNL     1      -7.424  11.832  69.096  1.00  0.00     0.000 HD 
HETATM   17  O   UNL     1      -8.089  11.452  66.809  1.00  0.00    -0.152 OA 
HETATM   18  H2  UNL     1      -9.068  11.939  69.772  1.00  0.00     0.000 HD 
ENDBRANCH   7  14
BRANCH   7  19
HETATM   19  C   UNL     1     -11.021  12.574  68.556  1.00  0.00    -0.249 A  
HETATM   20  C   UNL     1     -11.870  14.478  70.374  1.00  0.00    -0.378 A  
HETATM   21  N   UNL     1     -10.607  13.867  68.424  1.00  0.00    -0.249 NA 
HETATM   22  C   UNL     1     -12.321  13.171  70.495  1.00  0.00    -0.380 A  
HETATM   23  C   UNL     1     -11.026  14.778  69.326  1.00  0.00    -0.261 A  
HETATM   24  C   UNL     1     -11.902  12.204  69.575  1.00  0.00    -0.386 A  
ENDBRANCH   7  19
ENDBRANCH   6   7
ENDBRANCH   5   6
ENDBRANCH   4   5
BRANCH   4  25
HETATM   25  C   UNL     1      -8.741   7.659  66.317  1.00  0.00    -0.152 C  
HETATM   26  C   UNL     1      -8.369   8.318  64.977  1.00  0.00    -0.158 C  
HETATM   27  C   UNL     1      -7.606   8.077  67.283  1.00  0.00    -0.097 C  
ENDBRANCH   4  25
ENDBRANCH   2   4
TORSDOF 8
ENDMDL
MODEL       28
REMARK 921   NORMALIZED FREE ENERGY PREDICTED BY IDOCK:   -5.15 KCAL/MOL
REMARK 922        TOTAL FREE ENERGY PREDICTED BY IDOCK:   -9.27 KCAL/MOL
REMARK 923 INTER-LIGAND FREE ENERGY PREDICTED BY IDOCK:   -7.66 KCAL/MOL
REMARK 924 INTRA-LIGAND FREE ENERGY PREDICTED BY IDOCK:   -1.61 KCAL/MOL
REMARK 927      BINDING AFFINITY PREDICTED BY RF-SCORE:    0.00 PKD
ROOT
HETATM    1  C   UNL     1     -10.295  20.139  68.380  1.00  0.00    -0.401 C  
HETATM    2  C   UNL     1     -10.536  19.035  67.321  1.00  0.00    -0.470 C  
HETATM    3  C   UNL     1     -10.402  19.737  65.960  1.00  0.00    -0.612 C  
ENDROOT
BRANCH   2   4
HETATM    4  N   UNL     1      -9.649  17.844  67.550  1.00  0.00    -0.265 NA 
BRANCH   4   5
HETATM    5  C   UNL     1     -10.229  16.614  66.906  1.00  0.00    -0.291 C  
BRANCH   5   6
HETATM    6  C   UNL     1     -11.407  15.989  67.680  1.00  0.00    -0.109 C  
BRANCH   6   7
HETATM    7  C   UNL     1     -11.269  14.502  68.167  1.00  0.00    -0.301 C  
BRANCH   7   8
HETATM    8  C   UNL     1      -9.752  14.168  68.255  1.00  0.00    -0.227 A  
HETATM    9  C   UNL     1      -9.103  13.374  67.291  1.00  0.00    -0.222 A  
HETATM   10  C   UNL     1      -7.727  13.131  67.351  1.00  0.00    -0.151 A  
HETATM   11  C   UNL     1      -8.945  14.728  69.270  1.00  0.00    -0.028 A  
HETATM   12  C   UNL     1      -6.962  13.677  68.376  1.00  0.00    -0.104 A  
HETATM   13  C   UNL     1      -7.572  14.472  69.338  1.00  0.00    -0.033 A  
ENDBRANCH   7   8
BRANCH   7  14
HETATM   14  C   UNL     1     -12.085  13.558  67.223  1.00  0.00    -0.323 C  
HETATM   15  N   UNL     1     -12.720  14.150  66.159  1.00  0.00    -0.491 N  
HETATM   16  H1  UNL     1     -13.252  13.535  65.544  1.00  0.00     0.000 HD 
HETATM   17  O   UNL     1     -12.232  12.349  67.381  1.00  0.00    -0.459 OA 
HETATM   18  H2  UNL     1     -12.663  15.154  65.993  1.00  0.00     0.000 HD 
ENDBRANCH   7  14
BRANCH   7  19
HETATM   19  C   UNL     1     -11.965  14.390  69.563  1.00  0.00    -0.330 A  
HETATM   20  C   UNL     1     -13.273  14.077  71.979  1.00  0.00    -0.499 A  
HETATM   21  N   UNL     1     -12.017  13.160  70.149  1.00  0.00    -0.335 NA 
HETATM   22  C   UNL     1     -13.197  15.337  71.403  1.00  0.00    -0.555 A  
HETATM   23  C   UNL     1     -12.667  13.027  71.324  1.00  0.00    -0.293 A  
HETATM   24  C   UNL     1     -12.530  15.505  70.185  1.00  0.00    -0.351 A  
ENDBRANCH   7  19
ENDBRANCH   6   7
ENDBRANCH   5   6
ENDBRANCH   4   5
BRANCH   4  25
HETATM   25  C   UNL     1      -8.196  18.008  67.216  1.00  0.00    -0.218 C  
HETATM   26  C   UNL     1      -7.223  18.096  68.405  1.00  0.00    -0.264 C  
HETATM   27  C   UNL     1      -7.660  16.833  66.363  1.00  0.00    -0.325 C  
ENDBRANCH   4  25
ENDBRANCH   2   4
TORSDOF 8
ENDMDL
MODEL       29
REMARK 921   NORMALIZED FREE ENERGY PREDICTED BY IDOCK:   -5.15 KCAL/MOL
REMARK 922        TOTAL FREE ENERGY PREDICTED BY IDOCK:   -9.26 KCAL/MOL
REMARK 923 INTER-LIGAND FREE ENERGY PREDICTED BY IDOCK:   -7.64 KCAL/MOL
REMARK 924 INTRA-LIGAND FREE ENERGY PREDICTED BY IDOCK:   -1.62 KCAL/MOL
REMARK 927      BINDING AFFINITY PREDICTED BY RF-SCORE:    0.00 PKD
ROOT
HETATM    1  C   UNL     1     -11.247  11.014  67.402  1.00  0.00    -0.355 C  
HETATM    2  C   UNL     1     -10.126  11.238  66.357  1.00  0.00    -0.220 C  
HETATM    3  C   UNL     1     -10.848  11.667  65.069  1.00  0.00    -0.346 C  
ENDROOT
BRANCH   2   4
HETATM    4  N   UNL     1      -9.066  12.169  66.872  1.00  0.00    -0.198 NA 
BRANCH   4   5
HETATM    5  C   UNL     1      -9.418  12.674  68.245  1.00  0.00    -0.203 C  
BRANCH   5   6
HETATM    6  C   UNL     1      -9.199  14.187  68.440  1.00  0.00    -0.203 C  
BRANCH   6   7
HETATM    7  C   UNL     1     -10.445  15.137  68.337  1.00  0.00    -0.233 C  
BRANCH   7   8
HETATM    8  C   UNL     1     -11.302  14.940  69.621  1.00  0.00    -0.311 A  
HETATM    9  C   UNL     1     -11.932  13.717  69.919  1.00  0.00    -0.415 A  
HETATM   10  C   UNL     1     -12.650  13.536  71.106  1.00  0.00    -0.438 A  
HETATM   11  C   UNL     1     -11.407  15.965  70.586  1.00  0.00    -0.421 A  
HETATM   12  C   UNL     1     -12.756  14.572  72.027  1.00  0.00    -0.410 A  
HETATM   13  C   UNL     1     -12.137  15.788  71.765  1.00  0.00    -0.541 A  
ENDBRANCH   7   8
BRANCH   7  14
HETATM   14  C   UNL     1     -11.211  14.863  67.000  1.00  0.00    -0.344 C  
HETATM   15  N   UNL     1     -10.560  15.195  65.838  1.00  0.00    -0.320 N  
HETATM   16  H1  UNL     1     -11.059  15.017  64.967  1.00  0.00     0.000 HD 
HETATM   17  O   UNL     1     -12.351  14.415  66.914  1.00  0.00    -0.371 OA 
HETATM   18  H2  UNL     1      -9.624  15.600  65.846  1.00  0.00     0.000 HD 
ENDBRANCH   7  14
BRANCH   7  19
HETATM   19  C   UNL     1      -9.919  16.604  68.217  1.00  0.00    -0.261 A  
HETATM   20  C   UNL     1      -9.038  19.202  67.865  1.00  0.00    -0.349 A  
HETATM   21  N   UNL     1     -10.770  17.544  67.714  1.00  0.00    -0.372 NA 
HETATM   22  C   UNL     1      -8.178  18.258  68.407  1.00  0.00    -0.326 A  
HETATM   23  C   UNL     1     -10.318  18.804  67.542  1.00  0.00    -0.416 A  
HETATM   24  C   UNL     1      -8.619  16.943  68.596  1.00  0.00    -0.267 A  
ENDBRANCH   7  19
ENDBRANCH   6   7
ENDBRANCH   5   6
ENDBRANCH   4   5
BRANCH   4  25
HETATM   25  C   UNL     1      -7.648  11.682  66.811  1.00  0.00    -0.104 C  
HETATM   26  C   UNL     1      -7.030  11.203  68.137  1.00  0.00    -0.069 C  
HETATM   27  C   UNL     1      -7.490  10.477  65.852  1.00  0.00    -0.147 C  
ENDBRANCH   4  25
ENDBRANCH   2   4
TORSDOF 8
ENDMDL
MODEL       30
REMARK 921   NORMALIZED FREE ENERGY PREDICTED BY IDOCK:   -5.11 KCAL/MOL
REMARK 922        TOTAL FREE ENERGY PREDICTED BY IDOCK:   -9.21 KCAL/MOL
REMARK 923 INTER-LIGAND FREE ENERGY PREDICTED BY IDOCK:   -8.18 KCAL/MOL
REMARK 924 INTRA-LIGAND FREE ENERGY PREDICTED BY IDOCK:   -1.03 KCAL/MOL
REMARK 927      BINDING AFFINITY PREDICTED BY RF-SCORE:    0.00 PKD
ROOT
HETATM    1  C   UNL     1     -11.768  15.828  68.915  1.00  0.00    -0.404 C  
HETATM    2  C   UNL     1     -11.478  15.018  70.203  1.00  0.00    -0.277 C  
HETATM    3  C   UNL     1     -11.559  16.036  71.352  1.00  0.00    -0.520 C  
ENDROOT
BRANCH   2   4
HETATM    4  N   UNL     1     -12.367  13.813  70.312  1.00  0.00    -0.343 NA 
BRANCH   4   5
HETATM    5  C   UNL     1     -11.678  12.589  69.772  1.00  0.00    -0.285 C  
BRANCH   5   6
HETATM    6  C   UNL     1     -11.992  12.285  68.294  1.00  0.00    -0.259 C  
BRANCH   6   7
HETATM    7  C   UNL     1     -10.916  11.514  67.450  1.00  0.00    -0.317 C  
BRANCH   7   8
HETATM    8  C   UNL     1     -11.152  11.855  65.950  1.00  0.00    -0.365 A  
HETATM    9  C   UNL     1     -10.317  11.362  64.930  1.00  0.00    -0.347 A  
HETATM   10  C   UNL     1     -10.577  11.628  63.581  1.00  0.00    -0.493 A  
HETATM   11  C   UNL     1     -12.277  12.608  65.548  1.00  0.00    -0.501 A  
HETATM   12  C   UNL     1     -11.680  12.394  63.217  1.00  0.00    -0.466 A  
HETATM   13  C   UNL     1     -12.527  12.886  64.201  1.00  0.00    -0.413 A  
ENDBRANCH   7   8
BRANCH   7  14
HETATM   14  C   UNL     1     -10.978   9.986  67.783  1.00  0.00    -0.249 C  
HETATM   15  N   UNL     1     -11.294   9.649  69.075  1.00  0.00    -0.460 N  
HETATM   16  H1  UNL     1     -11.333   8.654  69.292  1.00  0.00     0.000 HD 
HETATM   17  O   UNL     1     -10.730   9.077  66.995  1.00  0.00    -0.242 OA 
HETATM   18  H2  UNL     1     -11.479  10.359  69.783  1.00  0.00     0.000 HD 
ENDBRANCH   7  14
BRANCH   7  19
HETATM   19  C   UNL     1      -9.504  11.983  67.930  1.00  0.00    -0.196 A  
HETATM   20  C   UNL     1      -7.034  12.748  68.910  1.00  0.00    -0.084 A  
HETATM   21  N   UNL     1      -8.689  11.054  68.507  1.00  0.00    -0.153 NA 
HETATM   22  C   UNL     1      -7.845  13.691  68.295  1.00  0.00    -0.141 A  
HETATM   23  C   UNL     1      -7.491  11.450  68.986  1.00  0.00    -0.093 A  
HETATM   24  C   UNL     1      -9.093  13.310  67.791  1.00  0.00    -0.202 A  
ENDBRANCH   7  19
ENDBRANCH   6   7
ENDBRANCH   5   6
ENDBRANCH   4   5
BRANCH   4  25
HETATM   25  C   UNL     1     -12.989  13.549  71.652  1.00  0.00    -0.359 C  
HETATM   26  C   UNL     1     -14.382  14.156  71.894  1.00  0.00    -0.541 C  
HETATM   27  C   UNL     1     -13.173  12.035  71.918  1.00  0.00    -0.469 C  
ENDBRANCH   4  25
ENDBRANCH   2   4
TORSDOF 8
ENDMDL
MODEL       31
REMARK 921   NORMALIZED FREE ENERGY PREDICTED BY IDOCK:   -5.11 KCAL/MOL
REMARK 922        TOTAL FREE ENERGY PREDICTED BY IDOCK:   -9.20 KCAL/MOL
REMARK 923 INTER-LIGAND FREE ENERGY PREDICTED BY IDOCK:   -7.72 KCAL/MOL
REMARK 924 INTRA-LIGAND FREE ENERGY PREDICTED BY IDOCK:   -1.48 KCAL/MOL
REMARK 927      BINDING AFFINITY PREDICTED BY RF-SCORE:    0.00 PKD
ROOT
HETATM    1  C   UNL     1      -9.192   8.983  66.266  1.00  0.00    -0.258 C  
HETATM    2  C   UNL     1     -10.530   8.964  67.046  1.00  0.00    -0.256 C  
HETATM    3  C   UNL     1     -10.827   7.479  67.309  1.00  0.00    -0.297 C  
ENDROOT
BRANCH   2   4
HETATM    4  N   UNL     1     -10.483   9.861  68.250  1.00  0.00    -0.198 NA 
BRANCH   4   5
HETATM    5  C   UNL     1     -11.473  10.986  68.118  1.00  0.00    -0.302 C  
BRANCH   5   6
HETATM    6  C   UNL     1     -10.915  12.371  68.503  1.00  0.00    -0.277 C  
BRANCH   6   7
HETATM    7  C   UNL     1     -10.203  13.219  67.390  1.00  0.00    -0.229 C  
BRANCH   7   8
HETATM    8  C   UNL     1     -10.845  12.846  66.022  1.00  0.00    -0.300 A  
HETATM    9  C   UNL     1     -10.114  12.210  65.001  1.00  0.00    -0.289 A  
HETATM   10  C   UNL     1     -10.719  11.827  63.800  1.00  0.00    -0.480 A  
HETATM   11  C   UNL     1     -12.221  13.056  65.787  1.00  0.00    -0.511 A  
HETATM   12  C   UNL     1     -12.072  12.068  63.587  1.00  0.00    -0.627 A  
HETATM   13  C   UNL     1     -12.822  12.686  64.580  1.00  0.00    -0.361 A  
ENDBRANCH   7   8
BRANCH   7  14
HETATM   14  C   UNL     1      -8.656  12.994  67.461  1.00  0.00    -0.192 C  
HETATM   15  N   UNL     1      -7.863  14.015  66.998  1.00  0.00    -0.362 N  
HETATM   16  H1  UNL     1      -6.855  13.868  67.044  1.00  0.00     0.000 HD 
HETATM   17  O   UNL     1      -8.104  11.971  67.858  1.00  0.00    -0.131 OA 
HETATM   18  H2  UNL     1      -8.262  14.876  66.627  1.00  0.00     0.000 HD 
ENDBRANCH   7  14
BRANCH   7  19
HETATM   19  C   UNL     1     -10.415  14.730  67.731  1.00  0.00    -0.254 A  
HETATM   20  C   UNL     1     -10.660  17.431  68.271  1.00  0.00    -0.366 A  
HETATM   21  N   UNL     1     -10.229  15.639  66.731  1.00  0.00    -0.269 NA 
HETATM   22  C   UNL     1     -10.882  16.510  69.285  1.00  0.00    -0.326 A  
HETATM   23  C   UNL     1     -10.345  16.952  67.018  1.00  0.00    -0.307 A  
HETATM   24  C   UNL     1     -10.767  15.142  69.018  1.00  0.00    -0.239 A  
ENDBRANCH   7  19
ENDBRANCH   6   7
ENDBRANCH   5   6
ENDBRANCH   4   5
BRANCH   4  25
HETATM   25  C   UNL     1     -10.578   9.198  69.592  1.00  0.00    -0.228 C  
HETATM   26  C   UNL     1      -9.325   9.270  70.484  1.00  0.00    -0.316 C  
HETATM   27  C   UNL     1     -11.707   9.804  70.460  1.00  0.00    -0.343 C  
ENDBRANCH   4  25
ENDBRANCH   2   4
TORSDOF 8
ENDMDL
MODEL       32
REMARK 921   NORMALIZED FREE ENERGY PREDICTED BY IDOCK:   -5.09 KCAL/MOL
REMARK 922        TOTAL FREE ENERGY PREDICTED BY IDOCK:   -9.18 KCAL/MOL
REMARK 923 INTER-LIGAND FREE ENERGY PREDICTED BY IDOCK:   -7.74 KCAL/MOL
REMARK 924 INTRA-LIGAND FREE ENERGY PREDICTED BY IDOCK:   -1.44 KCAL/MOL
REMARK 927      BINDING AFFINITY PREDICTED BY RF-SCORE:    0.00 PKD
ROOT
HETATM    1  C   UNL     1      -6.788  18.599  67.777  1.00  0.00    -0.221 C  
HETATM    2  C   UNL     1      -6.955  17.059  67.810  1.00  0.00    -0.145 C  
HETATM    3  C   UNL     1      -5.799  16.505  66.962  1.00  0.00    -0.140 C  
ENDROOT
BRANCH   2   4
HETATM    4  N   UNL     1      -7.061  16.543  69.217  1.00  0.00    -0.227 NA 
BRANCH   4   5
HETATM    5  C   UNL     1      -8.195  15.562  69.343  1.00  0.00    -0.247 C  
BRANCH   5   6
HETATM    6  C   UNL     1      -8.832  15.154  68.000  1.00  0.00    -0.170 C  
BRANCH   6   7
HETATM    7  C   UNL     1     -10.324  15.565  67.731  1.00  0.00    -0.263 C  
BRANCH   7   8
HETATM    8  C   UNL     1     -10.351  17.093  67.434  1.00  0.00    -0.333 A  
HETATM    9  C   UNL     1     -10.412  18.053  68.460  1.00  0.00    -0.291 A  
HETATM   10  C   UNL     1     -10.376  19.423  68.181  1.00  0.00    -0.525 A  
HETATM   11  C   UNL     1     -10.228  17.575  66.113  1.00  0.00    -0.339 A  
HETATM   12  C   UNL     1     -10.278  19.869  66.867  1.00  0.00    -0.600 A  
HETATM   13  C   UNL     1     -10.207  18.945  65.833  1.00  0.00    -0.333 A  
ENDBRANCH   7   8
BRANCH   7  14
HETATM   14  C   UNL     1     -11.219  15.124  68.936  1.00  0.00    -0.283 C  
HETATM   15  N   UNL     1     -12.407  15.793  69.098  1.00  0.00    -0.539 N  
HETATM   16  H1  UNL     1     -12.991  15.506  69.883  1.00  0.00     0.000 HD 
HETATM   17  O   UNL     1     -10.926  14.264  69.762  1.00  0.00    -0.188 OA 
HETATM   18  H2  UNL     1     -12.692  16.539  68.464  1.00  0.00     0.000 HD 
ENDBRANCH   7  14
BRANCH   7  19
HETATM   19  C   UNL     1     -10.837  14.733  66.511  1.00  0.00    -0.319 A  
HETATM   20  C   UNL     1     -11.817  13.174  64.448  1.00  0.00    -0.441 A  
HETATM   21  N   UNL     1     -12.172  14.467  66.441  1.00  0.00    -0.392 NA 
HETATM   22  C   UNL     1     -10.462  13.467  64.496  1.00  0.00    -0.431 A  
HETATM   23  C   UNL     1     -12.629  13.697  65.431  1.00  0.00    -0.491 A  
HETATM   24  C   UNL     1      -9.959  14.261  65.533  1.00  0.00    -0.341 A  
ENDBRANCH   7  19
ENDBRANCH   6   7
ENDBRANCH   5   6
ENDBRANCH   4   5
BRANCH   4  25
HETATM   25  C   UNL     1      -5.803  16.014  69.841  1.00  0.00    -0.170 C  
HETATM   26  C   UNL     1      -5.180  16.867  70.960  1.00  0.00    -0.137 C  
HETATM   27  C   UNL     1      -6.015  14.623  70.486  1.00  0.00    -0.172 C  
ENDBRANCH   4  25
ENDBRANCH   2   4
TORSDOF 8
ENDMDL
MODEL       33
REMARK 921   NORMALIZED FREE ENERGY PREDICTED BY IDOCK:   -5.07 KCAL/MOL
REMARK 922        TOTAL FREE ENERGY PREDICTED BY IDOCK:   -9.16 KCAL/MOL
REMARK 923 INTER-LIGAND FREE ENERGY PREDICTED BY IDOCK:   -7.48 KCAL/MOL
REMARK 924 INTRA-LIGAND FREE ENERGY PREDICTED BY IDOCK:   -1.68 KCAL/MOL
REMARK 927      BINDING AFFINITY PREDICTED BY RF-SCORE:    0.00 PKD
ROOT
HETATM    1  C   UNL     1      -7.993   9.745  69.600  1.00  0.00    -0.152 C  
HETATM    2  C   UNL     1      -7.776  11.157  69.001  1.00  0.00    -0.114 C  
HETATM    3  C   UNL     1      -6.575  11.017  68.051  1.00  0.00    -0.062 C  
ENDROOT
BRANCH   2   4
HETATM    4  N   UNL     1      -9.040  11.707  68.405  1.00  0.00    -0.185 NA 
BRANCH   4   5
HETATM    5  C   UNL     1      -8.779  13.019  67.716  1.00  0.00    -0.188 C  
BRANCH   5   6
HETATM    6  C   UNL     1      -8.965  14.257  68.616  1.00  0.00    -0.154 C  
BRANCH   6   7
HETATM    7  C   UNL     1     -10.220  15.169  68.374  1.00  0.00    -0.221 C  
BRANCH   7   8
HETATM    8  C   UNL     1     -10.882  14.724  67.037  1.00  0.00    -0.315 A  
HETATM    9  C   UNL     1     -12.138  14.090  66.999  1.00  0.00    -0.455 A  
HETATM   10  C   UNL     1     -12.747  13.751  65.787  1.00  0.00    -0.494 A  
HETATM   11  C   UNL     1     -10.278  15.024  65.797  1.00  0.00    -0.361 A  
HETATM   12  C   UNL     1     -12.117  14.036  64.580  1.00  0.00    -0.462 A  
HETATM   13  C   UNL     1     -10.881  14.670  64.586  1.00  0.00    -0.332 A  
ENDBRANCH   7   8
BRANCH   7  14
HETATM   14  C   UNL     1      -9.796  16.674  68.416  1.00  0.00    -0.252 C  
HETATM   15  N   UNL     1     -10.744  17.592  68.037  1.00  0.00    -0.381 N  
HETATM   16  H1  UNL     1     -10.468  18.573  68.064  1.00  0.00     0.000 HD 
HETATM   17  O   UNL     1      -8.682  17.091  68.722  1.00  0.00    -0.263 OA 
HETATM   18  H2  UNL     1     -11.677  17.307  67.742  1.00  0.00     0.000 HD 
ENDBRANCH   7  14
BRANCH   7  19
HETATM   19  C   UNL     1     -11.189  14.980  69.586  1.00  0.00    -0.275 A  
HETATM   20  C   UNL     1     -12.807  14.718  71.814  1.00  0.00    -0.396 A  
HETATM   21  N   UNL     1     -11.487  16.078  70.338  1.00  0.00    -0.372 NA 
HETATM   22  C   UNL     1     -12.533  13.603  71.036  1.00  0.00    -0.456 A  
HETATM   23  C   UNL     1     -12.272  15.927  71.425  1.00  0.00    -0.448 A  
HETATM   24  C   UNL     1     -11.722  13.728  69.902  1.00  0.00    -0.353 A  
ENDBRANCH   7  19
ENDBRANCH   6   7
ENDBRANCH   5   6
ENDBRANCH   4   5
BRANCH   4  25
HETATM   25  C   UNL     1      -9.841  10.780  67.540  1.00  0.00    -0.172 C  
HETATM   26  C   UNL     1     -11.343  10.669  67.858  1.00  0.00    -0.342 C  
HETATM   27  C   UNL     1      -9.790  11.189  66.048  1.00  0.00    -0.270 C  
ENDBRANCH   4  25
ENDBRANCH   2   4
TORSDOF 8
ENDMDL
MODEL       34
REMARK 921   NORMALIZED FREE ENERGY PREDICTED BY IDOCK:   -5.07 KCAL/MOL
REMARK 922        TOTAL FREE ENERGY PREDICTED BY IDOCK:   -9.15 KCAL/MOL
REMARK 923 INTER-LIGAND FREE ENERGY PREDICTED BY IDOCK:   -7.92 KCAL/MOL
REMARK 924 INTRA-LIGAND FREE ENERGY PREDICTED BY IDOCK:   -1.24 KCAL/MOL
REMARK 927      BINDING AFFINITY PREDICTED BY RF-SCORE:    0.00 PKD
ROOT
HETATM    1  C   UNL     1     -10.657   8.445  67.552  1.00  0.00    -0.285 C  
HETATM    2  C   UNL     1      -9.949   8.420  68.929  1.00  0.00    -0.187 C  
HETATM    3  C   UNL     1      -8.524   7.918  68.646  1.00  0.00    -0.128 C  
ENDROOT
BRANCH   2   4
HETATM    4  N   UNL     1     -10.066   9.741  69.636  1.00  0.00    -0.214 NA 
BRANCH   4   5
HETATM    5  C   UNL     1     -10.549  10.810  68.695  1.00  0.00    -0.199 C  
BRANCH   5   6
HETATM    6  C   UNL     1      -9.480  11.858  68.324  1.00  0.00    -0.197 C  
BRANCH   6   7
HETATM    7  C   UNL     1      -9.940  13.148  67.556  1.00  0.00    -0.223 C  
BRANCH   7   8
HETATM    8  C   UNL     1     -10.741  12.695  66.301  1.00  0.00    -0.280 A  
HETATM    9  C   UNL     1     -12.024  13.196  66.011  1.00  0.00    -0.488 A  
HETATM   10  C   UNL     1     -12.707  12.825  64.849  1.00  0.00    -0.479 A  
HETATM   11  C   UNL     1     -10.167  11.821  65.353  1.00  0.00    -0.301 A  
HETATM   12  C   UNL     1     -12.126  11.943  63.944  1.00  0.00    -0.505 A  
HETATM   13  C   UNL     1     -10.857  11.438  64.198  1.00  0.00    -0.431 A  
ENDBRANCH   7   8
BRANCH   7  14
HETATM   14  C   UNL     1      -8.699  14.047  67.240  1.00  0.00    -0.218 C  
HETATM   15  N   UNL     1      -8.857  14.993  66.259  1.00  0.00    -0.471 N  
HETATM   16  H1  UNL     1      -8.048  15.579  66.053  1.00  0.00     0.000 HD 
HETATM   17  O   UNL     1      -7.595  13.946  67.770  1.00  0.00    -0.136 OA 
HETATM   18  H2  UNL     1      -9.740  15.105  65.760  1.00  0.00     0.000 HD 
ENDBRANCH   7  14
BRANCH   7  19
HETATM   19  C   UNL     1     -10.825  13.994  68.528  1.00  0.00    -0.254 A  
HETATM   20  C   UNL     1     -12.269  15.569  70.283  1.00  0.00    -0.432 A  
HETATM   21  N   UNL     1     -10.738  15.352  68.445  1.00  0.00    -0.248 NA 
HETATM   22  C   UNL     1     -12.386  14.188  70.352  1.00  0.00    -0.428 A  
HETATM   23  C   UNL     1     -11.445  16.103  69.316  1.00  0.00    -0.304 A  
HETATM   24  C   UNL     1     -11.664  13.385  69.463  1.00  0.00    -0.385 A  
ENDBRANCH   7  19
ENDBRANCH   6   7
ENDBRANCH   5   6
ENDBRANCH   4   5
BRANCH   4  25
HETATM   25  C   UNL     1     -10.833   9.753  70.925  1.00  0.00    -0.328 C  
HETATM   26  C   UNL     1     -12.314  10.163  70.838  1.00  0.00    -0.461 C  
HETATM   27  C   UNL     1     -10.855   8.361  71.601  1.00  0.00    -0.335 C  
ENDBRANCH   4  25
ENDBRANCH   2   4
TORSDOF 8
ENDMDL
MODEL       35
REMARK 921   NORMALIZED FREE ENERGY PREDICTED BY IDOCK:   -5.07 KCAL/MOL
REMARK 922        TOTAL FREE ENERGY PREDICTED BY IDOCK:   -9.15 KCAL/MOL
REMARK 923 INTER-LIGAND FREE ENERGY PREDICTED BY IDOCK:   -7.81 KCAL/MOL
REMARK 924 INTRA-LIGAND FREE ENERGY PREDICTED BY IDOCK:   -1.34 KCAL/MOL
REMARK 927      BINDING AFFINITY PREDICTED BY RF-SCORE:    0.00 PKD
ROOT
HETATM    1  C   UNL     1     -13.157  11.482  71.662  1.00  0.00    -0.478 C  
HETATM    2  C   UNL     1     -12.295  10.266  71.242  1.00  0.00    -0.403 C  
HETATM    3  C   UNL     1     -13.178   9.033  71.494  1.00  0.00    -0.388 C  
ENDROOT
BRANCH   2   4
HETATM    4  N   UNL     1     -11.749  10.426  69.851  1.00  0.00    -0.267 NA 
BRANCH   4   5
HETATM    5  C   UNL     1     -11.098  11.772  69.684  1.00  0.00    -0.070 C  
BRANCH   5   6
HETATM    6  C   UNL     1     -11.622  12.585  68.483  1.00  0.00    -0.364 C  
BRANCH   6   7
HETATM    7  C   UNL     1     -10.573  13.203  67.491  1.00  0.00    -0.240 C  
BRANCH   7   8
HETATM    8  C   UNL     1     -11.009  12.832  66.044  1.00  0.00    -0.306 A  
HETATM    9  C   UNL     1     -10.082  12.444  65.059  1.00  0.00    -0.269 A  
HETATM   10  C   UNL     1     -10.495  12.057  63.780  1.00  0.00    -0.469 A  
HETATM   11  C   UNL     1     -12.375  12.788  65.689  1.00  0.00    -0.444 A  
HETATM   12  C   UNL     1     -11.846  12.046  63.452  1.00  0.00    -0.542 A  
HETATM   13  C   UNL     1     -12.786  12.414  64.406  1.00  0.00    -0.434 A  
ENDBRANCH   7   8
BRANCH   7  14
HETATM   14  C   UNL     1      -9.134  12.722  67.875  1.00  0.00    -0.204 C  
HETATM   15  N   UNL     1      -8.429  13.520  68.742  1.00  0.00    -0.359 N  
HETATM   16  H1  UNL     1      -7.491  13.207  68.992  1.00  0.00     0.000 HD 
HETATM   17  O   UNL     1      -8.579  11.719  67.435  1.00  0.00    -0.148 OA 
HETATM   18  H2  UNL     1      -8.824  14.382  69.117  1.00  0.00     0.000 HD 
ENDBRANCH   7  14
BRANCH   7  19
HETATM   19  C   UNL     1     -10.562  14.751  67.710  1.00  0.00    -0.257 A  
HETATM   20  C   UNL     1     -10.672  17.476  68.165  1.00  0.00    -0.330 A  
HETATM   21  N   UNL     1     -10.810  15.216  68.967  1.00  0.00    -0.232 NA 
HETATM   22  C   UNL     1     -10.388  17.009  66.890  1.00  0.00    -0.303 A  
HETATM   23  C   UNL     1     -10.868  16.550  69.166  1.00  0.00    -0.334 A  
HETATM   24  C   UNL     1     -10.323  15.632  66.653  1.00  0.00    -0.290 A  
ENDBRANCH   7  19
ENDBRANCH   6   7
ENDBRANCH   5   6
ENDBRANCH   4   5
BRANCH   4  25
HETATM   25  C   UNL     1     -10.873   9.323  69.336  1.00  0.00    -0.169 C  
HETATM   26  C   UNL     1     -10.666   9.265  67.812  1.00  0.00    -0.270 C  
HETATM   27  C   UNL     1      -9.441   9.399  69.919  1.00  0.00    -0.235 C  
ENDBRANCH   4  25
ENDBRANCH   2   4
TORSDOF 8
ENDMDL
MODEL       36
REMARK 921   NORMALIZED FREE ENERGY PREDICTED BY IDOCK:   -5.07 KCAL/MOL
REMARK 922        TOTAL FREE ENERGY PREDICTED BY IDOCK:   -9.15 KCAL/MOL
REMARK 923 INTER-LIGAND FREE ENERGY PREDICTED BY IDOCK:   -7.38 KCAL/MOL
REMARK 924 INTRA-LIGAND FREE ENERGY PREDICTED BY IDOCK:   -1.77 KCAL/MOL
REMARK 927      BINDING AFFINITY PREDICTED BY RF-SCORE:    0.00 PKD
ROOT
HETATM    1  C   UNL     1     -12.086  12.938  63.407  1.00  0.00    -0.610 C  
HETATM    2  C   UNL     1     -11.286  11.790  64.072  1.00  0.00    -0.381 C  
HETATM    3  C   UNL     1      -9.966  11.706  63.288  1.00  0.00    -0.442 C  
ENDROOT
BRANCH   2   4
HETATM    4  N   UNL     1     -11.172  11.981  65.558  1.00  0.00    -0.322 NA 
BRANCH   4   5
HETATM    5  C   UNL     1     -10.147  11.046  66.140  1.00  0.00    -0.237 C  
BRANCH   5   6
HETATM    6  C   UNL     1     -10.743   9.856  66.916  1.00  0.00    -0.195 C  
BRANCH   6   7
HETATM    7  C   UNL     1     -10.085   9.457  68.285  1.00  0.00    -0.210 C  
BRANCH   7   8
HETATM    8  C   UNL     1     -10.985  10.012  69.427  1.00  0.00    -0.280 A  
HETATM    9  C   UNL     1     -11.552  11.299  69.374  1.00  0.00    -0.390 A  
HETATM   10  C   UNL     1     -12.407  11.762  70.379  1.00  0.00    -0.362 A  
HETATM   11  C   UNL     1     -11.339   9.202  70.527  1.00  0.00    -0.300 A  
HETATM   12  C   UNL     1     -12.719  10.950  71.464  1.00  0.00    -0.533 A  
HETATM   13  C   UNL     1     -12.182   9.671  71.540  1.00  0.00    -0.483 A  
ENDBRANCH   7   8
BRANCH   7  14
HETATM   14  C   UNL     1      -8.604   9.961  68.326  1.00  0.00    -0.115 C  
HETATM   15  N   UNL     1      -7.700   9.284  67.546  1.00  0.00    -0.092 N  
HETATM   16  H1  UNL     1      -6.735   9.612  67.573  1.00  0.00     0.000 HD 
HETATM   17  O   UNL     1      -8.186  10.881  69.025  1.00  0.00    -0.151 OA 
HETATM   18  H2  UNL     1      -7.980   8.491  66.969  1.00  0.00     0.000 HD 
ENDBRANCH   7  14
BRANCH   7  19
HETATM   19  C   UNL     1      -9.990   7.898  68.334  1.00  0.00    -0.180 A  
HETATM   20  C   UNL     1      -9.676   5.151  68.408  1.00  0.00    -0.200 A  
HETATM   21  N   UNL     1      -9.093   7.343  69.199  1.00  0.00    -0.135 NA 
HETATM   22  C   UNL     1     -10.613   5.707  67.549  1.00  0.00    -0.296 A  
HETATM   23  C   UNL     1      -8.949   6.002  69.213  1.00  0.00    -0.122 A  
HETATM   24  C   UNL     1     -10.783   7.095  67.511  1.00  0.00    -0.344 A  
ENDBRANCH   7  19
ENDBRANCH   6   7
ENDBRANCH   5   6
ENDBRANCH   4   5
BRANCH   4  25
HETATM   25  C   UNL     1     -10.978  13.386  66.047  1.00  0.00    -0.271 C  
HETATM   26  C   UNL     1     -12.124  13.988  66.880  1.00  0.00    -0.465 C  
HETATM   27  C   UNL     1      -9.729  13.517  66.952  1.00  0.00    -0.261 C  
ENDBRANCH   4  25
ENDBRANCH   2   4
TORSDOF 8
ENDMDL
MODEL       37
REMARK 921   NORMALIZED FREE ENERGY PREDICTED BY IDOCK:   -5.07 KCAL/MOL
REMARK 922        TOTAL FREE ENERGY PREDICTED BY IDOCK:   -9.15 KCAL/MOL
REMARK 923 INTER-LIGAND FREE ENERGY PREDICTED BY IDOCK:   -7.89 KCAL/MOL
REMARK 924 INTRA-LIGAND FREE ENERGY PREDICTED BY IDOCK:   -1.25 KCAL/MOL
REMARK 927      BINDING AFFINITY PREDICTED BY RF-SCORE:    0.00 PKD
ROOT
HETATM    1  C   UNL     1     -12.262  15.436  64.213  1.00  0.00    -0.140 C  
HETATM    2  C   UNL     1     -10.910  14.870  64.714  1.00  0.00    -0.363 C  
HETATM    3  C   UNL     1     -10.556  15.700  65.959  1.00  0.00    -0.336 C  
ENDROOT
BRANCH   2   4
HETATM    4  N   UNL     1     -10.966  13.379  64.896  1.00  0.00    -0.325 NA 
BRANCH   4   5
HETATM    5  C   UNL     1     -11.908  13.012  66.010  1.00  0.00    -0.417 C  
BRANCH   5   6
HETATM    6  C   UNL     1     -11.479  11.771  66.819  1.00  0.00    -0.352 C  
BRANCH   6   7
HETATM    7  C   UNL     1     -10.585  11.987  68.091  1.00  0.00    -0.233 C  
BRANCH   7   8
HETATM    8  C   UNL     1     -11.485  12.584  69.211  1.00  0.00    -0.353 A  
HETATM    9  C   UNL     1     -11.980  11.800  70.271  1.00  0.00    -0.429 A  
HETATM   10  C   UNL     1     -12.738  12.362  71.302  1.00  0.00    -0.347 A  
HETATM   11  C   UNL     1     -11.769  13.966  69.252  1.00  0.00    -0.381 A  
HETATM   12  C   UNL     1     -13.022  13.724  71.303  1.00  0.00    -0.409 A  
HETATM   13  C   UNL     1     -12.540  14.525  70.276  1.00  0.00    -0.378 A  
ENDBRANCH   7   8
BRANCH   7  14
HETATM   14  C   UNL     1      -9.343  12.866  67.723  1.00  0.00    -0.203 C  
HETATM   15  N   UNL     1      -8.613  12.473  66.629  1.00  0.00    -0.394 N  
HETATM   16  H1  UNL     1      -7.804  13.046  66.389  1.00  0.00     0.000 HD 
HETATM   17  O   UNL     1      -8.954  13.846  68.353  1.00  0.00    -0.186 OA 
HETATM   18  H2  UNL     1      -8.867  11.650  66.083  1.00  0.00     0.000 HD 
ENDBRANCH   7  14
BRANCH   7  19
HETATM   19  C   UNL     1      -9.997  10.598  68.504  1.00  0.00    -0.167 A  
HETATM   20  C   UNL     1      -8.826   8.190  69.194  1.00  0.00    -0.144 A  
HETATM   21  N   UNL     1      -8.895  10.589  69.307  1.00  0.00    -0.153 NA 
HETATM   22  C   UNL     1      -9.965   8.192  68.403  1.00  0.00    -0.210 A  
HETATM   23  C   UNL     1      -8.334   9.403  69.625  1.00  0.00    -0.147 A  
HETATM   24  C   UNL     1     -10.569   9.406  68.055  1.00  0.00    -0.278 A  
ENDBRANCH   7  19
ENDBRANCH   6   7
ENDBRANCH   5   6
ENDBRANCH   4   5
BRANCH   4  25
HETATM   25  C   UNL     1     -11.218  12.556  63.667  1.00  0.00    -0.483 C  
HETATM   26  C   UNL     1     -10.298  11.340  63.455  1.00  0.00    -0.463 C  
HETATM   27  C   UNL     1     -12.649  11.967  63.647  1.00  0.00    -0.605 C  
ENDBRANCH   4  25
ENDBRANCH   2   4
TORSDOF 8
ENDMDL
MODEL       38
REMARK 921   NORMALIZED FREE ENERGY PREDICTED BY IDOCK:   -5.06 KCAL/MOL
REMARK 922        TOTAL FREE ENERGY PREDICTED BY IDOCK:   -9.14 KCAL/MOL
REMARK 923 INTER-LIGAND FREE ENERGY PREDICTED BY IDOCK:   -7.69 KCAL/MOL
REMARK 924 INTRA-LIGAND FREE ENERGY PREDICTED BY IDOCK:   -1.45 KCAL/MOL
REMARK 927      BINDING AFFINITY PREDICTED BY RF-SCORE:    0.00 PKD
ROOT
HETATM    1  C   UNL     1     -10.496   8.047  66.943  1.00  0.00    -0.387 C  
HETATM    2  C   UNL     1     -10.116   9.401  67.592  1.00  0.00    -0.211 C  
HETATM    3  C   UNL     1      -8.719   9.186  68.198  1.00  0.00    -0.129 C  
ENDROOT
BRANCH   2   4
HETATM    4  N   UNL     1     -10.257  10.540  66.624  1.00  0.00    -0.225 NA 
BRANCH   4   5
HETATM    5  C   UNL     1      -9.525  11.757  67.119  1.00  0.00    -0.175 C  
BRANCH   5   6
HETATM    6  C   UNL     1     -10.090  12.349  68.426  1.00  0.00    -0.217 C  
BRANCH   6   7
HETATM    7  C   UNL     1     -10.531  13.856  68.429  1.00  0.00    -0.250 C  
BRANCH   7   8
HETATM    8  C   UNL     1     -11.116  14.184  67.024  1.00  0.00    -0.314 A  
HETATM    9  C   UNL     1     -10.396  14.926  66.069  1.00  0.00    -0.313 A  
HETATM   10  C   UNL     1     -10.910  15.162  64.790  1.00  0.00    -0.378 A  
HETATM   11  C   UNL     1     -12.368  13.668  66.623  1.00  0.00    -0.381 A  
HETATM   12  C   UNL     1     -12.157  14.662  64.431  1.00  0.00    -0.481 A  
HETATM   13  C   UNL     1     -12.887  13.918  65.349  1.00  0.00    -0.466 A  
ENDBRANCH   7   8
BRANCH   7  14
HETATM   14  C   UNL     1      -9.327  14.760  68.855  1.00  0.00    -0.184 C  
HETATM   15  N   UNL     1      -9.585  16.099  69.007  1.00  0.00    -0.239 N  
HETATM   16  H1  UNL     1      -8.800  16.688  69.284  1.00  0.00     0.000 HD 
HETATM   17  O   UNL     1      -8.173  14.373  69.023  1.00  0.00    -0.123 OA 
HETATM   18  H2  UNL     1     -10.515  16.486  68.850  1.00  0.00     0.000 HD 
ENDBRANCH   7  14
BRANCH   7  19
HETATM   19  C   UNL     1     -11.601  14.039  69.554  1.00  0.00    -0.295 A  
HETATM   20  C   UNL     1     -13.413  14.475  71.597  1.00  0.00    -0.452 A  
HETATM   21  N   UNL     1     -12.078  15.297  69.777  1.00  0.00    -0.331 NA 
HETATM   22  C   UNL     1     -12.956  13.187  71.354  1.00  0.00    -0.386 A  
HETATM   23  C   UNL     1     -12.956  15.489  70.784  1.00  0.00    -0.434 A  
HETATM   24  C   UNL     1     -12.045  12.958  70.317  1.00  0.00    -0.377 A  
ENDBRANCH   7  19
ENDBRANCH   6   7
ENDBRANCH   5   6
ENDBRANCH   4   5
BRANCH   4  25
HETATM   25  C   UNL     1      -9.937  10.252  65.187  1.00  0.00    -0.325 C  
HETATM   26  C   UNL     1     -10.637  11.132  64.136  1.00  0.00    -0.436 C  
HETATM   27  C   UNL     1      -8.427  10.414  64.885  1.00  0.00    -0.179 C  
ENDBRANCH   4  25
ENDBRANCH   2   4
TORSDOF 8
ENDMDL
MODEL       39
REMARK 921   NORMALIZED FREE ENERGY PREDICTED BY IDOCK:   -5.02 KCAL/MOL
REMARK 922        TOTAL FREE ENERGY PREDICTED BY IDOCK:   -9.08 KCAL/MOL
REMARK 923 INTER-LIGAND FREE ENERGY PREDICTED BY IDOCK:   -8.13 KCAL/MOL
REMARK 924 INTRA-LIGAND FREE ENERGY PREDICTED BY IDOCK:   -0.95 KCAL/MOL
REMARK 927      BINDING AFFINITY PREDICTED BY RF-SCORE:    0.00 PKD
ROOT
HETATM    1  C   UNL     1     -11.562  12.022  68.996  1.00  0.00    -0.370 C  
HETATM    2  C   UNL     1     -11.149  11.782  67.523  1.00  0.00    -0.272 C  
HETATM    3  C   UNL     1     -11.274  10.264  67.307  1.00  0.00    -0.090 C  
ENDROOT
BRANCH   2   4
HETATM    4  N   UNL     1     -11.922  12.658  66.579  1.00  0.00    -0.533 NA 
BRANCH   4   5
HETATM    5  C   UNL     1     -12.157  14.016  67.182  1.00  0.00    -0.401 C  
BRANCH   5   6
HETATM    6  C   UNL     1     -11.096  15.069  66.807  1.00  0.00    -0.326 C  
BRANCH   6   7
HETATM    7  C   UNL     1     -10.310  15.778  67.968  1.00  0.00    -0.252 C  
BRANCH   7   8
HETATM    8  C   UNL     1      -8.866  15.199  67.989  1.00  0.00    -0.170 A  
HETATM    9  C   UNL     1      -8.598  13.847  67.703  1.00  0.00    -0.190 A  
HETATM   10  C   UNL     1      -7.289  13.354  67.667  1.00  0.00    -0.173 A  
HETATM   11  C   UNL     1      -7.753  16.038  68.213  1.00  0.00    -0.142 A  
HETATM   12  C   UNL     1      -6.214  14.200  67.916  1.00  0.00    -0.164 A  
HETATM   13  C   UNL     1      -6.446  15.541  68.192  1.00  0.00    -0.133 A  
ENDBRANCH   7   8
BRANCH   7  14
HETATM   14  C   UNL     1     -11.092  15.614  69.313  1.00  0.00    -0.293 C  
HETATM   15  N   UNL     1     -10.393  15.091  70.372  1.00  0.00    -0.506 N  
HETATM   16  H1  UNL     1     -10.902  14.984  71.249  1.00  0.00     0.000 HD 
HETATM   17  O   UNL     1     -12.280  15.877  69.482  1.00  0.00    -0.294 OA 
HETATM   18  H2  UNL     1      -9.413  14.823  70.287  1.00  0.00     0.000 HD 
ENDBRANCH   7  14
BRANCH   7  19
HETATM   19  C   UNL     1     -10.309  17.314  67.677  1.00  0.00    -0.350 A  
HETATM   20  C   UNL     1     -10.209  20.007  67.055  1.00  0.00    -0.587 A  
HETATM   21  N   UNL     1     -10.471  17.715  66.384  1.00  0.00    -0.323 NA 
HETATM   22  C   UNL     1     -10.076  19.607  68.377  1.00  0.00    -0.557 A  
HETATM   23  C   UNL     1     -10.411  19.033  66.101  1.00  0.00    -0.467 A  
HETATM   24  C   UNL     1     -10.132  18.247  68.701  1.00  0.00    -0.407 A  
ENDBRANCH   7  19
ENDBRANCH   6   7
ENDBRANCH   5   6
ENDBRANCH   4   5
BRANCH   4  25
HETATM   25  C   UNL     1     -11.405  12.762  65.174  1.00  0.00    -0.311 C  
HETATM   26  C   UNL     1     -10.103  12.002  64.863  1.00  0.00    -0.289 C  
HETATM   27  C   UNL     1     -12.424  12.225  64.140  1.00  0.00    -0.530 C  
ENDBRANCH   4  25
ENDBRANCH   2   4
TORSDOF 8
ENDMDL
MODEL       40
REMARK 921   NORMALIZED FREE ENERGY PREDICTED BY IDOCK:   -5.01 KCAL/MOL
REMARK 922        TOTAL FREE ENERGY PREDICTED BY IDOCK:   -9.06 KCAL/MOL
REMARK 923 INTER-LIGAND FREE ENERGY PREDICTED BY IDOCK:   -7.55 KCAL/MOL
REMARK 924 INTRA-LIGAND FREE ENERGY PREDICTED BY IDOCK:   -1.51 KCAL/MOL
REMARK 927      BINDING AFFINITY PREDICTED BY RF-SCORE:    0.00 PKD
ROOT
HETATM    1  C   UNL     1     -11.282   6.644  69.726  1.00  0.00    -0.413 C  
HETATM    2  C   UNL     1     -10.511   7.968  69.498  1.00  0.00    -0.226 C  
HETATM    3  C   UNL     1     -10.016   8.396  70.889  1.00  0.00    -0.230 C  
ENDROOT
BRANCH   2   4
HETATM    4  N   UNL     1      -9.464   7.824  68.430  1.00  0.00    -0.146 NA 
BRANCH   4   5
HETATM    5  C   UNL     1      -9.598   8.912  67.400  1.00  0.00    -0.157 C  
BRANCH   5   6
HETATM    6  C   UNL     1     -10.800   9.851  67.623  1.00  0.00    -0.318 C  
BRANCH   6   7
HETATM    7  C   UNL     1     -10.563  11.399  67.511  1.00  0.00    -0.252 C  
BRANCH   7   8
HETATM    8  C   UNL     1     -11.159  11.876  66.154  1.00  0.00    -0.374 A  
HETATM    9  C   UNL     1     -12.052  12.960  66.068  1.00  0.00    -0.484 A  
HETATM   10  C   UNL     1     -12.533  13.415  64.836  1.00  0.00    -0.447 A  
HETATM   11  C   UNL     1     -10.752  11.285  64.938  1.00  0.00    -0.337 A  
HETATM   12  C   UNL     1     -12.133  12.797  63.656  1.00  0.00    -0.624 A  
HETATM   13  C   UNL     1     -11.245  11.731  63.707  1.00  0.00    -0.518 A  
ENDBRANCH   7   8
BRANCH   7  14
HETATM   14  C   UNL     1      -9.043  11.717  67.696  1.00  0.00    -0.177 C  
HETATM   15  N   UNL     1      -8.562  11.704  68.982  1.00  0.00    -0.371 N  
HETATM   16  H1  UNL     1      -7.571  11.911  69.103  1.00  0.00     0.000 HD 
HETATM   17  O   UNL     1      -8.263  12.013  66.794  1.00  0.00    -0.171 OA 
HETATM   18  H2  UNL     1      -9.167  11.497  69.776  1.00  0.00     0.000 HD 
ENDBRANCH   7  14
BRANCH   7  19
HETATM   19  C   UNL     1     -11.277  12.081  68.723  1.00  0.00    -0.263 A  
HETATM   20  C   UNL     1     -12.412  13.356  70.899  1.00  0.00    -0.439 A  
HETATM   21  N   UNL     1     -11.141  13.431  68.862  1.00  0.00    -0.261 NA 
HETATM   22  C   UNL     1     -12.581  11.987  70.746  1.00  0.00    -0.312 A  
HETATM   23  C   UNL     1     -11.696  14.032  69.935  1.00  0.00    -0.303 A  
HETATM   24  C   UNL     1     -12.016  11.336  69.644  1.00  0.00    -0.423 A  
ENDBRANCH   7  19
ENDBRANCH   6   7
ENDBRANCH   5   6
ENDBRANCH   4   5
BRANCH   4  25
HETATM   25  C   UNL     1      -8.044   7.672  68.890  1.00  0.00    -0.127 C  
HETATM   26  C   UNL     1      -7.465   6.246  68.873  1.00  0.00    -0.087 C  
HETATM   27  C   UNL     1      -7.062   8.499  68.024  1.00  0.00    -0.086 C  
ENDBRANCH   4  25
ENDBRANCH   2   4
TORSDOF 8
ENDMDL
MODEL       41
REMARK 921   NORMALIZED FREE ENERGY PREDICTED BY IDOCK:   -5.00 KCAL/MOL
REMARK 922        TOTAL FREE ENERGY PREDICTED BY IDOCK:   -9.05 KCAL/MOL
REMARK 923 INTER-LIGAND FREE ENERGY PREDICTED BY IDOCK:   -7.28 KCAL/MOL
REMARK 924 INTRA-LIGAND FREE ENERGY PREDICTED BY IDOCK:   -1.78 KCAL/MOL
REMARK 927      BINDING AFFINITY PREDICTED BY RF-SCORE:    0.00 PKD
ROOT
HETATM    1  C   UNL     1      -8.374  10.047  64.200  1.00  0.00    -0.167 C  
HETATM    2  C   UNL     1      -9.309  10.996  64.990  1.00  0.00    -0.221 C  
HETATM    3  C   UNL     1     -10.557  11.166  64.109  1.00  0.00    -0.436 C  
ENDROOT
BRANCH   2   4
HETATM    4  N   UNL     1      -9.540  10.508  66.391  1.00  0.00    -0.171 NA 
BRANCH   4   5
HETATM    5  C   UNL     1     -10.930  10.849  66.854  1.00  0.00    -0.223 C  
BRANCH   5   6
HETATM    6  C   UNL     1     -10.988  11.537  68.232  1.00  0.00    -0.272 C  
BRANCH   6   7
HETATM    7  C   UNL     1     -10.769  13.091  68.296  1.00  0.00    -0.261 C  
BRANCH   7   8
HETATM    8  C   UNL     1     -11.212  13.691  66.929  1.00  0.00    -0.326 A  
HETATM    9  C   UNL     1     -10.321  14.395  66.098  1.00  0.00    -0.305 A  
HETATM   10  C   UNL     1     -10.717  14.877  64.846  1.00  0.00    -0.426 A  
HETATM   11  C   UNL     1     -12.514  13.471  66.431  1.00  0.00    -0.349 A  
HETATM   12  C   UNL     1     -12.014  14.667  64.391  1.00  0.00    -0.454 A  
HETATM   13  C   UNL     1     -12.914  13.966  65.186  1.00  0.00    -0.282 A  
ENDBRANCH   7   8
BRANCH   7  14
HETATM   14  C   UNL     1      -9.286  13.401  68.688  1.00  0.00    -0.008 C  
HETATM   15  N   UNL     1      -8.408  12.346  68.657  1.00  0.00    -0.345 N  
HETATM   16  H1  UNL     1      -7.441  12.548  68.913  1.00  0.00     0.000 HD 
HETATM   17  O   UNL     1      -8.861  14.493  69.054  1.00  0.00    -0.140 OA 
HETATM   18  H2  UNL     1      -8.707  11.408  68.392  1.00  0.00     0.000 HD 
ENDBRANCH   7  14
BRANCH   7  19
HETATM   19  C   UNL     1     -11.631  13.648  69.474  1.00  0.00    -0.301 A  
HETATM   20  C   UNL     1     -13.259  14.534  71.527  1.00  0.00    -0.431 A  
HETATM   21  N   UNL     1     -12.139  12.753  70.368  1.00  0.00    -0.352 NA 
HETATM   22  C   UNL     1     -12.720  15.454  70.639  1.00  0.00    -0.490 A  
HETATM   23  C   UNL     1     -12.938  13.205  71.358  1.00  0.00    -0.298 A  
HETATM   24  C   UNL     1     -11.890  15.015  69.602  1.00  0.00    -0.358 A  
ENDBRANCH   7  19
ENDBRANCH   6   7
ENDBRANCH   5   6
ENDBRANCH   4   5
BRANCH   4  25
HETATM   25  C   UNL     1      -9.202   9.073  66.673  1.00  0.00    -0.167 C  
HETATM   26  C   UNL     1      -8.278   8.808  67.875  1.00  0.00    -0.111 C  
HETATM   27  C   UNL     1     -10.465   8.225  66.959  1.00  0.00    -0.384 C  
ENDBRANCH   4  25
ENDBRANCH   2   4
TORSDOF 8
ENDMDL
MODEL       42
REMARK 921   NORMALIZED FREE ENERGY PREDICTED BY IDOCK:   -5.00 KCAL/MOL
REMARK 922        TOTAL FREE ENERGY PREDICTED BY IDOCK:   -9.05 KCAL/MOL
REMARK 923 INTER-LIGAND FREE ENERGY PREDICTED BY IDOCK:   -7.31 KCAL/MOL
REMARK 924 INTRA-LIGAND FREE ENERGY PREDICTED BY IDOCK:   -1.74 KCAL/MOL
REMARK 927      BINDING AFFINITY PREDICTED BY RF-SCORE:    0.00 PKD
ROOT
HETATM    1  C   UNL     1      -7.377  16.784  66.396  1.00  0.00    -0.261 C  
HETATM    2  C   UNL     1      -7.640  15.538  67.278  1.00  0.00    -0.218 C  
HETATM    3  C   UNL     1      -7.474  16.022  68.728  1.00  0.00    -0.176 C  
ENDROOT
BRANCH   2   4
HETATM    4  N   UNL     1      -8.947  14.882  66.936  1.00  0.00    -0.238 NA 
BRANCH   4   5
HETATM    5  C   UNL     1      -9.302  13.834  67.955  1.00  0.00    -0.199 C  
BRANCH   5   6
HETATM    6  C   UNL     1      -8.947  12.394  67.533  1.00  0.00    -0.183 C  
BRANCH   6   7
HETATM    7  C   UNL     1     -10.121  11.402  67.216  1.00  0.00    -0.218 C  
BRANCH   7   8
HETATM    8  C   UNL     1     -10.815  11.887  65.910  1.00  0.00    -0.342 A  
HETATM    9  C   UNL     1     -10.218  11.735  64.645  1.00  0.00    -0.326 A  
HETATM   10  C   UNL     1     -10.880  12.121  63.474  1.00  0.00    -0.518 A  
HETATM   11  C   UNL     1     -12.121  12.424  65.941  1.00  0.00    -0.352 A  
HETATM   12  C   UNL     1     -12.156  12.670  63.538  1.00  0.00    -0.648 A  
HETATM   13  C   UNL     1     -12.775  12.824  64.772  1.00  0.00    -0.469 A  
ENDBRANCH   7   8
BRANCH   7  14
HETATM   14  C   UNL     1     -11.074  11.296  68.453  1.00  0.00    -0.240 C  
HETATM   15  N   UNL     1     -10.507  10.884  69.634  1.00  0.00    -0.433 N  
HETATM   16  H1  UNL     1     -11.128  10.815  70.440  1.00  0.00     0.000 HD 
HETATM   17  O   UNL     1     -12.283  11.513  68.440  1.00  0.00    -0.540 OA 
HETATM   18  H2  UNL     1      -9.515  10.658  69.701  1.00  0.00     0.000 HD 
ENDBRANCH   7  14
BRANCH   7  19
HETATM   19  C   UNL     1      -9.509   9.974  67.045  1.00  0.00    -0.164 A  
HETATM   20  C   UNL     1      -8.514   7.401  66.851  1.00  0.00    -0.123 A  
HETATM   21  N   UNL     1     -10.371   8.923  66.933  1.00  0.00    -0.271 NA 
HETATM   22  C   UNL     1      -7.632   8.468  66.933  1.00  0.00    -0.091 A  
HETATM   23  C   UNL     1      -9.865   7.675  66.848  1.00  0.00    -0.234 A  
HETATM   24  C   UNL     1      -8.127   9.774  67.024  1.00  0.00    -0.113 A  
ENDBRANCH   7  19
ENDBRANCH   6   7
ENDBRANCH   5   6
ENDBRANCH   4   5
BRANCH   4  25
HETATM   25  C   UNL     1     -10.108  15.791  66.654  1.00  0.00    -0.279 C  
HETATM   26  C   UNL     1     -10.680  15.751  65.226  1.00  0.00    -0.446 C  
HETATM   27  C   UNL     1     -11.320  15.484  67.567  1.00  0.00    -0.232 C  
ENDBRANCH   4  25
ENDBRANCH   2   4
TORSDOF 8
ENDMDL
MODEL       43
REMARK 921   NORMALIZED FREE ENERGY PREDICTED BY IDOCK:   -4.97 KCAL/MOL
REMARK 922        TOTAL FREE ENERGY PREDICTED BY IDOCK:   -9.01 KCAL/MOL
REMARK 923 INTER-LIGAND FREE ENERGY PREDICTED BY IDOCK:   -8.21 KCAL/MOL
REMARK 924 INTRA-LIGAND FREE ENERGY PREDICTED BY IDOCK:   -0.80 KCAL/MOL
REMARK 927      BINDING AFFINITY PREDICTED BY RF-SCORE:    0.00 PKD
ROOT
HETATM    1  C   UNL     1     -13.082  11.202  71.758  1.00  0.00    -0.536 C  
HETATM    2  C   UNL     1     -12.578   9.758  71.512  1.00  0.00    -0.398 C  
HETATM    3  C   UNL     1     -13.840   8.879  71.517  1.00  0.00    -0.388 C  
ENDROOT
BRANCH   2   4
HETATM    4  N   UNL     1     -11.709   9.675  70.289  1.00  0.00    -0.205 NA 
BRANCH   4   5
HETATM    5  C   UNL     1     -11.316  11.048  69.818  1.00  0.00    -0.292 C  
BRANCH   5   6
HETATM    6  C   UNL     1     -11.293  11.210  68.285  1.00  0.00    -0.365 C  
BRANCH   6   7
HETATM    7  C   UNL     1     -10.606  12.488  67.684  1.00  0.00    -0.234 C  
BRANCH   7   8
HETATM    8  C   UNL     1     -11.129  12.671  66.229  1.00  0.00    -0.330 A  
HETATM    9  C   UNL     1     -11.709  13.875  65.789  1.00  0.00    -0.369 A  
HETATM   10  C   UNL     1     -12.120  14.045  64.463  1.00  0.00    -0.484 A  
HETATM   11  C   UNL     1     -10.959  11.652  65.266  1.00  0.00    -0.327 A  
HETATM   12  C   UNL     1     -11.962  13.015  63.542  1.00  0.00    -0.615 A  
HETATM   13  C   UNL     1     -11.385  11.817  63.945  1.00  0.00    -0.494 A  
ENDBRANCH   7   8
BRANCH   7  14
HETATM   14  C   UNL     1      -9.050  12.357  67.799  1.00  0.00    -0.193 C  
HETATM   15  N   UNL     1      -8.537  12.206  69.064  1.00  0.00    -0.329 N  
HETATM   16  H1  UNL     1      -7.524  12.121  69.139  1.00  0.00     0.000 HD 
HETATM   17  O   UNL     1      -8.261  12.417  66.861  1.00  0.00    -0.164 OA 
HETATM   18  H2  UNL     1      -9.139  12.181  69.886  1.00  0.00     0.000 HD 
ENDBRANCH   7  14
BRANCH   7  19
HETATM   19  C   UNL     1     -10.984  13.706  68.588  1.00  0.00    -0.267 A  
HETATM   20  C   UNL     1     -11.532  15.834  70.266  1.00  0.00    -0.369 A  
HETATM   21  N   UNL     1     -10.021  14.640  68.831  1.00  0.00    -0.235 NA 
HETATM   22  C   UNL     1     -12.526  14.904  69.999  1.00  0.00    -0.320 A  
HETATM   23  C   UNL     1     -10.306  15.666  69.659  1.00  0.00    -0.286 A  
HETATM   24  C   UNL     1     -12.259  13.828  69.145  1.00  0.00    -0.289 A  
ENDBRANCH   7  19
ENDBRANCH   6   7
ENDBRANCH   5   6
ENDBRANCH   4   5
BRANCH   4  25
HETATM   25  C   UNL     1     -10.524   8.757  70.361  1.00  0.00    -0.209 C  
HETATM   26  C   UNL     1     -10.136   8.246  71.760  1.00  0.00    -0.290 C  
HETATM   27  C   UNL     1     -10.734   7.472  69.524  1.00  0.00    -0.222 C  
ENDBRANCH   4  25
ENDBRANCH   2   4
TORSDOF 8
ENDMDL
MODEL       44
REMARK 921   NORMALIZED FREE ENERGY PREDICTED BY IDOCK:   -4.97 KCAL/MOL
REMARK 922        TOTAL FREE ENERGY PREDICTED BY IDOCK:   -9.00 KCAL/MOL
REMARK 923 INTER-LIGAND FREE ENERGY PREDICTED BY IDOCK:   -7.44 KCAL/MOL
REMARK 924 INTRA-LIGAND FREE ENERGY PREDICTED BY IDOCK:   -1.56 KCAL/MOL
REMARK 927      BINDING AFFINITY PREDICTED BY RF-SCORE:    0.00 PKD
ROOT
HETATM    1  C   UNL     1      -8.590   8.163  66.190  1.00  0.00    -0.154 C  
HETATM    2  C   UNL     1      -8.443   7.784  67.684  1.00  0.00    -0.121 C  
HETATM    3  C   UNL     1      -7.024   8.226  68.079  1.00  0.00    -0.081 C  
ENDROOT
BRANCH   2   4
HETATM    4  N   UNL     1      -9.570   8.336  68.510  1.00  0.00    -0.147 NA 
BRANCH   4   5
HETATM    5  C   UNL     1     -10.605   8.989  67.635  1.00  0.00    -0.231 C  
BRANCH   5   6
HETATM    6  C   UNL     1     -11.111  10.348  68.158  1.00  0.00    -0.344 C  
BRANCH   6   7
HETATM    7  C   UNL     1     -10.416  11.653  67.628  1.00  0.00    -0.219 C  
BRANCH   7   8
HETATM    8  C   UNL     1     -10.879  11.875  66.158  1.00  0.00    -0.334 A  
HETATM    9  C   UNL     1     -10.238  11.253  65.070  1.00  0.00    -0.339 A  
HETATM   10  C   UNL     1     -10.702  11.415  63.761  1.00  0.00    -0.470 A  
HETATM   11  C   UNL     1     -12.024  12.648  65.869  1.00  0.00    -0.497 A  
HETATM   12  C   UNL     1     -11.819  12.202  63.504  1.00  0.00    -0.597 A  
HETATM   13  C   UNL     1     -12.478  12.822  64.558  1.00  0.00    -0.501 A  
ENDBRANCH   7   8
BRANCH   7  14
HETATM   14  C   UNL     1      -8.866  11.538  67.807  1.00  0.00    -0.153 C  
HETATM   15  N   UNL     1      -8.406  11.360  69.088  1.00  0.00    -0.377 N  
HETATM   16  H1  UNL     1      -7.395  11.286  69.205  1.00  0.00     0.000 HD 
HETATM   17  O   UNL     1      -8.037  11.633  66.905  1.00  0.00    -0.158 OA 
HETATM   18  H2  UNL     1      -9.042  11.305  69.882  1.00  0.00     0.000 HD 
ENDBRANCH   7  14
BRANCH   7  19
HETATM   19  C   UNL     1     -10.851  12.836  68.552  1.00  0.00    -0.253 A  
HETATM   20  C   UNL     1     -11.479  14.947  70.225  1.00  0.00    -0.315 A  
HETATM   21  N   UNL     1     -10.169  14.011  68.442  1.00  0.00    -0.234 NA 
HETATM   22  C   UNL     1     -12.198  13.764  70.321  1.00  0.00    -0.429 A  
HETATM   23  C   UNL     1     -10.485  15.026  69.273  1.00  0.00    -0.249 A  
HETATM   24  C   UNL     1     -11.891  12.694  69.473  1.00  0.00    -0.376 A  
ENDBRANCH   7  19
ENDBRANCH   6   7
ENDBRANCH   5   6
ENDBRANCH   4   5
BRANCH   4  25
HETATM   25  C   UNL     1     -10.198   7.406  69.506  1.00  0.00    -0.204 C  
HETATM   26  C   UNL     1     -11.107   8.049  70.568  1.00  0.00    -0.251 C  
HETATM   27  C   UNL     1     -11.092   6.343  68.823  1.00  0.00    -0.404 C  
ENDBRANCH   4  25
ENDBRANCH   2   4
TORSDOF 8
ENDMDL
MODEL       45
REMARK 921   NORMALIZED FREE ENERGY PREDICTED BY IDOCK:   -4.97 KCAL/MOL
REMARK 922        TOTAL FREE ENERGY PREDICTED BY IDOCK:   -9.00 KCAL/MOL
REMARK 923 INTER-LIGAND FREE ENERGY PREDICTED BY IDOCK:   -7.60 KCAL/MOL
REMARK 924 INTRA-LIGAND FREE ENERGY PREDICTED BY IDOCK:   -1.40 KCAL/MOL
REMARK 927      BINDING AFFINITY PREDICTED BY RF-SCORE:    0.00 PKD
ROOT
HETATM    1  C   UNL     1      -6.631  17.104  66.604  1.00  0.00    -0.272 C  
HETATM    2  C   UNL     1      -7.503  18.376  66.456  1.00  0.00    -0.237 C  
HETATM    3  C   UNL     1      -6.733  19.287  65.485  1.00  0.00    -0.305 C  
ENDROOT
BRANCH   2   4
HETATM    4  N   UNL     1      -8.917  18.038  66.077  1.00  0.00    -0.513 NA 
BRANCH   4   5
HETATM    5  C   UNL     1      -9.167  16.560  66.207  1.00  0.00    -0.310 C  
BRANCH   5   6
HETATM    6  C   UNL     1      -9.946  16.157  67.475  1.00  0.00    -0.243 C  
BRANCH   6   7
HETATM    7  C   UNL     1     -10.462  14.679  67.591  1.00  0.00    -0.243 C  
BRANCH   7   8
HETATM    8  C   UNL     1      -9.220  13.743  67.652  1.00  0.00    -0.207 A  
HETATM    9  C   UNL     1      -9.127  12.571  66.879  1.00  0.00    -0.213 A  
HETATM   10  C   UNL     1      -7.980  11.772  66.899  1.00  0.00    -0.149 A  
HETATM   11  C   UNL     1      -8.092  14.088  68.429  1.00  0.00    -0.148 A  
HETATM   12  C   UNL     1      -6.893  12.124  67.693  1.00  0.00    -0.119 A  
HETATM   13  C   UNL     1      -6.951  13.281  68.460  1.00  0.00    -0.103 A  
ENDBRANCH   7   8
BRANCH   7  14
HETATM   14  C   UNL     1     -11.448  14.368  66.416  1.00  0.00    -0.360 C  
HETATM   15  N   UNL     1     -12.704  13.938  66.763  1.00  0.00    -0.374 N  
HETATM   16  H1  UNL     1     -13.346  13.735  65.997  1.00  0.00     0.000 HD 
HETATM   17  O   UNL     1     -11.174  14.442  65.221  1.00  0.00    -0.317 OA 
HETATM   18  H2  UNL     1     -12.982  13.826  67.737  1.00  0.00     0.000 HD 
ENDBRANCH   7  14
BRANCH   7  19
HETATM   19  C   UNL     1     -11.325  14.574  68.890  1.00  0.00    -0.274 A  
HETATM   20  C   UNL     1     -12.933  14.285  71.121  1.00  0.00    -0.423 A  
HETATM   21  N   UNL     1     -11.560  13.330  69.397  1.00  0.00    -0.297 NA 
HETATM   22  C   UNL     1     -12.673  15.556  70.629  1.00  0.00    -0.487 A  
HETATM   23  C   UNL     1     -12.354  13.211  70.482  1.00  0.00    -0.304 A  
HETATM   24  C   UNL     1     -11.854  15.711  69.505  1.00  0.00    -0.387 A  
ENDBRANCH   7  19
ENDBRANCH   6   7
ENDBRANCH   5   6
ENDBRANCH   4   5
BRANCH   4  25
HETATM   25  C   UNL     1     -10.004  18.839  66.732  1.00  0.00    -0.358 C  
HETATM   26  C   UNL     1      -9.572  19.776  67.875  1.00  0.00    -0.482 C  
HETATM   27  C   UNL     1     -10.730  19.764  65.726  1.00  0.00    -0.474 C  
ENDBRANCH   4  25
ENDBRANCH   2   4
TORSDOF 8
ENDMDL
MODEL       46
REMARK 921   NORMALIZED FREE ENERGY PREDICTED BY IDOCK:   -4.95 KCAL/MOL
REMARK 922        TOTAL FREE ENERGY PREDICTED BY IDOCK:   -8.97 KCAL/MOL
REMARK 923 INTER-LIGAND FREE ENERGY PREDICTED BY IDOCK:   -7.44 KCAL/MOL
REMARK 924 INTRA-LIGAND FREE ENERGY PREDICTED BY IDOCK:   -1.53 KCAL/MOL
REMARK 927      BINDING AFFINITY PREDICTED BY RF-SCORE:    0.00 PKD
ROOT
HETATM    1  C   UNL     1      -6.352  17.914  66.011  1.00  0.00    -0.288 C  
HETATM    2  C   UNL     1      -6.846  17.016  67.171  1.00  0.00    -0.179 C  
HETATM    3  C   UNL     1      -5.987  17.407  68.385  1.00  0.00    -0.159 C  
ENDROOT
BRANCH   2   4
HETATM    4  N   UNL     1      -8.336  17.107  67.348  1.00  0.00    -0.188 NA 
BRANCH   4   5
HETATM    5  C   UNL     1      -8.787  16.277  68.518  1.00  0.00    -0.219 C  
BRANCH   5   6
HETATM    6  C   UNL     1      -9.073  14.801  68.176  1.00  0.00    -0.180 C  
BRANCH   6   7
HETATM    7  C   UNL     1     -10.559  14.298  68.241  1.00  0.00    -0.247 C  
BRANCH   7   8
HETATM    8  C   UNL     1     -11.187  14.482  66.829  1.00  0.00    -0.336 A  
HETATM    9  C   UNL     1     -10.653  15.378  65.884  1.00  0.00    -0.349 A  
HETATM   10  C   UNL     1     -11.192  15.489  64.598  1.00  0.00    -0.381 A  
HETATM   11  C   UNL     1     -12.274  13.684  66.411  1.00  0.00    -0.472 A  
HETATM   12  C   UNL     1     -12.278  14.707  64.222  1.00  0.00    -0.432 A  
HETATM   13  C   UNL     1     -12.821  13.806  65.130  1.00  0.00    -0.386 A  
ENDBRANCH   7   8
BRANCH   7  14
HETATM   14  C   UNL     1     -11.320  15.042  69.389  1.00  0.00    -0.297 C  
HETATM   15  N   UNL     1     -10.976  14.705  70.674  1.00  0.00    -0.494 N  
HETATM   16  H1  UNL     1     -11.472  15.190  71.422  1.00  0.00     0.000 HD 
HETATM   17  O   UNL     1     -12.217  15.865  69.229  1.00  0.00    -0.273 OA 
HETATM   18  H2  UNL     1     -10.261  14.006  70.872  1.00  0.00     0.000 HD 
ENDBRANCH   7  14
BRANCH   7  19
HETATM   19  C   UNL     1     -10.537  12.795  68.669  1.00  0.00    -0.233 A  
HETATM   20  C   UNL     1     -10.548  10.176  69.558  1.00  0.00    -0.269 A  
HETATM   21  N   UNL     1     -11.656  12.286  69.259  1.00  0.00    -0.304 NA 
HETATM   22  C   UNL     1      -9.417  10.678  68.931  1.00  0.00    -0.199 A  
HETATM   23  C   UNL     1     -11.638  11.008  69.693  1.00  0.00    -0.318 A  
HETATM   24  C   UNL     1      -9.406  12.000  68.471  1.00  0.00    -0.127 A  
ENDBRANCH   7  19
ENDBRANCH   6   7
ENDBRANCH   5   6
ENDBRANCH   4   5
BRANCH   4  25
HETATM   25  C   UNL     1      -8.930  18.484  67.387  1.00  0.00    -0.272 C  
HETATM   26  C   UNL     1      -9.878  18.856  66.234  1.00  0.00    -0.401 C  
HETATM   27  C   UNL     1      -9.766  18.718  68.668  1.00  0.00    -0.437 C  
ENDBRANCH   4  25
ENDBRANCH   2   4
TORSDOF 8
ENDMDL
MODEL       47
REMARK 921   NORMALIZED FREE ENERGY PREDICTED BY IDOCK:   -4.94 KCAL/MOL
REMARK 922        TOTAL FREE ENERGY PREDICTED BY IDOCK:   -8.96 KCAL/MOL
REMARK 923 INTER-LIGAND FREE ENERGY PREDICTED BY IDOCK:   -7.78 KCAL/MOL
REMARK 924 INTRA-LIGAND FREE ENERGY PREDICTED BY IDOCK:   -1.19 KCAL/MOL
REMARK 927      BINDING AFFINITY PREDICTED BY RF-SCORE:    0.00 PKD
ROOT
HETATM    1  C   UNL     1     -13.492  14.842  70.905  1.00  0.00    -0.356 C  
HETATM    2  C   UNL     1     -12.166  15.637  70.818  1.00  0.00    -0.418 C  
HETATM    3  C   UNL     1     -11.868  16.092  72.256  1.00  0.00    -0.631 C  
ENDROOT
BRANCH   2   4
HETATM    4  N   UNL     1     -11.089  14.848  70.129  1.00  0.00    -0.238 NA 
BRANCH   4   5
HETATM    5  C   UNL     1     -11.619  13.521  69.657  1.00  0.00    -0.275 C  
BRANCH   5   6
HETATM    6  C   UNL     1     -11.609  13.343  68.126  1.00  0.00    -0.376 C  
BRANCH   6   7
HETATM    7  C   UNL     1     -11.008  12.018  67.536  1.00  0.00    -0.303 C  
BRANCH   7   8
HETATM    8  C   UNL     1     -11.268  12.019  66.001  1.00  0.00    -0.385 A  
HETATM    9  C   UNL     1     -10.436  11.328  65.101  1.00  0.00    -0.351 A  
HETATM   10  C   UNL     1     -10.716  11.288  63.731  1.00  0.00    -0.448 A  
HETATM   11  C   UNL     1     -12.411  12.649  65.461  1.00  0.00    -0.455 A  
HETATM   12  C   UNL     1     -11.836  11.938  63.224  1.00  0.00    -0.418 A  
HETATM   13  C   UNL     1     -12.681  12.621  64.089  1.00  0.00    -0.373 A  
ENDBRANCH   7   8
BRANCH   7  14
HETATM   14  C   UNL     1     -11.604  10.784  68.291  1.00  0.00    -0.221 C  
HETATM   15  N   UNL     1     -11.231   9.544  67.836  1.00  0.00    -0.489 N  
HETATM   16  H1  UNL     1     -11.619   8.740  68.328  1.00  0.00     0.000 HD 
HETATM   17  O   UNL     1     -12.401  10.839  69.224  1.00  0.00    -0.368 OA 
HETATM   18  H2  UNL     1     -10.597   9.433  67.045  1.00  0.00     0.000 HD 
ENDBRANCH   7  14
BRANCH   7  19
HETATM   19  C   UNL     1      -9.479  12.000  67.860  1.00  0.00    -0.196 A  
HETATM   20  C   UNL     1      -6.808  11.971  68.576  1.00  0.00    -0.078 A  
HETATM   21  N   UNL     1      -9.033  11.085  68.767  1.00  0.00    -0.166 NA 
HETATM   22  C   UNL     1      -7.250  12.883  67.629  1.00  0.00    -0.147 A  
HETATM   23  C   UNL     1      -7.728  11.093  69.109  1.00  0.00    -0.076 A  
HETATM   24  C   UNL     1      -8.598  12.900  67.255  1.00  0.00    -0.205 A  
ENDBRANCH   7  19
ENDBRANCH   6   7
ENDBRANCH   5   6
ENDBRANCH   4   5
BRANCH   4  25
HETATM   25  C   UNL     1     -10.320  15.549  69.049  1.00  0.00    -0.235 C  
HETATM   26  C   UNL     1     -10.769  16.981  68.706  1.00  0.00    -0.313 C  
HETATM   27  C   UNL     1      -8.819  15.687  69.401  1.00  0.00    -0.257 C  
ENDBRANCH   4  25
ENDBRANCH   2   4
TORSDOF 8
ENDMDL
MODEL       48
REMARK 921   NORMALIZED FREE ENERGY PREDICTED BY IDOCK:   -4.93 KCAL/MOL
REMARK 922        TOTAL FREE ENERGY PREDICTED BY IDOCK:   -8.94 KCAL/MOL
REMARK 923 INTER-LIGAND FREE ENERGY PREDICTED BY IDOCK:   -7.91 KCAL/MOL
REMARK 924 INTRA-LIGAND FREE ENERGY PREDICTED BY IDOCK:   -1.03 KCAL/MOL
REMARK 927      BINDING AFFINITY PREDICTED BY RF-SCORE:    0.00 PKD
ROOT
HETATM    1  C   UNL     1     -11.847  15.231  71.935  1.00  0.00    -0.493 C  
HETATM    2  C   UNL     1     -12.963  14.200  71.635  1.00  0.00    -0.347 C  
HETATM    3  C   UNL     1     -14.242  15.030  71.436  1.00  0.00    -0.587 C  
ENDROOT
BRANCH   2   4
HETATM    4  N   UNL     1     -12.580  13.280  70.511  1.00  0.00    -0.238 NA 
BRANCH   4   5
HETATM    5  C   UNL     1     -11.493  13.888  69.668  1.00  0.00    -0.248 C  
BRANCH   5   6
HETATM    6  C   UNL     1     -11.839  14.000  68.170  1.00  0.00    -0.402 C  
BRANCH   6   7
HETATM    7  C   UNL     1     -10.658  14.069  67.138  1.00  0.00    -0.274 C  
BRANCH   7   8
HETATM    8  C   UNL     1      -9.429  13.354  67.771  1.00  0.00    -0.210 A  
HETATM    9  C   UNL     1      -9.408  11.966  68.002  1.00  0.00    -0.193 A  
HETATM   10  C   UNL     1      -8.275  11.328  68.516  1.00  0.00    -0.150 A  
HETATM   11  C   UNL     1      -8.246  14.068  68.059  1.00  0.00    -0.155 A  
HETATM   12  C   UNL     1      -7.131  12.062  68.813  1.00  0.00    -0.111 A  
HETATM   13  C   UNL     1      -7.118  13.432  68.588  1.00  0.00    -0.106 A  
ENDBRANCH   7   8
BRANCH   7  14
HETATM   14  C   UNL     1     -10.400  15.557  66.728  1.00  0.00    -0.288 C  
HETATM   15  N   UNL     1     -10.737  16.517  67.649  1.00  0.00    -0.329 N  
HETATM   16  H1  UNL     1     -10.569  17.487  67.382  1.00  0.00     0.000 HD 
HETATM   17  O   UNL     1      -9.960  15.929  65.643  1.00  0.00    -0.329 OA 
HETATM   18  H2  UNL     1     -11.136  16.273  68.555  1.00  0.00     0.000 HD 
ENDBRANCH   7  14
BRANCH   7  19
HETATM   19  C   UNL     1     -11.125  13.356  65.827  1.00  0.00    -0.282 A  
HETATM   20  C   UNL     1     -12.044  12.016  63.590  1.00  0.00    -0.627 A  
HETATM   21  N   UNL     1     -12.466  13.270  65.594  1.00  0.00    -0.463 NA 
HETATM   22  C   UNL     1     -10.678  12.127  63.804  1.00  0.00    -0.488 A  
HETATM   23  C   UNL     1     -12.894  12.604  64.501  1.00  0.00    -0.270 A  
HETATM   24  C   UNL     1     -10.205  12.810  64.930  1.00  0.00    -0.294 A  
ENDBRANCH   7  19
ENDBRANCH   6   7
ENDBRANCH   5   6
ENDBRANCH   4   5
BRANCH   4  25
HETATM   25  C   UNL     1     -12.264  11.859  70.876  1.00  0.00    -0.249 C  
HETATM   26  C   UNL     1     -13.173  11.203  71.931  1.00  0.00    -0.488 C  
HETATM   27  C   UNL     1     -12.345  10.914  69.653  1.00  0.00    -0.290 C  
ENDBRANCH   4  25
ENDBRANCH   2   4
TORSDOF 8
ENDMDL
MODEL       49
REMARK 921   NORMALIZED FREE ENERGY PREDICTED BY IDOCK:   -4.93 KCAL/MOL
REMARK 922        TOTAL FREE ENERGY PREDICTED BY IDOCK:   -8.94 KCAL/MOL
REMARK 923 INTER-LIGAND FREE ENERGY PREDICTED BY IDOCK:   -7.59 KCAL/MOL
REMARK 924 INTRA-LIGAND FREE ENERGY PREDICTED BY IDOCK:   -1.35 KCAL/MOL
REMARK 927      BINDING AFFINITY PREDICTED BY RF-SCORE:    0.00 PKD
ROOT
HETATM    1  C   UNL     1     -13.083  11.514  71.616  1.00  0.00    -0.478 C  
HETATM    2  C   UNL     1     -12.480  10.087  71.580  1.00  0.00    -0.419 C  
HETATM    3  C   UNL     1     -13.644   9.144  71.923  1.00  0.00    -0.493 C  
ENDROOT
BRANCH   2   4
HETATM    4  N   UNL     1     -11.761   9.822  70.287  1.00  0.00    -0.228 NA 
BRANCH   4   5
HETATM    5  C   UNL     1     -11.452  11.109  69.573  1.00  0.00    -0.303 C  
BRANCH   5   6
HETATM    6  C   UNL     1     -11.558  11.024  68.037  1.00  0.00    -0.326 C  
BRANCH   6   7
HETATM    7  C   UNL     1     -10.390  11.627  67.178  1.00  0.00    -0.247 C  
BRANCH   7   8
HETATM    8  C   UNL     1      -9.736  10.462  66.378  1.00  0.00    -0.250 A  
HETATM    9  C   UNL     1      -9.574  10.512  64.981  1.00  0.00    -0.331 A  
HETATM   10  C   UNL     1      -8.931   9.485  64.284  1.00  0.00    -0.248 A  
HETATM   11  C   UNL     1      -9.198   9.340  67.045  1.00  0.00    -0.169 A  
HETATM   12  C   UNL     1      -8.431   8.380  64.965  1.00  0.00    -0.160 A  
HETATM   13  C   UNL     1      -8.568   8.306  66.345  1.00  0.00    -0.144 A  
ENDBRANCH   7   8
BRANCH   7  14
HETATM   14  C   UNL     1      -9.402  12.411  68.104  1.00  0.00    -0.209 C  
HETATM   15  N   UNL     1      -9.877  13.564  68.677  1.00  0.00    -0.379 N  
HETATM   16  H1  UNL     1      -9.233  14.074  69.280  1.00  0.00     0.000 HD 
HETATM   17  O   UNL     1      -8.234  12.098  68.323  1.00  0.00    -0.157 OA 
HETATM   18  H2  UNL     1     -10.827  13.893  68.508  1.00  0.00     0.000 HD 
ENDBRANCH   7  14
BRANCH   7  19
HETATM   19  C   UNL     1     -11.004  12.704  66.226  1.00  0.00    -0.283 A  
HETATM   20  C   UNL     1     -12.019  14.713  64.619  1.00  0.00    -0.472 A  
HETATM   21  N   UNL     1     -10.160  13.631  65.688  1.00  0.00    -0.297 NA 
HETATM   22  C   UNL     1     -12.879  13.755  65.137  1.00  0.00    -0.386 A  
HETATM   23  C   UNL     1     -10.677  14.607  64.914  1.00  0.00    -0.427 A  
HETATM   24  C   UNL     1     -12.372  12.731  65.945  1.00  0.00    -0.319 A  
ENDBRANCH   7  19
ENDBRANCH   6   7
ENDBRANCH   5   6
ENDBRANCH   4   5
BRANCH   4  25
HETATM   25  C   UNL     1     -10.560   8.925  70.352  1.00  0.00    -0.217 C  
HETATM   26  C   UNL     1      -9.924   8.729  71.740  1.00  0.00    -0.396 C  
HETATM   27  C   UNL     1     -10.879   7.491  69.865  1.00  0.00    -0.250 C  
ENDBRANCH   4  25
ENDBRANCH   2   4
TORSDOF 8
ENDMDL
MODEL       50
REMARK 921   NORMALIZED FREE ENERGY PREDICTED BY IDOCK:   -4.91 KCAL/MOL
REMARK 922        TOTAL FREE ENERGY PREDICTED BY IDOCK:   -8.92 KCAL/MOL
REMARK 923 INTER-LIGAND FREE ENERGY PREDICTED BY IDOCK:   -7.54 KCAL/MOL
REMARK 924 INTRA-LIGAND FREE ENERGY PREDICTED BY IDOCK:   -1.38 KCAL/MOL
REMARK 927      BINDING AFFINITY PREDICTED BY RF-SCORE:    0.00 PKD
ROOT
HETATM    1  C   UNL     1     -10.412   9.306  66.833  1.00  0.00    -0.284 C  
HETATM    2  C   UNL     1      -9.643  10.646  66.731  1.00  0.00    -0.169 C  
HETATM    3  C   UNL     1      -8.177  10.257  66.475  1.00  0.00    -0.127 C  
ENDROOT
BRANCH   2   4
HETATM    4  N   UNL     1     -10.273  11.574  65.731  1.00  0.00    -0.239 NA 
BRANCH   4   5
HETATM    5  C   UNL     1      -9.447  12.819  65.561  1.00  0.00     0.115 C  
BRANCH   5   6
HETATM    6  C   UNL     1      -9.430  13.742  66.797  1.00  0.00    -0.281 C  
BRANCH   6   7
HETATM    7  C   UNL     1     -10.573  14.809  66.941  1.00  0.00    -0.294 C  
BRANCH   7   8
HETATM    8  C   UNL     1     -11.266  14.582  68.317  1.00  0.00    -0.295 A  
HETATM    9  C   UNL     1     -11.767  15.648  69.087  1.00  0.00    -0.402 A  
HETATM   10  C   UNL     1     -12.440  15.425  70.292  1.00  0.00    -0.413 A  
HETATM   11  C   UNL     1     -11.496  13.277  68.804  1.00  0.00    -0.346 A  
HETATM   12  C   UNL     1     -12.631  14.129  70.759  1.00  0.00    -0.432 A  
HETATM   13  C   UNL     1     -12.156  13.055  70.016  1.00  0.00    -0.367 A  
ENDBRANCH   7   8
BRANCH   7  14
HETATM   14  C   UNL     1     -11.535  14.725  65.711  1.00  0.00    -0.322 C  
HETATM   15  N   UNL     1     -11.023  15.119  64.500  1.00  0.00    -0.658 N  
HETATM   16  H1  UNL     1     -11.651  15.065  63.698  1.00  0.00     0.000 HD 
HETATM   17  O   UNL     1     -12.712  14.373  65.751  1.00  0.00    -0.396 OA 
HETATM   18  H2  UNL     1     -10.064  15.451  64.407  1.00  0.00     0.000 HD 
ENDBRANCH   7  14
BRANCH   7  19
HETATM   19  C   UNL     1      -9.918  16.226  66.855  1.00  0.00    -0.260 A  
HETATM   20  C   UNL     1      -8.820  18.748  66.568  1.00  0.00    -0.315 A  
HETATM   21  N   UNL     1     -10.714  17.273  66.497  1.00  0.00    -0.157 NA 
HETATM   22  C   UNL     1      -8.010  17.693  66.963  1.00  0.00    -0.242 A  
HETATM   23  C   UNL     1     -10.158  18.494  66.355  1.00  0.00    -0.405 A  
HETATM   24  C   UNL     1      -8.559  16.415  67.117  1.00  0.00    -0.204 A  
ENDBRANCH   7  19
ENDBRANCH   6   7
ENDBRANCH   5   6
ENDBRANCH   4   5
BRANCH   4  25
HETATM   25  C   UNL     1     -10.656  10.982  64.406  1.00  0.00    -0.325 C  
HETATM   26  C   UNL     1     -11.847  11.634  63.682  1.00  0.00    -0.390 C  
HETATM   27  C   UNL     1      -9.496  11.049  63.384  1.00  0.00    -0.331 C  
ENDBRANCH   4  25
ENDBRANCH   2   4
TORSDOF 8
ENDMDL
MODEL       51
REMARK 921   NORMALIZED FREE ENERGY PREDICTED BY IDOCK:   -4.90 KCAL/MOL
REMARK 922        TOTAL FREE ENERGY PREDICTED BY IDOCK:   -8.91 KCAL/MOL
REMARK 923 INTER-LIGAND FREE ENERGY PREDICTED BY IDOCK:   -7.30 KCAL/MOL
REMARK 924 INTRA-LIGAND FREE ENERGY PREDICTED BY IDOCK:   -1.60 KCAL/MOL
REMARK 927      BINDING AFFINITY PREDICTED BY RF-SCORE:    0.00 PKD
ROOT
HETATM    1  C   UNL     1     -10.651   9.569  67.825  1.00  0.00    -0.318 C  
HETATM    2  C   UNL     1     -10.843   9.726  69.354  1.00  0.00    -0.232 C  
HETATM    3  C   UNL     1      -9.448   9.517  69.964  1.00  0.00    -0.265 C  
ENDROOT
BRANCH   2   4
HETATM    4  N   UNL     1     -11.537  11.014  69.696  1.00  0.00    -0.287 NA 
BRANCH   4   5
HETATM    5  C   UNL     1     -11.802  11.824  68.457  1.00  0.00    -0.303 C  
BRANCH   5   6
HETATM    6  C   UNL     1     -11.363  13.299  68.558  1.00  0.00    -0.319 C  
BRANCH   6   7
HETATM    7  C   UNL     1     -10.542  13.912  67.368  1.00  0.00    -0.267 C  
BRANCH   7   8
HETATM    8  C   UNL     1      -9.030  13.738  67.693  1.00  0.00    -0.194 A  
HETATM    9  C   UNL     1      -8.508  12.535  68.203  1.00  0.00    -0.180 A  
HETATM   10  C   UNL     1      -7.138  12.373  68.433  1.00  0.00    -0.106 A  
HETATM   11  C   UNL     1      -8.105  14.764  67.401  1.00  0.00    -0.220 A  
HETATM   12  C   UNL     1      -6.253  13.410  68.159  1.00  0.00    -0.111 A  
HETATM   13  C   UNL     1      -6.737  14.606  67.646  1.00  0.00    -0.196 A  
ENDBRANCH   7   8
BRANCH   7  14
HETATM   14  C   UNL     1     -10.985  15.394  67.128  1.00  0.00    -0.317 C  
HETATM   15  N   UNL     1     -10.859  15.874  65.848  1.00  0.00    -0.276 N  
HETATM   16  H1  UNL     1     -11.147  16.840  65.692  1.00  0.00     0.000 HD 
HETATM   17  O   UNL     1     -11.395  16.162  67.993  1.00  0.00    -0.326 OA 
HETATM   18  H2  UNL     1     -10.494  15.295  65.092  1.00  0.00     0.000 HD 
ENDBRANCH   7  14
BRANCH   7  19
HETATM   19  C   UNL     1     -10.943  13.146  66.065  1.00  0.00    -0.279 A  
HETATM   20  C   UNL     1     -11.767  11.739  63.833  1.00  0.00    -0.461 A  
HETATM   21  N   UNL     1     -12.229  13.264  65.630  1.00  0.00    -0.439 NA 
HETATM   22  C   UNL     1     -10.449  11.639  64.252  1.00  0.00    -0.383 A  
HETATM   23  C   UNL     1     -12.614  12.562  64.543  1.00  0.00    -0.421 A  
HETATM   24  C   UNL     1     -10.021  12.354  65.376  1.00  0.00    -0.253 A  
ENDBRANCH   7  19
ENDBRANCH   6   7
ENDBRANCH   5   6
ENDBRANCH   4   5
BRANCH   4  25
HETATM   25  C   UNL     1     -12.759  10.915  70.561  1.00  0.00    -0.280 C  
HETATM   26  C   UNL     1     -12.934   9.609  71.356  1.00  0.00    -0.474 C  
HETATM   27  C   UNL     1     -12.802  12.030  71.634  1.00  0.00    -0.399 C  
ENDBRANCH   4  25
ENDBRANCH   2   4
TORSDOF 8
ENDMDL
MODEL       52
REMARK 921   NORMALIZED FREE ENERGY PREDICTED BY IDOCK:   -4.90 KCAL/MOL
REMARK 922        TOTAL FREE ENERGY PREDICTED BY IDOCK:   -8.90 KCAL/MOL
REMARK 923 INTER-LIGAND FREE ENERGY PREDICTED BY IDOCK:   -7.39 KCAL/MOL
REMARK 924 INTRA-LIGAND FREE ENERGY PREDICTED BY IDOCK:   -1.51 KCAL/MOL
REMARK 927      BINDING AFFINITY PREDICTED BY RF-SCORE:    0.00 PKD
ROOT
HETATM    1  C   UNL     1     -10.360  10.003  66.896  1.00  0.00    -0.297 C  
HETATM    2  C   UNL     1      -8.893   9.863  66.420  1.00  0.00    -0.142 C  
HETATM    3  C   UNL     1      -8.981   9.473  64.935  1.00  0.00    -0.264 C  
ENDROOT
BRANCH   2   4
HETATM    4  N   UNL     1      -8.085  11.087  66.743  1.00  0.00    -0.144 NA 
BRANCH   4   5
HETATM    5  C   UNL     1      -8.947  12.144  67.379  1.00  0.00    -0.180 C  
BRANCH   5   6
HETATM    6  C   UNL     1      -8.860  13.526  66.700  1.00  0.00    -0.080 C  
BRANCH   6   7
HETATM    7  C   UNL     1     -10.199  14.273  66.364  1.00  0.00    -0.295 C  
BRANCH   7   8
HETATM    8  C   UNL     1     -10.994  13.396  65.353  1.00  0.00    -0.297 A  
HETATM    9  C   UNL     1     -12.396  13.280  65.404  1.00  0.00    -0.528 A  
HETATM   10  C   UNL     1     -13.102  12.536  64.454  1.00  0.00    -0.076 A  
HETATM   11  C   UNL     1     -10.337  12.748  64.284  1.00  0.00    -0.402 A  
HETATM   12  C   UNL     1     -12.425  11.889  63.425  1.00  0.00    -0.582 A  
HETATM   13  C   UNL     1     -11.043  11.992  63.343  1.00  0.00    -0.476 A  
ENDBRANCH   7   8
BRANCH   7  14
HETATM   14  C   UNL     1      -9.885  15.720  65.856  1.00  0.00    -0.349 C  
HETATM   15  N   UNL     1      -8.830  16.366  66.452  1.00  0.00    -0.282 N  
HETATM   16  H1  UNL     1      -8.626  17.309  66.121  1.00  0.00     0.000 HD 
HETATM   17  O   UNL     1     -10.525  16.329  65.003  1.00  0.00    -0.621 OA 
HETATM   18  H2  UNL     1      -8.280  15.926  67.188  1.00  0.00     0.000 HD 
ENDBRANCH   7  14
BRANCH   7  19
HETATM   19  C   UNL     1     -10.987  14.468  67.700  1.00  0.00    -0.288 A  
HETATM   20  C   UNL     1     -12.272  14.902  70.109  1.00  0.00    -0.387 A  
HETATM   21  N   UNL     1     -11.182  15.743  68.141  1.00  0.00    -0.343 NA 
HETATM   22  C   UNL     1     -12.105  13.604  69.650  1.00  0.00    -0.378 A  
HETATM   23  C   UNL     1     -11.804  15.933  69.324  1.00  0.00    -0.318 A  
HETATM   24  C   UNL     1     -11.462  13.376  68.428  1.00  0.00    -0.351 A  
ENDBRANCH   7  19
ENDBRANCH   6   7
ENDBRANCH   5   6
ENDBRANCH   4   5
BRANCH   4  25
HETATM   25  C   UNL     1      -6.814  10.877  67.513  1.00  0.00    -0.079 C  
HETATM   26  C   UNL     1      -5.620  11.767  67.124  1.00  0.00    -0.121 C  
HETATM   27  C   UNL     1      -7.006  11.125  69.029  1.00  0.00    -0.101 C  
ENDBRANCH   4  25
ENDBRANCH   2   4
TORSDOF 8
ENDMDL
MODEL       53
REMARK 921   NORMALIZED FREE ENERGY PREDICTED BY IDOCK:   -4.89 KCAL/MOL
REMARK 922        TOTAL FREE ENERGY PREDICTED BY IDOCK:   -8.89 KCAL/MOL
REMARK 923 INTER-LIGAND FREE ENERGY PREDICTED BY IDOCK:   -7.87 KCAL/MOL
REMARK 924 INTRA-LIGAND FREE ENERGY PREDICTED BY IDOCK:   -1.01 KCAL/MOL
REMARK 927      BINDING AFFINITY PREDICTED BY RF-SCORE:    0.00 PKD
ROOT
HETATM    1  C   UNL     1     -11.035  16.604  69.916  1.00  0.00    -0.194 C  
HETATM    2  C   UNL     1     -10.432  17.076  68.569  1.00  0.00    -0.373 C  
HETATM    3  C   UNL     1     -10.115  18.568  68.764  1.00  0.00    -0.394 C  
ENDROOT
BRANCH   2   4
HETATM    4  N   UNL     1      -9.290  16.200  68.136  1.00  0.00    -0.199 NA 
BRANCH   4   5
HETATM    5  C   UNL     1      -9.408  14.828  68.744  1.00  0.00    -0.198 C  
BRANCH   5   6
HETATM    6  C   UNL     1     -10.568  13.984  68.180  1.00  0.00    -0.252 C  
BRANCH   6   7
HETATM    7  C   UNL     1     -10.287  12.482  67.821  1.00  0.00    -0.224 C  
BRANCH   7   8
HETATM    8  C   UNL     1     -10.951  11.597  68.916  1.00  0.00    -0.282 A  
HETATM    9  C   UNL     1     -10.638  10.234  69.068  1.00  0.00    -0.247 A  
HETATM   10  C   UNL     1     -11.198   9.466  70.094  1.00  0.00    -0.253 A  
HETATM   11  C   UNL     1     -11.837  12.159  69.860  1.00  0.00    -0.392 A  
HETATM   12  C   UNL     1     -12.087  10.041  70.996  1.00  0.00    -0.469 A  
HETATM   13  C   UNL     1     -12.408  11.387  70.877  1.00  0.00    -0.483 A  
ENDBRANCH   7   8
BRANCH   7  14
HETATM   14  C   UNL     1      -8.747  12.256  67.654  1.00  0.00    -0.175 C  
HETATM   15  N   UNL     1      -8.175  12.736  66.502  1.00  0.00    -0.381 N  
HETATM   16  H1  UNL     1      -7.172  12.589  66.394  1.00  0.00     0.000 HD 
HETATM   17  O   UNL     1      -8.027  11.656  68.448  1.00  0.00    -0.128 OA 
HETATM   18  H2  UNL     1      -8.726  13.215  65.791  1.00  0.00     0.000 HD 
ENDBRANCH   7  14
BRANCH   7  19
HETATM   19  C   UNL     1     -10.898  12.204  66.409  1.00  0.00    -0.271 A  
HETATM   20  C   UNL     1     -11.843  11.724  63.855  1.00  0.00    -0.449 A  
HETATM   21  N   UNL     1     -10.313  11.241  65.642  1.00  0.00    -0.249 NA 
HETATM   22  C   UNL     1     -12.463  12.684  64.642  1.00  0.00    -0.538 A  
HETATM   23  C   UNL     1     -10.784  11.028  64.395  1.00  0.00    -0.269 A  
HETATM   24  C   UNL     1     -11.996  12.928  65.938  1.00  0.00    -0.504 A  
ENDBRANCH   7  19
ENDBRANCH   6   7
ENDBRANCH   5   6
ENDBRANCH   4   5
BRANCH   4  25
HETATM   25  C   UNL     1      -9.012  16.129  66.664  1.00  0.00    -0.255 C  
HETATM   26  C   UNL     1     -10.177  16.492  65.727  1.00  0.00    -0.350 C  
HETATM   27  C   UNL     1      -7.865  17.079  66.243  1.00  0.00    -0.346 C  
ENDBRANCH   4  25
ENDBRANCH   2   4
TORSDOF 8
ENDMDL
MODEL       54
REMARK 921   NORMALIZED FREE ENERGY PREDICTED BY IDOCK:   -4.89 KCAL/MOL
REMARK 922        TOTAL FREE ENERGY PREDICTED BY IDOCK:   -8.88 KCAL/MOL
REMARK 923 INTER-LIGAND FREE ENERGY PREDICTED BY IDOCK:   -7.66 KCAL/MOL
REMARK 924 INTRA-LIGAND FREE ENERGY PREDICTED BY IDOCK:   -1.23 KCAL/MOL
REMARK 927      BINDING AFFINITY PREDICTED BY RF-SCORE:    0.00 PKD
ROOT
HETATM    1  C   UNL     1     -12.747  12.071  63.457  1.00  0.00    -0.567 C  
HETATM    2  C   UNL     1     -11.692  12.434  64.531  1.00  0.00    -0.362 C  
HETATM    3  C   UNL     1     -10.333  12.331  63.820  1.00  0.00    -0.464 C  
ENDROOT
BRANCH   2   4
HETATM    4  N   UNL     1     -12.003  13.746  65.194  1.00  0.00    -0.360 NA 
BRANCH   4   5
HETATM    5  C   UNL     1     -12.267  13.554  66.663  1.00  0.00    -0.358 C  
BRANCH   5   6
HETATM    6  C   UNL     1     -11.752  12.216  67.229  1.00  0.00    -0.369 C  
BRANCH   6   7
HETATM    7  C   UNL     1     -10.803  12.255  68.480  1.00  0.00    -0.267 C  
BRANCH   7   8
HETATM    8  C   UNL     1     -11.276  13.418  69.400  1.00  0.00    -0.235 A  
HETATM    9  C   UNL     1     -12.502  13.375  70.090  1.00  0.00    -0.243 A  
HETATM   10  C   UNL     1     -12.886  14.401  70.960  1.00  0.00    -0.423 A  
HETATM   11  C   UNL     1     -10.442  14.531  69.646  1.00  0.00    -0.020 A  
HETATM   12  C   UNL     1     -12.054  15.497  71.164  1.00  0.00    -0.433 A  
HETATM   13  C   UNL     1     -10.834  15.563  70.504  1.00  0.00    -0.353 A  
ENDBRANCH   7   8
BRANCH   7  14
HETATM   14  C   UNL     1      -9.314  12.365  68.012  1.00  0.00    -0.204 C  
HETATM   15  N   UNL     1      -8.354  11.983  68.916  1.00  0.00    -0.365 N  
HETATM   16  H1  UNL     1      -7.384  12.055  68.611  1.00  0.00     0.000 HD 
HETATM   17  O   UNL     1      -8.941  12.800  66.925  1.00  0.00    -0.214 OA 
HETATM   18  H2  UNL     1      -8.600  11.644  69.845  1.00  0.00     0.000 HD 
ENDBRANCH   7  14
BRANCH   7  19
HETATM   19  C   UNL     1     -10.906  10.873  69.203  1.00  0.00    -0.235 A  
HETATM   20  C   UNL     1     -11.143   8.371  70.356  1.00  0.00    -0.240 A  
HETATM   21  N   UNL     1     -10.389   9.783  68.566  1.00  0.00    -0.194 NA 
HETATM   22  C   UNL     1     -11.643   9.479  71.024  1.00  0.00    -0.419 A  
HETATM   23  C   UNL     1     -10.523   8.570  69.142  1.00  0.00    -0.205 A  
HETATM   24  C   UNL     1     -11.520  10.749  70.451  1.00  0.00    -0.397 A  
ENDBRANCH   7  19
ENDBRANCH   6   7
ENDBRANCH   5   6
ENDBRANCH   4   5
BRANCH   4  25
HETATM   25  C   UNL     1     -11.042  14.872  64.949  1.00  0.00    -0.414 C  
HETATM   26  C   UNL     1     -11.564  16.048  64.105  1.00  0.00    -0.007 C  
HETATM   27  C   UNL     1     -10.565  15.524  66.270  1.00  0.00    -0.310 C  
ENDBRANCH   4  25
ENDBRANCH   2   4
TORSDOF 8
ENDMDL
MODEL       55
REMARK 921   NORMALIZED FREE ENERGY PREDICTED BY IDOCK:   -4.88 KCAL/MOL
REMARK 922        TOTAL FREE ENERGY PREDICTED BY IDOCK:   -8.87 KCAL/MOL
REMARK 923 INTER-LIGAND FREE ENERGY PREDICTED BY IDOCK:   -7.59 KCAL/MOL
REMARK 924 INTRA-LIGAND FREE ENERGY PREDICTED BY IDOCK:   -1.28 KCAL/MOL
REMARK 927      BINDING AFFINITY PREDICTED BY RF-SCORE:    0.00 PKD
ROOT
HETATM    1  C   UNL     1     -10.870   7.684  69.729  1.00  0.00    -0.222 C  
HETATM    2  C   UNL     1     -11.069   8.681  70.898  1.00  0.00    -0.264 C  
HETATM    3  C   UNL     1      -9.717   8.726  71.629  1.00  0.00    -0.366 C  
ENDROOT
BRANCH   2   4
HETATM    4  N   UNL     1     -11.615   9.996  70.419  1.00  0.00    -0.284 NA 
BRANCH   4   5
HETATM    5  C   UNL     1     -11.534  10.094  68.920  1.00  0.00    -0.064 C  
BRANCH   5   6
HETATM    6  C   UNL     1     -11.192  11.503  68.394  1.00  0.00    -0.314 C  
BRANCH   6   7
HETATM    7  C   UNL     1     -10.081  11.634  67.292  1.00  0.00    -0.221 C  
BRANCH   7   8
HETATM    8  C   UNL     1      -9.337  10.270  67.201  1.00  0.00    -0.175 A  
HETATM    9  C   UNL     1      -8.168  10.005  67.938  1.00  0.00    -0.113 A  
HETATM   10  C   UNL     1      -7.543   8.755  67.892  1.00  0.00    -0.097 A  
HETATM   11  C   UNL     1      -9.863   9.208  66.433  1.00  0.00    -0.350 A  
HETATM   12  C   UNL     1      -8.071   7.735  67.108  1.00  0.00    -0.118 A  
HETATM   13  C   UNL     1      -9.229   7.963  66.376  1.00  0.00    -0.241 A  
ENDBRANCH   7   8
BRANCH   7  14
HETATM   14  C   UNL     1      -9.157  12.855  67.615  1.00  0.00    -0.194 C  
HETATM   15  N   UNL     1      -9.636  13.768  68.521  1.00  0.00    -0.302 N  
HETATM   16  H1  UNL     1      -9.034  14.563  68.731  1.00  0.00     0.000 HD 
HETATM   17  O   UNL     1      -8.065  13.076  67.096  1.00  0.00    -0.171 OA 
HETATM   18  H2  UNL     1     -10.549  13.656  68.961  1.00  0.00     0.000 HD 
ENDBRANCH   7  14
BRANCH   7  19
HETATM   19  C   UNL     1     -10.785  11.996  65.944  1.00  0.00    -0.275 A  
HETATM   20  C   UNL     1     -12.142  12.549  63.599  1.00  0.00    -0.642 A  
HETATM   21  N   UNL     1     -12.086  12.401  65.996  1.00  0.00    -0.638 NA 
HETATM   22  C   UNL     1     -10.809  12.167  63.541  1.00  0.00    -0.518 A  
HETATM   23  C   UNL     1     -12.732  12.658  64.839  1.00  0.00    -0.370 A  
HETATM   24  C   UNL     1     -10.113  11.893  64.724  1.00  0.00    -0.295 A  
ENDBRANCH   7  19
ENDBRANCH   6   7
ENDBRANCH   5   6
ENDBRANCH   4   5
BRANCH   4  25
HETATM   25  C   UNL     1     -12.971  10.391  70.925  1.00  0.00    -0.387 C  
HETATM   26  C   UNL     1     -13.611   9.461  71.971  1.00  0.00    -0.505 C  
HETATM   27  C   UNL     1     -12.954  11.783  71.602  1.00  0.00    -0.467 C  
ENDBRANCH   4  25
ENDBRANCH   2   4
TORSDOF 8
ENDMDL
MODEL       56
REMARK 921   NORMALIZED FREE ENERGY PREDICTED BY IDOCK:   -4.87 KCAL/MOL
REMARK 922        TOTAL FREE ENERGY PREDICTED BY IDOCK:   -8.86 KCAL/MOL
REMARK 923 INTER-LIGAND FREE ENERGY PREDICTED BY IDOCK:   -7.51 KCAL/MOL
REMARK 924 INTRA-LIGAND FREE ENERGY PREDICTED BY IDOCK:   -1.35 KCAL/MOL
REMARK 927      BINDING AFFINITY PREDICTED BY RF-SCORE:    0.00 PKD
ROOT
HETATM    1  C   UNL     1     -10.952   9.711  70.820  1.00  0.00    -0.397 C  
HETATM    2  C   UNL     1      -9.921   9.871  69.675  1.00  0.00    -0.231 C  
HETATM    3  C   UNL     1      -8.604   9.302  70.228  1.00  0.00    -0.234 C  
ENDROOT
BRANCH   2   4
HETATM    4  N   UNL     1     -10.422   9.273  68.391  1.00  0.00    -0.210 NA 
BRANCH   4   5
HETATM    5  C   UNL     1     -10.325  10.267  67.265  1.00  0.00    -0.232 C  
BRANCH   5   6
HETATM    6  C   UNL     1      -9.771  11.644  67.681  1.00  0.00    -0.186 C  
BRANCH   6   7
HETATM    7  C   UNL     1     -10.507  12.929  67.159  1.00  0.00    -0.241 C  
BRANCH   7   8
HETATM    8  C   UNL     1      -9.468  14.087  67.113  1.00  0.00    -0.241 A  
HETATM    9  C   UNL     1      -8.217  13.996  67.751  1.00  0.00    -0.169 A  
HETATM   10  C   UNL     1      -7.270  15.020  67.651  1.00  0.00    -0.208 A  
HETATM   11  C   UNL     1      -9.712  15.248  66.348  1.00  0.00    -0.308 A  
HETATM   12  C   UNL     1      -7.548  16.163  66.911  1.00  0.00    -0.275 A  
HETATM   13  C   UNL     1      -8.771  16.279  66.262  1.00  0.00    -0.370 A  
ENDBRANCH   7   8
BRANCH   7  14
HETATM   14  C   UNL     1     -11.760  13.220  68.050  1.00  0.00    -0.359 C  
HETATM   15  N   UNL     1     -12.376  14.433  67.868  1.00  0.00    -0.599 N  
HETATM   16  H1  UNL     1     -13.193  14.622  68.449  1.00  0.00     0.000 HD 
HETATM   17  O   UNL     1     -12.206  12.471  68.915  1.00  0.00    -0.182 OA 
HETATM   18  H2  UNL     1     -12.035  15.110  67.187  1.00  0.00     0.000 HD 
ENDBRANCH   7  14
BRANCH   7  19
HETATM   19  C   UNL     1     -11.076  12.611  65.738  1.00  0.00    -0.297 A  
HETATM   20  C   UNL     1     -12.182  11.960  63.289  1.00  0.00    -0.487 A  
HETATM   21  N   UNL     1     -12.423  12.712  65.557  1.00  0.00    -0.648 NA 
HETATM   22  C   UNL     1     -10.807  11.884  63.457  1.00  0.00    -0.502 A  
HETATM   23  C   UNL     1     -12.944  12.382  64.357  1.00  0.00    -0.121 A  
HETATM   24  C   UNL     1     -10.238  12.219  64.691  1.00  0.00    -0.311 A  
ENDBRANCH   7  19
ENDBRANCH   6   7
ENDBRANCH   5   6
ENDBRANCH   4   5
BRANCH   4  25
HETATM   25  C   UNL     1      -9.856   7.940  67.998  1.00  0.00    -0.165 C  
HETATM   26  C   UNL     1     -10.865   6.793  67.814  1.00  0.00    -0.339 C  
HETATM   27  C   UNL     1      -9.093   8.006  66.653  1.00  0.00    -0.199 C  
ENDBRANCH   4  25
ENDBRANCH   2   4
TORSDOF 8
ENDMDL
MODEL       57
REMARK 921   NORMALIZED FREE ENERGY PREDICTED BY IDOCK:   -4.87 KCAL/MOL
REMARK 922        TOTAL FREE ENERGY PREDICTED BY IDOCK:   -8.85 KCAL/MOL
REMARK 923 INTER-LIGAND FREE ENERGY PREDICTED BY IDOCK:   -7.60 KCAL/MOL
REMARK 924 INTRA-LIGAND FREE ENERGY PREDICTED BY IDOCK:   -1.25 KCAL/MOL
REMARK 927      BINDING AFFINITY PREDICTED BY RF-SCORE:    0.00 PKD
ROOT
HETATM    1  C   UNL     1     -12.209  13.068  63.212  1.00  0.00    -0.464 C  
HETATM    2  C   UNL     1     -11.837  13.851  64.495  1.00  0.00    -0.426 C  
HETATM    3  C   UNL     1     -12.969  13.557  65.495  1.00  0.00    -0.269 C  
ENDROOT
BRANCH   2   4
HETATM    4  N   UNL     1     -10.441  13.537  64.953  1.00  0.00    -0.384 NA 
BRANCH   4   5
HETATM    5  C   UNL     1      -9.755  14.774  65.464  1.00  0.00    -0.226 C  
BRANCH   5   6
HETATM    6  C   UNL     1     -10.708  15.819  66.079  1.00  0.00    -0.311 C  
BRANCH   6   7
HETATM    7  C   UNL     1     -10.232  16.596  67.357  1.00  0.00    -0.286 C  
BRANCH   7   8
HETATM    8  C   UNL     1     -10.949  15.971  68.589  1.00  0.00    -0.323 A  
HETATM    9  C   UNL     1     -11.625  14.739  68.516  1.00  0.00    -0.348 A  
HETATM   10  C   UNL     1     -12.213  14.160  69.645  1.00  0.00    -0.376 A  
HETATM   11  C   UNL     1     -10.870  16.582  69.860  1.00  0.00    -0.285 A  
HETATM   12  C   UNL     1     -12.140  14.797  70.879  1.00  0.00    -0.387 A  
HETATM   13  C   UNL     1     -11.471  16.010  70.985  1.00  0.00    -0.460 A  
ENDBRANCH   7   8
BRANCH   7  14
HETATM   14  C   UNL     1     -10.487  18.129  67.171  1.00  0.00    -0.378 C  
HETATM   15  N   UNL     1     -10.566  18.588  65.879  1.00  0.00    -0.410 N  
HETATM   16  H1  UNL     1     -10.732  19.587  65.758  1.00  0.00     0.000 HD 
HETATM   17  O   UNL     1     -10.582  18.949  68.080  1.00  0.00    -0.375 OA 
HETATM   18  H2  UNL     1     -10.463  17.961  65.082  1.00  0.00     0.000 HD 
ENDBRANCH   7  14
BRANCH   7  19
HETATM   19  C   UNL     1      -8.679  16.447  67.458  1.00  0.00    -0.178 A  
HETATM   20  C   UNL     1      -5.929  16.160  67.492  1.00  0.00    -0.190 A  
HETATM   21  N   UNL     1      -7.915  17.165  66.587  1.00  0.00    -0.238 NA 
HETATM   22  C   UNL     1      -6.700  15.450  68.402  1.00  0.00    -0.116 A  
HETATM   23  C   UNL     1      -6.575  17.004  66.614  1.00  0.00    -0.237 A  
HETATM   24  C   UNL     1      -8.091  15.596  68.397  1.00  0.00    -0.137 A  
ENDBRANCH   7  19
ENDBRANCH   6   7
ENDBRANCH   5   6
ENDBRANCH   4   5
BRANCH   4  25
HETATM   25  C   UNL     1     -10.283  12.387  65.903  1.00  0.00    -0.251 C  
HETATM   26  C   UNL     1     -10.086  10.997  65.272  1.00  0.00    -0.332 C  
HETATM   27  C   UNL     1      -9.059  12.567  66.833  1.00  0.00    -0.213 C  
ENDBRANCH   4  25
ENDBRANCH   2   4
TORSDOF 8
ENDMDL
MODEL       58
REMARK 921   NORMALIZED FREE ENERGY PREDICTED BY IDOCK:   -4.84 KCAL/MOL
REMARK 922        TOTAL FREE ENERGY PREDICTED BY IDOCK:   -8.81 KCAL/MOL
REMARK 923 INTER-LIGAND FREE ENERGY PREDICTED BY IDOCK:   -7.50 KCAL/MOL
REMARK 924 INTRA-LIGAND FREE ENERGY PREDICTED BY IDOCK:   -1.31 KCAL/MOL
REMARK 927      BINDING AFFINITY PREDICTED BY RF-SCORE:    0.00 PKD
ROOT
HETATM    1  C   UNL     1     -12.126  13.480  67.155  1.00  0.00    -0.386 C  
HETATM    2  C   UNL     1     -11.077  13.581  66.021  1.00  0.00    -0.293 C  
HETATM    3  C   UNL     1     -10.453  14.979  66.166  1.00  0.00    -0.313 C  
ENDROOT
BRANCH   2   4
HETATM    4  N   UNL     1     -10.126  12.418  66.038  1.00  0.00    -0.246 NA 
BRANCH   4   5
HETATM    5  C   UNL     1     -10.540  11.405  67.071  1.00  0.00    -0.248 C  
BRANCH   5   6
HETATM    6  C   UNL     1      -9.734  11.475  68.384  1.00  0.00    -0.202 C  
BRANCH   6   7
HETATM    7  C   UNL     1      -9.600  10.167  69.243  1.00  0.00    -0.239 C  
BRANCH   7   8
HETATM    8  C   UNL     1     -10.869  10.051  70.137  1.00  0.00    -0.365 A  
HETATM    9  C   UNL     1     -11.146   8.900  70.898  1.00  0.00    -0.328 A  
HETATM   10  C   UNL     1     -12.258   8.834  71.743  1.00  0.00    -0.415 A  
HETATM   11  C   UNL     1     -11.751  11.144  70.285  1.00  0.00    -0.431 A  
HETATM   12  C   UNL     1     -13.124   9.917  71.850  1.00  0.00    -0.559 A  
HETATM   13  C   UNL     1     -12.872  11.071  71.118  1.00  0.00    -0.491 A  
ENDBRANCH   7   8
BRANCH   7  14
HETATM   14  C   UNL     1      -8.251  10.190  70.035  1.00  0.00    -0.035 C  
HETATM   15  N   UNL     1      -7.314  11.109  69.630  1.00  0.00    -0.352 N  
HETATM   16  H1  UNL     1      -6.435  11.123  70.147  1.00  0.00     0.000 HD 
HETATM   17  O   UNL     1      -7.954   9.433  70.955  1.00  0.00    -0.303 OA 
HETATM   18  H2  UNL     1      -7.489  11.744  68.852  1.00  0.00     0.000 HD 
ENDBRANCH   7  14
BRANCH   7  19
HETATM   19  C   UNL     1      -9.478   8.959  68.259  1.00  0.00    -0.140 A  
HETATM   20  C   UNL     1      -9.189   6.909  66.425  1.00  0.00    -0.186 A  
HETATM   21  N   UNL     1      -8.244   8.672  67.754  1.00  0.00    -0.117 NA 
HETATM   22  C   UNL     1     -10.442   7.174  66.958  1.00  0.00    -0.392 A  
HETATM   23  C   UNL     1      -8.126   7.673  66.855  1.00  0.00    -0.116 A  
HETATM   24  C   UNL     1     -10.596   8.205  67.892  1.00  0.00    -0.212 A  
ENDBRANCH   7  19
ENDBRANCH   6   7
ENDBRANCH   5   6
ENDBRANCH   4   5
BRANCH   4  25
HETATM   25  C   UNL     1      -9.827  11.768  64.719  1.00  0.00    -0.211 C  
HETATM   26  C   UNL     1      -9.847  10.230  64.692  1.00  0.00    -0.396 C  
HETATM   27  C   UNL     1     -10.835  12.190  63.623  1.00  0.00    -0.523 C  
ENDBRANCH   4  25
ENDBRANCH   2   4
TORSDOF 8
ENDMDL
MODEL       59
REMARK 921   NORMALIZED FREE ENERGY PREDICTED BY IDOCK:   -4.83 KCAL/MOL
REMARK 922        TOTAL FREE ENERGY PREDICTED BY IDOCK:   -8.79 KCAL/MOL
REMARK 923 INTER-LIGAND FREE ENERGY PREDICTED BY IDOCK:   -7.57 KCAL/MOL
REMARK 924 INTRA-LIGAND FREE ENERGY PREDICTED BY IDOCK:   -1.22 KCAL/MOL
REMARK 927      BINDING AFFINITY PREDICTED BY RF-SCORE:    0.00 PKD
ROOT
HETATM    1  C   UNL     1     -11.155  10.685  67.463  1.00  0.00    -0.367 C  
HETATM    2  C   UNL     1      -9.833  10.599  66.661  1.00  0.00    -0.201 C  
HETATM    3  C   UNL     1     -10.211  10.951  65.213  1.00  0.00    -0.351 C  
ENDROOT
BRANCH   2   4
HETATM    4  N   UNL     1      -8.748  11.427  67.290  1.00  0.00    -0.144 NA 
BRANCH   4   5
HETATM    5  C   UNL     1      -9.057  12.894  67.169  1.00  0.00    -0.220 C  
BRANCH   5   6
HETATM    6  C   UNL     1      -9.490  13.562  68.490  1.00  0.00    -0.131 C  
BRANCH   6   7
HETATM    7  C   UNL     1     -10.512  14.751  68.421  1.00  0.00    -0.243 C  
BRANCH   7   8
HETATM    8  C   UNL     1     -11.153  14.748  67.002  1.00  0.00    -0.333 A  
HETATM    9  C   UNL     1     -10.578  15.441  65.920  1.00  0.00    -0.349 A  
HETATM   10  C   UNL     1     -11.132  15.379  64.638  1.00  0.00    -0.361 A  
HETATM   11  C   UNL     1     -12.298  13.968  66.728  1.00  0.00    -0.368 A  
HETATM   12  C   UNL     1     -12.275  14.623  64.402  1.00  0.00    -0.473 A  
HETATM   13  C   UNL     1     -12.859  13.920  65.448  1.00  0.00    -0.466 A  
ENDBRANCH   7   8
BRANCH   7  14
HETATM   14  C   UNL     1      -9.795  16.089  68.803  1.00  0.00    -0.223 C  
HETATM   15  N   UNL     1     -10.483  17.250  68.553  1.00  0.00    -0.365 N  
HETATM   16  H1  UNL     1     -10.016  18.121  68.802  1.00  0.00     0.000 HD 
HETATM   17  O   UNL     1      -8.661  16.180  69.266  1.00  0.00    -0.247 OA 
HETATM   18  H2  UNL     1     -11.415  17.241  68.140  1.00  0.00     0.000 HD 
ENDBRANCH   7  14
BRANCH   7  19
HETATM   19  C   UNL     1     -11.584  14.526  69.536  1.00  0.00    -0.307 A  
HETATM   20  C   UNL     1     -13.421  14.241  71.583  1.00  0.00    -0.456 A  
HETATM   21  N   UNL     1     -12.285  15.612  69.971  1.00  0.00    -0.364 NA 
HETATM   22  C   UNL     1     -12.734  13.127  71.124  1.00  0.00    -0.386 A  
HETATM   23  C   UNL     1     -13.171  15.453  70.977  1.00  0.00    -0.496 A  
HETATM   24  C   UNL     1     -11.808  13.261  70.083  1.00  0.00    -0.333 A  
ENDBRANCH   7  19
ENDBRANCH   6   7
ENDBRANCH   5   6
ENDBRANCH   4   5
BRANCH   4  25
HETATM   25  C   UNL     1      -8.342  11.063  68.687  1.00  0.00    -0.153 C  
HETATM   26  C   UNL     1      -8.383   9.567  69.047  1.00  0.00    -0.126 C  
HETATM   27  C   UNL     1      -6.890  11.497  69.001  1.00  0.00    -0.107 C  
ENDBRANCH   4  25
ENDBRANCH   2   4
TORSDOF 8
ENDMDL
MODEL       60
REMARK 921   NORMALIZED FREE ENERGY PREDICTED BY IDOCK:   -4.81 KCAL/MOL
REMARK 922        TOTAL FREE ENERGY PREDICTED BY IDOCK:   -8.77 KCAL/MOL
REMARK 923 INTER-LIGAND FREE ENERGY PREDICTED BY IDOCK:   -7.28 KCAL/MOL
REMARK 924 INTRA-LIGAND FREE ENERGY PREDICTED BY IDOCK:   -1.49 KCAL/MOL
REMARK 927      BINDING AFFINITY PREDICTED BY RF-SCORE:    0.00 PKD
ROOT
HETATM    1  C   UNL     1     -10.789  10.698  67.240  1.00  0.00    -0.345 C  
HETATM    2  C   UNL     1      -9.554  11.016  66.361  1.00  0.00    -0.198 C  
HETATM    3  C   UNL     1     -10.113  11.275  64.952  1.00  0.00    -0.333 C  
ENDROOT
BRANCH   2   4
HETATM    4  N   UNL     1      -8.713  12.107  66.959  1.00  0.00    -0.185 NA 
BRANCH   4   5
HETATM    5  C   UNL     1      -9.374  12.683  68.181  1.00  0.00    -0.210 C  
BRANCH   5   6
HETATM    6  C   UNL     1      -9.210  14.209  68.331  1.00  0.00    -0.203 C  
BRANCH   6   7
HETATM    7  C   UNL     1     -10.480  15.114  68.152  1.00  0.00    -0.245 C  
BRANCH   7   8
HETATM    8  C   UNL     1     -10.020  16.599  68.216  1.00  0.00    -0.261 A  
HETATM    9  C   UNL     1      -8.733  16.966  68.654  1.00  0.00    -0.267 A  
HETATM   10  C   UNL     1      -8.313  18.300  68.649  1.00  0.00    -0.305 A  
HETATM   11  C   UNL     1     -10.856  17.636  67.749  1.00  0.00    -0.241 A  
HETATM   12  C   UNL     1      -9.168  19.303  68.206  1.00  0.00    -0.394 A  
HETATM   13  C   UNL     1     -10.441  18.971  67.760  1.00  0.00    -0.499 A  
ENDBRANCH   7   8
BRANCH   7  14
HETATM   14  C   UNL     1     -11.561  14.725  69.215  1.00  0.00    -0.303 C  
HETATM   15  N   UNL     1     -12.617  15.589  69.364  1.00  0.00    -0.576 N  
HETATM   16  H1  UNL     1     -13.321  15.337  70.057  1.00  0.00     0.000 HD 
HETATM   17  O   UNL     1     -11.517  13.739  69.946  1.00  0.00    -0.237 OA 
HETATM   18  H2  UNL     1     -12.694  16.441  68.809  1.00  0.00     0.000 HD 
ENDBRANCH   7  14
BRANCH   7  19
HETATM   19  C   UNL     1     -11.122  14.770  66.769  1.00  0.00    -0.338 A  
HETATM   20  C   UNL     1     -12.283  14.026  64.372  1.00  0.00    -0.457 A  
HETATM   21  N   UNL     1     -12.350  14.177  66.768  1.00  0.00    -0.394 NA 
HETATM   22  C   UNL     1     -11.048  14.657  64.363  1.00  0.00    -0.153 A  
HETATM   23  C   UNL     1     -12.895  13.814  65.588  1.00  0.00    -0.408 A  
HETATM   24  C   UNL     1     -10.457  15.044  65.571  1.00  0.00    -0.385 A  
ENDBRANCH   7  19
ENDBRANCH   6   7
ENDBRANCH   5   6
ENDBRANCH   4   5
BRANCH   4  25
HETATM   25  C   UNL     1      -7.269  11.787  67.213  1.00  0.00    -0.142 C  
HETATM   26  C   UNL     1      -6.940  11.125  68.563  1.00  0.00    -0.072 C  
HETATM   27  C   UNL     1      -6.695  10.814  66.154  1.00  0.00    -0.126 C  
ENDBRANCH   4  25
ENDBRANCH   2   4
TORSDOF 8
ENDMDL
MODEL       61
REMARK 921   NORMALIZED FREE ENERGY PREDICTED BY IDOCK:   -4.81 KCAL/MOL
REMARK 922        TOTAL FREE ENERGY PREDICTED BY IDOCK:   -8.77 KCAL/MOL
REMARK 923 INTER-LIGAND FREE ENERGY PREDICTED BY IDOCK:   -7.14 KCAL/MOL
REMARK 924 INTRA-LIGAND FREE ENERGY PREDICTED BY IDOCK:   -1.63 KCAL/MOL
REMARK 927      BINDING AFFINITY PREDICTED BY RF-SCORE:    0.00 PKD
ROOT
HETATM    1  C   UNL     1     -11.822  14.563  66.730  1.00  0.00    -0.390 C  
HETATM    2  C   UNL     1     -11.038  14.394  65.405  1.00  0.00    -0.331 C  
HETATM    3  C   UNL     1      -9.797  15.290  65.548  1.00  0.00    -0.362 C  
ENDROOT
BRANCH   2   4
HETATM    4  N   UNL     1     -10.787  12.947  65.089  1.00  0.00    -0.289 NA 
BRANCH   4   5
HETATM    5  C   UNL     1     -11.458  12.055  66.098  1.00  0.00    -0.339 C  
BRANCH   5   6
HETATM    6  C   UNL     1     -10.621  10.829  66.516  1.00  0.00    -0.279 C  
BRANCH   6   7
HETATM    7  C   UNL     1      -9.742  10.938  67.812  1.00  0.00    -0.183 C  
BRANCH   7   8
HETATM    8  C   UNL     1     -10.674  10.722  69.040  1.00  0.00    -0.265 A  
HETATM    9  C   UNL     1     -10.361   9.812  70.067  1.00  0.00    -0.307 A  
HETATM   10  C   UNL     1     -11.178   9.672  71.193  1.00  0.00    -0.454 A  
HETATM   11  C   UNL     1     -11.837  11.505  69.212  1.00  0.00    -0.414 A  
HETATM   12  C   UNL     1     -12.330  10.440  71.324  1.00  0.00    -0.507 A  
HETATM   13  C   UNL     1     -12.661  11.354  70.331  1.00  0.00    -0.267 A  
ENDBRANCH   7   8
BRANCH   7  14
HETATM   14  C   UNL     1      -8.972  12.300  67.817  1.00  0.00    -0.177 C  
HETATM   15  N   UNL     1      -8.040  12.484  66.825  1.00  0.00    -0.395 N  
HETATM   16  H1  UNL     1      -7.538  13.372  66.829  1.00  0.00     0.000 HD 
HETATM   17  O   UNL     1      -9.106  13.190  68.653  1.00  0.00    -0.100 OA 
HETATM   18  H2  UNL     1      -7.860  11.769  66.121  1.00  0.00     0.000 HD 
ENDBRANCH   7  14
BRANCH   7  19
HETATM   19  C   UNL     1      -8.634   9.838  67.732  1.00  0.00    -0.125 A  
HETATM   20  C   UNL     1      -6.579   7.997  67.545  1.00  0.00    -0.058 A  
HETATM   21  N   UNL     1      -7.437  10.098  68.332  1.00  0.00    -0.084 NA 
HETATM   22  C   UNL     1      -7.804   7.713  66.960  1.00  0.00    -0.112 A  
HETATM   23  C   UNL     1      -6.445   9.190  68.222  1.00  0.00    -0.055 A  
HETATM   24  C   UNL     1      -8.851   8.636  67.056  1.00  0.00    -0.143 A  
ENDBRANCH   7  19
ENDBRANCH   6   7
ENDBRANCH   5   6
ENDBRANCH   4   5
BRANCH   4  25
HETATM   25  C   UNL     1     -11.070  12.501  63.685  1.00  0.00    -0.467 C  
HETATM   26  C   UNL     1     -10.184  11.370  63.132  1.00  0.00    -0.380 C  
HETATM   27  C   UNL     1     -12.517  11.974  63.524  1.00  0.00    -0.654 C  
ENDBRANCH   4  25
ENDBRANCH   2   4
TORSDOF 8
ENDMDL
MODEL       62
REMARK 921   NORMALIZED FREE ENERGY PREDICTED BY IDOCK:   -4.80 KCAL/MOL
REMARK 922        TOTAL FREE ENERGY PREDICTED BY IDOCK:   -8.75 KCAL/MOL
REMARK 923 INTER-LIGAND FREE ENERGY PREDICTED BY IDOCK:   -7.29 KCAL/MOL
REMARK 924 INTRA-LIGAND FREE ENERGY PREDICTED BY IDOCK:   -1.46 KCAL/MOL
REMARK 927      BINDING AFFINITY PREDICTED BY RF-SCORE:    0.00 PKD
ROOT
HETATM    1  C   UNL     1     -10.241  10.989  63.768  1.00  0.00    -0.425 C  
HETATM    2  C   UNL     1     -10.879  12.283  64.330  1.00  0.00    -0.348 C  
HETATM    3  C   UNL     1     -12.034  12.618  63.371  1.00  0.00    -0.613 C  
ENDROOT
BRANCH   2   4
HETATM    4  N   UNL     1     -11.235  12.142  65.782  1.00  0.00    -0.327 NA 
BRANCH   4   5
HETATM    5  C   UNL     1     -10.693  10.855  66.342  1.00  0.00    -0.194 C  
BRANCH   5   6
HETATM    6  C   UNL     1     -11.010  10.629  67.834  1.00  0.00    -0.351 C  
BRANCH   6   7
HETATM    7  C   UNL     1     -10.146   9.585  68.627  1.00  0.00    -0.198 C  
BRANCH   7   8
HETATM    8  C   UNL     1      -8.806  10.274  69.017  1.00  0.00    -0.170 A  
HETATM    9  C   UNL     1      -7.969   9.764  70.028  1.00  0.00    -0.196 A  
HETATM   10  C   UNL     1      -6.740  10.360  70.327  1.00  0.00    -0.140 A  
HETATM   11  C   UNL     1      -8.335  11.397  68.303  1.00  0.00    -0.152 A  
HETATM   12  C   UNL     1      -6.313  11.480  69.622  1.00  0.00    -0.133 A  
HETATM   13  C   UNL     1      -7.112  12.000  68.612  1.00  0.00    -0.103 A  
ENDBRANCH   7   8
BRANCH   7  14
HETATM   14  C   UNL     1      -9.980   8.281  67.778  1.00  0.00    -0.186 C  
HETATM   15  N   UNL     1     -11.134   7.648  67.390  1.00  0.00    -0.511 N  
HETATM   16  H1  UNL     1     -11.026   6.798  66.837  1.00  0.00     0.000 HD 
HETATM   17  O   UNL     1      -8.909   7.767  67.469  1.00  0.00    -0.124 OA 
HETATM   18  H2  UNL     1     -12.054   8.008  67.643  1.00  0.00     0.000 HD 
ENDBRANCH   7  14
BRANCH   7  19
HETATM   19  C   UNL     1     -10.959   9.153  69.891  1.00  0.00    -0.204 A  
HETATM   20  C   UNL     1     -12.453   8.277  72.046  1.00  0.00    -0.393 A  
HETATM   21  N   UNL     1     -10.908   7.841  70.260  1.00  0.00    -0.247 NA 
HETATM   22  C   UNL     1     -12.486   9.619  71.695  1.00  0.00    -0.494 A  
HETATM   23  C   UNL     1     -11.651   7.433  71.310  1.00  0.00    -0.280 A  
HETATM   24  C   UNL     1     -11.727  10.071  70.610  1.00  0.00    -0.421 A  
ENDBRANCH   7  19
ENDBRANCH   6   7
ENDBRANCH   5   6
ENDBRANCH   4   5
BRANCH   4  25
HETATM   25  C   UNL     1     -10.919  13.306  66.674  1.00  0.00    -0.283 C  
HETATM   26  C   UNL     1      -9.822  14.268  66.183  1.00  0.00    -0.335 C  
HETATM   27  C   UNL     1     -12.154  14.211  66.905  1.00  0.00    -0.466 C  
ENDBRANCH   4  25
ENDBRANCH   2   4
TORSDOF 8
ENDMDL
MODEL       63
REMARK 921   NORMALIZED FREE ENERGY PREDICTED BY IDOCK:   -4.78 KCAL/MOL
REMARK 922        TOTAL FREE ENERGY PREDICTED BY IDOCK:   -8.73 KCAL/MOL
REMARK 923 INTER-LIGAND FREE ENERGY PREDICTED BY IDOCK:   -7.01 KCAL/MOL
REMARK 924 INTRA-LIGAND FREE ENERGY PREDICTED BY IDOCK:   -1.72 KCAL/MOL
REMARK 927      BINDING AFFINITY PREDICTED BY RF-SCORE:    0.00 PKD
ROOT
HETATM    1  C   UNL     1      -7.618  10.473  65.639  1.00  0.00    -0.134 C  
HETATM    2  C   UNL     1      -7.785   9.292  66.627  1.00  0.00    -0.093 C  
HETATM    3  C   UNL     1      -6.365   8.746  66.853  1.00  0.00    -0.060 C  
ENDROOT
BRANCH   2   4
HETATM    4  N   UNL     1      -8.549   9.700  67.855  1.00  0.00    -0.122 NA 
BRANCH   4   5
HETATM    5  C   UNL     1      -8.615  11.198  67.971  1.00  0.00    -0.140 C  
BRANCH   5   6
HETATM    6  C   UNL     1     -10.030  11.753  68.227  1.00  0.00    -0.200 C  
BRANCH   6   7
HETATM    7  C   UNL     1     -10.324  13.246  67.843  1.00  0.00    -0.239 C  
BRANCH   7   8
HETATM    8  C   UNL     1     -11.056  13.251  66.470  1.00  0.00    -0.313 A  
HETATM    9  C   UNL     1     -11.593  14.426  65.912  1.00  0.00    -0.361 A  
HETATM   10  C   UNL     1     -12.195  14.425  64.650  1.00  0.00    -0.479 A  
HETATM   11  C   UNL     1     -11.132  12.078  65.687  1.00  0.00    -0.361 A  
HETATM   12  C   UNL     1     -12.277  13.250  63.911  1.00  0.00    -0.491 A  
HETATM   13  C   UNL     1     -11.748  12.075  64.432  1.00  0.00    -0.399 A  
ENDBRANCH   7   8
BRANCH   7  14
HETATM   14  C   UNL     1      -8.994  14.071  67.869  1.00  0.00    -0.188 C  
HETATM   15  N   UNL     1      -8.466  14.350  69.105  1.00  0.00    -0.358 N  
HETATM   16  H1  UNL     1      -7.600  14.888  69.122  1.00  0.00     0.000 HD 
HETATM   17  O   UNL     1      -8.414  14.515  66.882  1.00  0.00    -0.211 OA 
HETATM   18  H2  UNL     1      -8.918  14.036  69.963  1.00  0.00     0.000 HD 
ENDBRANCH   7  14
BRANCH   7  19
HETATM   19  C   UNL     1     -11.213  13.865  68.971  1.00  0.00    -0.274 A  
HETATM   20  C   UNL     1     -12.671  15.043  71.003  1.00  0.00    -0.432 A  
HETATM   21  N   UNL     1     -11.263  15.224  69.066  1.00  0.00    -0.262 NA 
HETATM   22  C   UNL     1     -12.650  13.660  70.893  1.00  0.00    -0.421 A  
HETATM   23  C   UNL     1     -11.974  15.779  70.070  1.00  0.00    -0.337 A  
HETATM   24  C   UNL     1     -11.920  13.056  69.863  1.00  0.00    -0.381 A  
ENDBRANCH   7  19
ENDBRANCH   6   7
ENDBRANCH   5   6
ENDBRANCH   4   5
BRANCH   4  25
HETATM   25  C   UNL     1      -9.897   9.072  68.054  1.00  0.00    -0.166 C  
HETATM   26  C   UNL     1     -10.410   8.173  66.914  1.00  0.00    -0.401 C  
HETATM   27  C   UNL     1      -9.937   8.168  69.309  1.00  0.00    -0.188 C  
ENDBRANCH   4  25
ENDBRANCH   2   4
TORSDOF 8
ENDMDL
MODEL       64
REMARK 921   NORMALIZED FREE ENERGY PREDICTED BY IDOCK:   -4.76 KCAL/MOL
REMARK 922        TOTAL FREE ENERGY PREDICTED BY IDOCK:   -8.70 KCAL/MOL
REMARK 923 INTER-LIGAND FREE ENERGY PREDICTED BY IDOCK:   -7.21 KCAL/MOL
REMARK 924 INTRA-LIGAND FREE ENERGY PREDICTED BY IDOCK:   -1.48 KCAL/MOL
REMARK 927      BINDING AFFINITY PREDICTED BY RF-SCORE:    0.00 PKD
ROOT
HETATM    1  C   UNL     1     -10.553  20.349  68.146  1.00  0.00    -0.077 C  
HETATM    2  C   UNL     1     -10.232  19.142  67.231  1.00  0.00    -0.398 C  
HETATM    3  C   UNL     1     -10.538  19.620  65.802  1.00  0.00    -0.537 C  
ENDROOT
BRANCH   2   4
HETATM    4  N   UNL     1      -8.848  18.611  67.477  1.00  0.00    -0.269 NA 
BRANCH   4   5
HETATM    5  C   UNL     1      -8.893  17.385  68.348  1.00  0.00    -0.271 C  
BRANCH   5   6
HETATM    6  C   UNL     1     -10.301  16.781  68.520  1.00  0.00    -0.316 C  
BRANCH   6   7
HETATM    7  C   UNL     1     -10.484  15.241  68.272  1.00  0.00    -0.244 C  
BRANCH   7   8
HETATM    8  C   UNL     1     -11.144  15.059  66.874  1.00  0.00    -0.331 A  
HETATM    9  C   UNL     1     -10.731  15.798  65.750  1.00  0.00    -0.337 A  
HETATM   10  C   UNL     1     -11.292  15.581  64.487  1.00  0.00    -0.322 A  
HETATM   11  C   UNL     1     -12.131  14.072  66.664  1.00  0.00    -0.487 A  
HETATM   12  C   UNL     1     -12.281  14.618  64.315  1.00  0.00    -0.432 A  
HETATM   13  C   UNL     1     -12.703  13.866  65.404  1.00  0.00    -0.525 A  
ENDBRANCH   7   8
BRANCH   7  14
HETATM   14  C   UNL     1     -11.288  14.606  69.454  1.00  0.00    -0.284 C  
HETATM   15  N   UNL     1     -11.080  13.270  69.693  1.00  0.00    -0.466 N  
HETATM   16  H1  UNL     1     -11.605  12.856  70.463  1.00  0.00     0.000 HD 
HETATM   17  O   UNL     1     -12.110  15.194  70.152  1.00  0.00    -0.301 OA 
HETATM   18  H2  UNL     1     -10.435  12.720  69.128  1.00  0.00     0.000 HD 
ENDBRANCH   7  14
BRANCH   7  19
HETATM   19  C   UNL     1      -9.070  14.576  68.331  1.00  0.00    -0.191 A  
HETATM   20  C   UNL     1      -6.513  13.532  68.466  1.00  0.00    -0.090 A  
HETATM   21  N   UNL     1      -8.287  14.846  69.414  1.00  0.00    -0.121 NA 
HETATM   22  C   UNL     1      -7.317  13.228  67.377  1.00  0.00    -0.125 A  
HETATM   23  C   UNL     1      -7.039  14.333  69.457  1.00  0.00    -0.045 A  
HETATM   24  C   UNL     1      -8.614  13.746  67.305  1.00  0.00    -0.221 A  
ENDBRANCH   7  19
ENDBRANCH   6   7
ENDBRANCH   5   6
ENDBRANCH   4   5
BRANCH   4  25
HETATM   25  C   UNL     1      -7.980  18.399  66.272  1.00  0.00    -0.235 C  
HETATM   26  C   UNL     1      -6.960  19.507  65.957  1.00  0.00    -0.280 C  
HETATM   27  C   UNL     1      -7.130  17.110  66.389  1.00  0.00    -0.310 C  
ENDBRANCH   4  25
ENDBRANCH   2   4
TORSDOF 8
ENDMDL
MODEL       65
REMARK 921   NORMALIZED FREE ENERGY PREDICTED BY IDOCK:   -4.75 KCAL/MOL
REMARK 922        TOTAL FREE ENERGY PREDICTED BY IDOCK:   -8.68 KCAL/MOL
REMARK 923 INTER-LIGAND FREE ENERGY PREDICTED BY IDOCK:   -6.80 KCAL/MOL
REMARK 924 INTRA-LIGAND FREE ENERGY PREDICTED BY IDOCK:   -1.88 KCAL/MOL
REMARK 927      BINDING AFFINITY PREDICTED BY RF-SCORE:    0.00 PKD
ROOT
HETATM    1  C   UNL     1     -12.030   6.851  70.552  1.00  0.00    -0.358 C  
HETATM    2  C   UNL     1     -11.685   8.333  70.840  1.00  0.00    -0.239 C  
HETATM    3  C   UNL     1     -11.541   8.430  72.368  1.00  0.00    -0.450 C  
ENDROOT
BRANCH   2   4
HETATM    4  N   UNL     1     -10.510   8.798  70.026  1.00  0.00    -0.207 NA 
BRANCH   4   5
HETATM    5  C   UNL     1     -10.639  10.258  69.687  1.00  0.00    -0.256 C  
BRANCH   5   6
HETATM    6  C   UNL     1     -11.140  10.534  68.255  1.00  0.00    -0.340 C  
BRANCH   6   7
HETATM    7  C   UNL     1     -10.078  10.885  67.152  1.00  0.00    -0.235 C  
BRANCH   7   8
HETATM    8  C   UNL     1      -9.358   9.566  66.748  1.00  0.00    -0.196 A  
HETATM    9  C   UNL     1      -7.969   9.509  66.527  1.00  0.00    -0.112 A  
HETATM   10  C   UNL     1      -7.327   8.305  66.222  1.00  0.00    -0.078 A  
HETATM   11  C   UNL     1     -10.067   8.347  66.673  1.00  0.00    -0.358 A  
HETATM   12  C   UNL     1      -8.056   7.124  66.131  1.00  0.00    -0.121 A  
HETATM   13  C   UNL     1      -9.427   7.146  66.353  1.00  0.00    -0.177 A  
ENDBRANCH   7   8
BRANCH   7  14
HETATM   14  C   UNL     1      -9.123  12.009  67.675  1.00  0.00    -0.179 C  
HETATM   15  N   UNL     1      -9.657  13.269  67.784  1.00  0.00    -0.207 N  
HETATM   16  H1  UNL     1      -9.034  14.001  68.124  1.00  0.00     0.000 HD 
HETATM   17  O   UNL     1      -7.937  11.860  67.954  1.00  0.00    -0.127 OA 
HETATM   18  H2  UNL     1     -10.627  13.463  67.536  1.00  0.00     0.000 HD 
ENDBRANCH   7  14
BRANCH   7  19
HETATM   19  C   UNL     1     -10.837  11.519  65.942  1.00  0.00    -0.260 A  
HETATM   20  C   UNL     1     -12.304  12.583  63.853  1.00  0.00    -0.576 A  
HETATM   21  N   UNL     1     -11.972  12.228  66.205  1.00  0.00    -0.626 NA 
HETATM   22  C   UNL     1     -11.134  11.890  63.580  1.00  0.00    -0.517 A  
HETATM   23  C   UNL     1     -12.678  12.732  65.171  1.00  0.00    -0.329 A  
HETATM   24  C   UNL     1     -10.382  11.355  64.632  1.00  0.00    -0.362 A  
ENDBRANCH   7  19
ENDBRANCH   6   7
ENDBRANCH   5   6
ENDBRANCH   4   5
BRANCH   4  25
HETATM   25  C   UNL     1      -9.146   8.475  70.561  1.00  0.00    -0.156 C  
HETATM   26  C   UNL     1      -8.448   7.241  69.961  1.00  0.00    -0.139 C  
HETATM   27  C   UNL     1      -8.146   9.635  70.336  1.00  0.00    -0.198 C  
ENDBRANCH   4  25
ENDBRANCH   2   4
TORSDOF 8
ENDMDL
MODEL       66
REMARK 921   NORMALIZED FREE ENERGY PREDICTED BY IDOCK:   -4.75 KCAL/MOL
REMARK 922        TOTAL FREE ENERGY PREDICTED BY IDOCK:   -8.68 KCAL/MOL
REMARK 923 INTER-LIGAND FREE ENERGY PREDICTED BY IDOCK:   -7.66 KCAL/MOL
REMARK 924 INTRA-LIGAND FREE ENERGY PREDICTED BY IDOCK:   -1.02 KCAL/MOL
REMARK 927      BINDING AFFINITY PREDICTED BY RF-SCORE:    0.00 PKD
ROOT
HETATM    1  C   UNL     1      -6.994  10.206  67.595  1.00  0.00    -0.085 C  
HETATM    2  C   UNL     1      -7.562  10.903  68.856  1.00  0.00    -0.128 C  
HETATM    3  C   UNL     1      -6.420  11.790  69.381  1.00  0.00    -0.120 C  
ENDROOT
BRANCH   2   4
HETATM    4  N   UNL     1      -8.866  11.591  68.570  1.00  0.00    -0.157 NA 
BRANCH   4   5
HETATM    5  C   UNL     1      -8.908  12.089  67.151  1.00  0.00    -0.188 C  
BRANCH   5   6
HETATM    6  C   UNL     1      -8.784  13.620  67.013  1.00  0.00    -0.204 C  
BRANCH   6   7
HETATM    7  C   UNL     1     -10.047  14.427  66.546  1.00  0.00    -0.281 C  
BRANCH   7   8
HETATM    8  C   UNL     1     -10.817  13.553  65.513  1.00  0.00    -0.293 A  
HETATM    9  C   UNL     1     -12.215  13.394  65.562  1.00  0.00    -0.499 A  
HETATM   10  C   UNL     1     -12.899  12.654  64.593  1.00  0.00    -0.361 A  
HETATM   11  C   UNL     1     -10.143  12.952  64.428  1.00  0.00    -0.265 A  
HETATM   12  C   UNL     1     -12.205  12.053  63.548  1.00  0.00    -0.653 A  
HETATM   13  C   UNL     1     -10.826  12.200  63.468  1.00  0.00    -0.518 A  
ENDBRANCH   7   8
BRANCH   7  14
HETATM   14  C   UNL     1      -9.610  15.830  66.006  1.00  0.00    -0.353 C  
HETATM   15  N   UNL     1      -8.404  16.312  66.451  1.00  0.00    -0.309 N  
HETATM   16  H1  UNL     1      -8.119  17.226  66.099  1.00  0.00     0.000 HD 
HETATM   17  O   UNL     1     -10.272  16.540  65.254  1.00  0.00    -0.588 OA 
HETATM   18  H2  UNL     1      -7.823  15.783  67.100  1.00  0.00     0.000 HD 
ENDBRANCH   7  14
BRANCH   7  19
HETATM   19  C   UNL     1     -10.918  14.726  67.809  1.00  0.00    -0.291 A  
HETATM   20  C   UNL     1     -12.338  15.304  70.111  1.00  0.00    -0.392 A  
HETATM   21  N   UNL     1     -10.800  15.957  68.384  1.00  0.00    -0.300 NA 
HETATM   22  C   UNL     1     -12.486  14.061  69.512  1.00  0.00    -0.159 A  
HETATM   23  C   UNL     1     -11.495  16.215  69.512  1.00  0.00    -0.292 A  
HETATM   24  C   UNL     1     -11.777  13.764  68.343  1.00  0.00    -0.393 A  
ENDBRANCH   7  19
ENDBRANCH   6   7
ENDBRANCH   5   6
ENDBRANCH   4   5
BRANCH   4  25
HETATM   25  C   UNL     1     -10.118  10.846  68.929  1.00  0.00    -0.198 C  
HETATM   26  C   UNL     1     -10.797  10.058  67.794  1.00  0.00    -0.337 C  
HETATM   27  C   UNL     1      -9.869   9.794  70.037  1.00  0.00    -0.295 C  
ENDBRANCH   4  25
ENDBRANCH   2   4
TORSDOF 8
ENDMDL
MODEL       67
REMARK 921   NORMALIZED FREE ENERGY PREDICTED BY IDOCK:   -4.75 KCAL/MOL
REMARK 922        TOTAL FREE ENERGY PREDICTED BY IDOCK:   -8.68 KCAL/MOL
REMARK 923 INTER-LIGAND FREE ENERGY PREDICTED BY IDOCK:   -7.31 KCAL/MOL
REMARK 924 INTRA-LIGAND FREE ENERGY PREDICTED BY IDOCK:   -1.37 KCAL/MOL
REMARK 927      BINDING AFFINITY PREDICTED BY RF-SCORE:    0.00 PKD
ROOT
HETATM    1  C   UNL     1     -10.198   9.302  66.700  1.00  0.00    -0.323 C  
HETATM    2  C   UNL     1      -9.204   9.682  67.826  1.00  0.00    -0.124 C  
HETATM    3  C   UNL     1      -7.994  10.303  67.110  1.00  0.00    -0.114 C  
ENDROOT
BRANCH   2   4
HETATM    4  N   UNL     1      -9.860  10.522  68.885  1.00  0.00    -0.192 NA 
BRANCH   4   5
HETATM    5  C   UNL     1     -10.602  11.677  68.267  1.00  0.00    -0.205 C  
BRANCH   5   6
HETATM    6  C   UNL     1      -9.912  13.043  68.451  1.00  0.00    -0.216 C  
BRANCH   6   7
HETATM    7  C   UNL     1     -10.366  14.233  67.533  1.00  0.00    -0.248 C  
BRANCH   7   8
HETATM    8  C   UNL     1      -9.112  15.105  67.229  1.00  0.00    -0.210 A  
HETATM    9  C   UNL     1      -9.147  16.172  66.312  1.00  0.00    -0.373 A  
HETATM   10  C   UNL     1      -8.030  16.984  66.094  1.00  0.00    -0.299 A  
HETATM   11  C   UNL     1      -7.906  14.908  67.935  1.00  0.00    -0.145 A  
HETATM   12  C   UNL     1      -6.847  16.751  66.787  1.00  0.00    -0.265 A  
HETATM   13  C   UNL     1      -6.784  15.711  67.705  1.00  0.00    -0.180 A  
ENDBRANCH   7   8
BRANCH   7  14
HETATM   14  C   UNL     1     -11.543  15.009  68.212  1.00  0.00    -0.334 C  
HETATM   15  N   UNL     1     -12.498  14.250  68.842  1.00  0.00    -0.530 N  
HETATM   16  H1  UNL     1     -13.265  14.755  69.285  1.00  0.00     0.000 HD 
HETATM   17  O   UNL     1     -11.696  16.227  68.192  1.00  0.00    -0.192 OA 
HETATM   18  H2  UNL     1     -12.443  13.232  68.866  1.00  0.00     0.000 HD 
ENDBRANCH   7  14
BRANCH   7  19
HETATM   19  C   UNL     1     -10.973  13.625  66.227  1.00  0.00    -0.299 A  
HETATM   20  C   UNL     1     -12.157  12.494  63.998  1.00  0.00    -0.557 A  
HETATM   21  N   UNL     1     -12.296  13.845  65.980  1.00  0.00    -0.467 NA 
HETATM   22  C   UNL     1     -10.804  12.293  64.227  1.00  0.00    -0.392 A  
HETATM   23  C   UNL     1     -12.856  13.277  64.892  1.00  0.00    -0.253 A  
HETATM   24  C   UNL     1     -10.195  12.868  65.348  1.00  0.00    -0.301 A  
ENDBRANCH   7  19
ENDBRANCH   6   7
ENDBRANCH   5   6
ENDBRANCH   4   5
BRANCH   4  25
HETATM   25  C   UNL     1     -10.705   9.802  69.894  1.00  0.00    -0.268 C  
HETATM   26  C   UNL     1      -9.962   9.169  71.084  1.00  0.00    -0.377 C  
HETATM   27  C   UNL     1     -11.754  10.736  70.544  1.00  0.00    -0.449 C  
ENDBRANCH   4  25
ENDBRANCH   2   4
TORSDOF 8
ENDMDL
MODEL       68
REMARK 921   NORMALIZED FREE ENERGY PREDICTED BY IDOCK:   -4.72 KCAL/MOL
REMARK 922        TOTAL FREE ENERGY PREDICTED BY IDOCK:   -8.63 KCAL/MOL
REMARK 923 INTER-LIGAND FREE ENERGY PREDICTED BY IDOCK:   -8.63 KCAL/MOL
REMARK 924 INTRA-LIGAND FREE ENERGY PREDICTED BY IDOCK:   -0.01 KCAL/MOL
REMARK 927      BINDING AFFINITY PREDICTED BY RF-SCORE:    0.00 PKD
ROOT
HETATM    1  C   UNL     1      -8.594  16.584  68.598  1.00  0.00    -0.243 C  
HETATM    2  C   UNL     1      -8.080  17.430  67.407  1.00  0.00    -0.199 C  
HETATM    3  C   UNL     1      -6.739  16.796  67.004  1.00  0.00    -0.241 C  
ENDROOT
BRANCH   2   4
HETATM    4  N   UNL     1      -9.115  17.550  66.324  1.00  0.00    -0.433 NA 
BRANCH   4   5
HETATM    5  C   UNL     1     -10.182  16.502  66.486  1.00  0.00    -0.300 C  
BRANCH   5   6
HETATM    6  C   UNL     1      -9.962  15.237  65.633  1.00  0.00    -0.397 C  
BRANCH   6   7
HETATM    7  C   UNL     1     -11.035  14.093  65.711  1.00  0.00    -0.301 C  
BRANCH   7   8
HETATM    8  C   UNL     1     -10.402  12.804  65.110  1.00  0.00    -0.314 A  
HETATM    9  C   UNL     1      -9.423  12.061  65.797  1.00  0.00    -0.186 A  
HETATM   10  C   UNL     1      -8.907  10.873  65.271  1.00  0.00    -0.179 A  
HETATM   11  C   UNL     1     -10.855  12.281  63.879  1.00  0.00    -0.464 A  
HETATM   12  C   UNL     1      -9.355  10.394  64.045  1.00  0.00    -0.321 A  
HETATM   13  C   UNL     1     -10.327  11.101  63.347  1.00  0.00    -0.419 A  
ENDBRANCH   7   8
BRANCH   7  14
HETATM   14  C   UNL     1     -12.353  14.554  65.005  1.00  0.00    -0.349 C  
HETATM   15  N   UNL     1     -13.524  14.011  65.472  1.00  0.00    -0.453 N  
HETATM   16  H1  UNL     1     -14.383  14.311  65.012  1.00  0.00     0.000 HD 
HETATM   17  O   UNL     1     -12.417  15.326  64.052  1.00  0.00    -0.725 OA 
HETATM   18  H2  UNL     1     -13.534  13.340  66.239  1.00  0.00     0.000 HD 
ENDBRANCH   7  14
BRANCH   7  19
HETATM   19  C   UNL     1     -11.419  13.898  67.213  1.00  0.00    -0.344 A  
HETATM   20  C   UNL     1     -12.209  13.468  69.828  1.00  0.00    -0.330 A  
HETATM   21  N   UNL     1     -11.625  12.625  67.656  1.00  0.00    -0.337 NA 
HETATM   22  C   UNL     1     -11.971  14.763  69.393  1.00  0.00    -0.339 A  
HETATM   23  C   UNL     1     -12.018  12.437  68.933  1.00  0.00    -0.241 A  
HETATM   24  C   UNL     1     -11.563  14.989  68.074  1.00  0.00    -0.356 A  
ENDBRANCH   7  19
ENDBRANCH   6   7
ENDBRANCH   5   6
ENDBRANCH   4   5
BRANCH   4  25
HETATM   25  C   UNL     1      -9.709  18.910  66.103  1.00  0.00    -0.277 C  
HETATM   26  C   UNL     1     -10.906  19.291  66.993  1.00  0.00    -0.515 C  
HETATM   27  C   UNL     1      -8.676  20.039  66.338  1.00  0.00    -0.364 C  
ENDBRANCH   4  25
ENDBRANCH   2   4
TORSDOF 8
ENDMDL
MODEL       69
REMARK 921   NORMALIZED FREE ENERGY PREDICTED BY IDOCK:   -4.71 KCAL/MOL
REMARK 922        TOTAL FREE ENERGY PREDICTED BY IDOCK:   -8.62 KCAL/MOL
REMARK 923 INTER-LIGAND FREE ENERGY PREDICTED BY IDOCK:   -8.02 KCAL/MOL
REMARK 924 INTRA-LIGAND FREE ENERGY PREDICTED BY IDOCK:   -0.60 KCAL/MOL
REMARK 927      BINDING AFFINITY PREDICTED BY RF-SCORE:    0.00 PKD
ROOT
HETATM    1  C   UNL     1      -9.417   8.944  71.268  1.00  0.00    -0.343 C  
HETATM    2  C   UNL     1     -10.590   7.982  70.956  1.00  0.00    -0.213 C  
HETATM    3  C   UNL     1     -11.802   8.560  71.706  1.00  0.00    -0.395 C  
ENDROOT
BRANCH   2   4
HETATM    4  N   UNL     1     -10.756   7.771  69.478  1.00  0.00    -0.226 NA 
BRANCH   4   5
HETATM    5  C   UNL     1     -10.004   8.816  68.700  1.00  0.00    -0.182 C  
BRANCH   5   6
HETATM    6  C   UNL     1     -10.898   9.730  67.838  1.00  0.00    -0.298 C  
BRANCH   6   7
HETATM    7  C   UNL     1     -10.428  11.206  67.587  1.00  0.00    -0.230 C  
BRANCH   7   8
HETATM    8  C   UNL     1     -10.910  11.626  66.167  1.00  0.00    -0.343 A  
HETATM    9  C   UNL     1     -10.330  11.104  64.996  1.00  0.00    -0.362 A  
HETATM   10  C   UNL     1     -10.813  11.444  63.728  1.00  0.00    -0.468 A  
HETATM   11  C   UNL     1     -12.017  12.486  66.004  1.00  0.00    -0.456 A  
HETATM   12  C   UNL     1     -11.890  12.314  63.598  1.00  0.00    -0.610 A  
HETATM   13  C   UNL     1     -12.490  12.837  64.736  1.00  0.00    -0.539 A  
ENDBRANCH   7   8
BRANCH   7  14
HETATM   14  C   UNL     1      -8.881  11.313  67.801  1.00  0.00    -0.141 C  
HETATM   15  N   UNL     1      -8.458  11.715  69.044  1.00  0.00    -0.369 N  
HETATM   16  H1  UNL     1      -7.451  11.785  69.184  1.00  0.00     0.000 HD 
HETATM   17  O   UNL     1      -8.029  11.106  66.942  1.00  0.00    -0.137 OA 
HETATM   18  H2  UNL     1      -9.119  11.933  69.790  1.00  0.00     0.000 HD 
ENDBRANCH   7  14
BRANCH   7  19
HETATM   19  C   UNL     1     -11.061  12.106  68.697  1.00  0.00    -0.251 A  
HETATM   20  C   UNL     1     -12.305  13.621  70.648  1.00  0.00    -0.440 A  
HETATM   21  N   UNL     1     -11.702  11.485  69.728  1.00  0.00    -0.326 NA 
HETATM   22  C   UNL     1     -11.627  14.259  69.619  1.00  0.00    -0.351 A  
HETATM   23  C   UNL     1     -12.310  12.243  70.665  1.00  0.00    -0.286 A  
HETATM   24  C   UNL     1     -10.989  13.499  68.632  1.00  0.00    -0.289 A  
ENDBRANCH   7  19
ENDBRANCH   6   7
ENDBRANCH   5   6
ENDBRANCH   4   5
BRANCH   4  25
HETATM   25  C   UNL     1     -10.480   6.391  68.956  1.00  0.00    -0.224 C  
HETATM   26  C   UNL     1     -10.891   6.114  67.499  1.00  0.00    -0.422 C  
HETATM   27  C   UNL     1      -8.973   6.043  69.007  1.00  0.00    -0.124 C  
ENDBRANCH   4  25
ENDBRANCH   2   4
TORSDOF 8
ENDMDL
MODEL       70
REMARK 921   NORMALIZED FREE ENERGY PREDICTED BY IDOCK:   -4.71 KCAL/MOL
REMARK 922        TOTAL FREE ENERGY PREDICTED BY IDOCK:   -8.62 KCAL/MOL
REMARK 923 INTER-LIGAND FREE ENERGY PREDICTED BY IDOCK:   -8.06 KCAL/MOL
REMARK 924 INTRA-LIGAND FREE ENERGY PREDICTED BY IDOCK:   -0.56 KCAL/MOL
REMARK 927      BINDING AFFINITY PREDICTED BY RF-SCORE:    0.00 PKD
ROOT
HETATM    1  C   UNL     1     -11.553  15.440  71.983  1.00  0.00    -0.544 C  
HETATM    2  C   UNL     1     -12.684  14.538  71.428  1.00  0.00    -0.337 C  
HETATM    3  C   UNL     1     -13.991  15.286  71.737  1.00  0.00    -0.638 C  
ENDROOT
BRANCH   2   4
HETATM    4  N   UNL     1     -12.446  14.171  69.991  1.00  0.00    -0.335 NA 
BRANCH   4   5
HETATM    5  C   UNL     1     -11.303  14.965  69.419  1.00  0.00    -0.290 C  
BRANCH   5   6
HETATM    6  C   UNL     1     -11.639  15.705  68.109  1.00  0.00    -0.290 C  
BRANCH   6   7
HETATM    7  C   UNL     1     -10.595  15.652  66.937  1.00  0.00    -0.311 C  
BRANCH   7   8
HETATM    8  C   UNL     1      -9.211  15.287  67.549  1.00  0.00    -0.202 A  
HETATM    9  C   UNL     1      -8.491  14.148  67.143  1.00  0.00    -0.214 A  
HETATM   10  C   UNL     1      -7.222  13.865  67.658  1.00  0.00    -0.187 A  
HETATM   11  C   UNL     1      -8.582  16.143  68.480  1.00  0.00    -0.202 A  
HETATM   12  C   UNL     1      -6.638  14.713  68.592  1.00  0.00    -0.085 A  
HETATM   13  C   UNL     1      -7.320  15.851  69.005  1.00  0.00    -0.185 A  
ENDBRANCH   7   8
BRANCH   7  14
HETATM   14  C   UNL     1     -10.616  17.003  66.148  1.00  0.00    -0.194 C  
HETATM   15  N   UNL     1     -10.685  18.152  66.895  1.00  0.00    -0.293 N  
HETATM   16  H1  UNL     1     -10.699  19.033  66.381  1.00  0.00     0.000 HD 
HETATM   17  O   UNL     1     -10.616  17.111  64.924  1.00  0.00    -0.620 OA 
HETATM   18  H2  UNL     1     -10.720  18.127  67.914  1.00  0.00     0.000 HD 
ENDBRANCH   7  14
BRANCH   7  19
HETATM   19  C   UNL     1     -11.075  14.571  65.916  1.00  0.00    -0.327 A  
HETATM   20  C   UNL     1     -11.975  12.579  64.223  1.00  0.00    -0.484 A  
HETATM   21  N   UNL     1     -12.356  14.116  66.028  1.00  0.00    -0.457 NA 
HETATM   22  C   UNL     1     -10.681  13.059  64.082  1.00  0.00    -0.429 A  
HETATM   23  C   UNL     1     -12.773  13.138  65.197  1.00  0.00    -0.405 A  
HETATM   24  C   UNL     1     -10.221  14.072  64.930  1.00  0.00    -0.377 A  
ENDBRANCH   7  19
ENDBRANCH   6   7
ENDBRANCH   5   6
ENDBRANCH   4   5
BRANCH   4  25
HETATM   25  C   UNL     1     -12.312  12.709  69.679  1.00  0.00     0.015 C  
HETATM   26  C   UNL     1     -11.009  12.271  68.987  1.00  0.00    -0.250 C  
HETATM   27  C   UNL     1     -12.388  11.834  70.954  1.00  0.00    -0.420 C  
ENDBRANCH   4  25
ENDBRANCH   2   4
TORSDOF 8
ENDMDL
MODEL       71
REMARK 921   NORMALIZED FREE ENERGY PREDICTED BY IDOCK:   -4.69 KCAL/MOL
REMARK 922        TOTAL FREE ENERGY PREDICTED BY IDOCK:   -8.59 KCAL/MOL
REMARK 923 INTER-LIGAND FREE ENERGY PREDICTED BY IDOCK:   -7.26 KCAL/MOL
REMARK 924 INTRA-LIGAND FREE ENERGY PREDICTED BY IDOCK:   -1.33 KCAL/MOL
REMARK 927      BINDING AFFINITY PREDICTED BY RF-SCORE:    0.00 PKD
ROOT
HETATM    1  C   UNL     1     -12.364  12.002  63.515  1.00  0.00    -0.661 C  
HETATM    2  C   UNL     1     -11.187  11.823  64.505  1.00  0.00    -0.305 C  
HETATM    3  C   UNL     1      -9.926  11.744  63.628  1.00  0.00    -0.404 C  
ENDROOT
BRANCH   2   4
HETATM    4  N   UNL     1     -11.194  12.878  65.574  1.00  0.00    -0.283 NA 
BRANCH   4   5
HETATM    5  C   UNL     1     -11.069  12.257  66.939  1.00  0.00    -0.290 C  
BRANCH   5   6
HETATM    6  C   UNL     1     -10.923  10.722  66.926  1.00  0.00    -0.255 C  
BRANCH   6   7
HETATM    7  C   UNL     1     -10.028  10.052  68.028  1.00  0.00    -0.176 C  
BRANCH   7   8
HETATM    8  C   UNL     1     -10.850  10.012  69.350  1.00  0.00    -0.270 A  
HETATM    9  C   UNL     1     -10.509   9.160  70.417  1.00  0.00    -0.268 A  
HETATM   10  C   UNL     1     -11.221   9.177  71.621  1.00  0.00    -0.447 A  
HETATM   11  C   UNL     1     -11.926  10.901  69.560  1.00  0.00    -0.401 A  
HETATM   12  C   UNL     1     -12.292  10.048  71.790  1.00  0.00    -0.434 A  
HETATM   13  C   UNL     1     -12.647  10.907  70.758  1.00  0.00    -0.470 A  
ENDBRANCH   7   8
BRANCH   7  14
HETATM   14  C   UNL     1      -8.665  10.813  68.138  1.00  0.00    -0.130 C  
HETATM   15  N   UNL     1      -8.011  11.078  66.960  1.00  0.00    -0.131 N  
HETATM   16  H1  UNL     1      -7.123  11.573  67.032  1.00  0.00     0.000 HD 
HETATM   17  O   UNL     1      -8.123  11.151  69.187  1.00  0.00    -0.121 OA 
HETATM   18  H2  UNL     1      -8.395  10.794  66.060  1.00  0.00     0.000 HD 
ENDBRANCH   7  14
BRANCH   7  19
HETATM   19  C   UNL     1      -9.659   8.615  67.537  1.00  0.00    -0.157 A  
HETATM   20  C   UNL     1      -8.904   6.133  66.580  1.00  0.00    -0.134 A  
HETATM   21  N   UNL     1      -8.343   8.260  67.542  1.00  0.00    -0.128 NA 
HETATM   22  C   UNL     1     -10.249   6.475  66.600  1.00  0.00    -0.209 A  
HETATM   23  C   UNL     1      -7.995   7.048  67.064  1.00  0.00    -0.116 A  
HETATM   24  C   UNL     1     -10.640   7.726  67.090  1.00  0.00    -0.401 A  
ENDBRANCH   7  19
ENDBRANCH   6   7
ENDBRANCH   5   6
ENDBRANCH   4   5
BRANCH   4  25
HETATM   25  C   UNL     1     -10.241  14.024  65.401  1.00  0.00    -0.347 C  
HETATM   26  C   UNL     1     -10.836  15.335  64.857  1.00  0.00    -0.444 C  
HETATM   27  C   UNL     1      -9.570  14.427  66.736  1.00  0.00    -0.279 C  
ENDBRANCH   4  25
ENDBRANCH   2   4
TORSDOF 8
ENDMDL
MODEL       72
REMARK 921   NORMALIZED FREE ENERGY PREDICTED BY IDOCK:   -4.68 KCAL/MOL
REMARK 922        TOTAL FREE ENERGY PREDICTED BY IDOCK:   -8.58 KCAL/MOL
REMARK 923 INTER-LIGAND FREE ENERGY PREDICTED BY IDOCK:   -7.06 KCAL/MOL
REMARK 924 INTRA-LIGAND FREE ENERGY PREDICTED BY IDOCK:   -1.52 KCAL/MOL
REMARK 927      BINDING AFFINITY PREDICTED BY RF-SCORE:    0.00 PKD
ROOT
HETATM    1  C   UNL     1     -11.377   6.748  71.030  1.00  0.00    -0.356 C  
HETATM    2  C   UNL     1     -11.636   7.746  72.186  1.00  0.00    -0.317 C  
HETATM    3  C   UNL     1     -10.660   7.339  73.303  1.00  0.00    -0.428 C  
ENDROOT
BRANCH   2   4
HETATM    4  N   UNL     1     -11.560   9.171  71.716  1.00  0.00    -0.371 NA 
BRANCH   4   5
HETATM    5  C   UNL     1     -10.438   9.349  70.729  1.00  0.00    -0.304 C  
BRANCH   5   6
HETATM    6  C   UNL     1     -10.808  10.194  69.494  1.00  0.00    -0.289 C  
BRANCH   6   7
HETATM    7  C   UNL     1      -9.877  10.113  68.233  1.00  0.00    -0.162 C  
BRANCH   7   8
HETATM    8  C   UNL     1      -9.757   8.615  67.825  1.00  0.00    -0.202 A  
HETATM    9  C   UNL     1     -10.885   7.827  67.531  1.00  0.00    -0.182 A  
HETATM   10  C   UNL     1     -10.759   6.500  67.108  1.00  0.00    -0.438 A  
HETATM   11  C   UNL     1      -8.492   8.013  67.649  1.00  0.00    -0.131 A  
HETATM   12  C   UNL     1      -9.500   5.926  66.967  1.00  0.00    -0.134 A  
HETATM   13  C   UNL     1      -8.367   6.682  67.240  1.00  0.00    -0.120 A  
ENDBRANCH   7   8
BRANCH   7  14
HETATM   14  C   UNL     1      -8.510  10.811  68.537  1.00  0.00    -0.143 C  
HETATM   15  N   UNL     1      -8.000  11.621  67.553  1.00  0.00    -0.133 N  
HETATM   16  H1  UNL     1      -7.109  12.076  67.752  1.00  0.00     0.000 HD 
HETATM   17  O   UNL     1      -7.848  10.662  69.561  1.00  0.00    -0.144 OA 
HETATM   18  H2  UNL     1      -8.487  11.760  66.668  1.00  0.00     0.000 HD 
ENDBRANCH   7  14
BRANCH   7  19
HETATM   19  C   UNL     1     -10.532  10.967  67.099  1.00  0.00    -0.237 A  
HETATM   20  C   UNL     1     -11.555  12.506  65.042  1.00  0.00    -0.392 A  
HETATM   21  N   UNL     1     -10.133  10.732  65.816  1.00  0.00    -0.250 NA 
HETATM   22  C   UNL     1     -11.989  12.729  66.340  1.00  0.00    -0.443 A  
HETATM   23  C   UNL     1     -10.639  11.499  64.828  1.00  0.00    -0.305 A  
HETATM   24  C   UNL     1     -11.482  11.950  67.386  1.00  0.00    -0.393 A  
ENDBRANCH   7  19
ENDBRANCH   6   7
ENDBRANCH   5   6
ENDBRANCH   4   5
BRANCH   4  25
HETATM   25  C   UNL     1     -12.833   9.789  71.220  1.00  0.00    -0.377 C  
HETATM   26  C   UNL     1     -14.126   8.992  71.467  1.00  0.00    -0.299 C  
HETATM   27  C   UNL     1     -13.099  11.170  71.868  1.00  0.00    -0.513 C  
ENDBRANCH   4  25
ENDBRANCH   2   4
TORSDOF 8
ENDMDL
MODEL       73
REMARK 921   NORMALIZED FREE ENERGY PREDICTED BY IDOCK:   -4.68 KCAL/MOL
REMARK 922        TOTAL FREE ENERGY PREDICTED BY IDOCK:   -8.58 KCAL/MOL
REMARK 923 INTER-LIGAND FREE ENERGY PREDICTED BY IDOCK:   -6.82 KCAL/MOL
REMARK 924 INTRA-LIGAND FREE ENERGY PREDICTED BY IDOCK:   -1.77 KCAL/MOL
REMARK 927      BINDING AFFINITY PREDICTED BY RF-SCORE:    0.00 PKD
ROOT
HETATM    1  C   UNL     1     -10.635   8.660  67.018  1.00  0.00    -0.293 C  
HETATM    2  C   UNL     1      -9.343   8.384  67.825  1.00  0.00    -0.134 C  
HETATM    3  C   UNL     1      -8.679   7.181  67.135  1.00  0.00    -0.121 C  
ENDROOT
BRANCH   2   4
HETATM    4  N   UNL     1      -8.502   9.621  67.968  1.00  0.00    -0.118 NA 
BRANCH   4   5
HETATM    5  C   UNL     1      -8.984  10.704  67.041  1.00  0.00    -0.137 C  
BRANCH   5   6
HETATM    6  C   UNL     1      -9.019  12.110  67.674  1.00  0.00    -0.178 C  
BRANCH   6   7
HETATM    7  C   UNL     1     -10.297  12.994  67.448  1.00  0.00    -0.234 C  
BRANCH   7   8
HETATM    8  C   UNL     1     -11.137  12.961  68.758  1.00  0.00    -0.305 A  
HETATM    9  C   UNL     1     -11.641  14.133  69.353  1.00  0.00    -0.353 A  
HETATM   10  C   UNL     1     -12.444  14.083  70.496  1.00  0.00    -0.429 A  
HETATM   11  C   UNL     1     -11.501  11.733  69.353  1.00  0.00    -0.371 A  
HETATM   12  C   UNL     1     -12.766  12.860  71.075  1.00  0.00    -0.338 A  
HETATM   13  C   UNL     1     -12.291  11.685  70.505  1.00  0.00    -0.410 A  
ENDBRANCH   7   8
BRANCH   7  14
HETATM   14  C   UNL     1     -11.063  12.502  66.175  1.00  0.00    -0.298 C  
HETATM   15  N   UNL     1     -10.458  12.730  64.965  1.00  0.00    -0.305 N  
HETATM   16  H1  UNL     1     -10.958  12.410  64.136  1.00  0.00     0.000 HD 
HETATM   17  O   UNL     1     -12.169  11.968  66.175  1.00  0.00    -0.552 OA 
HETATM   18  H2  UNL     1      -9.555  13.197  64.898  1.00  0.00     0.000 HD 
ENDBRANCH   7  14
BRANCH   7  19
HETATM   19  C   UNL     1      -9.821  14.444  67.106  1.00  0.00    -0.254 A  
HETATM   20  C   UNL     1      -9.028  16.987  66.364  1.00  0.00    -0.308 A  
HETATM   21  N   UNL     1     -10.701  15.266  66.467  1.00  0.00    -0.308 NA 
HETATM   22  C   UNL     1      -8.138  16.166  67.043  1.00  0.00    -0.245 A  
HETATM   23  C   UNL     1     -10.291  16.500  66.106  1.00  0.00    -0.334 A  
HETATM   24  C   UNL     1      -8.534  14.881  67.428  1.00  0.00    -0.212 A  
ENDBRANCH   7  19
ENDBRANCH   6   7
ENDBRANCH   5   6
ENDBRANCH   4   5
BRANCH   4  25
HETATM   25  C   UNL     1      -8.291  10.140  69.360  1.00  0.00    -0.168 C  
HETATM   26  C   UNL     1      -8.955   9.344  70.497  1.00  0.00    -0.303 C  
HETATM   27  C   UNL     1      -6.792  10.185  69.741  1.00  0.00    -0.105 C  
ENDBRANCH   4  25
ENDBRANCH   2   4
TORSDOF 8
ENDMDL
MODEL       74
REMARK 921   NORMALIZED FREE ENERGY PREDICTED BY IDOCK:   -4.67 KCAL/MOL
REMARK 922        TOTAL FREE ENERGY PREDICTED BY IDOCK:   -8.57 KCAL/MOL
REMARK 923 INTER-LIGAND FREE ENERGY PREDICTED BY IDOCK:   -7.83 KCAL/MOL
REMARK 924 INTRA-LIGAND FREE ENERGY PREDICTED BY IDOCK:   -0.74 KCAL/MOL
REMARK 927      BINDING AFFINITY PREDICTED BY RF-SCORE:    0.00 PKD
ROOT
HETATM    1  C   UNL     1     -12.082  14.130  66.673  1.00  0.00    -0.480 C  
HETATM    2  C   UNL     1     -10.885  13.687  65.795  1.00  0.00    -0.273 C  
HETATM    3  C   UNL     1      -9.684  14.504  66.299  1.00  0.00    -0.330 C  
ENDROOT
BRANCH   2   4
HETATM    4  N   UNL     1     -10.723  12.193  65.789  1.00  0.00    -0.258 NA 
BRANCH   4   5
HETATM    5  C   UNL     1     -11.429  11.575  66.965  1.00  0.00    -0.214 C  
BRANCH   5   6
HETATM    6  C   UNL     1     -10.951  10.151  67.314  1.00  0.00    -0.250 C  
BRANCH   6   7
HETATM    7  C   UNL     1     -10.439   9.878  68.773  1.00  0.00    -0.234 C  
BRANCH   7   8
HETATM    8  C   UNL     1     -11.419  10.574  69.761  1.00  0.00    -0.365 A  
HETATM    9  C   UNL     1     -12.143   9.854  70.730  1.00  0.00    -0.396 A  
HETATM   10  C   UNL     1     -12.974  10.500  71.650  1.00  0.00    -0.581 A  
HETATM   11  C   UNL     1     -11.553  11.980  69.777  1.00  0.00    -0.348 A  
HETATM   12  C   UNL     1     -13.105  11.884  71.626  1.00  0.00    -0.433 A  
HETATM   13  C   UNL     1     -12.396  12.624  70.688  1.00  0.00    -0.375 A  
ENDBRANCH   7   8
BRANCH   7  14
HETATM   14  C   UNL     1      -8.950  10.340  68.907  1.00  0.00    -0.164 C  
HETATM   15  N   UNL     1      -8.387  10.250  70.156  1.00  0.00    -0.313 N  
HETATM   16  H1  UNL     1      -7.417  10.552  70.243  1.00  0.00     0.000 HD 
HETATM   17  O   UNL     1      -8.266  10.807  68.000  1.00  0.00    -0.110 OA 
HETATM   18  H2  UNL     1      -8.913   9.900  70.956  1.00  0.00     0.000 HD 
ENDBRANCH   7  14
BRANCH   7  19
HETATM   19  C   UNL     1     -10.410   8.329  68.988  1.00  0.00    -0.221 A  
HETATM   20  C   UNL     1     -10.217   5.602  69.403  1.00  0.00    -0.315 A  
HETATM   21  N   UNL     1      -9.873   7.859  70.149  1.00  0.00    -0.184 NA 
HETATM   22  C   UNL     1     -10.793   6.074  68.233  1.00  0.00    -0.366 A  
HETATM   23  C   UNL     1      -9.780   6.525  70.329  1.00  0.00    -0.168 A  
HETATM   24  C   UNL     1     -10.902   7.453  68.018  1.00  0.00    -0.127 A  
ENDBRANCH   7  19
ENDBRANCH   6   7
ENDBRANCH   5   6
ENDBRANCH   4   5
BRANCH   4  25
HETATM   25  C   UNL     1     -11.054  11.481  64.511  1.00  0.00    -0.273 C  
HETATM   26  C   UNL     1     -12.196  12.077  63.669  1.00  0.00    -0.642 C  
HETATM   27  C   UNL     1      -9.845  11.431  63.545  1.00  0.00    -0.404 C  
ENDBRANCH   4  25
ENDBRANCH   2   4
TORSDOF 8
ENDMDL
MODEL       75
REMARK 921   NORMALIZED FREE ENERGY PREDICTED BY IDOCK:   -4.67 KCAL/MOL
REMARK 922        TOTAL FREE ENERGY PREDICTED BY IDOCK:   -8.56 KCAL/MOL
REMARK 923 INTER-LIGAND FREE ENERGY PREDICTED BY IDOCK:   -6.76 KCAL/MOL
REMARK 924 INTRA-LIGAND FREE ENERGY PREDICTED BY IDOCK:   -1.79 KCAL/MOL
REMARK 927      BINDING AFFINITY PREDICTED BY RF-SCORE:    0.00 PKD
ROOT
HETATM    1  C   UNL     1      -6.629   8.548  66.933  1.00  0.00    -0.058 C  
HETATM    2  C   UNL     1      -6.957  10.031  66.631  1.00  0.00    -0.087 C  
HETATM    3  C   UNL     1      -6.363  10.306  65.240  1.00  0.00    -0.125 C  
ENDROOT
BRANCH   2   4
HETATM    4  N   UNL     1      -8.421  10.321  66.803  1.00  0.00    -0.123 NA 
BRANCH   4   5
HETATM    5  C   UNL     1      -8.701  11.788  66.617  1.00  0.00    -0.186 C  
BRANCH   5   6
HETATM    6  C   UNL     1      -8.840  12.578  67.934  1.00  0.00    -0.185 C  
BRANCH   6   7
HETATM    7  C   UNL     1     -10.134  13.442  68.149  1.00  0.00    -0.244 C  
BRANCH   7   8
HETATM    8  C   UNL     1     -10.837  13.597  66.769  1.00  0.00    -0.291 A  
HETATM    9  C   UNL     1     -12.093  13.020  66.500  1.00  0.00    -0.410 A  
HETATM   10  C   UNL     1     -12.740  13.218  65.276  1.00  0.00    -0.474 A  
HETATM   11  C   UNL     1     -10.274  14.404  65.757  1.00  0.00    -0.355 A  
HETATM   12  C   UNL     1     -12.149  13.999  64.288  1.00  0.00    -0.476 A  
HETATM   13  C   UNL     1     -10.915  14.589  64.528  1.00  0.00    -0.264 A  
ENDBRANCH   7   8
BRANCH   7  14
HETATM   14  C   UNL     1      -9.759  14.795  68.839  1.00  0.00    -0.215 C  
HETATM   15  N   UNL     1     -10.678  15.810  68.746  1.00  0.00    -0.240 N  
HETATM   16  H1  UNL     1     -10.433  16.692  69.195  1.00  0.00     0.000 HD 
HETATM   17  O   UNL     1      -8.700  15.029  69.417  1.00  0.00    -0.189 OA 
HETATM   18  H2  UNL     1     -11.562  15.688  68.251  1.00  0.00     0.000 HD 
ENDBRANCH   7  14
BRANCH   7  19
HETATM   19  C   UNL     1     -11.044  12.694  69.177  1.00  0.00    -0.195 A  
HETATM   20  C   UNL     1     -12.608  11.467  71.098  1.00  0.00    -0.490 A  
HETATM   21  N   UNL     1     -11.887  13.444  69.941  1.00  0.00    -0.320 NA 
HETATM   22  C   UNL     1     -11.775  10.694  70.303  1.00  0.00    -0.433 A  
HETATM   23  C   UNL     1     -12.636  12.827  70.879  1.00  0.00    -0.255 A  
HETATM   24  C   UNL     1     -10.986  11.306  69.323  1.00  0.00    -0.297 A  
ENDBRANCH   7  19
ENDBRANCH   6   7
ENDBRANCH   5   6
ENDBRANCH   4   5
BRANCH   4  25
HETATM   25  C   UNL     1      -9.376   9.475  66.014  1.00  0.00    -0.216 C  
HETATM   26  C   UNL     1     -10.472   8.748  66.815  1.00  0.00    -0.283 C  
HETATM   27  C   UNL     1     -10.151  10.302  64.960  1.00  0.00    -0.353 C  
ENDBRANCH   4  25
ENDBRANCH   2   4
TORSDOF 8
ENDMDL
MODEL       76
REMARK 921   NORMALIZED FREE ENERGY PREDICTED BY IDOCK:   -4.66 KCAL/MOL
REMARK 922        TOTAL FREE ENERGY PREDICTED BY IDOCK:   -8.55 KCAL/MOL
REMARK 923 INTER-LIGAND FREE ENERGY PREDICTED BY IDOCK:   -7.67 KCAL/MOL
REMARK 924 INTRA-LIGAND FREE ENERGY PREDICTED BY IDOCK:   -0.88 KCAL/MOL
REMARK 927      BINDING AFFINITY PREDICTED BY RF-SCORE:    0.00 PKD
ROOT
HETATM    1  C   UNL     1     -12.900  13.659  65.733  1.00  0.00    -0.390 C  
HETATM    2  C   UNL     1     -12.074  13.842  64.436  1.00  0.00    -0.443 C  
HETATM    3  C   UNL     1     -12.169  15.340  64.099  1.00  0.00    -0.133 C  
ENDROOT
BRANCH   2   4
HETATM    4  N   UNL     1     -10.690  13.274  64.575  1.00  0.00    -0.391 NA 
BRANCH   4   5
HETATM    5  C   UNL     1     -10.123  13.575  65.935  1.00  0.00    -0.303 C  
BRANCH   5   6
HETATM    6  C   UNL     1      -9.483  14.973  66.061  1.00  0.00    -0.337 C  
BRANCH   6   7
HETATM    7  C   UNL     1      -9.470  15.660  67.472  1.00  0.00    -0.214 C  
BRANCH   7   8
HETATM    8  C   UNL     1      -8.035  15.517  68.059  1.00  0.00    -0.138 A  
HETATM    9  C   UNL     1      -6.886  15.835  67.311  1.00  0.00    -0.220 A  
HETATM   10  C   UNL     1      -5.607  15.759  67.871  1.00  0.00    -0.156 A  
HETATM   11  C   UNL     1      -7.839  15.142  69.406  1.00  0.00    -0.208 A  
HETATM   12  C   UNL     1      -5.442  15.363  69.194  1.00  0.00    -0.095 A  
HETATM   13  C   UNL     1      -6.558  15.052  69.960  1.00  0.00    -0.158 A  
ENDBRANCH   7   8
BRANCH   7  14
HETATM   14  C   UNL     1     -10.599  15.049  68.369  1.00  0.00    -0.239 C  
HETATM   15  N   UNL     1     -11.825  15.663  68.319  1.00  0.00    -0.430 N  
HETATM   16  H1  UNL     1     -12.560  15.266  68.903  1.00  0.00     0.000 HD 
HETATM   17  O   UNL     1     -10.462  14.098  69.133  1.00  0.00    -0.217 OA 
HETATM   18  H2  UNL     1     -11.992  16.477  67.727  1.00  0.00     0.000 HD 
ENDBRANCH   7  14
BRANCH   7  19
HETATM   19  C   UNL     1      -9.865  17.160  67.279  1.00  0.00    -0.265 A  
HETATM   20  C   UNL     1     -10.480  19.815  66.814  1.00  0.00    -0.610 A  
HETATM   21  N   UNL     1     -10.308  17.546  66.048  1.00  0.00    -0.489 NA 
HETATM   22  C   UNL     1     -10.061  19.424  68.078  1.00  0.00    -0.516 A  
HETATM   23  C   UNL     1     -10.595  18.848  65.840  1.00  0.00    -0.373 A  
HETATM   24  C   UNL     1      -9.755  18.081  68.323  1.00  0.00    -0.332 A  
ENDBRANCH   7  19
ENDBRANCH   6   7
ENDBRANCH   5   6
ENDBRANCH   4   5
BRANCH   4  25
HETATM   25  C   UNL     1     -10.510  11.830  64.210  1.00  0.00    -0.325 C  
HETATM   26  C   UNL     1      -9.552  11.530  63.043  1.00  0.00    -0.371 C  
HETATM   27  C   UNL     1      -9.955  10.998  65.392  1.00  0.00    -0.313 C  
ENDBRANCH   4  25
ENDBRANCH   2   4
TORSDOF 8
ENDMDL
MODEL       77
REMARK 921   NORMALIZED FREE ENERGY PREDICTED BY IDOCK:   -4.64 KCAL/MOL
REMARK 922        TOTAL FREE ENERGY PREDICTED BY IDOCK:   -8.53 KCAL/MOL
REMARK 923 INTER-LIGAND FREE ENERGY PREDICTED BY IDOCK:   -7.02 KCAL/MOL
REMARK 924 INTRA-LIGAND FREE ENERGY PREDICTED BY IDOCK:   -1.50 KCAL/MOL
REMARK 927      BINDING AFFINITY PREDICTED BY RF-SCORE:    0.00 PKD
ROOT
HETATM    1  C   UNL     1      -7.056  11.809  67.082  1.00  0.00    -0.146 C  
HETATM    2  C   UNL     1      -7.188  10.642  68.092  1.00  0.00    -0.086 C  
HETATM    3  C   UNL     1      -6.567  11.161  69.399  1.00  0.00    -0.109 C  
ENDROOT
BRANCH   2   4
HETATM    4  N   UNL     1      -8.601  10.138  68.176  1.00  0.00    -0.117 NA 
BRANCH   4   5
HETATM    5  C   UNL     1      -9.560  11.135  67.584  1.00  0.00    -0.170 C  
BRANCH   5   6
HETATM    6  C   UNL     1     -10.520  11.775  68.606  1.00  0.00    -0.242 C  
BRANCH   6   7
HETATM    7  C   UNL     1     -11.096  13.202  68.293  1.00  0.00    -0.295 C  
BRANCH   7   8
HETATM    8  C   UNL     1     -11.853  13.699  69.558  1.00  0.00    -0.394 A  
HETATM    9  C   UNL     1     -12.141  15.060  69.771  1.00  0.00    -0.354 A  
HETATM   10  C   UNL     1     -12.874  15.486  70.883  1.00  0.00    -0.535 A  
HETATM   11  C   UNL     1     -12.360  12.782  70.505  1.00  0.00    -0.355 A  
HETATM   12  C   UNL     1     -13.341  14.562  71.812  1.00  0.00    -0.445 A  
HETATM   13  C   UNL     1     -13.081  13.210  71.624  1.00  0.00    -0.444 A  
ENDBRANCH   7   8
BRANCH   7  14
HETATM   14  C   UNL     1     -11.970  13.146  66.996  1.00  0.00    -0.355 C  
HETATM   15  N   UNL     1     -12.620  14.302  66.642  1.00  0.00    -0.495 N  
HETATM   16  H1  UNL     1     -13.190  14.266  65.797  1.00  0.00     0.000 HD 
HETATM   17  O   UNL     1     -12.149  12.149  66.302  1.00  0.00    -0.626 OA 
HETATM   18  H2  UNL     1     -12.537  15.154  67.195  1.00  0.00     0.000 HD 
ENDBRANCH   7  14
BRANCH   7  19
HETATM   19  C   UNL     1      -9.893  14.136  67.938  1.00  0.00    -0.224 A  
HETATM   20  C   UNL     1      -7.746  15.709  67.189  1.00  0.00    -0.258 A  
HETATM   21  N   UNL     1      -9.851  14.667  66.683  1.00  0.00    -0.259 NA 
HETATM   22  C   UNL     1      -7.799  15.197  68.477  1.00  0.00    -0.135 A  
HETATM   23  C   UNL     1      -8.790  15.426  66.335  1.00  0.00    -0.305 A  
HETATM   24  C   UNL     1      -8.886  14.406  68.867  1.00  0.00    -0.067 A  
ENDBRANCH   7  19
ENDBRANCH   6   7
ENDBRANCH   5   6
ENDBRANCH   4   5
BRANCH   4  25
HETATM   25  C   UNL     1      -8.858   8.753  67.660  1.00  0.00    -0.135 C  
HETATM   26  C   UNL     1     -10.206   8.523  66.953  1.00  0.00    -0.375 C  
HETATM   27  C   UNL     1      -7.796   8.314  66.623  1.00  0.00    -0.094 C  
ENDBRANCH   4  25
ENDBRANCH   2   4
TORSDOF 8
ENDMDL
MODEL       78
REMARK 921   NORMALIZED FREE ENERGY PREDICTED BY IDOCK:   -4.64 KCAL/MOL
REMARK 922        TOTAL FREE ENERGY PREDICTED BY IDOCK:   -8.52 KCAL/MOL
REMARK 923 INTER-LIGAND FREE ENERGY PREDICTED BY IDOCK:   -7.13 KCAL/MOL
REMARK 924 INTRA-LIGAND FREE ENERGY PREDICTED BY IDOCK:   -1.39 KCAL/MOL
REMARK 927      BINDING AFFINITY PREDICTED BY RF-SCORE:    0.00 PKD
ROOT
HETATM    1  C   UNL     1     -11.444   9.841  71.251  1.00  0.00    -0.457 C  
HETATM    2  C   UNL     1     -10.294   9.619  70.238  1.00  0.00    -0.280 C  
HETATM    3  C   UNL     1      -9.181   8.915  71.031  1.00  0.00    -0.307 C  
ENDROOT
BRANCH   2   4
HETATM    4  N   UNL     1     -10.775   8.923  68.996  1.00  0.00    -0.176 NA 
BRANCH   4   5
HETATM    5  C   UNL     1     -10.486   9.751  67.774  1.00  0.00    -0.246 C  
BRANCH   5   6
HETATM    6  C   UNL     1     -11.404  10.979  67.609  1.00  0.00    -0.355 C  
BRANCH   6   7
HETATM    7  C   UNL     1     -10.748  12.346  67.202  1.00  0.00    -0.264 C  
BRANCH   7   8
HETATM    8  C   UNL     1     -11.259  13.433  68.193  1.00  0.00    -0.304 A  
HETATM    9  C   UNL     1     -11.271  14.801  67.862  1.00  0.00    -0.318 A  
HETATM   10  C   UNL     1     -11.788  15.759  68.739  1.00  0.00    -0.321 A  
HETATM   11  C   UNL     1     -11.816  13.071  69.439  1.00  0.00    -0.380 A  
HETATM   12  C   UNL     1     -12.308  15.376  69.970  1.00  0.00    -0.368 A  
HETATM   13  C   UNL     1     -12.319  14.032  70.321  1.00  0.00    -0.425 A  
ENDBRANCH   7   8
BRANCH   7  14
HETATM   14  C   UNL     1     -11.049  12.651  65.697  1.00  0.00    -0.292 C  
HETATM   15  N   UNL     1     -10.144  13.444  65.036  1.00  0.00    -0.530 N  
HETATM   16  H1  UNL     1     -10.340  13.643  64.056  1.00  0.00     0.000 HD 
HETATM   17  O   UNL     1     -12.041  12.272  65.080  1.00  0.00    -0.386 OA 
HETATM   18  H2  UNL     1      -9.317  13.816  65.503  1.00  0.00     0.000 HD 
ENDBRANCH   7  14
BRANCH   7  19
HETATM   19  C   UNL     1      -9.196  12.177  67.285  1.00  0.00    -0.185 A  
HETATM   20  C   UNL     1      -6.471  11.731  67.421  1.00  0.00    -0.116 A  
HETATM   21  N   UNL     1      -8.591  11.398  66.344  1.00  0.00    -0.178 NA 
HETATM   22  C   UNL     1      -7.075  12.550  68.364  1.00  0.00    -0.107 A  
HETATM   23  C   UNL     1      -7.262  11.186  66.432  1.00  0.00    -0.094 A  
HETATM   24  C   UNL     1      -8.452  12.786  68.298  1.00  0.00    -0.161 A  
ENDBRANCH   7  19
ENDBRANCH   6   7
ENDBRANCH   5   6
ENDBRANCH   4   5
BRANCH   4  25
HETATM   25  C   UNL     1     -10.346   7.497  68.810  1.00  0.00    -0.200 C  
HETATM   26  C   UNL     1     -11.346   6.416  69.257  1.00  0.00    -0.405 C  
HETATM   27  C   UNL     1     -10.056   7.168  67.326  1.00  0.00    -0.278 C  
ENDBRANCH   4  25
ENDBRANCH   2   4
TORSDOF 8
ENDMDL
MODEL       79
REMARK 921   NORMALIZED FREE ENERGY PREDICTED BY IDOCK:   -4.64 KCAL/MOL
REMARK 922        TOTAL FREE ENERGY PREDICTED BY IDOCK:   -8.51 KCAL/MOL
REMARK 923 INTER-LIGAND FREE ENERGY PREDICTED BY IDOCK:   -7.67 KCAL/MOL
REMARK 924 INTRA-LIGAND FREE ENERGY PREDICTED BY IDOCK:   -0.84 KCAL/MOL
REMARK 927      BINDING AFFINITY PREDICTED BY RF-SCORE:    0.00 PKD
ROOT
HETATM    1  C   UNL     1      -7.655  17.538  68.708  1.00  0.00    -0.258 C  
HETATM    2  C   UNL     1      -8.040  18.319  67.428  1.00  0.00    -0.232 C  
HETATM    3  C   UNL     1      -6.853  18.140  66.468  1.00  0.00    -0.255 C  
ENDROOT
BRANCH   2   4
HETATM    4  N   UNL     1      -9.388  17.905  66.910  1.00  0.00    -0.267 NA 
BRANCH   4   5
HETATM    5  C   UNL     1      -9.779  16.558  67.453  1.00  0.00    -0.246 C  
BRANCH   5   6
HETATM    6  C   UNL     1     -10.080  15.501  66.371  1.00  0.00    -0.301 C  
BRANCH   6   7
HETATM    7  C   UNL     1     -10.336  14.021  66.830  1.00  0.00    -0.271 C  
BRANCH   7   8
HETATM    8  C   UNL     1     -11.024  13.270  65.652  1.00  0.00    -0.292 A  
HETATM    9  C   UNL     1     -12.408  13.016  65.633  1.00  0.00    -0.504 A  
HETATM   10  C   UNL     1     -13.020  12.394  64.541  1.00  0.00    -0.165 A  
HETATM   11  C   UNL     1     -10.287  12.890  64.509  1.00  0.00    -0.380 A  
HETATM   12  C   UNL     1     -12.266  12.008  63.438  1.00  0.00    -0.627 A  
HETATM   13  C   UNL     1     -10.899  12.253  63.424  1.00  0.00    -0.457 A  
ENDBRANCH   7   8
BRANCH   7  14
HETATM   14  C   UNL     1     -11.153  14.014  68.165  1.00  0.00    -0.260 C  
HETATM   15  N   UNL     1     -10.893  12.989  69.040  1.00  0.00    -0.398 N  
HETATM   16  H1  UNL     1     -11.426  12.984  69.910  1.00  0.00     0.000 HD 
HETATM   17  O   UNL     1     -12.025  14.824  68.469  1.00  0.00    -0.309 OA 
HETATM   18  H2  UNL     1     -10.204  12.268  68.830  1.00  0.00     0.000 HD 
ENDBRANCH   7  14
BRANCH   7  19
HETATM   19  C   UNL     1      -8.954  13.385  67.189  1.00  0.00    -0.226 A  
HETATM   20  C   UNL     1      -6.576  12.188  67.935  1.00  0.00    -0.085 A  
HETATM   21  N   UNL     1      -8.905  12.034  67.367  1.00  0.00    -0.171 NA 
HETATM   22  C   UNL     1      -6.612  13.559  67.724  1.00  0.00    -0.175 A  
HETATM   23  C   UNL     1      -7.736  11.471  67.739  1.00  0.00    -0.124 A  
HETATM   24  C   UNL     1      -7.810  14.171  67.339  1.00  0.00    -0.195 A  
ENDBRANCH   7  19
ENDBRANCH   6   7
ENDBRANCH   5   6
ENDBRANCH   4   5
BRANCH   4  25
HETATM   25  C   UNL     1     -10.503  18.900  67.051  1.00  0.00    -0.428 C  
HETATM   26  C   UNL     1     -10.387  19.900  68.215  1.00  0.00    -0.526 C  
HETATM   27  C   UNL     1     -10.651  19.786  65.790  1.00  0.00    -0.522 C  
ENDBRANCH   4  25
ENDBRANCH   2   4
TORSDOF 8
ENDMDL
MODEL       80
REMARK 921   NORMALIZED FREE ENERGY PREDICTED BY IDOCK:   -4.63 KCAL/MOL
REMARK 922        TOTAL FREE ENERGY PREDICTED BY IDOCK:   -8.50 KCAL/MOL
REMARK 923 INTER-LIGAND FREE ENERGY PREDICTED BY IDOCK:   -7.48 KCAL/MOL
REMARK 924 INTRA-LIGAND FREE ENERGY PREDICTED BY IDOCK:   -1.02 KCAL/MOL
REMARK 927      BINDING AFFINITY PREDICTED BY RF-SCORE:    0.00 PKD
ROOT
HETATM    1  C   UNL     1     -10.793   6.369  66.935  1.00  0.00    -0.428 C  
HETATM    2  C   UNL     1      -9.361   6.822  66.560  1.00  0.00    -0.161 C  
HETATM    3  C   UNL     1      -8.853   5.777  65.553  1.00  0.00    -0.119 C  
ENDROOT
BRANCH   2   4
HETATM    4  N   UNL     1      -9.332   8.255  66.110  1.00  0.00    -0.204 NA 
BRANCH   4   5
HETATM    5  C   UNL     1      -9.347   9.187  67.292  1.00  0.00    -0.135 C  
BRANCH   5   6
HETATM    6  C   UNL     1     -10.670   9.958  67.474  1.00  0.00    -0.333 C  
BRANCH   6   7
HETATM    7  C   UNL     1     -10.600  11.513  67.680  1.00  0.00    -0.235 C  
BRANCH   7   8
HETATM    8  C   UNL     1     -11.273  12.188  66.449  1.00  0.00    -0.380 A  
HETATM    9  C   UNL     1     -11.977  13.402  66.553  1.00  0.00    -0.452 A  
HETATM   10  C   UNL     1     -12.525  14.027  65.429  1.00  0.00    -0.520 A  
HETATM   11  C   UNL     1     -11.126  11.643  65.155  1.00  0.00    -0.300 A  
HETATM   12  C   UNL     1     -12.384  13.454  64.169  1.00  0.00    -0.395 A  
HETATM   13  C   UNL     1     -11.687  12.260  64.033  1.00  0.00    -0.506 A  
ENDBRANCH   7   8
BRANCH   7  14
HETATM   14  C   UNL     1      -9.118  11.949  67.926  1.00  0.00    -0.183 C  
HETATM   15  N   UNL     1      -8.553  11.569  69.118  1.00  0.00    -0.367 N  
HETATM   16  H1  UNL     1      -7.587  11.854  69.278  1.00  0.00     0.000 HD 
HETATM   17  O   UNL     1      -8.441  12.630  67.160  1.00  0.00    -0.184 OA 
HETATM   18  H2  UNL     1      -9.074  11.030  69.809  1.00  0.00     0.000 HD 
ENDBRANCH   7  14
BRANCH   7  19
HETATM   19  C   UNL     1     -11.355  11.854  69.006  1.00  0.00    -0.279 A  
HETATM   20  C   UNL     1     -12.796  12.366  71.310  1.00  0.00    -0.337 A  
HETATM   21  N   UNL     1     -11.814  10.815  69.761  1.00  0.00    -0.312 NA 
HETATM   22  C   UNL     1     -12.305  13.427  70.564  1.00  0.00    -0.401 A  
HETATM   23  C   UNL     1     -12.522  11.086  70.877  1.00  0.00    -0.410 A  
HETATM   24  C   UNL     1     -11.568  13.177  69.401  1.00  0.00    -0.360 A  
ENDBRANCH   7  19
ENDBRANCH   6   7
ENDBRANCH   5   6
ENDBRANCH   4   5
BRANCH   4  25
HETATM   25  C   UNL     1      -8.267   8.634  65.124  1.00  0.00    -0.151 C  
HETATM   26  C   UNL     1      -8.740   9.343  63.841  1.00  0.00    -0.225 C  
HETATM   27  C   UNL     1      -7.224   9.599  65.738  1.00  0.00    -0.100 C  
ENDBRANCH   4  25
ENDBRANCH   2   4
TORSDOF 8
ENDMDL
MODEL       81
REMARK 921   NORMALIZED FREE ENERGY PREDICTED BY IDOCK:   -4.62 KCAL/MOL
REMARK 922        TOTAL FREE ENERGY PREDICTED BY IDOCK:   -8.49 KCAL/MOL
REMARK 923 INTER-LIGAND FREE ENERGY PREDICTED BY IDOCK:   -7.33 KCAL/MOL
REMARK 924 INTRA-LIGAND FREE ENERGY PREDICTED BY IDOCK:   -1.16 KCAL/MOL
REMARK 927      BINDING AFFINITY PREDICTED BY RF-SCORE:    0.00 PKD
ROOT
HETATM    1  C   UNL     1     -13.035  11.948  71.622  1.00  0.00    -0.447 C  
HETATM    2  C   UNL     1     -12.289  10.727  71.031  1.00  0.00    -0.404 C  
HETATM    3  C   UNL     1     -13.207   9.522  71.292  1.00  0.00    -0.400 C  
ENDROOT
BRANCH   2   4
HETATM    4  N   UNL     1     -11.883  10.962  69.604  1.00  0.00    -0.318 NA 
BRANCH   4   5
HETATM    5  C   UNL     1     -12.020  12.416  69.242  1.00  0.00    -0.253 C  
BRANCH   5   6
HETATM    6  C   UNL     1     -10.693  13.201  69.257  1.00  0.00     0.022 C  
BRANCH   6   7
HETATM    7  C   UNL     1     -10.421  14.222  68.096  1.00  0.00    -0.246 C  
BRANCH   7   8
HETATM    8  C   UNL     1      -8.879  14.400  67.970  1.00  0.00    -0.178 A  
HETATM    9  C   UNL     1      -8.306  15.479  67.272  1.00  0.00    -0.218 A  
HETATM   10  C   UNL     1      -6.920  15.659  67.217  1.00  0.00    -0.224 A  
HETATM   11  C   UNL     1      -7.993  13.523  68.632  1.00  0.00    -0.073 A  
HETATM   12  C   UNL     1      -6.070  14.765  67.860  1.00  0.00    -0.167 A  
HETATM   13  C   UNL     1      -6.607  13.696  68.565  1.00  0.00    -0.088 A  
ENDBRANCH   7   8
BRANCH   7  14
HETATM   14  C   UNL     1     -11.205  15.550  68.364  1.00  0.00    -0.341 C  
HETATM   15  N   UNL     1     -12.195  15.499  69.313  1.00  0.00    -0.590 N  
HETATM   16  H1  UNL     1     -12.706  16.364  69.488  1.00  0.00     0.000 HD 
HETATM   17  O   UNL     1     -11.031  16.610  67.770  1.00  0.00    -0.320 OA 
HETATM   18  H2  UNL     1     -12.409  14.640  69.818  1.00  0.00     0.000 HD 
ENDBRANCH   7  14
BRANCH   7  19
HETATM   19  C   UNL     1     -11.041  13.635  66.787  1.00  0.00    -0.307 A  
HETATM   20  C   UNL     1     -12.259  12.565  64.547  1.00  0.00    -0.528 A  
HETATM   21  N   UNL     1     -12.291  14.049  66.435  1.00  0.00    -0.461 NA 
HETATM   22  C   UNL     1     -10.974  12.163  64.881  1.00  0.00    -0.355 A  
HETATM   23  C   UNL     1     -12.871  13.509  65.343  1.00  0.00    -0.363 A  
HETATM   24  C   UNL     1     -10.348  12.705  66.009  1.00  0.00    -0.287 A  
ENDBRANCH   7  19
ENDBRANCH   6   7
ENDBRANCH   5   6
ENDBRANCH   4   5
BRANCH   4  25
HETATM   25  C   UNL     1     -10.554  10.411  69.178  1.00  0.00    -0.228 C  
HETATM   26  C   UNL     1      -9.743   9.667  70.253  1.00  0.00    -0.314 C  
HETATM   27  C   UNL     1     -10.692   9.392  68.021  1.00  0.00    -0.246 C  
ENDBRANCH   4  25
ENDBRANCH   2   4
TORSDOF 8
ENDMDL
MODEL       82
REMARK 921   NORMALIZED FREE ENERGY PREDICTED BY IDOCK:   -4.61 KCAL/MOL
REMARK 922        TOTAL FREE ENERGY PREDICTED BY IDOCK:   -8.47 KCAL/MOL
REMARK 923 INTER-LIGAND FREE ENERGY PREDICTED BY IDOCK:   -7.65 KCAL/MOL
REMARK 924 INTRA-LIGAND FREE ENERGY PREDICTED BY IDOCK:   -0.83 KCAL/MOL
REMARK 927      BINDING AFFINITY PREDICTED BY RF-SCORE:    0.00 PKD
ROOT
HETATM    1  C   UNL     1     -12.661  11.526  71.190  1.00  0.00    -0.458 C  
HETATM    2  C   UNL     1     -12.178  10.082  71.473  1.00  0.00    -0.405 C  
HETATM    3  C   UNL     1     -13.414   9.335  72.002  1.00  0.00    -0.519 C  
ENDROOT
BRANCH   2   4
HETATM    4  N   UNL     1     -11.495   9.481  70.277  1.00  0.00    -0.237 NA 
BRANCH   4   5
HETATM    5  C   UNL     1     -10.999  10.556  69.349  1.00  0.00    -0.250 C  
BRANCH   5   6
HETATM    6  C   UNL     1     -11.390  10.348  67.872  1.00  0.00    -0.248 C  
BRANCH   6   7
HETATM    7  C   UNL     1     -10.284  10.548  66.776  1.00  0.00    -0.288 C  
BRANCH   7   8
HETATM    8  C   UNL     1     -10.870  11.473  65.670  1.00  0.00    -0.310 A  
HETATM    9  C   UNL     1     -10.434  11.410  64.333  1.00  0.00    -0.388 A  
HETATM   10  C   UNL     1     -11.012  12.206  63.339  1.00  0.00    -0.480 A  
HETATM   11  C   UNL     1     -11.934  12.357  65.955  1.00  0.00    -0.419 A  
HETATM   12  C   UNL     1     -12.042  13.085  63.654  1.00  0.00    -0.604 A  
HETATM   13  C   UNL     1     -12.500  13.163  64.963  1.00  0.00    -0.516 A  
ENDBRANCH   7   8
BRANCH   7  14
HETATM   14  C   UNL     1      -9.792   9.154  66.259  1.00  0.00    -0.289 C  
HETATM   15  N   UNL     1     -10.482   8.054  66.705  1.00  0.00    -0.448 N  
HETATM   16  H1  UNL     1     -10.161   7.146  66.368  1.00  0.00     0.000 HD 
HETATM   17  O   UNL     1      -8.824   8.969  65.526  1.00  0.00    -0.172 OA 
HETATM   18  H2  UNL     1     -11.275   8.140  67.340  1.00  0.00     0.000 HD 
ENDBRANCH   7  14
BRANCH   7  19
HETATM   19  C   UNL     1      -9.038  11.194  67.465  1.00  0.00    -0.146 A  
HETATM   20  C   UNL     1      -6.803  12.402  68.556  1.00  0.00    -0.082 A  
HETATM   21  N   UNL     1      -8.857  12.537  67.319  1.00  0.00    -0.187 NA 
HETATM   22  C   UNL     1      -6.997  11.040  68.735  1.00  0.00    -0.081 A  
HETATM   23  C   UNL     1      -7.756  13.106  67.852  1.00  0.00    -0.147 A  
HETATM   24  C   UNL     1      -8.129  10.422  68.193  1.00  0.00    -0.111 A  
ENDBRANCH   7  19
ENDBRANCH   6   7
ENDBRANCH   5   6
ENDBRANCH   4   5
BRANCH   4  25
HETATM   25  C   UNL     1     -10.434   8.455  70.548  1.00  0.00    -0.207 C  
HETATM   26  C   UNL     1      -9.803   8.474  71.952  1.00  0.00    -0.358 C  
HETATM   27  C   UNL     1     -10.967   7.011  70.381  1.00  0.00    -0.301 C  
ENDBRANCH   4  25
ENDBRANCH   2   4
TORSDOF 8
ENDMDL
MODEL       83
REMARK 921   NORMALIZED FREE ENERGY PREDICTED BY IDOCK:   -4.60 KCAL/MOL
REMARK 922        TOTAL FREE ENERGY PREDICTED BY IDOCK:   -8.47 KCAL/MOL
REMARK 923 INTER-LIGAND FREE ENERGY PREDICTED BY IDOCK:   -7.17 KCAL/MOL
REMARK 924 INTRA-LIGAND FREE ENERGY PREDICTED BY IDOCK:   -1.29 KCAL/MOL
REMARK 927      BINDING AFFINITY PREDICTED BY RF-SCORE:    0.00 PKD
ROOT
HETATM    1  C   UNL     1      -9.479   8.764  69.092  1.00  0.00    -0.157 C  
HETATM    2  C   UNL     1      -9.168   8.519  67.594  1.00  0.00    -0.134 C  
HETATM    3  C   UNL     1     -10.238   7.526  67.112  1.00  0.00    -0.350 C  
ENDROOT
BRANCH   2   4
HETATM    4  N   UNL     1      -9.060   9.809  66.832  1.00  0.00    -0.141 NA 
BRANCH   4   5
HETATM    5  C   UNL     1      -9.783  10.916  67.550  1.00  0.00    -0.167 C  
BRANCH   5   6
HETATM    6  C   UNL     1      -9.078  12.285  67.477  1.00  0.00    -0.182 C  
BRANCH   6   7
HETATM    7  C   UNL     1      -9.912  13.526  66.997  1.00  0.00    -0.247 C  
BRANCH   7   8
HETATM    8  C   UNL     1     -10.737  13.092  65.750  1.00  0.00    -0.291 A  
HETATM    9  C   UNL     1     -10.122  12.646  64.565  1.00  0.00    -0.271 A  
HETATM   10  C   UNL     1     -10.877  12.203  63.474  1.00  0.00    -0.518 A  
HETATM   11  C   UNL     1     -12.147  13.047  65.796  1.00  0.00    -0.510 A  
HETATM   12  C   UNL     1     -12.266  12.193  63.539  1.00  0.00    -0.670 A  
HETATM   13  C   UNL     1     -12.901  12.618  64.699  1.00  0.00    -0.361 A  
ENDBRANCH   7   8
BRANCH   7  14
HETATM   14  C   UNL     1      -8.958  14.742  66.750  1.00  0.00    -0.266 C  
HETATM   15  N   UNL     1      -9.446  15.758  65.966  1.00  0.00    -0.339 N  
HETATM   16  H1  UNL     1      -8.824  16.550  65.805  1.00  0.00     0.000 HD 
HETATM   17  O   UNL     1      -7.806  14.837  67.165  1.00  0.00    -0.200 OA 
HETATM   18  H2  UNL     1     -10.383  15.722  65.566  1.00  0.00     0.000 HD 
ENDBRANCH   7  14
BRANCH   7  19
HETATM   19  C   UNL     1     -10.840  13.964  68.176  1.00  0.00    -0.249 A  
HETATM   20  C   UNL     1     -12.385  14.845  70.294  1.00  0.00    -0.393 A  
HETATM   21  N   UNL     1     -11.152  15.287  68.280  1.00  0.00    -0.286 NA 
HETATM   22  C   UNL     1     -12.097  13.493  70.176  1.00  0.00    -0.425 A  
HETATM   23  C   UNL     1     -11.901  15.697  69.325  1.00  0.00    -0.363 A  
HETATM   24  C   UNL     1     -11.322  13.038  69.103  1.00  0.00    -0.328 A  
ENDBRANCH   7  19
ENDBRANCH   6   7
ENDBRANCH   5   6
ENDBRANCH   4   5
BRANCH   4  25
HETATM   25  C   UNL     1      -7.684  10.233  66.409  1.00  0.00    -0.116 C  
HETATM   26  C   UNL     1      -6.508   9.634  67.201  1.00  0.00    -0.070 C  
HETATM   27  C   UNL     1      -7.390   9.862  64.936  1.00  0.00    -0.136 C  
ENDBRANCH   4  25
ENDBRANCH   2   4
TORSDOF 8
ENDMDL
MODEL       84
REMARK 921   NORMALIZED FREE ENERGY PREDICTED BY IDOCK:   -4.59 KCAL/MOL
REMARK 922        TOTAL FREE ENERGY PREDICTED BY IDOCK:   -8.44 KCAL/MOL
REMARK 923 INTER-LIGAND FREE ENERGY PREDICTED BY IDOCK:   -7.01 KCAL/MOL
REMARK 924 INTRA-LIGAND FREE ENERGY PREDICTED BY IDOCK:   -1.44 KCAL/MOL
REMARK 927      BINDING AFFINITY PREDICTED BY RF-SCORE:    0.00 PKD
ROOT
HETATM    1  C   UNL     1     -11.029  15.754  66.842  1.00  0.00    -0.207 C  
HETATM    2  C   UNL     1     -10.124  16.107  68.048  1.00  0.00    -0.242 C  
HETATM    3  C   UNL     1     -11.079  16.265  69.242  1.00  0.00    -0.325 C  
ENDROOT
BRANCH   2   4
HETATM    4  N   UNL     1      -9.005  15.117  68.210  1.00  0.00    -0.170 NA 
BRANCH   4   5
HETATM    5  C   UNL     1      -9.071  14.057  67.145  1.00  0.00    -0.232 C  
BRANCH   5   6
HETATM    6  C   UNL     1      -8.990  12.614  67.682  1.00  0.00    -0.186 C  
BRANCH   6   7
HETATM    7  C   UNL     1     -10.187  11.643  67.385  1.00  0.00    -0.226 C  
BRANCH   7   8
HETATM    8  C   UNL     1     -10.723  11.969  65.961  1.00  0.00    -0.317 A  
HETATM    9  C   UNL     1      -9.972  11.706  64.800  1.00  0.00    -0.292 A  
HETATM   10  C   UNL     1     -10.490  11.948  63.524  1.00  0.00    -0.505 A  
HETATM   11  C   UNL     1     -12.032  12.464  65.776  1.00  0.00    -0.437 A  
HETATM   12  C   UNL     1     -11.775  12.460  63.374  1.00  0.00    -0.554 A  
HETATM   13  C   UNL     1     -12.544  12.720  64.501  1.00  0.00    -0.463 A  
ENDBRANCH   7   8
BRANCH   7  14
HETATM   14  C   UNL     1     -11.257  11.760  68.521  1.00  0.00    -0.252 C  
HETATM   15  N   UNL     1     -11.030  12.708  69.487  1.00  0.00    -0.452 N  
HETATM   16  H1  UNL     1     -11.727  12.784  70.227  1.00  0.00     0.000 HD 
HETATM   17  O   UNL     1     -12.253  11.050  68.635  1.00  0.00    -0.571 OA 
HETATM   18  H2  UNL     1     -10.204  13.307  69.465  1.00  0.00     0.000 HD 
ENDBRANCH   7  14
BRANCH   7  19
HETATM   19  C   UNL     1      -9.650  10.178  67.476  1.00  0.00    -0.156 A  
HETATM   20  C   UNL     1      -8.831   7.545  67.687  1.00  0.00    -0.128 A  
HETATM   21  N   UNL     1     -10.407   9.188  66.923  1.00  0.00    -0.260 NA 
HETATM   22  C   UNL     1      -8.039   8.550  68.224  1.00  0.00    -0.119 A  
HETATM   23  C   UNL     1      -9.994   7.909  67.044  1.00  0.00    -0.252 A  
HETATM   24  C   UNL     1      -8.443   9.885  68.115  1.00  0.00    -0.114 A  
ENDBRANCH   7  19
ENDBRANCH   6   7
ENDBRANCH   5   6
ENDBRANCH   4   5
BRANCH   4  25
HETATM   25  C   UNL     1      -7.620  15.677  68.346  1.00  0.00    -0.121 C  
HETATM   26  C   UNL     1      -7.508  17.206  68.488  1.00  0.00    -0.238 C  
HETATM   27  C   UNL     1      -6.887  15.117  69.589  1.00  0.00    -0.188 C  
ENDBRANCH   4  25
ENDBRANCH   2   4
TORSDOF 8
ENDMDL
MODEL       85
REMARK 921   NORMALIZED FREE ENERGY PREDICTED BY IDOCK:   -4.56 KCAL/MOL
REMARK 922        TOTAL FREE ENERGY PREDICTED BY IDOCK:   -8.41 KCAL/MOL
REMARK 923 INTER-LIGAND FREE ENERGY PREDICTED BY IDOCK:   -7.12 KCAL/MOL
REMARK 924 INTRA-LIGAND FREE ENERGY PREDICTED BY IDOCK:   -1.29 KCAL/MOL
REMARK 927      BINDING AFFINITY PREDICTED BY RF-SCORE:    0.00 PKD
ROOT
HETATM    1  C   UNL     1      -9.640   7.752  66.530  1.00  0.00    -0.270 C  
HETATM    2  C   UNL     1      -9.032   9.129  66.167  1.00  0.00    -0.173 C  
HETATM    3  C   UNL     1      -7.516   8.890  66.060  1.00  0.00    -0.090 C  
ENDROOT
BRANCH   2   4
HETATM    4  N   UNL     1      -9.701   9.732  64.965  1.00  0.00    -0.285 NA 
BRANCH   4   5
HETATM    5  C   UNL     1     -10.594  10.873  65.367  1.00  0.00    -0.173 C  
BRANCH   5   6
HETATM    6  C   UNL     1     -10.707  11.084  66.890  1.00  0.00    -0.325 C  
BRANCH   6   7
HETATM    7  C   UNL     1     -10.535  12.540  67.452  1.00  0.00    -0.231 C  
BRANCH   7   8
HETATM    8  C   UNL     1     -11.031  13.534  66.362  1.00  0.00    -0.297 A  
HETATM    9  C   UNL     1     -12.327  13.463  65.819  1.00  0.00    -0.513 A  
HETATM   10  C   UNL     1     -12.779  14.400  64.884  1.00  0.00    -0.191 A  
HETATM   11  C   UNL     1     -10.218  14.608  65.938  1.00  0.00    -0.344 A  
HETATM   12  C   UNL     1     -11.947  15.433  64.467  1.00  0.00    -0.226 A  
HETATM   13  C   UNL     1     -10.665  15.535  64.992  1.00  0.00    -0.463 A  
ENDBRANCH   7   8
BRANCH   7  14
HETATM   14  C   UNL     1      -9.052  12.762  67.902  1.00  0.00    -0.204 C  
HETATM   15  N   UNL     1      -8.810  13.842  68.714  1.00  0.00    -0.364 N  
HETATM   16  H1  UNL     1      -7.844  13.987  69.007  1.00  0.00     0.000 HD 
HETATM   17  O   UNL     1      -8.095  12.074  67.558  1.00  0.00    -0.141 OA 
HETATM   18  H2  UNL     1      -9.558  14.469  69.008  1.00  0.00     0.000 HD 
ENDBRANCH   7  14
BRANCH   7  19
HETATM   19  C   UNL     1     -11.383  12.651  68.760  1.00  0.00    -0.289 A  
HETATM   20  C   UNL     1     -12.790  12.952  71.122  1.00  0.00    -0.326 A  
HETATM   21  N   UNL     1     -11.757  13.897  69.170  1.00  0.00    -0.313 NA 
HETATM   22  C   UNL     1     -12.440  11.679  70.694  1.00  0.00    -0.386 A  
HETATM   23  C   UNL     1     -12.436  14.022  70.330  1.00  0.00    -0.338 A  
HETATM   24  C   UNL     1     -11.735  11.518  69.497  1.00  0.00    -0.413 A  
ENDBRANCH   7  19
ENDBRANCH   6   7
ENDBRANCH   5   6
ENDBRANCH   4   5
BRANCH   4  25
HETATM   25  C   UNL     1      -8.815  10.104  63.812  1.00  0.00    -0.229 C  
HETATM   26  C   UNL     1      -8.631   9.040  62.716  1.00  0.00    -0.191 C  
HETATM   27  C   UNL     1      -9.338  11.351  63.059  1.00  0.00    -0.344 C  
ENDBRANCH   4  25
ENDBRANCH   2   4
TORSDOF 8
ENDMDL
MODEL       86
REMARK 921   NORMALIZED FREE ENERGY PREDICTED BY IDOCK:   -4.55 KCAL/MOL
REMARK 922        TOTAL FREE ENERGY PREDICTED BY IDOCK:   -8.39 KCAL/MOL
REMARK 923 INTER-LIGAND FREE ENERGY PREDICTED BY IDOCK:   -6.90 KCAL/MOL
REMARK 924 INTRA-LIGAND FREE ENERGY PREDICTED BY IDOCK:   -1.49 KCAL/MOL
REMARK 927      BINDING AFFINITY PREDICTED BY RF-SCORE:    0.00 PKD
ROOT
HETATM    1  C   UNL     1      -8.043  10.680  66.132  1.00  0.00    -0.154 C  
HETATM    2  C   UNL     1      -9.352  11.429  65.781  1.00  0.00    -0.228 C  
HETATM    3  C   UNL     1     -10.112  10.496  64.824  1.00  0.00    -0.406 C  
ENDROOT
BRANCH   2   4
HETATM    4  N   UNL     1     -10.089  11.868  67.015  1.00  0.00    -0.204 NA 
BRANCH   4   5
HETATM    5  C   UNL     1      -9.412  11.349  68.254  1.00  0.00    -0.187 C  
BRANCH   5   6
HETATM    6  C   UNL     1     -10.381  10.827  69.334  1.00  0.00    -0.207 C  
BRANCH   6   7
HETATM    7  C   UNL     1     -10.109   9.410  69.953  1.00  0.00    -0.243 C  
BRANCH   7   8
HETATM    8  C   UNL     1     -11.381   8.984  70.744  1.00  0.00    -0.329 A  
HETATM    9  C   UNL     1     -12.262   9.925  71.308  1.00  0.00    -0.480 A  
HETATM   10  C   UNL     1     -13.431   9.529  71.964  1.00  0.00    -0.522 A  
HETATM   11  C   UNL     1     -11.745   7.624  70.848  1.00  0.00    -0.291 A  
HETATM   12  C   UNL     1     -13.752   8.180  72.073  1.00  0.00    -0.347 A  
HETATM   13  C   UNL     1     -12.907   7.228  71.518  1.00  0.00    -0.430 A  
ENDBRANCH   7   8
BRANCH   7  14
HETATM   14  C   UNL     1      -8.799   9.448  70.808  1.00  0.00    -0.171 C  
HETATM   15  N   UNL     1      -7.742  10.151  70.285  1.00  0.00    -0.277 N  
HETATM   16  H1  UNL     1      -6.889  10.175  70.842  1.00  0.00     0.000 HD 
HETATM   17  O   UNL     1      -8.633   8.872  71.880  1.00  0.00    -0.347 OA 
HETATM   18  H2  UNL     1      -7.808  10.624  69.384  1.00  0.00     0.000 HD 
ENDBRANCH   7  14
BRANCH   7  19
HETATM   19  C   UNL     1      -9.806   8.425  68.779  1.00  0.00    -0.173 A  
HETATM   20  C   UNL     1      -9.141   6.752  66.679  1.00  0.00    -0.164 A  
HETATM   21  N   UNL     1      -8.586   7.815  68.761  1.00  0.00    -0.129 NA 
HETATM   22  C   UNL     1     -10.395   7.345  66.708  1.00  0.00    -0.321 A  
HETATM   23  C   UNL     1      -8.278   7.009  67.723  1.00  0.00    -0.114 A  
HETATM   24  C   UNL     1     -10.742   8.186  67.770  1.00  0.00    -0.166 A  
ENDBRANCH   7  19
ENDBRANCH   6   7
ENDBRANCH   5   6
ENDBRANCH   4   5
BRANCH   4  25
HETATM   25  C   UNL     1     -10.406  13.329  67.131  1.00  0.00    -0.248 C  
HETATM   26  C   UNL     1      -9.903  14.234  65.992  1.00  0.00    -0.336 C  
HETATM   27  C   UNL     1     -11.931  13.590  67.188  1.00  0.00    -0.426 C  
ENDBRANCH   4  25
ENDBRANCH   2   4
TORSDOF 8
ENDMDL
MODEL       87
REMARK 921   NORMALIZED FREE ENERGY PREDICTED BY IDOCK:   -4.55 KCAL/MOL
REMARK 922        TOTAL FREE ENERGY PREDICTED BY IDOCK:   -8.39 KCAL/MOL
REMARK 923 INTER-LIGAND FREE ENERGY PREDICTED BY IDOCK:   -7.50 KCAL/MOL
REMARK 924 INTRA-LIGAND FREE ENERGY PREDICTED BY IDOCK:   -0.89 KCAL/MOL
REMARK 927      BINDING AFFINITY PREDICTED BY RF-SCORE:    0.00 PKD
ROOT
HETATM    1  C   UNL     1      -7.082  18.353  67.619  1.00  0.00    -0.210 C  
HETATM    2  C   UNL     1      -6.948  16.815  67.486  1.00  0.00    -0.143 C  
HETATM    3  C   UNL     1      -5.593  16.582  66.797  1.00  0.00     0.069 C  
ENDROOT
BRANCH   2   4
HETATM    4  N   UNL     1      -7.158  16.124  68.803  1.00  0.00    -0.145 NA 
BRANCH   4   5
HETATM    5  C   UNL     1      -8.258  15.102  68.701  1.00  0.00    -0.154 C  
BRANCH   5   6
HETATM    6  C   UNL     1      -8.885  14.984  67.297  1.00  0.00    -0.216 C  
BRANCH   6   7
HETATM    7  C   UNL     1     -10.395  15.377  67.123  1.00  0.00    -0.271 C  
BRANCH   7   8
HETATM    8  C   UNL     1     -11.184  14.779  68.324  1.00  0.00    -0.299 A  
HETATM    9  C   UNL     1     -11.228  13.395  68.576  1.00  0.00    -0.316 A  
HETATM   10  C   UNL     1     -11.891  12.877  69.693  1.00  0.00    -0.387 A  
HETATM   11  C   UNL     1     -11.818  15.621  69.264  1.00  0.00    -0.378 A  
HETATM   12  C   UNL     1     -12.528  13.730  70.589  1.00  0.00    -0.429 A  
HETATM   13  C   UNL     1     -12.494  15.101  70.372  1.00  0.00    -0.416 A  
ENDBRANCH   7   8
BRANCH   7  14
HETATM   14  C   UNL     1     -10.904  14.910  65.719  1.00  0.00    -0.339 C  
HETATM   15  N   UNL     1      -9.958  14.775  64.734  1.00  0.00    -0.458 N  
HETATM   16  H1  UNL     1     -10.290  14.472  63.819  1.00  0.00     0.000 HD 
HETATM   17  O   UNL     1     -12.077  14.697  65.424  1.00  0.00    -0.333 OA 
HETATM   18  H2  UNL     1      -8.972  14.969  64.908  1.00  0.00     0.000 HD 
ENDBRANCH   7  14
BRANCH   7  19
HETATM   19  C   UNL     1     -10.484  16.937  67.096  1.00  0.00    -0.296 A  
HETATM   20  C   UNL     1     -10.529  19.698  66.953  1.00  0.00    -0.606 A  
HETATM   21  N   UNL     1     -10.519  17.550  65.879  1.00  0.00    -0.504 NA 
HETATM   22  C   UNL     1     -10.525  19.080  68.195  1.00  0.00    -0.402 A  
HETATM   23  C   UNL     1     -10.532  18.898  65.830  1.00  0.00    -0.391 A  
HETATM   24  C   UNL     1     -10.510  17.683  68.276  1.00  0.00    -0.376 A  
ENDBRANCH   7  19
ENDBRANCH   6   7
ENDBRANCH   5   6
ENDBRANCH   4   5
BRANCH   4  25
HETATM   25  C   UNL     1      -5.940  15.557  69.472  1.00  0.00    -0.126 C  
HETATM   26  C   UNL     1      -5.210  16.480  70.465  1.00  0.00    -0.208 C  
HETATM   27  C   UNL     1      -6.267  14.286  70.292  1.00  0.00    -0.163 C  
ENDBRANCH   4  25
ENDBRANCH   2   4
TORSDOF 8
ENDMDL
MODEL       88
REMARK 921   NORMALIZED FREE ENERGY PREDICTED BY IDOCK:   -4.54 KCAL/MOL
REMARK 922        TOTAL FREE ENERGY PREDICTED BY IDOCK:   -8.38 KCAL/MOL
REMARK 923 INTER-LIGAND FREE ENERGY PREDICTED BY IDOCK:   -6.97 KCAL/MOL
REMARK 924 INTRA-LIGAND FREE ENERGY PREDICTED BY IDOCK:   -1.41 KCAL/MOL
REMARK 927      BINDING AFFINITY PREDICTED BY RF-SCORE:    0.00 PKD
ROOT
HETATM    1  C   UNL     1      -8.464  11.101  66.879  1.00  0.00    -0.147 C  
HETATM    2  C   UNL     1      -9.925  11.178  66.371  1.00  0.00    -0.217 C  
HETATM    3  C   UNL     1      -9.953  10.340  65.082  1.00  0.00    -0.395 C  
ENDROOT
BRANCH   2   4
HETATM    4  N   UNL     1     -10.906  10.793  67.441  1.00  0.00    -0.272 NA 
BRANCH   4   5
HETATM    5  C   UNL     1     -10.203  10.145  68.603  1.00  0.00    -0.176 C  
BRANCH   5   6
HETATM    6  C   UNL     1     -10.427   8.623  68.712  1.00  0.00    -0.209 C  
BRANCH   6   7
HETATM    7  C   UNL     1     -10.320   7.956  70.129  1.00  0.00    -0.215 C  
BRANCH   7   8
HETATM    8  C   UNL     1     -11.676   8.173  70.862  1.00  0.00    -0.259 A  
HETATM    9  C   UNL     1     -12.059   9.428  71.371  1.00  0.00    -0.442 A  
HETATM   10  C   UNL     1     -13.305   9.621  71.974  1.00  0.00    -0.547 A  
HETATM   11  C   UNL     1     -12.618   7.126  70.965  1.00  0.00    -0.335 A  
HETATM   12  C   UNL     1     -14.204   8.565  72.084  1.00  0.00    -0.516 A  
HETATM   13  C   UNL     1     -13.858   7.317  71.582  1.00  0.00    -0.461 A  
ENDBRANCH   7   8
BRANCH   7  14
HETATM   14  C   UNL     1      -9.076   8.525  70.889  1.00  0.00    -0.172 C  
HETATM   15  N   UNL     1      -7.848   8.292  70.322  1.00  0.00    -0.090 N  
HETATM   16  H1  UNL     1      -7.037   8.662  70.818  1.00  0.00     0.000 HD 
HETATM   17  O   UNL     1      -9.111   9.124  71.961  1.00  0.00    -0.337 OA 
HETATM   18  H2  UNL     1      -7.751   7.774  69.450  1.00  0.00     0.000 HD 
ENDBRANCH   7  14
BRANCH   7  19
HETATM   19  C   UNL     1     -10.015   6.437  69.921  1.00  0.00    -0.168 A  
HETATM   20  C   UNL     1      -9.344   3.772  69.613  1.00  0.00    -0.245 A  
HETATM   21  N   UNL     1      -9.526   5.736  70.983  1.00  0.00    -0.163 NA 
HETATM   22  C   UNL     1      -9.871   4.471  68.536  1.00  0.00    -0.160 A  
HETATM   23  C   UNL     1      -9.197   4.439  70.810  1.00  0.00    -0.138 A  
HETATM   24  C   UNL     1     -10.220   5.818  68.686  1.00  0.00    -0.254 A  
ENDBRANCH   7  19
ENDBRANCH   6   7
ENDBRANCH   5   6
ENDBRANCH   4   5
BRANCH   4  25
HETATM   25  C   UNL     1     -11.862  11.855  67.899  1.00  0.00    -0.238 C  
HETATM   26  C   UNL     1     -11.629  12.426  69.309  1.00  0.00    -0.379 C  
HETATM   27  C   UNL     1     -11.840  13.093  66.970  1.00  0.00    -0.435 C  
ENDBRANCH   4  25
ENDBRANCH   2   4
TORSDOF 8
ENDMDL
MODEL       89
REMARK 921   NORMALIZED FREE ENERGY PREDICTED BY IDOCK:   -4.54 KCAL/MOL
REMARK 922        TOTAL FREE ENERGY PREDICTED BY IDOCK:   -8.37 KCAL/MOL
REMARK 923 INTER-LIGAND FREE ENERGY PREDICTED BY IDOCK:   -7.12 KCAL/MOL
REMARK 924 INTRA-LIGAND FREE ENERGY PREDICTED BY IDOCK:   -1.25 KCAL/MOL
REMARK 927      BINDING AFFINITY PREDICTED BY RF-SCORE:    0.00 PKD
ROOT
HETATM    1  C   UNL     1     -12.934   9.589  71.510  1.00  0.00    -0.471 C  
HETATM    2  C   UNL     1     -12.843  10.760  70.501  1.00  0.00    -0.256 C  
HETATM    3  C   UNL     1     -12.756  12.032  71.359  1.00  0.00    -0.380 C  
ENDROOT
BRANCH   2   4
HETATM    4  N   UNL     1     -11.740  10.549  69.503  1.00  0.00    -0.259 NA 
BRANCH   4   5
HETATM    5  C   UNL     1     -11.431  11.825  68.769  1.00  0.00    -0.291 C  
BRANCH   5   6
HETATM    6  C   UNL     1     -12.061  11.917  67.365  1.00  0.00     0.146 C  
BRANCH   6   7
HETATM    7  C   UNL     1     -11.182  12.484  66.193  1.00  0.00    -0.362 C  
BRANCH   7   8
HETATM    8  C   UNL     1     -10.355  13.678  66.752  1.00  0.00    -0.268 A  
HETATM    9  C   UNL     1      -8.976  13.574  67.016  1.00  0.00    -0.237 A  
HETATM   10  C   UNL     1      -8.234  14.672  67.461  1.00  0.00    -0.203 A  
HETATM   11  C   UNL     1     -10.947  14.946  66.934  1.00  0.00    -0.327 A  
HETATM   12  C   UNL     1      -8.849  15.904  67.654  1.00  0.00    -0.180 A  
HETATM   13  C   UNL     1     -10.207  16.040  67.393  1.00  0.00    -0.273 A  
ENDBRANCH   7   8
BRANCH   7  14
HETATM   14  C   UNL     1     -12.095  12.844  64.974  1.00  0.00    -0.435 C  
HETATM   15  N   UNL     1     -11.520  13.589  63.974  1.00  0.00    -0.568 N  
HETATM   16  H1  UNL     1     -12.115  13.824  63.180  1.00  0.00     0.000 HD 
HETATM   17  O   UNL     1     -13.282  12.549  64.863  1.00  0.00    -0.787 OA 
HETATM   18  H2  UNL     1     -10.548  13.892  64.023  1.00  0.00     0.000 HD 
ENDBRANCH   7  14
BRANCH   7  19
HETATM   19  C   UNL     1     -10.257  11.329  65.688  1.00  0.00    -0.253 A  
HETATM   20  C   UNL     1      -8.668   9.315  64.657  1.00  0.00    -0.223 A  
HETATM   21  N   UNL     1      -9.442  11.588  64.626  1.00  0.00    -0.156 NA 
HETATM   22  C   UNL     1      -9.472   9.053  65.757  1.00  0.00    -0.305 A  
HETATM   23  C   UNL     1      -8.681  10.589  64.133  1.00  0.00    -0.172 A  
HETATM   24  C   UNL     1     -10.273  10.069  66.289  1.00  0.00    -0.285 A  
ENDBRANCH   7  19
ENDBRANCH   6   7
ENDBRANCH   5   6
ENDBRANCH   4   5
BRANCH   4  25
HETATM   25  C   UNL     1     -10.491   9.886  70.005  1.00  0.00    -0.284 C  
HETATM   26  C   UNL     1     -10.311   8.400  69.646  1.00  0.00    -0.218 C  
HETATM   27  C   UNL     1      -9.213  10.573  69.466  1.00  0.00    -0.072 C  
ENDBRANCH   4  25
ENDBRANCH   2   4
TORSDOF 8
ENDMDL
MODEL       90
REMARK 921   NORMALIZED FREE ENERGY PREDICTED BY IDOCK:   -4.52 KCAL/MOL
REMARK 922        TOTAL FREE ENERGY PREDICTED BY IDOCK:   -8.35 KCAL/MOL
REMARK 923 INTER-LIGAND FREE ENERGY PREDICTED BY IDOCK:   -6.72 KCAL/MOL
REMARK 924 INTRA-LIGAND FREE ENERGY PREDICTED BY IDOCK:   -1.63 KCAL/MOL
REMARK 927      BINDING AFFINITY PREDICTED BY RF-SCORE:    0.00 PKD
ROOT
HETATM    1  C   UNL     1     -12.357  12.138  63.569  1.00  0.00    -0.682 C  
HETATM    2  C   UNL     1     -11.144  11.386  64.170  1.00  0.00    -0.308 C  
HETATM    3  C   UNL     1      -9.934  11.829  63.332  1.00  0.00    -0.446 C  
ENDROOT
BRANCH   2   4
HETATM    4  N   UNL     1     -11.043  11.593  65.655  1.00  0.00    -0.282 NA 
BRANCH   4   5
HETATM    5  C   UNL     1     -10.082  10.611  66.267  1.00  0.00    -0.235 C  
BRANCH   5   6
HETATM    6  C   UNL     1     -10.758   9.415  66.967  1.00  0.00    -0.207 C  
BRANCH   6   7
HETATM    7  C   UNL     1     -10.173   8.930  68.340  1.00  0.00    -0.231 C  
BRANCH   7   8
HETATM    8  C   UNL     1      -8.688   9.392  68.416  1.00  0.00    -0.124 A  
HETATM    9  C   UNL     1      -7.717   8.940  67.503  1.00  0.00    -0.100 A  
HETATM   10  C   UNL     1      -6.400   9.410  67.546  1.00  0.00    -0.062 A  
HETATM   11  C   UNL     1      -8.279  10.360  69.359  1.00  0.00    -0.158 A  
HETATM   12  C   UNL     1      -6.020  10.345  68.503  1.00  0.00    -0.043 A  
HETATM   13  C   UNL     1      -6.959  10.817  69.411  1.00  0.00    -0.116 A  
ENDBRANCH   7   8
BRANCH   7  14
HETATM   14  C   UNL     1     -10.377   7.385  68.487  1.00  0.00    -0.198 C  
HETATM   15  N   UNL     1      -9.597   6.747  69.420  1.00  0.00    -0.147 N  
HETATM   16  H1  UNL     1      -9.730   5.740  69.515  1.00  0.00     0.000 HD 
HETATM   17  O   UNL     1     -11.144   6.702  67.813  1.00  0.00    -0.285 OA 
HETATM   18  H2  UNL     1      -8.919   7.254  69.988  1.00  0.00     0.000 HD 
ENDBRANCH   7  14
BRANCH   7  19
HETATM   19  C   UNL     1     -11.032   9.569  69.479  1.00  0.00    -0.195 A  
HETATM   20  C   UNL     1     -12.633  10.576  71.497  1.00  0.00    -0.529 A  
HETATM   21  N   UNL     1     -11.254   8.825  70.600  1.00  0.00    -0.255 NA 
HETATM   22  C   UNL     1     -12.385  11.350  70.372  1.00  0.00    -0.404 A  
HETATM   23  C   UNL     1     -12.045   9.332  71.570  1.00  0.00    -0.361 A  
HETATM   24  C   UNL     1     -11.571  10.851  69.350  1.00  0.00    -0.387 A  
ENDBRANCH   7  19
ENDBRANCH   6   7
ENDBRANCH   5   6
ENDBRANCH   4   5
BRANCH   4  25
HETATM   25  C   UNL     1     -10.776  12.992  66.126  1.00  0.00    -0.273 C  
HETATM   26  C   UNL     1     -11.895  13.668  66.940  1.00  0.00    -0.451 C  
HETATM   27  C   UNL     1      -9.530  13.068  67.042  1.00  0.00    -0.237 C  
ENDBRANCH   4  25
ENDBRANCH   2   4
TORSDOF 8
ENDMDL
MODEL       91
REMARK 921   NORMALIZED FREE ENERGY PREDICTED BY IDOCK:   -4.49 KCAL/MOL
REMARK 922        TOTAL FREE ENERGY PREDICTED BY IDOCK:   -8.29 KCAL/MOL
REMARK 923 INTER-LIGAND FREE ENERGY PREDICTED BY IDOCK:   -7.07 KCAL/MOL
REMARK 924 INTRA-LIGAND FREE ENERGY PREDICTED BY IDOCK:   -1.23 KCAL/MOL
REMARK 927      BINDING AFFINITY PREDICTED BY RF-SCORE:    0.00 PKD
ROOT
HETATM    1  C   UNL     1     -12.293  14.182  66.561  1.00  0.00    -0.405 C  
HETATM    2  C   UNL     1     -11.490  14.041  65.244  1.00  0.00    -0.322 C  
HETATM    3  C   UNL     1     -10.738  15.372  65.080  1.00  0.00    -0.460 C  
ENDROOT
BRANCH   2   4
HETATM    4  N   UNL     1     -10.653  12.793  65.236  1.00  0.00    -0.284 NA 
BRANCH   4   5
HETATM    5  C   UNL     1     -10.523  12.227  66.624  1.00  0.00    -0.222 C  
BRANCH   5   6
HETATM    6  C   UNL     1     -10.785  10.711  66.717  1.00  0.00    -0.272 C  
BRANCH   6   7
HETATM    7  C   UNL     1      -9.934   9.872  67.736  1.00  0.00    -0.201 C  
BRANCH   7   8
HETATM    8  C   UNL     1      -8.541  10.554  67.869  1.00  0.00    -0.123 A  
HETATM    9  C   UNL     1      -8.003  10.918  69.117  1.00  0.00    -0.114 A  
HETATM   10  C   UNL     1      -6.725  11.475  69.226  1.00  0.00    -0.118 A  
HETATM   11  C   UNL     1      -7.723  10.755  66.736  1.00  0.00    -0.136 A  
HETATM   12  C   UNL     1      -5.951  11.684  68.089  1.00  0.00    -0.046 A  
HETATM   13  C   UNL     1      -6.452  11.327  66.844  1.00  0.00    -0.128 A  
ENDBRANCH   7   8
BRANCH   7  14
HETATM   14  C   UNL     1      -9.880   8.377  67.275  1.00  0.00    -0.203 C  
HETATM   15  N   UNL     1     -11.072   7.696  67.253  1.00  0.00    -0.498 N  
HETATM   16  H1  UNL     1     -11.036   6.722  66.954  1.00  0.00     0.000 HD 
HETATM   17  O   UNL     1      -8.860   7.763  66.973  1.00  0.00    -0.122 OA 
HETATM   18  H2  UNL     1     -11.948   8.142  67.523  1.00  0.00     0.000 HD 
ENDBRANCH   7  14
BRANCH   7  19
HETATM   19  C   UNL     1     -10.699   9.855  69.099  1.00  0.00    -0.224 A  
HETATM   20  C   UNL     1     -12.078   9.682  71.489  1.00  0.00    -0.482 A  
HETATM   21  N   UNL     1     -10.388   8.870  69.989  1.00  0.00    -0.197 NA 
HETATM   22  C   UNL     1     -12.378  10.706  70.602  1.00  0.00    -0.462 A  
HETATM   23  C   UNL     1     -11.078   8.798  71.146  1.00  0.00    -0.276 A  
HETATM   24  C   UNL     1     -11.679  10.805  69.394  1.00  0.00    -0.378 A  
ENDBRANCH   7  19
ENDBRANCH   6   7
ENDBRANCH   5   6
ENDBRANCH   4   5
BRANCH   4  25
HETATM   25  C   UNL     1     -11.028  11.733  64.242  1.00  0.00    -0.359 C  
HETATM   26  C   UNL     1     -12.319  11.971  63.439  1.00  0.00    -0.635 C  
HETATM   27  C   UNL     1      -9.933  11.534  63.166  1.00  0.00    -0.404 C  
ENDBRANCH   4  25
ENDBRANCH   2   4
TORSDOF 8
ENDMDL
MODEL       92
REMARK 921   NORMALIZED FREE ENERGY PREDICTED BY IDOCK:   -4.45 KCAL/MOL
REMARK 922        TOTAL FREE ENERGY PREDICTED BY IDOCK:   -8.23 KCAL/MOL
REMARK 923 INTER-LIGAND FREE ENERGY PREDICTED BY IDOCK:   -7.39 KCAL/MOL
REMARK 924 INTRA-LIGAND FREE ENERGY PREDICTED BY IDOCK:   -0.84 KCAL/MOL
REMARK 927      BINDING AFFINITY PREDICTED BY RF-SCORE:    0.00 PKD
ROOT
HETATM    1  C   UNL     1     -10.847  12.416  63.704  1.00  0.00    -0.509 C  
HETATM    2  C   UNL     1     -10.542  11.019  64.300  1.00  0.00    -0.331 C  
HETATM    3  C   UNL     1      -9.574  10.355  63.307  1.00  0.00    -0.353 C  
ENDROOT
BRANCH   2   4
HETATM    4  N   UNL     1     -10.078  11.113  65.726  1.00  0.00    -0.239 NA 
BRANCH   4   5
HETATM    5  C   UNL     1     -11.196  11.568  66.623  1.00  0.00    -0.271 C  
BRANCH   5   6
HETATM    6  C   UNL     1     -10.728  12.202  67.948  1.00  0.00    -0.237 C  
BRANCH   6   7
HETATM    7  C   UNL     1     -10.957  13.741  68.157  1.00  0.00    -0.265 C  
BRANCH   7   8
HETATM    8  C   UNL     1     -11.819  13.925  69.440  1.00  0.00    -0.384 A  
HETATM    9  C   UNL     1     -12.102  12.856  70.311  1.00  0.00    -0.377 A  
HETATM   10  C   UNL     1     -12.827  13.049  71.491  1.00  0.00    -0.386 A  
HETATM   11  C   UNL     1     -12.280  15.203  69.825  1.00  0.00    -0.325 A  
HETATM   12  C   UNL     1     -13.290  14.315  71.832  1.00  0.00    -0.470 A  
HETATM   13  C   UNL     1     -13.019  15.392  70.997  1.00  0.00    -0.556 A  
ENDBRANCH   7   8
BRANCH   7  14
HETATM   14  C   UNL     1     -11.581  14.364  66.864  1.00  0.00    -0.388 C  
HETATM   15  N   UNL     1     -10.793  15.241  66.161  1.00  0.00    -0.320 N  
HETATM   16  H1  UNL     1     -11.200  15.647  65.319  1.00  0.00     0.000 HD 
HETATM   17  O   UNL     1     -12.722  14.160  66.457  1.00  0.00    -0.299 OA 
HETATM   18  H2  UNL     1      -9.849  15.475  66.466  1.00  0.00     0.000 HD 
ENDBRANCH   7  14
BRANCH   7  19
HETATM   19  C   UNL     1      -9.555  14.417  68.305  1.00  0.00    -0.211 A  
HETATM   20  C   UNL     1      -7.128  15.728  68.488  1.00  0.00    -0.118 A  
HETATM   21  N   UNL     1      -9.517  15.712  68.731  1.00  0.00    -0.202 NA 
HETATM   22  C   UNL     1      -7.157  14.401  68.084  1.00  0.00    -0.126 A  
HETATM   23  C   UNL     1      -8.323  16.336  68.805  1.00  0.00    -0.235 A  
HETATM   24  C   UNL     1      -8.380  13.729  67.996  1.00  0.00    -0.171 A  
ENDBRANCH   7  19
ENDBRANCH   6   7
ENDBRANCH   5   6
ENDBRANCH   4   5
BRANCH   4  25
HETATM   25  C   UNL     1      -9.372   9.915  66.289  1.00  0.00    -0.176 C  
HETATM   26  C   UNL     1      -8.094  10.190  67.102  1.00  0.00    -0.120 C  
HETATM   27  C   UNL     1     -10.278   9.107  67.250  1.00  0.00    -0.319 C  
ENDBRANCH   4  25
ENDBRANCH   2   4
TORSDOF 8
ENDMDL
MODEL       93
REMARK 921   NORMALIZED FREE ENERGY PREDICTED BY IDOCK:   -4.44 KCAL/MOL
REMARK 922        TOTAL FREE ENERGY PREDICTED BY IDOCK:   -8.23 KCAL/MOL
REMARK 923 INTER-LIGAND FREE ENERGY PREDICTED BY IDOCK:   -7.18 KCAL/MOL
REMARK 924 INTRA-LIGAND FREE ENERGY PREDICTED BY IDOCK:   -1.05 KCAL/MOL
REMARK 927      BINDING AFFINITY PREDICTED BY RF-SCORE:    0.00 PKD
ROOT
HETATM    1  C   UNL     1     -10.898  16.710  70.114  1.00  0.00    -0.118 C  
HETATM    2  C   UNL     1     -10.458  17.106  68.683  1.00  0.00    -0.366 C  
HETATM    3  C   UNL     1     -10.022  18.577  68.783  1.00  0.00    -0.417 C  
ENDROOT
BRANCH   2   4
HETATM    4  N   UNL     1      -9.447  16.144  68.127  1.00  0.00    -0.207 NA 
BRANCH   4   5
HETATM    5  C   UNL     1      -9.639  14.771  68.709  1.00  0.00    -0.215 C  
BRANCH   5   6
HETATM    6  C   UNL     1     -10.879  14.024  68.176  1.00  0.00    -0.260 C  
BRANCH   6   7
HETATM    7  C   UNL     1     -10.703  12.537  67.703  1.00  0.00    -0.242 C  
BRANCH   7   8
HETATM    8  C   UNL     1     -11.139  12.457  66.211  1.00  0.00    -0.344 A  
HETATM    9  C   UNL     1     -10.565  11.539  65.313  1.00  0.00    -0.339 A  
HETATM   10  C   UNL     1     -11.008  11.437  63.990  1.00  0.00    -0.428 A  
HETATM   11  C   UNL     1     -12.198  13.253  65.723  1.00  0.00    -0.510 A  
HETATM   12  C   UNL     1     -12.038  12.252  63.530  1.00  0.00    -0.649 A  
HETATM   13  C   UNL     1     -12.630  13.162  64.397  1.00  0.00    -0.315 A  
ENDBRANCH   7   8
BRANCH   7  14
HETATM   14  C   UNL     1     -11.492  11.581  68.659  1.00  0.00    -0.293 C  
HETATM   15  N   UNL     1     -11.469  11.891  69.996  1.00  0.00    -0.516 N  
HETATM   16  H1  UNL     1     -11.982  11.267  70.619  1.00  0.00     0.000 HD 
HETATM   17  O   UNL     1     -12.090  10.566  68.313  1.00  0.00    -0.319 OA 
HETATM   18  H2  UNL     1     -10.964  12.703  70.349  1.00  0.00     0.000 HD 
ENDBRANCH   7  14
BRANCH   7  19
HETATM   19  C   UNL     1      -9.199  12.151  67.885  1.00  0.00    -0.188 A  
HETATM   20  C   UNL     1      -6.554  11.495  68.349  1.00  0.00    -0.060 A  
HETATM   21  N   UNL     1      -8.888  11.249  68.858  1.00  0.00    -0.103 NA 
HETATM   22  C   UNL     1      -6.866  12.390  67.336  1.00  0.00    -0.147 A  
HETATM   23  C   UNL     1      -7.591  10.948  69.074  1.00  0.00    -0.135 A  
HETATM   24  C   UNL     1      -8.202  12.722  67.090  1.00  0.00    -0.146 A  
ENDBRANCH   7  19
ENDBRANCH   6   7
ENDBRANCH   5   6
ENDBRANCH   4   5
BRANCH   4  25
HETATM   25  C   UNL     1      -9.309  16.095  66.634  1.00  0.00    -0.242 C  
HETATM   26  C   UNL     1     -10.494  16.639  65.816  1.00  0.00    -0.324 C  
HETATM   27  C   UNL     1      -8.089  16.909  66.137  1.00  0.00    -0.295 C  
ENDBRANCH   4  25
ENDBRANCH   2   4
TORSDOF 8
ENDMDL
MODEL       94
REMARK 921   NORMALIZED FREE ENERGY PREDICTED BY IDOCK:   -4.44 KCAL/MOL
REMARK 922        TOTAL FREE ENERGY PREDICTED BY IDOCK:   -8.22 KCAL/MOL
REMARK 923 INTER-LIGAND FREE ENERGY PREDICTED BY IDOCK:   -6.68 KCAL/MOL
REMARK 924 INTRA-LIGAND FREE ENERGY PREDICTED BY IDOCK:   -1.54 KCAL/MOL
REMARK 927      BINDING AFFINITY PREDICTED BY RF-SCORE:    0.00 PKD
ROOT
HETATM    1  C   UNL     1      -8.648  11.410  68.444  1.00  0.00    -0.156 C  
HETATM    2  C   UNL     1      -9.437  10.404  69.319  1.00  0.00    -0.198 C  
HETATM    3  C   UNL     1     -10.897  10.882  69.273  1.00  0.00    -0.286 C  
ENDROOT
BRANCH   2   4
HETATM    4  N   UNL     1      -9.183   8.984  68.898  1.00  0.00    -0.139 NA 
BRANCH   4   5
HETATM    5  C   UNL     1     -10.257   8.071  69.424  1.00  0.00    -0.210 C  
BRANCH   5   6
HETATM    6  C   UNL     1      -9.751   6.999  70.410  1.00  0.00    -0.178 C  
BRANCH   6   7
HETATM    7  C   UNL     1     -10.363   6.971  71.855  1.00  0.00    -0.213 C  
BRANCH   7   8
HETATM    8  C   UNL     1     -11.779   7.613  71.785  1.00  0.00    -0.319 A  
HETATM    9  C   UNL     1     -12.905   6.894  71.343  1.00  0.00    -0.365 A  
HETATM   10  C   UNL     1     -14.182   7.465  71.342  1.00  0.00    -0.508 A  
HETATM   11  C   UNL     1     -12.002   8.927  72.251  1.00  0.00    -0.380 A  
HETATM   12  C   UNL     1     -14.367   8.770  71.784  1.00  0.00    -0.414 A  
HETATM   13  C   UNL     1     -13.276   9.502  72.235  1.00  0.00    -0.507 A  
ENDBRANCH   7   8
BRANCH   7  14
HETATM   14  C   UNL     1      -9.386   7.670  72.858  1.00  0.00    -0.198 C  
HETATM   15  N   UNL     1      -9.328   7.149  74.126  1.00  0.00    -0.288 N  
HETATM   16  H1  UNL     1      -8.692   7.605  74.780  1.00  0.00     0.000 HD 
HETATM   17  O   UNL     1      -8.704   8.661  72.611  1.00  0.00    -0.380 OA 
HETATM   18  H2  UNL     1      -9.894   6.347  74.402  1.00  0.00     0.000 HD 
ENDBRANCH   7  14
BRANCH   7  19
HETATM   19  C   UNL     1     -10.430   5.480  72.318  1.00  0.00    -0.217 A  
HETATM   20  C   UNL     1     -10.524   2.887  73.274  1.00  0.00    -0.248 A  
HETATM   21  N   UNL     1     -11.236   5.179  73.376  1.00  0.00    -0.317 NA 
HETATM   22  C   UNL     1      -9.726   3.180  72.178  1.00  0.00    -0.230 A  
HETATM   23  C   UNL     1     -11.261   3.909  73.832  1.00  0.00    -0.087 A  
HETATM   24  C   UNL     1      -9.678   4.488  71.683  1.00  0.00    -0.241 A  
ENDBRANCH   7  19
ENDBRANCH   6   7
ENDBRANCH   5   6
ENDBRANCH   4   5
BRANCH   4  25
HETATM   25  C   UNL     1      -8.924   8.746  67.439  1.00  0.00    -0.133 C  
HETATM   26  C   UNL     1      -7.764   7.795  67.094  1.00  0.00    -0.105 C  
HETATM   27  C   UNL     1     -10.153   8.136  66.723  1.00  0.00    -0.365 C  
ENDBRANCH   4  25
ENDBRANCH   2   4
TORSDOF 8
ENDMDL
MODEL       95
REMARK 921   NORMALIZED FREE ENERGY PREDICTED BY IDOCK:   -4.44 KCAL/MOL
REMARK 922        TOTAL FREE ENERGY PREDICTED BY IDOCK:   -8.22 KCAL/MOL
REMARK 923 INTER-LIGAND FREE ENERGY PREDICTED BY IDOCK:   -7.30 KCAL/MOL
REMARK 924 INTRA-LIGAND FREE ENERGY PREDICTED BY IDOCK:   -0.92 KCAL/MOL
REMARK 927      BINDING AFFINITY PREDICTED BY RF-SCORE:    0.00 PKD
ROOT
HETATM    1  C   UNL     1      -9.810  10.333  65.023  1.00  0.00    -0.397 C  
HETATM    2  C   UNL     1      -8.722  10.196  66.117  1.00  0.00    -0.142 C  
HETATM    3  C   UNL     1      -7.415   9.910  65.359  1.00  0.00    -0.132 C  
ENDROOT
BRANCH   2   4
HETATM    4  N   UNL     1      -8.714  11.380  67.042  1.00  0.00    -0.155 NA 
BRANCH   4   5
HETATM    5  C   UNL     1      -9.599  12.477  66.515  1.00  0.00    -0.242 C  
BRANCH   5   6
HETATM    6  C   UNL     1      -9.270  13.877  67.069  1.00  0.00    -0.257 C  
BRANCH   6   7
HETATM    7  C   UNL     1     -10.432  14.929  67.165  1.00  0.00    -0.271 C  
BRANCH   7   8
HETATM    8  C   UNL     1     -11.005  14.875  68.611  1.00  0.00    -0.263 A  
HETATM    9  C   UNL     1     -10.686  15.844  69.580  1.00  0.00    -0.288 A  
HETATM   10  C   UNL     1     -11.255  15.816  70.857  1.00  0.00    -0.404 A  
HETATM   11  C   UNL     1     -11.946  13.888  68.980  1.00  0.00    -0.402 A  
HETATM   12  C   UNL     1     -12.160  14.817  71.200  1.00  0.00    -0.391 A  
HETATM   13  C   UNL     1     -12.503  13.852  70.262  1.00  0.00    -0.380 A  
ENDBRANCH   7   8
BRANCH   7  14
HETATM   14  C   UNL     1     -11.487  14.658  66.041  1.00  0.00    -0.332 C  
HETATM   15  N   UNL     1     -11.159  15.074  64.775  1.00  0.00    -0.538 N  
HETATM   16  H1  UNL     1     -11.846  14.898  64.043  1.00  0.00     0.000 HD 
HETATM   17  O   UNL     1     -12.589  14.142  66.210  1.00  0.00    -0.449 OA 
HETATM   18  H2  UNL     1     -10.272  15.537  64.577  1.00  0.00     0.000 HD 
ENDBRANCH   7  14
BRANCH   7  19
HETATM   19  C   UNL     1      -9.834  16.335  66.837  1.00  0.00    -0.247 A  
HETATM   20  C   UNL     1      -8.660  18.790  66.343  1.00  0.00    -0.294 A  
HETATM   21  N   UNL     1      -8.532  16.393  66.436  1.00  0.00    -0.302 NA 
HETATM   22  C   UNL     1      -9.994  18.736  66.719  1.00  0.00    -0.394 A  
HETATM   23  C   UNL     1      -7.975  17.601  66.208  1.00  0.00    -0.257 A  
HETATM   24  C   UNL     1     -10.597  17.498  66.964  1.00  0.00    -0.245 A  
ENDBRANCH   7  19
ENDBRANCH   6   7
ENDBRANCH   5   6
ENDBRANCH   4   5
BRANCH   4  25
HETATM   25  C   UNL     1      -8.980  11.107  68.493  1.00  0.00    -0.168 C  
HETATM   26  C   UNL     1     -10.414  10.686  68.861  1.00  0.00    -0.232 C  
HETATM   27  C   UNL     1      -8.087   9.968  69.042  1.00  0.00    -0.118 C  
ENDBRANCH   4  25
ENDBRANCH   2   4
TORSDOF 8
ENDMDL
MODEL       96
REMARK 921   NORMALIZED FREE ENERGY PREDICTED BY IDOCK:   -4.38 KCAL/MOL
REMARK 922        TOTAL FREE ENERGY PREDICTED BY IDOCK:   -8.14 KCAL/MOL
REMARK 923 INTER-LIGAND FREE ENERGY PREDICTED BY IDOCK:   -6.85 KCAL/MOL
REMARK 924 INTRA-LIGAND FREE ENERGY PREDICTED BY IDOCK:   -1.29 KCAL/MOL
REMARK 927      BINDING AFFINITY PREDICTED BY RF-SCORE:    0.00 PKD
ROOT
HETATM    1  C   UNL     1      -9.353   8.962  65.627  1.00  0.00    -0.259 C  
HETATM    2  C   UNL     1      -8.314   8.874  66.772  1.00  0.00    -0.111 C  
HETATM    3  C   UNL     1      -6.942   8.983  66.086  1.00  0.00    -0.085 C  
ENDROOT
BRANCH   2   4
HETATM    4  N   UNL     1      -8.601   9.869  67.859  1.00  0.00    -0.125 NA 
BRANCH   4   5
HETATM    5  C   UNL     1      -9.704  10.807  67.449  1.00  0.00    -0.171 C  
BRANCH   5   6
HETATM    6  C   UNL     1      -9.394  12.297  67.695  1.00  0.00    -0.186 C  
BRANCH   6   7
HETATM    7  C   UNL     1     -10.477  13.357  67.287  1.00  0.00    -0.248 C  
BRANCH   7   8
HETATM    8  C   UNL     1      -9.789  14.753  67.253  1.00  0.00    -0.230 A  
HETATM    9  C   UNL     1      -9.995  15.664  66.200  1.00  0.00    -0.335 A  
HETATM   10  C   UNL     1      -9.417  16.937  66.213  1.00  0.00    -0.298 A  
HETATM   11  C   UNL     1      -8.992  15.193  68.332  1.00  0.00    -0.183 A  
HETATM   12  C   UNL     1      -8.617  17.334  67.278  1.00  0.00    -0.214 A  
HETATM   13  C   UNL     1      -8.402  16.461  68.337  1.00  0.00    -0.191 A  
ENDBRANCH   7   8
BRANCH   7  14
HETATM   14  C   UNL     1     -11.702  13.264  68.257  1.00  0.00    -0.353 C  
HETATM   15  N   UNL     1     -12.518  14.366  68.326  1.00  0.00    -0.537 N  
HETATM   16  H1  UNL     1     -13.315  14.306  68.959  1.00  0.00     0.000 HD 
HETATM   17  O   UNL     1     -11.963  12.308  68.981  1.00  0.00    -0.300 OA 
HETATM   18  H2  UNL     1     -12.335  15.203  67.773  1.00  0.00     0.000 HD 
ENDBRANCH   7  14
BRANCH   7  19
HETATM   19  C   UNL     1     -11.034  12.957  65.882  1.00  0.00    -0.276 A  
HETATM   20  C   UNL     1     -12.105  12.149  63.464  1.00  0.00    -0.649 A  
HETATM   21  N   UNL     1     -12.387  12.890  65.731  1.00  0.00    -0.550 NA 
HETATM   22  C   UNL     1     -10.727  12.246  63.601  1.00  0.00    -0.513 A  
HETATM   23  C   UNL     1     -12.889  12.486  64.545  1.00  0.00    -0.262 A  
HETATM   24  C   UNL     1     -10.178  12.661  64.819  1.00  0.00    -0.307 A  
ENDBRANCH   7  19
ENDBRANCH   6   7
ENDBRANCH   5   6
ENDBRANCH   4   5
BRANCH   4  25
HETATM   25  C   UNL     1      -8.828   9.321  69.237  1.00  0.00    -0.146 C  
HETATM   26  C   UNL     1      -8.841   7.788  69.372  1.00  0.00    -0.139 C  
HETATM   27  C   UNL     1      -7.741   9.789  70.235  1.00  0.00    -0.187 C  
ENDBRANCH   4  25
ENDBRANCH   2   4
TORSDOF 8
ENDMDL
MODEL       97
REMARK 921   NORMALIZED FREE ENERGY PREDICTED BY IDOCK:   -4.36 KCAL/MOL
REMARK 922        TOTAL FREE ENERGY PREDICTED BY IDOCK:   -8.11 KCAL/MOL
REMARK 923 INTER-LIGAND FREE ENERGY PREDICTED BY IDOCK:   -7.13 KCAL/MOL
REMARK 924 INTRA-LIGAND FREE ENERGY PREDICTED BY IDOCK:   -0.98 KCAL/MOL
REMARK 927      BINDING AFFINITY PREDICTED BY RF-SCORE:    0.00 PKD
ROOT
HETATM    1  C   UNL     1     -12.840  10.016  71.680  1.00  0.00    -0.543 C  
HETATM    2  C   UNL     1     -12.806  10.982  70.470  1.00  0.00    -0.174 C  
HETATM    3  C   UNL     1     -12.740  12.393  71.076  1.00  0.00    -0.315 C  
ENDROOT
BRANCH   2   4
HETATM    4  N   UNL     1     -11.717  10.619  69.500  1.00  0.00    -0.284 NA 
BRANCH   4   5
HETATM    5  C   UNL     1     -11.094  11.854  68.909  1.00  0.00    -0.247 C  
BRANCH   5   6
HETATM    6  C   UNL     1     -11.726  12.306  67.577  1.00  0.00    -0.402 C  
BRANCH   6   7
HETATM    7  C   UNL     1     -10.833  13.111  66.567  1.00  0.00    -0.291 C  
BRANCH   7   8
HETATM    8  C   UNL     1     -10.815  14.598  67.027  1.00  0.00    -0.304 A  
HETATM    9  C   UNL     1     -11.316  15.000  68.279  1.00  0.00    -0.331 A  
HETATM   10  C   UNL     1     -11.239  16.330  68.703  1.00  0.00    -0.354 A  
HETATM   11  C   UNL     1     -10.209  15.594  66.230  1.00  0.00    -0.312 A  
HETATM   12  C   UNL     1     -10.658  17.294  67.887  1.00  0.00    -0.384 A  
HETATM   13  C   UNL     1     -10.146  16.926  66.649  1.00  0.00    -0.306 A  
ENDBRANCH   7   8
BRANCH   7  14
HETATM   14  C   UNL     1     -11.355  12.892  65.108  1.00  0.00    -0.298 C  
HETATM   15  N   UNL     1     -12.698  12.649  64.964  1.00  0.00    -0.592 N  
HETATM   16  H1  UNL     1     -13.038  12.506  64.014  1.00  0.00     0.000 HD 
HETATM   17  O   UNL     1     -10.657  12.882  64.098  1.00  0.00    -0.389 OA 
HETATM   18  H2  UNL     1     -13.325  12.613  65.768  1.00  0.00     0.000 HD 
ENDBRANCH   7  14
BRANCH   7  19
HETATM   19  C   UNL     1      -9.401  12.485  66.590  1.00  0.00    -0.236 A  
HETATM   20  C   UNL     1      -6.927  11.253  66.683  1.00  0.00    -0.129 A  
HETATM   21  N   UNL     1      -9.235  11.258  66.019  1.00  0.00    -0.204 NA 
HETATM   22  C   UNL     1      -7.081  12.515  67.238  1.00  0.00    -0.114 A  
HETATM   23  C   UNL     1      -8.022  10.670  66.082  1.00  0.00    -0.151 A  
HETATM   24  C   UNL     1      -8.328  13.148  67.189  1.00  0.00    -0.146 A  
ENDBRANCH   7  19
ENDBRANCH   6   7
ENDBRANCH   5   6
ENDBRANCH   4   5
BRANCH   4  25
HETATM   25  C   UNL     1     -10.675   9.653  69.983  1.00  0.00    -0.259 C  
HETATM   26  C   UNL     1     -10.816   8.196  69.509  1.00  0.00    -0.128 C  
HETATM   27  C   UNL     1      -9.250  10.069  69.541  1.00  0.00    -0.238 C  
ENDBRANCH   4  25
ENDBRANCH   2   4
TORSDOF 8
ENDMDL
MODEL       98
REMARK 921   NORMALIZED FREE ENERGY PREDICTED BY IDOCK:   -4.35 KCAL/MOL
REMARK 922        TOTAL FREE ENERGY PREDICTED BY IDOCK:   -8.09 KCAL/MOL
REMARK 923 INTER-LIGAND FREE ENERGY PREDICTED BY IDOCK:   -6.96 KCAL/MOL
REMARK 924 INTRA-LIGAND FREE ENERGY PREDICTED BY IDOCK:   -1.14 KCAL/MOL
REMARK 927      BINDING AFFINITY PREDICTED BY RF-SCORE:    0.00 PKD
ROOT
HETATM    1  C   UNL     1     -11.226   6.605  69.941  1.00  0.00    -0.421 C  
HETATM    2  C   UNL     1     -11.070   8.124  70.200  1.00  0.00    -0.187 C  
HETATM    3  C   UNL     1     -10.932   8.267  71.725  1.00  0.00    -0.342 C  
ENDROOT
BRANCH   2   4
HETATM    4  N   UNL     1      -9.968   8.718  69.370  1.00  0.00    -0.191 NA 
BRANCH   4   5
HETATM    5  C   UNL     1     -10.223  10.178  69.108  1.00  0.00    -0.214 C  
BRANCH   5   6
HETATM    6  C   UNL     1     -10.993  10.462  67.803  1.00  0.00    -0.369 C  
BRANCH   6   7
HETATM    7  C   UNL     1     -10.166  10.717  66.493  1.00  0.00    -0.288 C  
BRANCH   7   8
HETATM    8  C   UNL     1     -10.997  11.667  65.582  1.00  0.00    -0.322 A  
HETATM    9  C   UNL     1     -11.905  12.604  66.109  1.00  0.00    -0.477 A  
HETATM   10  C   UNL     1     -12.600  13.492  65.282  1.00  0.00    -0.517 A  
HETATM   11  C   UNL     1     -10.803  11.682  64.184  1.00  0.00    -0.433 A  
HETATM   12  C   UNL     1     -12.406  13.468  63.905  1.00  0.00    -0.397 A  
HETATM   13  C   UNL     1     -11.509  12.560  63.356  1.00  0.00    -0.523 A  
ENDBRANCH   7   8
BRANCH   7  14
HETATM   14  C   UNL     1      -9.791   9.350  65.829  1.00  0.00    -0.275 C  
HETATM   15  N   UNL     1     -10.264   8.217  66.443  1.00  0.00    -0.453 N  
HETATM   16  H1  UNL     1     -10.019   7.327  66.011  1.00  0.00     0.000 HD 
HETATM   17  O   UNL     1      -9.082   9.214  64.836  1.00  0.00    -0.210 OA 
HETATM   18  H2  UNL     1     -10.831   8.264  67.289  1.00  0.00     0.000 HD 
ENDBRANCH   7  14
BRANCH   7  19
HETATM   19  C   UNL     1      -8.804  11.362  66.905  1.00  0.00    -0.173 A  
HETATM   20  C   UNL     1      -6.437  12.629  67.570  1.00  0.00    -0.158 A  
HETATM   21  N   UNL     1      -8.838  12.572  67.534  1.00  0.00    -0.174 NA 
HETATM   22  C   UNL     1      -6.395  11.385  66.959  1.00  0.00    -0.122 A  
HETATM   23  C   UNL     1      -7.672  13.177  67.843  1.00  0.00    -0.147 A  
HETATM   24  C   UNL     1      -7.588  10.733  66.626  1.00  0.00    -0.134 A  
ENDBRANCH   7  19
ENDBRANCH   6   7
ENDBRANCH   5   6
ENDBRANCH   4   5
BRANCH   4  25
HETATM   25  C   UNL     1      -8.563   8.480  69.839  1.00  0.00    -0.131 C  
HETATM   26  C   UNL     1      -7.621   7.766  68.853  1.00  0.00    -0.101 C  
HETATM   27  C   UNL     1      -7.834   9.802  70.183  1.00  0.00    -0.196 C  
ENDBRANCH   4  25
ENDBRANCH   2   4
TORSDOF 8
ENDMDL
MODEL       99
REMARK 921   NORMALIZED FREE ENERGY PREDICTED BY IDOCK:   -4.35 KCAL/MOL
REMARK 922        TOTAL FREE ENERGY PREDICTED BY IDOCK:   -8.09 KCAL/MOL
REMARK 923 INTER-LIGAND FREE ENERGY PREDICTED BY IDOCK:   -6.91 KCAL/MOL
REMARK 924 INTRA-LIGAND FREE ENERGY PREDICTED BY IDOCK:   -1.18 KCAL/MOL
REMARK 927      BINDING AFFINITY PREDICTED BY RF-SCORE:    0.00 PKD
ROOT
HETATM    1  C   UNL     1      -7.351  14.737  69.405  1.00  0.00    -0.162 C  
HETATM    2  C   UNL     1      -6.872  15.984  68.621  1.00  0.00    -0.131 C  
HETATM    3  C   UNL     1      -5.796  15.468  67.651  1.00  0.00    -0.132 C  
ENDROOT
BRANCH   2   4
HETATM    4  N   UNL     1      -8.023  16.730  68.008  1.00  0.00    -0.174 NA 
BRANCH   4   5
HETATM    5  C   UNL     1      -9.264  15.879  67.991  1.00  0.00    -0.192 C  
BRANCH   5   6
HETATM    6  C   UNL     1      -9.611  15.293  66.608  1.00  0.00    -0.276 C  
BRANCH   6   7
HETATM    7  C   UNL     1     -10.687  14.151  66.535  1.00  0.00    -0.289 C  
BRANCH   7   8
HETATM    8  C   UNL     1      -9.958  12.836  66.132  1.00  0.00    -0.272 A  
HETATM    9  C   UNL     1     -10.428  12.008  65.095  1.00  0.00    -0.328 A  
HETATM   10  C   UNL     1      -9.731  10.861  64.704  1.00  0.00    -0.333 A  
HETATM   11  C   UNL     1      -8.738  12.469  66.740  1.00  0.00    -0.147 A  
HETATM   12  C   UNL     1      -8.544  10.511  65.339  1.00  0.00    -0.188 A  
HETATM   13  C   UNL     1      -8.049  11.313  66.359  1.00  0.00    -0.138 A  
ENDBRANCH   7   8
BRANCH   7  14
HETATM   14  C   UNL     1     -11.841  14.573  65.567  1.00  0.00    -0.330 C  
HETATM   15  N   UNL     1     -13.076  14.021  65.803  1.00  0.00    -0.587 N  
HETATM   16  H1  UNL     1     -13.828  14.296  65.172  1.00  0.00     0.000 HD 
HETATM   17  O   UNL     1     -11.721  15.321  64.600  1.00  0.00    -0.392 OA 
HETATM   18  H2  UNL     1     -13.232  13.369  66.571  1.00  0.00     0.000 HD 
ENDBRANCH   7  14
BRANCH   7  19
HETATM   19  C   UNL     1     -11.354  14.030  67.943  1.00  0.00    -0.291 A  
HETATM   20  C   UNL     1     -12.460  13.937  70.476  1.00  0.00    -0.422 A  
HETATM   21  N   UNL     1     -11.935  15.146  68.468  1.00  0.00    -0.269 NA 
HETATM   22  C   UNL     1     -11.898  12.789  69.935  1.00  0.00    -0.371 A  
HETATM   23  C   UNL     1     -12.462  15.082  69.709  1.00  0.00    -0.181 A  
HETATM   24  C   UNL     1     -11.343  12.826  68.651  1.00  0.00    -0.333 A  
ENDBRANCH   7  19
ENDBRANCH   6   7
ENDBRANCH   5   6
ENDBRANCH   4   5
BRANCH   4  25
HETATM   25  C   UNL     1      -8.304  18.102  68.546  1.00  0.00    -0.301 C  
HETATM   26  C   UNL     1      -7.866  19.288  67.668  1.00  0.00    -0.295 C  
HETATM   27  C   UNL     1      -9.816  18.334  68.784  1.00  0.00    -0.377 C  
ENDBRANCH   4  25
ENDBRANCH   2   4
TORSDOF 8
ENDMDL
MODEL      100
REMARK 921   NORMALIZED FREE ENERGY PREDICTED BY IDOCK:   -4.33 KCAL/MOL
REMARK 922        TOTAL FREE ENERGY PREDICTED BY IDOCK:   -8.07 KCAL/MOL
REMARK 923 INTER-LIGAND FREE ENERGY PREDICTED BY IDOCK:   -6.70 KCAL/MOL
REMARK 924 INTRA-LIGAND FREE ENERGY PREDICTED BY IDOCK:   -1.36 KCAL/MOL
REMARK 927      BINDING AFFINITY PREDICTED BY RF-SCORE:    0.00 PKD
ROOT
HETATM    1  C   UNL     1     -13.237   9.987  70.480  1.00  0.00    -0.059 C  
HETATM    2  C   UNL     1     -11.918  10.652  70.945  1.00  0.00    -0.363 C  
HETATM    3  C   UNL     1     -10.962   9.489  71.254  1.00  0.00    -0.440 C  
ENDROOT
BRANCH   2   4
HETATM    4  N   UNL     1     -11.433  11.672  69.954  1.00  0.00    -0.262 NA 
BRANCH   4   5
HETATM    5  C   UNL     1     -11.899  11.333  68.565  1.00  0.00    -0.285 C  
BRANCH   5   6
HETATM    6  C   UNL     1     -10.957  10.386  67.794  1.00  0.00    -0.369 C  
BRANCH   6   7
HETATM    7  C   UNL     1     -10.059  10.994  66.659  1.00  0.00    -0.262 C  
BRANCH   7   8
HETATM    8  C   UNL     1     -10.643  12.387  66.284  1.00  0.00    -0.277 A  
HETATM    9  C   UNL     1      -9.882  13.567  66.378  1.00  0.00    -0.299 A  
HETATM   10  C   UNL     1     -10.401  14.804  65.981  1.00  0.00    -0.318 A  
HETATM   11  C   UNL     1     -11.943  12.506  65.747  1.00  0.00    -0.482 A  
HETATM   12  C   UNL     1     -11.694  14.894  65.479  1.00  0.00    -0.211 A  
HETATM   13  C   UNL     1     -12.466  13.745  65.365  1.00  0.00    -0.532 A  
ENDBRANCH   7   8
BRANCH   7  14
HETATM   14  C   UNL     1      -9.965   9.989  65.463  1.00  0.00    -0.296 C  
HETATM   15  N   UNL     1      -9.582   8.706  65.765  1.00  0.00    -0.457 N  
HETATM   16  H1  UNL     1      -9.521   8.051  64.985  1.00  0.00     0.000 HD 
HETATM   17  O   UNL     1     -10.168  10.267  64.284  1.00  0.00    -0.269 OA 
HETATM   18  H2  UNL     1      -9.370   8.422  66.720  1.00  0.00     0.000 HD 
ENDBRANCH   7  14
BRANCH   7  19
HETATM   19  C   UNL     1      -8.602  11.111  67.213  1.00  0.00    -0.140 A  
HETATM   20  C   UNL     1      -5.991  11.195  68.120  1.00  0.00    -0.045 A  
HETATM   21  N   UNL     1      -7.574  10.996  66.324  1.00  0.00    -0.137 NA 
HETATM   22  C   UNL     1      -7.032  11.345  69.025  1.00  0.00    -0.106 A  
HETATM   23  C   UNL     1      -6.307  11.031  66.789  1.00  0.00    -0.114 A  
HETATM   24  C   UNL     1      -8.356  11.311  68.573  1.00  0.00    -0.155 A  
ENDBRANCH   7  19
ENDBRANCH   6   7
ENDBRANCH   5   6
ENDBRANCH   4   5
BRANCH   4  25
HETATM   25  C   UNL     1     -11.690  13.113  70.285  1.00  0.00    -0.127 C  
HETATM   26  C   UNL     1     -12.185  14.004  69.132  1.00  0.00    -0.299 C  
HETATM   27  C   UNL     1     -12.765  13.272  71.387  1.00  0.00    -0.401 C  
ENDBRANCH   4  25
ENDBRANCH   2   4
TORSDOF 8
ENDMDL
MODEL      101
REMARK 921   NORMALIZED FREE ENERGY PREDICTED BY IDOCK:   -4.33 KCAL/MOL
REMARK 922        TOTAL FREE ENERGY PREDICTED BY IDOCK:   -8.06 KCAL/MOL
REMARK 923 INTER-LIGAND FREE ENERGY PREDICTED BY IDOCK:   -6.51 KCAL/MOL
REMARK 924 INTRA-LIGAND FREE ENERGY PREDICTED BY IDOCK:   -1.55 KCAL/MOL
REMARK 927      BINDING AFFINITY PREDICTED BY RF-SCORE:    0.00 PKD
ROOT
HETATM    1  C   UNL     1     -12.576  12.209  63.374  1.00  0.00    -0.584 C  
HETATM    2  C   UNL     1     -11.374  11.907  64.303  1.00  0.00    -0.353 C  
HETATM    3  C   UNL     1     -10.150  11.834  63.376  1.00  0.00    -0.470 C  
ENDROOT
BRANCH   2   4
HETATM    4  N   UNL     1     -11.295  12.884  65.442  1.00  0.00    -0.295 NA 
BRANCH   4   5
HETATM    5  C   UNL     1     -11.324  12.167  66.764  1.00  0.00    -0.342 C  
BRANCH   5   6
HETATM    6  C   UNL     1     -11.107  10.644  66.664  1.00  0.00    -0.053 C  
BRANCH   6   7
HETATM    7  C   UNL     1     -10.176   9.956  67.725  1.00  0.00    -0.241 C  
BRANCH   7   8
HETATM    8  C   UNL     1      -8.808  10.698  67.712  1.00  0.00    -0.133 A  
HETATM    9  C   UNL     1      -8.286  11.325  68.859  1.00  0.00    -0.079 A  
HETATM   10  C   UNL     1      -7.028  11.936  68.848  1.00  0.00    -0.110 A  
HETATM   11  C   UNL     1      -7.993  10.692  66.559  1.00  0.00    -0.138 A  
HETATM   12  C   UNL     1      -6.258  11.937  67.690  1.00  0.00    -0.083 A  
HETATM   13  C   UNL     1      -6.742  11.317  66.544  1.00  0.00    -0.105 A  
ENDBRANCH   7   8
BRANCH   7  14
HETATM   14  C   UNL     1     -10.082   8.422  67.431  1.00  0.00    -0.236 C  
HETATM   15  N   UNL     1      -9.058   7.739  68.039  1.00  0.00    -0.129 N  
HETATM   16  H1  UNL     1      -8.996   6.740  67.846  1.00  0.00     0.000 HD 
HETATM   17  O   UNL     1     -10.822   7.796  66.676  1.00  0.00    -0.143 OA 
HETATM   18  H2  UNL     1      -8.391   8.209  68.651  1.00  0.00     0.000 HD 
ENDBRANCH   7  14
BRANCH   7  19
HETATM   19  C   UNL     1     -10.876  10.065  69.119  1.00  0.00    -0.222 A  
HETATM   20  C   UNL     1     -12.159  10.119  71.567  1.00  0.00    -0.442 A  
HETATM   21  N   UNL     1     -10.646   9.072  70.024  1.00  0.00    -0.221 NA 
HETATM   22  C   UNL     1     -12.373  11.150  70.663  1.00  0.00    -0.482 A  
HETATM   23  C   UNL     1     -11.289   9.113  71.210  1.00  0.00    -0.336 A  
HETATM   24  C   UNL     1     -11.722  11.133  69.425  1.00  0.00    -0.402 A  
ENDBRANCH   7  19
ENDBRANCH   6   7
ENDBRANCH   5   6
ENDBRANCH   4   5
BRANCH   4  25
HETATM   25  C   UNL     1     -10.189  13.897  65.389  1.00  0.00    -0.337 C  
HETATM   26  C   UNL     1     -10.542  15.267  64.780  1.00  0.00    -0.283 C  
HETATM   27  C   UNL     1      -9.638  14.229  66.797  1.00  0.00    -0.290 C  
ENDBRANCH   4  25
ENDBRANCH   2   4
TORSDOF 8
ENDMDL
MODEL      102
REMARK 921   NORMALIZED FREE ENERGY PREDICTED BY IDOCK:   -4.32 KCAL/MOL
REMARK 922        TOTAL FREE ENERGY PREDICTED BY IDOCK:   -8.06 KCAL/MOL
REMARK 923 INTER-LIGAND FREE ENERGY PREDICTED BY IDOCK:   -7.10 KCAL/MOL
REMARK 924 INTRA-LIGAND FREE ENERGY PREDICTED BY IDOCK:   -0.96 KCAL/MOL
REMARK 927      BINDING AFFINITY PREDICTED BY RF-SCORE:    0.00 PKD
ROOT
HETATM    1  C   UNL     1     -13.233  11.418  71.893  1.00  0.00    -0.485 C  
HETATM    2  C   UNL     1     -12.704   9.966  71.785  1.00  0.00    -0.428 C  
HETATM    3  C   UNL     1     -13.895   9.069  72.160  1.00  0.00    -0.526 C  
ENDROOT
BRANCH   2   4
HETATM    4  N   UNL     1     -12.064   9.707  70.450  1.00  0.00    -0.123 NA 
BRANCH   4   5
HETATM    5  C   UNL     1     -11.936  10.982  69.662  1.00  0.00    -0.353 C  
BRANCH   5   6
HETATM    6  C   UNL     1     -11.296  10.805  68.271  1.00  0.00    -0.376 C  
BRANCH   6   7
HETATM    7  C   UNL     1     -10.380  11.957  67.723  1.00  0.00    -0.214 C  
BRANCH   7   8
HETATM    8  C   UNL     1      -8.954  11.754  68.313  1.00  0.00    -0.180 A  
HETATM    9  C   UNL     1      -8.607  10.608  69.053  1.00  0.00    -0.150 A  
HETATM   10  C   UNL     1      -7.306  10.411  69.525  1.00  0.00    -0.144 A  
HETATM   11  C   UNL     1      -7.923  12.681  68.049  1.00  0.00    -0.155 A  
HETATM   12  C   UNL     1      -6.316  11.354  69.271  1.00  0.00    -0.084 A  
HETATM   13  C   UNL     1      -6.626  12.491  68.535  1.00  0.00    -0.077 A  
ENDBRANCH   7   8
BRANCH   7  14
HETATM   14  C   UNL     1     -11.023  13.346  68.051  1.00  0.00    -0.244 C  
HETATM   15  N   UNL     1     -12.250  13.604  67.492  1.00  0.00    -0.381 N  
HETATM   16  H1  UNL     1     -12.668  14.509  67.705  1.00  0.00     0.000 HD 
HETATM   17  O   UNL     1     -10.503  14.227  68.731  1.00  0.00    -0.241 OA 
HETATM   18  H2  UNL     1     -12.718  12.926  66.892  1.00  0.00     0.000 HD 
ENDBRANCH   7  14
BRANCH   7  19
HETATM   19  C   UNL     1     -10.376  11.864  66.163  1.00  0.00    -0.226 A  
HETATM   20  C   UNL     1     -10.498  11.768  63.402  1.00  0.00    -0.485 A  
HETATM   21  N   UNL     1     -10.646  13.000  65.458  1.00  0.00    -0.277 NA 
HETATM   22  C   UNL     1     -10.192  10.615  64.111  1.00  0.00    -0.365 A  
HETATM   23  C   UNL     1     -10.709  12.930  64.112  1.00  0.00    -0.415 A  
HETATM   24  C   UNL     1     -10.121  10.657  65.508  1.00  0.00    -0.343 A  
ENDBRANCH   7  19
ENDBRANCH   6   7
ENDBRANCH   5   6
ENDBRANCH   4   5
BRANCH   4  25
HETATM   25  C   UNL     1     -10.781   8.930  70.454  1.00  0.00    -0.227 C  
HETATM   26  C   UNL     1     -10.166   8.626  71.832  1.00  0.00    -0.404 C  
HETATM   27  C   UNL     1     -10.941   7.543  69.786  1.00  0.00    -0.195 C  
ENDBRANCH   4  25
ENDBRANCH   2   4
TORSDOF 8
ENDMDL
MODEL      103
REMARK 921   NORMALIZED FREE ENERGY PREDICTED BY IDOCK:   -4.31 KCAL/MOL
REMARK 922        TOTAL FREE ENERGY PREDICTED BY IDOCK:   -8.04 KCAL/MOL
REMARK 923 INTER-LIGAND FREE ENERGY PREDICTED BY IDOCK:   -6.61 KCAL/MOL
REMARK 924 INTRA-LIGAND FREE ENERGY PREDICTED BY IDOCK:   -1.43 KCAL/MOL
REMARK 927      BINDING AFFINITY PREDICTED BY RF-SCORE:    0.00 PKD
ROOT
HETATM    1  C   UNL     1      -9.155   8.257  66.807  1.00  0.00    -0.190 C  
HETATM    2  C   UNL     1      -9.051   9.791  66.620  1.00  0.00    -0.147 C  
HETATM    3  C   UNL     1      -7.587  10.056  66.230  1.00  0.00    -0.106 C  
ENDROOT
BRANCH   2   4
HETATM    4  N   UNL     1     -10.099  10.308  65.677  1.00  0.00    -0.281 NA 
BRANCH   4   5
HETATM    5  C   UNL     1     -11.027  11.262  66.379  1.00  0.00    -0.227 C  
BRANCH   5   6
HETATM    6  C   UNL     1     -10.524  11.736  67.757  1.00  0.00    -0.219 C  
BRANCH   6   7
HETATM    7  C   UNL     1     -10.679  13.255  68.122  1.00  0.00    -0.264 C  
BRANCH   7   8
HETATM    8  C   UNL     1      -9.285  13.782  68.572  1.00  0.00    -0.138 A  
HETATM    9  C   UNL     1      -8.097  13.075  68.308  1.00  0.00    -0.151 A  
HETATM   10  C   UNL     1      -6.847  13.589  68.666  1.00  0.00    -0.098 A  
HETATM   11  C   UNL     1      -9.154  15.045  69.190  1.00  0.00    -0.183 A  
HETATM   12  C   UNL     1      -6.751  14.825  69.296  1.00  0.00    -0.137 A  
HETATM   13  C   UNL     1      -7.905  15.551  69.560  1.00  0.00    -0.194 A  
ENDBRANCH   7   8
BRANCH   7  14
HETATM   14  C   UNL     1     -11.811  13.431  69.187  1.00  0.00    -0.336 C  
HETATM   15  N   UNL     1     -12.528  14.601  69.137  1.00  0.00    -0.577 N  
HETATM   16  H1  UNL     1     -13.265  14.716  69.832  1.00  0.00     0.000 HD 
HETATM   17  O   UNL     1     -12.079  12.630  70.079  1.00  0.00    -0.316 OA 
HETATM   18  H2  UNL     1     -12.332  15.319  68.441  1.00  0.00     0.000 HD 
ENDBRANCH   7  14
BRANCH   7  19
HETATM   19  C   UNL     1     -11.192  14.003  66.848  1.00  0.00    -0.313 A  
HETATM   20  C   UNL     1     -12.144  15.195  64.542  1.00  0.00    -0.310 A  
HETATM   21  N   UNL     1     -12.461  13.738  66.425  1.00  0.00    -0.401 NA 
HETATM   22  C   UNL     1     -10.864  15.494  64.985  1.00  0.00    -0.468 A  
HETATM   23  C   UNL     1     -12.904  14.324  65.293  1.00  0.00    -0.281 A  
HETATM   24  C   UNL     1     -10.377  14.900  66.155  1.00  0.00    -0.312 A  
ENDBRANCH   7  19
ENDBRANCH   6   7
ENDBRANCH   5   6
ENDBRANCH   4   5
BRANCH   4  25
HETATM   25  C   UNL     1      -9.617  10.869  64.371  1.00  0.00    -0.265 C  
HETATM   26  C   UNL     1      -9.389   9.859  63.232  1.00  0.00    -0.221 C  
HETATM   27  C   UNL     1     -10.610  11.901  63.782  1.00  0.00    -0.475 C  
ENDBRANCH   4  25
ENDBRANCH   2   4
TORSDOF 8
ENDMDL
MODEL      104
REMARK 921   NORMALIZED FREE ENERGY PREDICTED BY IDOCK:   -4.31 KCAL/MOL
REMARK 922        TOTAL FREE ENERGY PREDICTED BY IDOCK:   -8.04 KCAL/MOL
REMARK 923 INTER-LIGAND FREE ENERGY PREDICTED BY IDOCK:   -6.88 KCAL/MOL
REMARK 924 INTRA-LIGAND FREE ENERGY PREDICTED BY IDOCK:   -1.16 KCAL/MOL
REMARK 927      BINDING AFFINITY PREDICTED BY RF-SCORE:    0.00 PKD
ROOT
HETATM    1  C   UNL     1      -7.854  16.634  66.250  1.00  0.00    -0.309 C  
HETATM    2  C   UNL     1      -7.663  15.718  67.485  1.00  0.00    -0.161 C  
HETATM    3  C   UNL     1      -7.084  16.627  68.581  1.00  0.00    -0.183 C  
ENDROOT
BRANCH   2   4
HETATM    4  N   UNL     1      -8.925  14.977  67.827  1.00  0.00    -0.176 NA 
BRANCH   4   5
HETATM    5  C   UNL     1      -8.618  13.567  68.253  1.00  0.00    -0.168 C  
BRANCH   5   6
HETATM    6  C   UNL     1      -8.478  12.569  67.086  1.00  0.00    -0.186 C  
BRANCH   6   7
HETATM    7  C   UNL     1      -9.676  11.597  66.793  1.00  0.00    -0.220 C  
BRANCH   7   8
HETATM    8  C   UNL     1     -10.202  11.064  68.158  1.00  0.00    -0.201 A  
HETATM    9  C   UNL     1     -11.553  11.181  68.535  1.00  0.00    -0.385 A  
HETATM   10  C   UNL     1     -12.023  10.644  69.738  1.00  0.00    -0.363 A  
HETATM   11  C   UNL     1      -9.350  10.360  69.036  1.00  0.00    -0.201 A  
HETATM   12  C   UNL     1     -11.155   9.976  70.595  1.00  0.00    -0.408 A  
HETATM   13  C   UNL     1      -9.818   9.837  70.245  1.00  0.00    -0.296 A  
ENDBRANCH   7   8
BRANCH   7  14
HETATM   14  C   UNL     1      -9.220  10.481  65.796  1.00  0.00    -0.182 C  
HETATM   15  N   UNL     1      -8.082  10.731  65.069  1.00  0.00    -0.353 N  
HETATM   16  H1  UNL     1      -7.786  10.003  64.419  1.00  0.00     0.000 HD 
HETATM   17  O   UNL     1      -9.817   9.428  65.587  1.00  0.00    -0.296 OA 
HETATM   18  H2  UNL     1      -7.561  11.600  65.174  1.00  0.00     0.000 HD 
ENDBRANCH   7  14
BRANCH   7  19
HETATM   19  C   UNL     1     -10.774  12.407  66.030  1.00  0.00    -0.261 A  
HETATM   20  C   UNL     1     -12.609  13.903  64.602  1.00  0.00    -0.287 A  
HETATM   21  N   UNL     1     -10.728  12.411  64.667  1.00  0.00    -0.289 NA 
HETATM   22  C   UNL     1     -12.681  13.878  65.987  1.00  0.00    -0.410 A  
HETATM   23  C   UNL     1     -11.628  13.154  63.990  1.00  0.00    -0.428 A  
HETATM   24  C   UNL     1     -11.761  13.118  66.717  1.00  0.00    -0.439 A  
ENDBRANCH   7  19
ENDBRANCH   6   7
ENDBRANCH   5   6
ENDBRANCH   4   5
BRANCH   4  25
HETATM   25  C   UNL     1      -9.867  15.649  68.782  1.00  0.00    -0.213 C  
HETATM   26  C   UNL     1     -10.972  16.519  68.159  1.00  0.00    -0.336 C  
HETATM   27  C   UNL     1     -10.627  14.627  69.662  1.00  0.00    -0.125 C  
ENDBRANCH   4  25
ENDBRANCH   2   4
TORSDOF 8
ENDMDL
MODEL      105
REMARK 921   NORMALIZED FREE ENERGY PREDICTED BY IDOCK:   -4.31 KCAL/MOL
REMARK 922        TOTAL FREE ENERGY PREDICTED BY IDOCK:   -8.04 KCAL/MOL
REMARK 923 INTER-LIGAND FREE ENERGY PREDICTED BY IDOCK:   -6.95 KCAL/MOL
REMARK 924 INTRA-LIGAND FREE ENERGY PREDICTED BY IDOCK:   -1.09 KCAL/MOL
REMARK 927      BINDING AFFINITY PREDICTED BY RF-SCORE:    0.00 PKD
ROOT
HETATM    1  C   UNL     1     -12.396  14.424  66.216  1.00  0.00    -0.325 C  
HETATM    2  C   UNL     1     -11.319  13.905  65.231  1.00  0.00    -0.314 C  
HETATM    3  C   UNL     1     -10.134  14.875  65.375  1.00  0.00    -0.400 C  
ENDROOT
BRANCH   2   4
HETATM    4  N   UNL     1     -11.022  12.449  65.450  1.00  0.00    -0.290 NA 
BRANCH   4   5
HETATM    5  C   UNL     1     -11.752  11.930  66.659  1.00  0.00    -0.186 C  
BRANCH   5   6
HETATM    6  C   UNL     1     -11.071  10.728  67.344  1.00  0.00    -0.363 C  
BRANCH   6   7
HETATM    7  C   UNL     1     -10.357  10.966  68.721  1.00  0.00    -0.215 C  
BRANCH   7   8
HETATM    8  C   UNL     1     -10.830  12.343  69.272  1.00  0.00    -0.073 A  
HETATM    9  C   UNL     1     -10.128  13.534  69.011  1.00  0.00     0.076 A  
HETATM   10  C   UNL     1     -10.597  14.772  69.463  1.00  0.00    -0.200 A  
HETATM   11  C   UNL     1     -12.041  12.458  69.988  1.00  0.00    -0.335 A  
HETATM   12  C   UNL     1     -11.782  14.852  70.186  1.00  0.00    -0.340 A  
HETATM   13  C   UNL     1     -12.502  13.694  70.452  1.00  0.00    -0.364 A  
ENDBRANCH   7   8
BRANCH   7  14
HETATM   14  C   UNL     1      -8.807  10.839  68.543  1.00  0.00    -0.149 C  
HETATM   15  N   UNL     1      -8.056  10.801  69.692  1.00  0.00    -0.379 N  
HETATM   16  H1  UNL     1      -7.047  10.719  69.576  1.00  0.00     0.000 HD 
HETATM   17  O   UNL     1      -8.216  10.810  67.467  1.00  0.00    -0.111 OA 
HETATM   18  H2  UNL     1      -8.487  10.853  70.615  1.00  0.00     0.000 HD 
ENDBRANCH   7  14
BRANCH   7  19
HETATM   19  C   UNL     1     -10.759   9.796  69.677  1.00  0.00    -0.242 A  
HETATM   20  C   UNL     1     -11.551   7.671  71.259  1.00  0.00    -0.302 A  
HETATM   21  N   UNL     1     -10.641   8.522  69.205  1.00  0.00    -0.210 NA 
HETATM   22  C   UNL     1     -11.644   8.962  71.757  1.00  0.00    -0.422 A  
HETATM   23  C   UNL     1     -11.041   7.500  69.990  1.00  0.00    -0.204 A  
HETATM   24  C   UNL     1     -11.238  10.043  70.966  1.00  0.00    -0.387 A  
ENDBRANCH   7  19
ENDBRANCH   6   7
ENDBRANCH   5   6
ENDBRANCH   4   5
BRANCH   4  25
HETATM   25  C   UNL     1     -11.194  11.538  64.270  1.00  0.00    -0.283 C  
HETATM   26  C   UNL     1     -12.462  11.743  63.423  1.00  0.00    -0.490 C  
HETATM   27  C   UNL     1     -10.027  11.670  63.261  1.00  0.00    -0.442 C  
ENDBRANCH   4  25
ENDBRANCH   2   4
TORSDOF 8
ENDMDL
MODEL      106
REMARK 921   NORMALIZED FREE ENERGY PREDICTED BY IDOCK:   -4.28 KCAL/MOL
REMARK 922        TOTAL FREE ENERGY PREDICTED BY IDOCK:   -7.99 KCAL/MOL
REMARK 923 INTER-LIGAND FREE ENERGY PREDICTED BY IDOCK:   -6.39 KCAL/MOL
REMARK 924 INTRA-LIGAND FREE ENERGY PREDICTED BY IDOCK:   -1.60 KCAL/MOL
REMARK 927      BINDING AFFINITY PREDICTED BY RF-SCORE:    0.00 PKD
ROOT
HETATM    1  C   UNL     1     -11.369   4.796  73.359  1.00  0.00    -0.397 C  
HETATM    2  C   UNL     1      -9.854   4.503  73.491  1.00  0.00    -0.136 C  
HETATM    3  C   UNL     1      -9.609   3.239  72.651  1.00  0.00    -0.181 C  
ENDROOT
BRANCH   2   4
HETATM    4  N   UNL     1      -9.024   5.707  73.148  1.00  0.00    -0.122 NA 
BRANCH   4   5
HETATM    5  C   UNL     1      -9.894   6.836  72.667  1.00  0.00    -0.168 C  
BRANCH   5   6
HETATM    6  C   UNL     1      -9.490   7.407  71.293  1.00  0.00    -0.159 C  
BRANCH   6   7
HETATM    7  C   UNL     1     -10.614   7.620  70.218  1.00  0.00    -0.233 C  
BRANCH   7   8
HETATM    8  C   UNL     1     -11.895   8.104  70.958  1.00  0.00    -0.279 A  
HETATM    9  C   UNL     1     -13.035   7.289  71.091  1.00  0.00    -0.313 A  
HETATM   10  C   UNL     1     -14.156   7.715  71.810  1.00  0.00    -0.510 A  
HETATM   11  C   UNL     1     -11.927   9.359  71.603  1.00  0.00    -0.465 A  
HETATM   12  C   UNL     1     -14.168   8.967  72.415  1.00  0.00    -0.452 A  
HETATM   13  C   UNL     1     -13.055   9.790  72.309  1.00  0.00    -0.445 A  
ENDBRANCH   7   8
BRANCH   7  14
HETATM   14  C   UNL     1     -10.805   6.310  69.384  1.00  0.00    -0.340 C  
HETATM   15  N   UNL     1     -11.504   6.424  68.208  1.00  0.00    -0.527 N  
HETATM   16  H1  UNL     1     -11.629   5.570  67.666  1.00  0.00     0.000 HD 
HETATM   17  O   UNL     1     -10.416   5.193  69.717  1.00  0.00    -0.285 OA 
HETATM   18  H2  UNL     1     -11.880   7.318  67.894  1.00  0.00     0.000 HD 
ENDBRANCH   7  14
BRANCH   7  19
HETATM   19  C   UNL     1     -10.103   8.687  69.196  1.00  0.00    -0.199 A  
HETATM   20  C   UNL     1      -9.280  10.508  67.285  1.00  0.00    -0.156 A  
HETATM   21  N   UNL     1     -11.031   9.324  68.426  1.00  0.00    -0.062 NA 
HETATM   22  C   UNL     1      -8.333   9.887  68.086  1.00  0.00    -0.110 A  
HETATM   23  C   UNL     1     -10.608  10.203  67.494  1.00  0.00    -0.273 A  
HETATM   24  C   UNL     1      -8.742   8.970  69.061  1.00  0.00    -0.138 A  
ENDBRANCH   7  19
ENDBRANCH   6   7
ENDBRANCH   5   6
ENDBRANCH   4   5
BRANCH   4  25
HETATM   25  C   UNL     1      -8.042   6.170  74.184  1.00  0.00    -0.105 C  
HETATM   26  C   UNL     1      -6.552   6.036  73.825  1.00  0.00    -0.075 C  
HETATM   27  C   UNL     1      -8.225   7.668  74.527  1.00  0.00    -0.258 C  
ENDBRANCH   4  25
ENDBRANCH   2   4
TORSDOF 8
ENDMDL
MODEL      107
REMARK 921   NORMALIZED FREE ENERGY PREDICTED BY IDOCK:   -4.21 KCAL/MOL
REMARK 922        TOTAL FREE ENERGY PREDICTED BY IDOCK:   -7.89 KCAL/MOL
REMARK 923 INTER-LIGAND FREE ENERGY PREDICTED BY IDOCK:   -6.58 KCAL/MOL
REMARK 924 INTRA-LIGAND FREE ENERGY PREDICTED BY IDOCK:   -1.30 KCAL/MOL
REMARK 927      BINDING AFFINITY PREDICTED BY RF-SCORE:    0.00 PKD
ROOT
HETATM    1  C   UNL     1      -7.970   7.187  69.069  1.00  0.00    -0.120 C  
HETATM    2  C   UNL     1      -7.490   8.146  67.951  1.00  0.00    -0.098 C  
HETATM    3  C   UNL     1      -5.990   7.854  67.780  1.00  0.00    -0.042 C  
ENDROOT
BRANCH   2   4
HETATM    4  N   UNL     1      -8.340   8.030  66.718  1.00  0.00    -0.114 NA 
BRANCH   4   5
HETATM    5  C   UNL     1      -8.780   9.388  66.243  1.00  0.00    -0.140 C  
BRANCH   5   6
HETATM    6  C   UNL     1     -10.191   9.796  66.712  1.00  0.00    -0.300 C  
BRANCH   6   7
HETATM    7  C   UNL     1     -10.330  11.052  67.644  1.00  0.00    -0.223 C  
BRANCH   7   8
HETATM    8  C   UNL     1     -11.190  12.110  66.892  1.00  0.00    -0.375 A  
HETATM    9  C   UNL     1     -11.426  13.393  67.420  1.00  0.00    -0.368 A  
HETATM   10  C   UNL     1     -12.151  14.353  66.707  1.00  0.00    -0.393 A  
HETATM   11  C   UNL     1     -11.696  11.846  65.601  1.00  0.00    -0.214 A  
HETATM   12  C   UNL     1     -12.658  14.057  65.446  1.00  0.00    -0.529 A  
HETATM   13  C   UNL     1     -12.433  12.802  64.895  1.00  0.00    -0.563 A  
ENDBRANCH   7   8
BRANCH   7  14
HETATM   14  C   UNL     1      -8.911  11.556  68.068  1.00  0.00    -0.158 C  
HETATM   15  N   UNL     1      -8.509  11.262  69.347  1.00  0.00    -0.349 N  
HETATM   16  H1  UNL     1      -7.585  11.591  69.623  1.00  0.00     0.000 HD 
HETATM   17  O   UNL     1      -8.153  12.220  67.365  1.00  0.00    -0.156 OA 
HETATM   18  H2  UNL     1      -9.106  10.742  69.989  1.00  0.00     0.000 HD 
ENDBRANCH   7  14
BRANCH   7  19
HETATM   19  C   UNL     1     -11.016  10.591  68.970  1.00  0.00    -0.243 A  
HETATM   20  C   UNL     1     -12.266   9.649  71.250  1.00  0.00    -0.452 A  
HETATM   21  N   UNL     1     -10.702   9.354  69.450  1.00  0.00    -0.226 NA 
HETATM   22  C   UNL     1     -12.566  10.920  70.785  1.00  0.00    -0.470 A  
HETATM   23  C   UNL     1     -11.330   8.910  70.560  1.00  0.00    -0.234 A  
HETATM   24  C   UNL     1     -11.933  11.408  69.636  1.00  0.00    -0.416 A  
ENDBRANCH   7  19
ENDBRANCH   6   7
ENDBRANCH   5   6
ENDBRANCH   4   5
BRANCH   4  25
HETATM   25  C   UNL     1      -7.790   7.205  65.592  1.00  0.00    -0.112 C  
HETATM   26  C   UNL     1      -8.477   5.852  65.333  1.00  0.00    -0.153 C  
HETATM   27  C   UNL     1      -7.871   7.946  64.236  1.00  0.00    -0.136 C  
ENDBRANCH   4  25
ENDBRANCH   2   4
TORSDOF 8
ENDMDL
MODEL      108
REMARK 921   NORMALIZED FREE ENERGY PREDICTED BY IDOCK:   -4.21 KCAL/MOL
REMARK 922        TOTAL FREE ENERGY PREDICTED BY IDOCK:   -7.88 KCAL/MOL
REMARK 923 INTER-LIGAND FREE ENERGY PREDICTED BY IDOCK:   -6.98 KCAL/MOL
REMARK 924 INTRA-LIGAND FREE ENERGY PREDICTED BY IDOCK:   -0.90 KCAL/MOL
REMARK 927      BINDING AFFINITY PREDICTED BY RF-SCORE:    0.00 PKD
ROOT
HETATM    1  C   UNL     1      -7.746  16.097  68.789  1.00  0.00    -0.200 C  
HETATM    2  C   UNL     1      -8.031  16.644  67.368  1.00  0.00    -0.163 C  
HETATM    3  C   UNL     1      -6.650  16.952  66.765  1.00  0.00    -0.260 C  
ENDROOT
BRANCH   2   4
HETATM    4  N   UNL     1      -8.912  15.715  66.582  1.00  0.00    -0.258 NA 
BRANCH   4   5
HETATM    5  C   UNL     1      -8.754  14.297  67.059  1.00  0.00    -0.212 C  
BRANCH   5   6
HETATM    6  C   UNL     1      -9.880  13.813  67.995  1.00  0.00    -0.239 C  
BRANCH   6   7
HETATM    7  C   UNL     1     -10.415  12.348  67.818  1.00  0.00    -0.231 C  
BRANCH   7   8
HETATM    8  C   UNL     1     -10.955  12.210  66.364  1.00  0.00    -0.327 A  
HETATM    9  C   UNL     1     -12.133  12.853  65.939  1.00  0.00    -0.503 A  
HETATM   10  C   UNL     1     -12.573  12.769  64.615  1.00  0.00    -0.491 A  
HETATM   11  C   UNL     1     -10.226  11.498  65.386  1.00  0.00    -0.311 A  
HETATM   12  C   UNL     1     -11.847  12.040  63.679  1.00  0.00    -0.602 A  
HETATM   13  C   UNL     1     -10.676  11.402  64.066  1.00  0.00    -0.450 A  
ENDBRANCH   7   8
BRANCH   7  14
HETATM   14  C   UNL     1     -11.468  12.031  68.931  1.00  0.00    -0.301 C  
HETATM   15  N   UNL     1     -12.089  10.808  68.861  1.00  0.00    -0.492 N  
HETATM   16  H1  UNL     1     -12.775  10.602  69.586  1.00  0.00     0.000 HD 
HETATM   17  O   UNL     1     -11.807  12.798  69.828  1.00  0.00    -0.315 OA 
HETATM   18  H2  UNL     1     -11.874  10.140  68.121  1.00  0.00     0.000 HD 
ENDBRANCH   7  14
BRANCH   7  19
HETATM   19  C   UNL     1      -9.227  11.369  68.085  1.00  0.00    -0.178 A  
HETATM   20  C   UNL     1      -7.212   9.559  68.645  1.00  0.00    -0.074 A  
HETATM   21  N   UNL     1      -9.464  10.032  67.956  1.00  0.00    -0.137 NA 
HETATM   22  C   UNL     1      -6.955  10.918  68.747  1.00  0.00    -0.078 A  
HETATM   23  C   UNL     1      -8.470   9.166  68.242  1.00  0.00    -0.125 A  
HETATM   24  C   UNL     1      -7.966  11.841  68.458  1.00  0.00    -0.145 A  
ENDBRANCH   7  19
ENDBRANCH   6   7
ENDBRANCH   5   6
ENDBRANCH   4   5
BRANCH   4  25
HETATM   25  C   UNL     1     -10.358  16.096  66.457  1.00  0.00    -0.308 C  
HETATM   26  C   UNL     1     -10.749  17.488  66.985  1.00  0.00    -0.157 C  
HETATM   27  C   UNL     1     -10.834  16.091  64.985  1.00  0.00    -0.421 C  
ENDBRANCH   4  25
ENDBRANCH   2   4
TORSDOF 8
ENDMDL
MODEL      109
REMARK 921   NORMALIZED FREE ENERGY PREDICTED BY IDOCK:   -4.20 KCAL/MOL
REMARK 922        TOTAL FREE ENERGY PREDICTED BY IDOCK:   -7.88 KCAL/MOL
REMARK 923 INTER-LIGAND FREE ENERGY PREDICTED BY IDOCK:   -6.48 KCAL/MOL
REMARK 924 INTRA-LIGAND FREE ENERGY PREDICTED BY IDOCK:   -1.40 KCAL/MOL
REMARK 927      BINDING AFFINITY PREDICTED BY RF-SCORE:    0.00 PKD
ROOT
HETATM    1  C   UNL     1      -6.429   8.880  68.729  1.00  0.00    -0.053 C  
HETATM    2  C   UNL     1      -7.206  10.191  69.010  1.00  0.00    -0.076 C  
HETATM    3  C   UNL     1      -6.173  11.319  68.853  1.00  0.00    -0.052 C  
ENDROOT
BRANCH   2   4
HETATM    4  N   UNL     1      -8.444  10.294  68.165  1.00  0.00    -0.121 NA 
BRANCH   4   5
HETATM    5  C   UNL     1      -8.752  11.730  67.841  1.00  0.00    -0.164 C  
BRANCH   5   6
HETATM    6  C   UNL     1     -10.118  12.218  68.362  1.00  0.00    -0.215 C  
BRANCH   6   7
HETATM    7  C   UNL     1     -10.630  13.628  67.897  1.00  0.00    -0.255 C  
BRANCH   7   8
HETATM    8  C   UNL     1      -9.417  14.603  67.910  1.00  0.00    -0.210 A  
HETATM    9  C   UNL     1      -8.837  15.091  66.724  1.00  0.00    -0.299 A  
HETATM   10  C   UNL     1      -7.786  16.013  66.751  1.00  0.00    -0.288 A  
HETATM   11  C   UNL     1      -8.906  15.106  69.126  1.00  0.00    -0.221 A  
HETATM   12  C   UNL     1      -7.287  16.473  67.965  1.00  0.00    -0.151 A  
HETATM   13  C   UNL     1      -7.845  16.017  69.152  1.00  0.00    -0.233 A  
ENDBRANCH   7   8
BRANCH   7  14
HETATM   14  C   UNL     1     -11.830  14.078  68.795  1.00  0.00    -0.361 C  
HETATM   15  N   UNL     1     -12.391  15.298  68.508  1.00  0.00    -0.508 N  
HETATM   16  H1  UNL     1     -13.173  15.591  69.093  1.00  0.00     0.000 HD 
HETATM   17  O   UNL     1     -12.279  13.449  69.750  1.00  0.00    -0.302 OA 
HETATM   18  H2  UNL     1     -12.043  15.881  67.747  1.00  0.00     0.000 HD 
ENDBRANCH   7  14
BRANCH   7  19
HETATM   19  C   UNL     1     -11.227  13.471  66.461  1.00  0.00    -0.306 A  
HETATM   20  C   UNL     1     -12.400  13.269  63.965  1.00  0.00    -0.415 A  
HETATM   21  N   UNL     1     -11.698  14.591  65.843  1.00  0.00    -0.361 NA 
HETATM   22  C   UNL     1     -11.894  12.130  64.574  1.00  0.00    -0.418 A  
HETATM   23  C   UNL     1     -12.274  14.470  64.629  1.00  0.00    -0.460 A  
HETATM   24  C   UNL     1     -11.292  12.225  65.834  1.00  0.00    -0.406 A  
ENDBRANCH   7  19
ENDBRANCH   6   7
ENDBRANCH   5   6
ENDBRANCH   4   5
BRANCH   4  25
HETATM   25  C   UNL     1      -8.502   9.429  66.940  1.00  0.00    -0.127 C  
HETATM   26  C   UNL     1      -9.863   8.789  66.616  1.00  0.00    -0.335 C  
HETATM   27  C   UNL     1      -8.126  10.211  65.659  1.00  0.00    -0.149 C  
ENDBRANCH   4  25
ENDBRANCH   2   4
TORSDOF 8
ENDMDL
MODEL      110
REMARK 921   NORMALIZED FREE ENERGY PREDICTED BY IDOCK:   -4.20 KCAL/MOL
REMARK 922        TOTAL FREE ENERGY PREDICTED BY IDOCK:   -7.88 KCAL/MOL
REMARK 923 INTER-LIGAND FREE ENERGY PREDICTED BY IDOCK:   -6.56 KCAL/MOL
REMARK 924 INTRA-LIGAND FREE ENERGY PREDICTED BY IDOCK:   -1.32 KCAL/MOL
REMARK 927      BINDING AFFINITY PREDICTED BY RF-SCORE:    0.00 PKD
ROOT
HETATM    1  C   UNL     1     -11.213  11.988  64.804  1.00  0.00    -0.373 C  
HETATM    2  C   UNL     1     -11.502  12.919  66.008  1.00  0.00    -0.340 C  
HETATM    3  C   UNL     1     -12.748  13.726  65.609  1.00  0.00    -0.523 C  
ENDROOT
BRANCH   2   4
HETATM    4  N   UNL     1     -11.585  12.151  67.296  1.00  0.00    -0.440 NA 
BRANCH   4   5
HETATM    5  C   UNL     1     -11.090  10.742  67.111  1.00  0.00    -0.227 C  
BRANCH   5   6
HETATM    6  C   UNL     1     -11.096   9.894  68.399  1.00  0.00    -0.193 C  
BRANCH   6   7
HETATM    7  C   UNL     1     -10.123   8.664  68.482  1.00  0.00    -0.211 C  
BRANCH   7   8
HETATM    8  C   UNL     1      -8.673   9.213  68.622  1.00  0.00    -0.129 A  
HETATM    9  C   UNL     1      -8.378  10.367  69.372  1.00  0.00    -0.152 A  
HETATM   10  C   UNL     1      -7.064  10.814  69.538  1.00  0.00    -0.132 A  
HETATM   11  C   UNL     1      -7.579   8.514  68.067  1.00  0.00    -0.098 A  
HETATM   12  C   UNL     1      -6.008  10.118  68.959  1.00  0.00    -0.037 A  
HETATM   13  C   UNL     1      -6.266   8.970  68.221  1.00  0.00    -0.054 A  
ENDBRANCH   7   8
BRANCH   7  14
HETATM   14  C   UNL     1     -10.344   7.729  67.247  1.00  0.00    -0.301 C  
HETATM   15  N   UNL     1     -11.473   6.949  67.260  1.00  0.00    -0.664 N  
HETATM   16  H1  UNL     1     -11.617   6.339  66.455  1.00  0.00     0.000 HD 
HETATM   17  O   UNL     1      -9.574   7.612  66.298  1.00  0.00    -0.170 OA 
HETATM   18  H2  UNL     1     -12.135   6.977  68.035  1.00  0.00     0.000 HD 
ENDBRANCH   7  14
BRANCH   7  19
HETATM   19  C   UNL     1     -10.536   7.810  69.725  1.00  0.00    -0.241 A  
HETATM   20  C   UNL     1     -11.317   6.196  71.829  1.00  0.00    -0.346 A  
HETATM   21  N   UNL     1     -10.142   6.506  69.758  1.00  0.00    -0.175 NA 
HETATM   22  C   UNL     1     -11.696   7.531  71.818  1.00  0.00    -0.317 A  
HETATM   23  C   UNL     1     -10.540   5.733  70.790  1.00  0.00    -0.269 A  
HETATM   24  C   UNL     1     -11.298   8.356  70.760  1.00  0.00    -0.290 A  
ENDBRANCH   7  19
ENDBRANCH   6   7
ENDBRANCH   5   6
ENDBRANCH   4   5
BRANCH   4  25
HETATM   25  C   UNL     1     -10.979  12.793  68.508  1.00  0.00    -0.258 C  
HETATM   26  C   UNL     1      -9.597  13.445  68.321  1.00  0.00    -0.220 C  
HETATM   27  C   UNL     1     -11.870  13.926  69.072  1.00  0.00    -0.397 C  
ENDBRANCH   4  25
ENDBRANCH   2   4
TORSDOF 8
ENDMDL
MODEL      111
REMARK 921   NORMALIZED FREE ENERGY PREDICTED BY IDOCK:   -4.19 KCAL/MOL
REMARK 922        TOTAL FREE ENERGY PREDICTED BY IDOCK:   -7.86 KCAL/MOL
REMARK 923 INTER-LIGAND FREE ENERGY PREDICTED BY IDOCK:   -6.47 KCAL/MOL
REMARK 924 INTRA-LIGAND FREE ENERGY PREDICTED BY IDOCK:   -1.40 KCAL/MOL
REMARK 927      BINDING AFFINITY PREDICTED BY RF-SCORE:    0.00 PKD
ROOT
HETATM    1  C   UNL     1      -7.129  10.106  70.027  1.00  0.00    -0.156 C  
HETATM    2  C   UNL     1      -7.973   9.183  69.115  1.00  0.00    -0.097 C  
HETATM    3  C   UNL     1      -7.527   7.752  69.458  1.00  0.00    -0.094 C  
ENDROOT
BRANCH   2   4
HETATM    4  N   UNL     1      -9.442   9.474  69.237  1.00  0.00    -0.161 NA 
BRANCH   4   5
HETATM    5  C   UNL     1     -10.129   9.327  67.906  1.00  0.00    -0.200 C  
BRANCH   5   6
HETATM    6  C   UNL     1     -10.742  10.632  67.362  1.00  0.00    -0.326 C  
BRANCH   6   7
HETATM    7  C   UNL     1      -9.812  11.613  66.563  1.00  0.00    -0.228 C  
BRANCH   7   8
HETATM    8  C   UNL     1      -9.061  10.782  65.481  1.00  0.00    -0.220 A  
HETATM    9  C   UNL     1      -9.685  10.366  64.291  1.00  0.00    -0.389 A  
HETATM   10  C   UNL     1      -8.981   9.672  63.302  1.00  0.00    -0.251 A  
HETATM   11  C   UNL     1      -7.686  10.489  65.620  1.00  0.00    -0.139 A  
HETATM   12  C   UNL     1      -7.633   9.375  63.477  1.00  0.00    -0.115 A  
HETATM   13  C   UNL     1      -6.987   9.781  64.637  1.00  0.00    -0.124 A  
ENDBRANCH   7   8
BRANCH   7  14
HETATM   14  C   UNL     1      -8.875  12.380  67.554  1.00  0.00    -0.181 C  
HETATM   15  N   UNL     1      -9.398  12.681  68.787  1.00  0.00    -0.405 N  
HETATM   16  H1  UNL     1      -8.787  13.181  69.433  1.00  0.00     0.000 HD 
HETATM   17  O   UNL     1      -7.736  12.764  67.302  1.00  0.00    -0.163 OA 
HETATM   18  H2  UNL     1     -10.348  12.417  69.044  1.00  0.00     0.000 HD 
ENDBRANCH   7  14
BRANCH   7  19
HETATM   19  C   UNL     1     -10.717  12.712  65.917  1.00  0.00    -0.266 A  
HETATM   20  C   UNL     1     -12.384  14.550  64.697  1.00  0.00    -0.419 A  
HETATM   21  N   UNL     1     -12.064  12.501  65.908  1.00  0.00    -0.601 NA 
HETATM   22  C   UNL     1     -11.017  14.786  64.730  1.00  0.00    -0.393 A  
HETATM   23  C   UNL     1     -12.859  13.406  65.301  1.00  0.00    -0.334 A  
HETATM   24  C   UNL     1     -10.168  13.865  65.352  1.00  0.00    -0.356 A  
ENDBRANCH   7  19
ENDBRANCH   6   7
ENDBRANCH   5   6
ENDBRANCH   4   5
BRANCH   4  25
HETATM   25  C   UNL     1     -10.187   8.756  70.323  1.00  0.00    -0.196 C  
HETATM   26  C   UNL     1     -11.192   9.592  71.135  1.00  0.00    -0.454 C  
HETATM   27  C   UNL     1     -11.021   7.574  69.772  1.00  0.00    -0.195 C  
ENDBRANCH   4  25
ENDBRANCH   2   4
TORSDOF 8
ENDMDL
MODEL      112
REMARK 921   NORMALIZED FREE ENERGY PREDICTED BY IDOCK:   -4.19 KCAL/MOL
REMARK 922        TOTAL FREE ENERGY PREDICTED BY IDOCK:   -7.85 KCAL/MOL
REMARK 923 INTER-LIGAND FREE ENERGY PREDICTED BY IDOCK:   -6.80 KCAL/MOL
REMARK 924 INTRA-LIGAND FREE ENERGY PREDICTED BY IDOCK:   -1.05 KCAL/MOL
REMARK 927      BINDING AFFINITY PREDICTED BY RF-SCORE:    0.00 PKD
ROOT
HETATM    1  C   UNL     1      -9.709   9.849  69.959  1.00  0.00    -0.274 C  
HETATM    2  C   UNL     1     -11.162  10.379  70.048  1.00  0.00    -0.316 C  
HETATM    3  C   UNL     1     -11.531  10.799  68.616  1.00  0.00    -0.365 C  
ENDROOT
BRANCH   2   4
HETATM    4  N   UNL     1     -12.075   9.387  70.711  1.00  0.00    -0.247 NA 
BRANCH   4   5
HETATM    5  C   UNL     1     -11.328   8.573  71.733  1.00  0.00    -0.307 C  
BRANCH   5   6
HETATM    6  C   UNL     1     -11.628   7.062  71.682  1.00  0.00    -0.320 C  
BRANCH   6   7
HETATM    7  C   UNL     1     -10.419   6.068  71.565  1.00  0.00    -0.278 C  
BRANCH   7   8
HETATM    8  C   UNL     1     -10.242   5.708  70.060  1.00  0.00    -0.321 A  
HETATM    9  C   UNL     1      -9.469   4.610  69.640  1.00  0.00    -0.232 A  
HETATM   10  C   UNL     1      -9.368   4.263  68.289  1.00  0.00    -0.207 A  
HETATM   11  C   UNL     1     -10.929   6.427  69.059  1.00  0.00    -0.410 A  
HETATM   12  C   UNL     1     -10.037   5.005  67.322  1.00  0.00    -0.226 A  
HETATM   13  C   UNL     1     -10.815   6.089  67.707  1.00  0.00    -0.380 A  
ENDBRANCH   7   8
BRANCH   7  14
HETATM   14  C   UNL     1     -10.653   4.836  72.501  1.00  0.00    -0.200 C  
HETATM   15  N   UNL     1     -11.751   4.887  73.323  1.00  0.00    -0.453 N  
HETATM   16  H1  UNL     1     -11.903   4.085  73.933  1.00  0.00     0.000 HD 
HETATM   17  O   UNL     1      -9.917   3.856  72.583  1.00  0.00    -0.143 OA 
HETATM   18  H2  UNL     1     -12.382   5.688  73.324  1.00  0.00     0.000 HD 
ENDBRANCH   7  14
BRANCH   7  19
HETATM   19  C   UNL     1      -9.153   6.785  72.137  1.00  0.00    -0.137 A  
HETATM   20  C   UNL     1      -7.003   8.155  73.207  1.00  0.00    -0.138 A  
HETATM   21  N   UNL     1      -9.161   7.130  73.456  1.00  0.00    -0.153 NA 
HETATM   22  C   UNL     1      -6.975   7.779  71.872  1.00  0.00    -0.066 A  
HETATM   23  C   UNL     1      -8.105   7.805  73.957  1.00  0.00    -0.207 A  
HETATM   24  C   UNL     1      -8.055   7.079  71.325  1.00  0.00    -0.108 A  
ENDBRANCH   7  19
ENDBRANCH   6   7
ENDBRANCH   5   6
ENDBRANCH   4   5
BRANCH   4  25
HETATM   25  C   UNL     1     -13.364   9.918  71.266  1.00  0.00    -0.342 C  
HETATM   26  C   UNL     1     -14.059   9.056  72.334  1.00  0.00    -0.478 C  
HETATM   27  C   UNL     1     -13.179  11.299  71.941  1.00  0.00    -0.491 C  
ENDBRANCH   4  25
ENDBRANCH   2   4
TORSDOF 8
ENDMDL
MODEL      113
REMARK 921   NORMALIZED FREE ENERGY PREDICTED BY IDOCK:   -4.18 KCAL/MOL
REMARK 922        TOTAL FREE ENERGY PREDICTED BY IDOCK:   -7.85 KCAL/MOL
REMARK 923 INTER-LIGAND FREE ENERGY PREDICTED BY IDOCK:   -6.41 KCAL/MOL
REMARK 924 INTRA-LIGAND FREE ENERGY PREDICTED BY IDOCK:   -1.43 KCAL/MOL
REMARK 927      BINDING AFFINITY PREDICTED BY RF-SCORE:    0.00 PKD
ROOT
HETATM    1  C   UNL     1     -10.909   6.275  66.906  1.00  0.00    -0.428 C  
HETATM    2  C   UNL     1      -9.435   6.636  66.591  1.00  0.00    -0.164 C  
HETATM    3  C   UNL     1      -8.963   5.576  65.582  1.00  0.00    -0.152 C  
ENDROOT
BRANCH   2   4
HETATM    4  N   UNL     1      -9.293   8.071  66.171  1.00  0.00    -0.178 NA 
BRANCH   4   5
HETATM    5  C   UNL     1      -9.399   8.989  67.359  1.00  0.00    -0.139 C  
BRANCH   5   6
HETATM    6  C   UNL     1     -10.688   9.835  67.393  1.00  0.00    -0.314 C  
BRANCH   6   7
HETATM    7  C   UNL     1     -10.558  11.373  67.679  1.00  0.00    -0.240 C  
BRANCH   7   8
HETATM    8  C   UNL     1      -9.054  11.686  67.929  1.00  0.00    -0.171 A  
HETATM    9  C   UNL     1      -8.360  12.663  67.191  1.00  0.00    -0.172 A  
HETATM   10  C   UNL     1      -7.026  12.976  67.468  1.00  0.00    -0.155 A  
HETATM   11  C   UNL     1      -8.349  11.055  68.977  1.00  0.00    -0.089 A  
HETATM   12  C   UNL     1      -6.349  12.320  68.491  1.00  0.00    -0.057 A  
HETATM   13  C   UNL     1      -7.010  11.358  69.243  1.00  0.00    -0.115 A  
ENDBRANCH   7   8
BRANCH   7  14
HETATM   14  C   UNL     1     -11.507  11.774  68.857  1.00  0.00    -0.297 C  
HETATM   15  N   UNL     1     -11.135  12.864  69.604  1.00  0.00    -0.472 N  
HETATM   16  H1  UNL     1     -11.753  13.125  70.372  1.00  0.00     0.000 HD 
HETATM   17  O   UNL     1     -12.526  11.172  69.185  1.00  0.00    -0.418 OA 
HETATM   18  H2  UNL     1     -10.283  13.386  69.401  1.00  0.00     0.000 HD 
ENDBRANCH   7  14
BRANCH   7  19
HETATM   19  C   UNL     1     -11.105  12.140  66.431  1.00  0.00    -0.314 A  
HETATM   20  C   UNL     1     -12.204  13.499  64.288  1.00  0.00    -0.450 A  
HETATM   21  N   UNL     1     -11.829  13.275  66.650  1.00  0.00    -0.380 NA 
HETATM   22  C   UNL     1     -11.442  12.363  64.056  1.00  0.00    -0.479 A  
HETATM   23  C   UNL     1     -12.363  13.918  65.591  1.00  0.00    -0.482 A  
HETATM   24  C   UNL     1     -10.876  11.674  65.134  1.00  0.00    -0.346 A  
ENDBRANCH   7  19
ENDBRANCH   6   7
ENDBRANCH   5   6
ENDBRANCH   4   5
BRANCH   4  25
HETATM   25  C   UNL     1      -8.108   8.412  65.316  1.00  0.00    -0.140 C  
HETATM   26  C   UNL     1      -8.374   9.326  64.107  1.00  0.00    -0.178 C  
HETATM   27  C   UNL     1      -7.005   9.143  66.119  1.00  0.00    -0.086 C  
ENDBRANCH   4  25
ENDBRANCH   2   4
TORSDOF 8
ENDMDL
MODEL      114
REMARK 921   NORMALIZED FREE ENERGY PREDICTED BY IDOCK:   -4.16 KCAL/MOL
REMARK 922        TOTAL FREE ENERGY PREDICTED BY IDOCK:   -7.82 KCAL/MOL
REMARK 923 INTER-LIGAND FREE ENERGY PREDICTED BY IDOCK:   -7.31 KCAL/MOL
REMARK 924 INTRA-LIGAND FREE ENERGY PREDICTED BY IDOCK:   -0.51 KCAL/MOL
REMARK 927      BINDING AFFINITY PREDICTED BY RF-SCORE:    0.00 PKD
ROOT
HETATM    1  C   UNL     1     -12.444  15.397  69.487  1.00  0.00    -0.110 C  
HETATM    2  C   UNL     1     -11.300  16.090  70.268  1.00  0.00    -0.382 C  
HETATM    3  C   UNL     1     -11.449  15.609  71.721  1.00  0.00    -0.505 C  
ENDROOT
BRANCH   2   4
HETATM    4  N   UNL     1      -9.965  15.859  69.620  1.00  0.00    -0.271 NA 
BRANCH   4   5
HETATM    5  C   UNL     1      -9.766  14.400  69.311  1.00  0.00     0.086 C  
BRANCH   5   6
HETATM    6  C   UNL     1     -10.079  14.012  67.852  1.00  0.00    -0.237 C  
BRANCH   6   7
HETATM    7  C   UNL     1      -9.926  12.506  67.435  1.00  0.00    -0.207 C  
BRANCH   7   8
HETATM    8  C   UNL     1     -10.515  11.632  68.581  1.00  0.00    -0.234 A  
HETATM    9  C   UNL     1     -11.867  11.710  68.961  1.00  0.00    -0.391 A  
HETATM   10  C   UNL     1     -12.396  10.876  69.952  1.00  0.00    -0.354 A  
HETATM   11  C   UNL     1      -9.723  10.658  69.227  1.00  0.00    -0.181 A  
HETATM   12  C   UNL     1     -11.586   9.942  70.588  1.00  0.00    -0.413 A  
HETATM   13  C   UNL     1     -10.248   9.835  70.227  1.00  0.00    -0.346 A  
ENDBRANCH   7   8
BRANCH   7  14
HETATM   14  C   UNL     1      -8.430  12.201  67.092  1.00  0.00    -0.182 C  
HETATM   15  N   UNL     1      -8.110  10.889  66.847  1.00  0.00    -0.131 N  
HETATM   16  H1  UNL     1      -7.135  10.690  66.624  1.00  0.00     0.000 HD 
HETATM   17  O   UNL     1      -7.524  13.029  67.064  1.00  0.00    -0.045 OA 
HETATM   18  H2  UNL     1      -8.812  10.150  66.886  1.00  0.00     0.000 HD 
ENDBRANCH   7  14
BRANCH   7  19
HETATM   19  C   UNL     1     -10.705  12.299  66.096  1.00  0.00    -0.261 A  
HETATM   20  C   UNL     1     -11.963  11.974  63.654  1.00  0.00    -0.612 A  
HETATM   21  N   UNL     1     -10.106  11.558  65.120  1.00  0.00    -0.256 NA 
HETATM   22  C   UNL     1     -12.592  12.703  64.653  1.00  0.00    -0.517 A  
HETATM   23  C   UNL     1     -10.733  11.419  63.933  1.00  0.00    -0.397 A  
HETATM   24  C   UNL     1     -11.966  12.866  65.894  1.00  0.00    -0.504 A  
ENDBRANCH   7  19
ENDBRANCH   6   7
ENDBRANCH   5   6
ENDBRANCH   4   5
BRANCH   4  25
HETATM   25  C   UNL     1      -9.626  16.723  68.440  1.00  0.00    -0.241 C  
HETATM   26  C   UNL     1     -10.318  18.096  68.374  1.00  0.00    -0.371 C  
HETATM   27  C   UNL     1      -8.114  17.045  68.373  1.00  0.00    -0.245 C  
ENDBRANCH   4  25
ENDBRANCH   2   4
TORSDOF 8
ENDMDL
MODEL      115
REMARK 921   NORMALIZED FREE ENERGY PREDICTED BY IDOCK:   -4.16 KCAL/MOL
REMARK 922        TOTAL FREE ENERGY PREDICTED BY IDOCK:   -7.82 KCAL/MOL
REMARK 923 INTER-LIGAND FREE ENERGY PREDICTED BY IDOCK:   -6.57 KCAL/MOL
REMARK 924 INTRA-LIGAND FREE ENERGY PREDICTED BY IDOCK:   -1.25 KCAL/MOL
REMARK 927      BINDING AFFINITY PREDICTED BY RF-SCORE:    0.00 PKD
ROOT
HETATM    1  C   UNL     1     -11.780  14.662  66.067  1.00  0.00    -0.306 C  
HETATM    2  C   UNL     1     -10.481  14.217  65.350  1.00  0.00    -0.365 C  
HETATM    3  C   UNL     1      -9.332  14.726  66.236  1.00  0.00    -0.310 C  
ENDROOT
BRANCH   2   4
HETATM    4  N   UNL     1     -10.491  12.746  65.045  1.00  0.00    -0.305 NA 
BRANCH   4   5
HETATM    5  C   UNL     1     -11.382  12.007  66.006  1.00  0.00    -0.343 C  
BRANCH   5   6
HETATM    6  C   UNL     1     -10.848  10.624  66.430  1.00  0.00    -0.132 C  
BRANCH   6   7
HETATM    7  C   UNL     1     -10.107  10.506  67.809  1.00  0.00    -0.205 C  
BRANCH   7   8
HETATM    8  C   UNL     1      -8.668  11.070  67.627  1.00  0.00    -0.128 A  
HETATM    9  C   UNL     1      -7.864  10.726  66.524  1.00  0.00    -0.145 A  
HETATM   10  C   UNL     1      -6.596  11.287  66.342  1.00  0.00    -0.069 A  
HETATM   11  C   UNL     1      -8.146  12.025  68.526  1.00  0.00    -0.123 A  
HETATM   12  C   UNL     1      -6.098  12.207  67.258  1.00  0.00    -0.153 A  
HETATM   13  C   UNL     1      -6.872  12.574  68.352  1.00  0.00    -0.085 A  
ENDBRANCH   7   8
BRANCH   7  14
HETATM   14  C   UNL     1     -10.162   9.026  68.314  1.00  0.00    -0.204 C  
HETATM   15  N   UNL     1      -9.416   8.726  69.426  1.00  0.00    -0.160 N  
HETATM   16  H1  UNL     1      -9.451   7.762  69.755  1.00  0.00     0.000 HD 
HETATM   17  O   UNL     1     -10.784   8.113  67.775  1.00  0.00    -0.194 OA 
HETATM   18  H2  UNL     1      -8.854   9.433  69.900  1.00  0.00     0.000 HD 
ENDBRANCH   7  14
BRANCH   7  19
HETATM   19  C   UNL     1     -10.919  11.330  68.861  1.00  0.00    -0.223 A  
HETATM   20  C   UNL     1     -12.469  12.700  70.695  1.00  0.00    -0.323 A  
HETATM   21  N   UNL     1     -11.592  10.640  69.825  1.00  0.00    -0.284 NA 
HETATM   22  C   UNL     1     -11.761  13.410  69.736  1.00  0.00    -0.355 A  
HETATM   23  C   UNL     1     -12.350  11.327  70.705  1.00  0.00    -0.398 A  
HETATM   24  C   UNL     1     -10.968  12.725  68.809  1.00  0.00    -0.289 A  
ENDBRANCH   7  19
ENDBRANCH   6   7
ENDBRANCH   5   6
ENDBRANCH   4   5
BRANCH   4  25
HETATM   25  C   UNL     1     -10.765  12.351  63.624  1.00  0.00    -0.455 C  
HETATM   26  C   UNL     1     -10.022  11.109  63.101  1.00  0.00    -0.393 C  
HETATM   27  C   UNL     1     -12.262  12.035  63.388  1.00  0.00    -0.627 C  
ENDBRANCH   4  25
ENDBRANCH   2   4
TORSDOF 8
ENDMDL
MODEL      116
REMARK 921   NORMALIZED FREE ENERGY PREDICTED BY IDOCK:   -4.15 KCAL/MOL
REMARK 922        TOTAL FREE ENERGY PREDICTED BY IDOCK:   -7.80 KCAL/MOL
REMARK 923 INTER-LIGAND FREE ENERGY PREDICTED BY IDOCK:   -6.96 KCAL/MOL
REMARK 924 INTRA-LIGAND FREE ENERGY PREDICTED BY IDOCK:   -0.85 KCAL/MOL
REMARK 927      BINDING AFFINITY PREDICTED BY RF-SCORE:    0.00 PKD
ROOT
HETATM    1  C   UNL     1      -6.872  10.920  69.161  1.00  0.00    -0.086 C  
HETATM    2  C   UNL     1      -7.396  11.867  68.052  1.00  0.00    -0.100 C  
HETATM    3  C   UNL     1      -6.182  12.156  67.155  1.00  0.00    -0.143 C  
ENDROOT
BRANCH   2   4
HETATM    4  N   UNL     1      -8.612  11.305  67.372  1.00  0.00    -0.134 NA 
BRANCH   4   5
HETATM    5  C   UNL     1      -9.677  12.358  67.226  1.00  0.00    -0.201 C  
BRANCH   5   6
HETATM    6  C   UNL     1      -9.579  13.505  68.252  1.00  0.00    -0.218 C  
BRANCH   6   7
HETATM    7  C   UNL     1     -10.688  14.617  68.230  1.00  0.00    -0.240 C  
BRANCH   7   8
HETATM    8  C   UNL     1     -11.607  14.397  69.468  1.00  0.00    -0.352 A  
HETATM    9  C   UNL     1     -12.258  15.464  70.114  1.00  0.00    -0.407 A  
HETATM   10  C   UNL     1     -13.128  15.246  71.187  1.00  0.00    -0.546 A  
HETATM   11  C   UNL     1     -11.891  13.096  69.936  1.00  0.00    -0.378 A  
HETATM   12  C   UNL     1     -13.370  13.954  71.643  1.00  0.00    -0.437 A  
HETATM   13  C   UNL     1     -12.749  12.880  71.019  1.00  0.00    -0.338 A  
ENDBRANCH   7   8
BRANCH   7  14
HETATM   14  C   UNL     1     -11.437  14.591  66.856  1.00  0.00    -0.364 C  
HETATM   15  N   UNL     1     -10.784  15.154  65.788  1.00  0.00    -0.333 N  
HETATM   16  H1  UNL     1     -11.272  15.137  64.893  1.00  0.00     0.000 HD 
HETATM   17  O   UNL     1     -12.567  14.147  66.671  1.00  0.00    -0.349 OA 
HETATM   18  H2  UNL     1      -9.857  15.567  65.885  1.00  0.00     0.000 HD 
ENDBRANCH   7  14
BRANCH   7  19
HETATM   19  C   UNL     1      -9.974  16.006  68.284  1.00  0.00    -0.220 A  
HETATM   20  C   UNL     1      -8.629  18.414  68.491  1.00  0.00    -0.341 A  
HETATM   21  N   UNL     1      -8.611  16.018  68.313  1.00  0.00    -0.175 NA 
HETATM   22  C   UNL     1     -10.015  18.410  68.431  1.00  0.00    -0.406 A  
HETATM   23  C   UNL     1      -7.974  17.203  68.422  1.00  0.00    -0.250 A  
HETATM   24  C   UNL     1     -10.703  17.197  68.318  1.00  0.00    -0.363 A  
ENDBRANCH   7  19
ENDBRANCH   6   7
ENDBRANCH   5   6
ENDBRANCH   4   5
BRANCH   4  25
HETATM   25  C   UNL     1      -8.388  10.566  66.086  1.00  0.00    -0.155 C  
HETATM   26  C   UNL     1      -8.264   9.035  66.187  1.00  0.00    -0.115 C  
HETATM   27  C   UNL     1      -9.539  10.796  65.076  1.00  0.00    -0.305 C  
ENDBRANCH   4  25
ENDBRANCH   2   4
TORSDOF 8
ENDMDL
MODEL      117
REMARK 921   NORMALIZED FREE ENERGY PREDICTED BY IDOCK:   -4.15 KCAL/MOL
REMARK 922        TOTAL FREE ENERGY PREDICTED BY IDOCK:   -7.79 KCAL/MOL
REMARK 923 INTER-LIGAND FREE ENERGY PREDICTED BY IDOCK:   -6.60 KCAL/MOL
REMARK 924 INTRA-LIGAND FREE ENERGY PREDICTED BY IDOCK:   -1.19 KCAL/MOL
REMARK 927      BINDING AFFINITY PREDICTED BY RF-SCORE:    0.00 PKD
ROOT
HETATM    1  C   UNL     1     -10.749  11.503  69.311  1.00  0.00    -0.171 C  
HETATM    2  C   UNL     1     -12.006  12.305  69.728  1.00  0.00    -0.295 C  
HETATM    3  C   UNL     1     -12.554  11.587  70.972  1.00  0.00    -0.457 C  
ENDROOT
BRANCH   2   4
HETATM    4  N   UNL     1     -11.704  13.769  69.879  1.00  0.00    -0.291 NA 
BRANCH   4   5
HETATM    5  C   UNL     1     -12.132  14.533  68.656  1.00  0.00    -0.218 C  
BRANCH   5   6
HETATM    6  C   UNL     1     -11.139  15.624  68.209  1.00  0.00    -0.336 C  
BRANCH   6   7
HETATM    7  C   UNL     1     -10.105  15.270  67.082  1.00  0.00    -0.240 C  
BRANCH   7   8
HETATM    8  C   UNL     1      -8.799  14.777  67.771  1.00  0.00    -0.175 A  
HETATM    9  C   UNL     1      -8.500  15.081  69.112  1.00  0.00    -0.192 A  
HETATM   10  C   UNL     1      -7.352  14.581  69.735  1.00  0.00     0.044 A  
HETATM   11  C   UNL     1      -7.901  13.924  67.093  1.00  0.00    -0.036 A  
HETATM   12  C   UNL     1      -6.473  13.762  69.035  1.00  0.00    -0.105 A  
HETATM   13  C   UNL     1      -6.746  13.437  67.712  1.00  0.00    -0.163 A  
ENDBRANCH   7   8
BRANCH   7  14
HETATM   14  C   UNL     1      -9.911  16.502  66.136  1.00  0.00    -0.332 C  
HETATM   15  N   UNL     1     -11.010  17.296  65.926  1.00  0.00     0.032 N  
HETATM   16  H1  UNL     1     -10.884  18.098  65.309  1.00  0.00     0.000 HD 
HETATM   17  O   UNL     1      -8.873  16.787  65.545  1.00  0.00    -0.354 OA 
HETATM   18  H2  UNL     1     -11.908  17.093  66.363  1.00  0.00     0.000 HD 
ENDBRANCH   7  14
BRANCH   7  19
HETATM   19  C   UNL     1     -10.737  14.158  66.184  1.00  0.00    -0.297 A  
HETATM   20  C   UNL     1     -11.985  12.257  64.611  1.00  0.00    -0.437 A  
HETATM   21  N   UNL     1     -11.516  14.553  65.138  1.00  0.00    -0.354 NA 
HETATM   22  C   UNL     1     -11.168  11.848  65.655  1.00  0.00    -0.360 A  
HETATM   23  C   UNL     1     -12.123  13.610  64.387  1.00  0.00    -0.427 A  
HETATM   24  C   UNL     1     -10.527  12.803  66.451  1.00  0.00    -0.265 A  
ENDBRANCH   7  19
ENDBRANCH   6   7
ENDBRANCH   5   6
ENDBRANCH   4   5
BRANCH   4  25
HETATM   25  C   UNL     1     -12.182  14.433  71.137  1.00  0.00    -0.350 C  
HETATM   26  C   UNL     1     -11.210  15.424  71.802  1.00  0.00    -0.380 C  
HETATM   27  C   UNL     1     -13.474  15.252  70.906  1.00  0.00    -0.441 C  
ENDBRANCH   4  25
ENDBRANCH   2   4
TORSDOF 8
ENDMDL
MODEL      118
REMARK 921   NORMALIZED FREE ENERGY PREDICTED BY IDOCK:   -4.14 KCAL/MOL
REMARK 922        TOTAL FREE ENERGY PREDICTED BY IDOCK:   -7.79 KCAL/MOL
REMARK 923 INTER-LIGAND FREE ENERGY PREDICTED BY IDOCK:   -6.10 KCAL/MOL
REMARK 924 INTRA-LIGAND FREE ENERGY PREDICTED BY IDOCK:   -1.69 KCAL/MOL
REMARK 927      BINDING AFFINITY PREDICTED BY RF-SCORE:    0.00 PKD
ROOT
HETATM    1  C   UNL     1     -10.183  14.178  65.618  1.00  0.00    -0.357 C  
HETATM    2  C   UNL     1     -10.960  13.079  66.383  1.00  0.00    -0.281 C  
HETATM    3  C   UNL     1     -12.289  12.917  65.627  1.00  0.00    -0.482 C  
ENDROOT
BRANCH   2   4
HETATM    4  N   UNL     1     -10.134  11.836  66.560  1.00  0.00    -0.200 NA 
BRANCH   4   5
HETATM    5  C   UNL     1     -10.980  10.700  67.068  1.00  0.00    -0.208 C  
BRANCH   5   6
HETATM    6  C   UNL     1     -10.780  10.381  68.563  1.00  0.00    -0.255 C  
BRANCH   6   7
HETATM    7  C   UNL     1      -9.986   9.082  68.946  1.00  0.00    -0.197 C  
BRANCH   7   8
HETATM    8  C   UNL     1      -8.598   9.517  69.501  1.00  0.00    -0.171 A  
HETATM    9  C   UNL     1      -7.953  10.690  69.066  1.00  0.00    -0.140 A  
HETATM   10  C   UNL     1      -6.735  11.100  69.618  1.00  0.00    -0.134 A  
HETATM   11  C   UNL     1      -7.972   8.788  70.535  1.00  0.00    -0.117 A  
HETATM   12  C   UNL     1      -6.129  10.348  70.618  1.00  0.00    -0.096 A  
HETATM   13  C   UNL     1      -6.746   9.190  71.074  1.00  0.00    -0.093 A  
ENDBRANCH   7   8
BRANCH   7  14
HETATM   14  C   UNL     1      -9.916   8.122  67.712  1.00  0.00    -0.181 C  
HETATM   15  N   UNL     1     -11.096   7.546  67.312  1.00  0.00    -0.532 N  
HETATM   16  H1  UNL     1     -11.050   6.920  66.508  1.00  0.00     0.000 HD 
HETATM   17  O   UNL     1      -8.892   7.818  67.105  1.00  0.00    -0.122 OA 
HETATM   18  H2  UNL     1     -11.974   7.734  67.795  1.00  0.00     0.000 HD 
ENDBRANCH   7  14
BRANCH   7  19
HETATM   19  C   UNL     1     -10.819   8.310  70.020  1.00  0.00    -0.232 A  
HETATM   20  C   UNL     1     -12.347   6.863  71.813  1.00  0.00    -0.401 A  
HETATM   21  N   UNL     1     -10.769   6.948  70.004  1.00  0.00    -0.232 NA 
HETATM   22  C   UNL     1     -12.378   8.249  71.856  1.00  0.00    -0.379 A  
HETATM   23  C   UNL     1     -11.529   6.260  70.882  1.00  0.00    -0.312 A  
HETATM   24  C   UNL     1     -11.602   8.989  70.957  1.00  0.00    -0.360 A  
ENDBRANCH   7  19
ENDBRANCH   6   7
ENDBRANCH   5   6
ENDBRANCH   4   5
BRANCH   4  25
HETATM   25  C   UNL     1      -9.287  11.415  65.396  1.00  0.00    -0.186 C  
HETATM   26  C   UNL     1      -7.867  10.921  65.723  1.00  0.00    -0.057 C  
HETATM   27  C   UNL     1      -9.930  10.250  64.603  1.00  0.00    -0.377 C  
ENDBRANCH   4  25
ENDBRANCH   2   4
TORSDOF 8
ENDMDL
MODEL      119
REMARK 921   NORMALIZED FREE ENERGY PREDICTED BY IDOCK:   -4.13 KCAL/MOL
REMARK 922        TOTAL FREE ENERGY PREDICTED BY IDOCK:   -7.77 KCAL/MOL
REMARK 923 INTER-LIGAND FREE ENERGY PREDICTED BY IDOCK:   -6.36 KCAL/MOL
REMARK 924 INTRA-LIGAND FREE ENERGY PREDICTED BY IDOCK:   -1.41 KCAL/MOL
REMARK 927      BINDING AFFINITY PREDICTED BY RF-SCORE:    0.00 PKD
ROOT
HETATM    1  C   UNL     1      -6.979  17.227  66.416  1.00  0.00    -0.310 C  
HETATM    2  C   UNL     1      -7.386  16.134  67.435  1.00  0.00    -0.176 C  
HETATM    3  C   UNL     1      -6.520  16.395  68.679  1.00  0.00    -0.135 C  
ENDROOT
BRANCH   2   4
HETATM    4  N   UNL     1      -8.872  16.100  67.649  1.00  0.00    -0.185 NA 
BRANCH   4   5
HETATM    5  C   UNL     1      -9.266  14.906  68.476  1.00  0.00    -0.192 C  
BRANCH   5   6
HETATM    6  C   UNL     1     -10.138  13.877  67.729  1.00  0.00    -0.241 C  
BRANCH   6   7
HETATM    7  C   UNL     1      -9.650  12.386  67.679  1.00  0.00    -0.193 C  
BRANCH   7   8
HETATM    8  C   UNL     1     -10.391  11.604  68.802  1.00  0.00    -0.213 A  
HETATM    9  C   UNL     1     -11.543  12.111  69.432  1.00  0.00    -0.381 A  
HETATM   10  C   UNL     1     -12.233  11.371  70.397  1.00  0.00    -0.450 A  
HETATM   11  C   UNL     1      -9.980  10.305  69.172  1.00  0.00    -0.235 A  
HETATM   12  C   UNL     1     -11.791  10.103  70.758  1.00  0.00    -0.443 A  
HETATM   13  C   UNL     1     -10.662   9.572  70.148  1.00  0.00    -0.299 A  
ENDBRANCH   7   8
BRANCH   7  14
HETATM   14  C   UNL     1      -8.089  12.337  67.780  1.00  0.00    -0.155 C  
HETATM   15  N   UNL     1      -7.391  12.476  66.606  1.00  0.00    -0.284 N  
HETATM   16  H1  UNL     1      -6.374  12.443  66.672  1.00  0.00     0.000 HD 
HETATM   17  O   UNL     1      -7.449  12.146  68.811  1.00  0.00    -0.114 OA 
HETATM   18  H2  UNL     1      -7.866  12.604  65.713  1.00  0.00     0.000 HD 
ENDBRANCH   7  14
BRANCH   7  19
HETATM   19  C   UNL     1      -9.989  11.818  66.263  1.00  0.00    -0.218 A  
HETATM   20  C   UNL     1     -10.449  10.770  63.746  1.00  0.00    -0.218 A  
HETATM   21  N   UNL     1      -9.603  10.541  65.982  1.00  0.00    -0.184 NA 
HETATM   22  C   UNL     1     -10.872  12.059  64.035  1.00  0.00    -0.433 A  
HETATM   23  C   UNL     1      -9.829  10.051  64.745  1.00  0.00    -0.254 A  
HETATM   24  C   UNL     1     -10.650  12.594  65.308  1.00  0.00    -0.317 A  
ENDBRANCH   7  19
ENDBRANCH   6   7
ENDBRANCH   5   6
ENDBRANCH   4   5
BRANCH   4  25
HETATM   25  C   UNL     1      -9.513  17.358  68.157  1.00  0.00    -0.288 C  
HETATM   26  C   UNL     1     -10.580  17.999  67.252  1.00  0.00    -0.358 C  
HETATM   27  C   UNL     1     -10.233  17.136  69.509  1.00  0.00    -0.079 C  
ENDBRANCH   4  25
ENDBRANCH   2   4
TORSDOF 8
ENDMDL
MODEL      120
REMARK 921   NORMALIZED FREE ENERGY PREDICTED BY IDOCK:   -4.13 KCAL/MOL
REMARK 922        TOTAL FREE ENERGY PREDICTED BY IDOCK:   -7.76 KCAL/MOL
REMARK 923 INTER-LIGAND FREE ENERGY PREDICTED BY IDOCK:   -7.47 KCAL/MOL
REMARK 924 INTRA-LIGAND FREE ENERGY PREDICTED BY IDOCK:   -0.29 KCAL/MOL
REMARK 927      BINDING AFFINITY PREDICTED BY RF-SCORE:    0.00 PKD
ROOT
HETATM    1  C   UNL     1     -10.685   7.219  70.519  1.00  0.00    -0.249 C  
HETATM    2  C   UNL     1     -10.754   8.510  71.373  1.00  0.00    -0.250 C  
HETATM    3  C   UNL     1      -9.463   8.516  72.208  1.00  0.00    -0.365 C  
ENDROOT
BRANCH   2   4
HETATM    4  N   UNL     1     -11.007   9.724  70.524  1.00  0.00    -0.297 NA 
BRANCH   4   5
HETATM    5  C   UNL     1     -10.567   9.485  69.105  1.00  0.00    -0.222 C  
BRANCH   5   6
HETATM    6  C   UNL     1     -10.987  10.590  68.116  1.00  0.00    -0.330 C  
BRANCH   6   7
HETATM    7  C   UNL     1     -10.007  10.950  66.944  1.00  0.00    -0.232 C  
BRANCH   7   8
HETATM    8  C   UNL     1     -10.834  11.654  65.829  1.00  0.00    -0.334 A  
HETATM    9  C   UNL     1     -11.942  12.471  66.123  1.00  0.00    -0.432 A  
HETATM   10  C   UNL     1     -12.639  13.145  65.115  1.00  0.00    -0.525 A  
HETATM   11  C   UNL     1     -10.446  11.566  64.475  1.00  0.00    -0.369 A  
HETATM   12  C   UNL     1     -12.248  13.020  63.786  1.00  0.00    -0.536 A  
HETATM   13  C   UNL     1     -11.153  12.227  63.466  1.00  0.00    -0.533 A  
ENDBRANCH   7   8
BRANCH   7  14
HETATM   14  C   UNL     1      -9.250   9.664  66.473  1.00  0.00    -0.158 C  
HETATM   15  N   UNL     1     -10.022   8.568  66.178  1.00  0.00    -0.468 N  
HETATM   16  H1  UNL     1      -9.529   7.730  65.872  1.00  0.00     0.000 HD 
HETATM   17  O   UNL     1      -8.030   9.550  66.385  1.00  0.00    -0.109 OA 
HETATM   18  H2  UNL     1     -11.038   8.591  66.263  1.00  0.00     0.000 HD 
ENDBRANCH   7  14
BRANCH   7  19
HETATM   19  C   UNL     1      -8.899  11.892  67.519  1.00  0.00    -0.169 A  
HETATM   20  C   UNL     1      -6.988  13.526  68.670  1.00  0.00    -0.100 A  
HETATM   21  N   UNL     1      -8.107  11.406  68.516  1.00  0.00    -0.144 NA 
HETATM   22  C   UNL     1      -7.770  14.017  67.634  1.00  0.00    -0.188 A  
HETATM   23  C   UNL     1      -7.186  12.222  69.070  1.00  0.00    -0.023 A  
HETATM   24  C   UNL     1      -8.734  13.194  67.041  1.00  0.00    -0.193 A  
ENDBRANCH   7  19
ENDBRANCH   6   7
ENDBRANCH   5   6
ENDBRANCH   4   5
BRANCH   4  25
HETATM   25  C   UNL     1     -12.385  10.315  70.581  1.00  0.00    -0.325 C  
HETATM   26  C   UNL     1     -13.302   9.810  71.709  1.00  0.00    -0.506 C  
HETATM   27  C   UNL     1     -12.350  11.851  70.767  1.00  0.00    -0.416 C  
ENDBRANCH   4  25
ENDBRANCH   2   4
TORSDOF 8
ENDMDL
MODEL      121
REMARK 921   NORMALIZED FREE ENERGY PREDICTED BY IDOCK:   -4.12 KCAL/MOL
REMARK 922        TOTAL FREE ENERGY PREDICTED BY IDOCK:   -7.75 KCAL/MOL
REMARK 923 INTER-LIGAND FREE ENERGY PREDICTED BY IDOCK:   -6.02 KCAL/MOL
REMARK 924 INTRA-LIGAND FREE ENERGY PREDICTED BY IDOCK:   -1.73 KCAL/MOL
REMARK 927      BINDING AFFINITY PREDICTED BY RF-SCORE:    0.00 PKD
ROOT
HETATM    1  C   UNL     1      -8.541   8.071  67.872  1.00  0.00    -0.129 C  
HETATM    2  C   UNL     1      -9.067   9.429  68.400  1.00  0.00    -0.128 C  
HETATM    3  C   UNL     1     -10.592   9.375  68.216  1.00  0.00    -0.256 C  
ENDROOT
BRANCH   2   4
HETATM    4  N   UNL     1      -8.570   9.715  69.789  1.00  0.00    -0.181 NA 
BRANCH   4   5
HETATM    5  C   UNL     1      -8.468   8.446  70.592  1.00  0.00    -0.135 C  
BRANCH   5   6
HETATM    6  C   UNL     1      -9.280   8.459  71.902  1.00  0.00    -0.306 C  
BRANCH   6   7
HETATM    7  C   UNL     1     -10.382   7.358  72.104  1.00  0.00    -0.232 C  
BRANCH   7   8
HETATM    8  C   UNL     1     -11.770   8.026  71.877  1.00  0.00    -0.351 A  
HETATM    9  C   UNL     1     -11.903   9.401  71.605  1.00  0.00    -0.464 A  
HETATM   10  C   UNL     1     -13.151   9.975  71.344  1.00  0.00    -0.512 A  
HETATM   11  C   UNL     1     -12.950   7.251  71.850  1.00  0.00    -0.291 A  
HETATM   12  C   UNL     1     -14.300   9.191  71.348  1.00  0.00    -0.071 A  
HETATM   13  C   UNL     1     -14.199   7.829  71.605  1.00  0.00    -0.572 A  
ENDBRANCH   7   8
BRANCH   7  14
HETATM   14  C   UNL     1     -10.209   6.687  73.507  1.00  0.00    -0.277 C  
HETATM   15  N   UNL     1     -10.935   5.545  73.736  1.00  0.00    -0.415 N  
HETATM   16  H1  UNL     1     -10.823   5.108  74.651  1.00  0.00     0.000 HD 
HETATM   17  O   UNL     1      -9.512   7.120  74.421  1.00  0.00    -0.231 OA 
HETATM   18  H2  UNL     1     -11.556   5.154  73.028  1.00  0.00     0.000 HD 
ENDBRANCH   7  14
BRANCH   7  19
HETATM   19  C   UNL     1     -10.116   6.219  71.067  1.00  0.00    -0.185 A  
HETATM   20  C   UNL     1      -9.502   4.234  69.243  1.00  0.00    -0.254 A  
HETATM   21  N   UNL     1      -9.167   5.290  71.374  1.00  0.00    -0.144 NA 
HETATM   22  C   UNL     1     -10.491   5.157  68.937  1.00  0.00    -0.131 A  
HETATM   23  C   UNL     1      -8.876   4.334  70.467  1.00  0.00    -0.085 A  
HETATM   24  C   UNL     1     -10.813   6.161  69.858  1.00  0.00    -0.420 A  
ENDBRANCH   7  19
ENDBRANCH   6   7
ENDBRANCH   5   6
ENDBRANCH   4   5
BRANCH   4  25
HETATM   25  C   UNL     1      -7.323  10.542  69.906  1.00  0.00    -0.108 C  
HETATM   26  C   UNL     1      -5.997   9.771  70.027  1.00  0.00    -0.046 C  
HETATM   27  C   UNL     1      -7.124  11.467  68.680  1.00  0.00    -0.095 C  
ENDBRANCH   4  25
ENDBRANCH   2   4
TORSDOF 8
ENDMDL
MODEL      122
REMARK 921   NORMALIZED FREE ENERGY PREDICTED BY IDOCK:   -4.10 KCAL/MOL
REMARK 922        TOTAL FREE ENERGY PREDICTED BY IDOCK:   -7.73 KCAL/MOL
REMARK 923 INTER-LIGAND FREE ENERGY PREDICTED BY IDOCK:   -6.38 KCAL/MOL
REMARK 924 INTRA-LIGAND FREE ENERGY PREDICTED BY IDOCK:   -1.35 KCAL/MOL
REMARK 927      BINDING AFFINITY PREDICTED BY RF-SCORE:    0.00 PKD
ROOT
HETATM    1  C   UNL     1      -8.598  11.631  66.375  1.00  0.00    -0.143 C  
HETATM    2  C   UNL     1     -10.049  11.603  65.834  1.00  0.00    -0.230 C  
HETATM    3  C   UNL     1     -10.007  10.690  64.598  1.00  0.00    -0.401 C  
ENDROOT
BRANCH   2   4
HETATM    4  N   UNL     1     -11.034  11.232  66.907  1.00  0.00    -0.289 NA 
BRANCH   4   5
HETATM    5  C   UNL     1     -10.395  10.335  67.932  1.00  0.00    -0.196 C  
BRANCH   5   6
HETATM    6  C   UNL     1     -10.618   8.830  67.683  1.00  0.00    -0.281 C  
BRANCH   6   7
HETATM    7  C   UNL     1      -9.776   7.805  68.524  1.00  0.00    -0.165 C  
BRANCH   7   8
HETATM    8  C   UNL     1     -10.447   7.672  69.923  1.00  0.00    -0.231 A  
HETATM    9  C   UNL     1     -10.240   8.617  70.945  1.00  0.00    -0.261 A  
HETATM   10  C   UNL     1     -10.896   8.517  72.176  1.00  0.00    -0.427 A  
HETATM   11  C   UNL     1     -11.365   6.633  70.189  1.00  0.00    -0.440 A  
HETATM   12  C   UNL     1     -11.777   7.468  72.418  1.00  0.00    -0.335 A  
HETATM   13  C   UNL     1     -12.009   6.525  71.425  1.00  0.00    -0.371 A  
ENDBRANCH   7   8
BRANCH   7  14
HETATM   14  C   UNL     1      -8.279   8.259  68.566  1.00  0.00    -0.131 C  
HETATM   15  N   UNL     1      -7.587   8.209  67.381  1.00  0.00    -0.099 N  
HETATM   16  H1  UNL     1      -6.611   8.504  67.409  1.00  0.00     0.000 HD 
HETATM   17  O   UNL     1      -7.672   8.614  69.573  1.00  0.00    -0.086 OA 
HETATM   18  H2  UNL     1      -8.027   7.893  66.518  1.00  0.00     0.000 HD 
ENDBRANCH   7  14
BRANCH   7  19
HETATM   19  C   UNL     1      -9.773   6.444  67.756  1.00  0.00    -0.121 A  
HETATM   20  C   UNL     1      -9.624   4.056  66.370  1.00  0.00    -0.217 A  
HETATM   21  N   UNL     1      -8.796   5.544  68.065  1.00  0.00    -0.106 NA 
HETATM   22  C   UNL     1     -10.639   4.954  66.073  1.00  0.00    -0.312 A  
HETATM   23  C   UNL     1      -8.736   4.388  67.371  1.00  0.00    -0.105 A  
HETATM   24  C   UNL     1     -10.726   6.161  66.775  1.00  0.00    -0.371 A  
ENDBRANCH   7  19
ENDBRANCH   6   7
ENDBRANCH   5   6
ENDBRANCH   4   5
BRANCH   4  25
HETATM   25  C   UNL     1     -11.787  12.358  67.553  1.00  0.00    -0.284 C  
HETATM   26  C   UNL     1     -11.173  12.947  68.836  1.00  0.00    -0.327 C  
HETATM   27  C   UNL     1     -11.943  13.571  66.605  1.00  0.00    -0.452 C  
ENDBRANCH   4  25
ENDBRANCH   2   4
TORSDOF 8
ENDMDL
MODEL      123
REMARK 921   NORMALIZED FREE ENERGY PREDICTED BY IDOCK:   -4.10 KCAL/MOL
REMARK 922        TOTAL FREE ENERGY PREDICTED BY IDOCK:   -7.73 KCAL/MOL
REMARK 923 INTER-LIGAND FREE ENERGY PREDICTED BY IDOCK:   -6.80 KCAL/MOL
REMARK 924 INTRA-LIGAND FREE ENERGY PREDICTED BY IDOCK:   -0.92 KCAL/MOL
REMARK 927      BINDING AFFINITY PREDICTED BY RF-SCORE:    0.00 PKD
ROOT
HETATM    1  C   UNL     1     -11.071   7.738  70.338  1.00  0.00    -0.259 C  
HETATM    2  C   UNL     1      -9.966   7.042  69.506  1.00  0.00    -0.162 C  
HETATM    3  C   UNL     1     -10.503   5.632  69.212  1.00  0.00    -0.356 C  
ENDROOT
BRANCH   2   4
HETATM    4  N   UNL     1      -9.565   7.867  68.316  1.00  0.00    -0.153 NA 
BRANCH   4   5
HETATM    5  C   UNL     1     -10.052   9.283  68.459  1.00  0.00    -0.190 C  
BRANCH   5   6
HETATM    6  C   UNL     1      -9.820  10.162  67.214  1.00  0.00    -0.226 C  
BRANCH   6   7
HETATM    7  C   UNL     1     -10.361  11.636  67.234  1.00  0.00    -0.232 C  
BRANCH   7   8
HETATM    8  C   UNL     1      -9.167  12.578  67.567  1.00  0.00    -0.188 A  
HETATM    9  C   UNL     1      -8.055  12.141  68.311  1.00  0.00    -0.166 A  
HETATM   10  C   UNL     1      -6.963  12.980  68.552  1.00  0.00    -0.102 A  
HETATM   11  C   UNL     1      -9.118  13.892  67.055  1.00  0.00    -0.259 A  
HETATM   12  C   UNL     1      -6.953  14.279  68.055  1.00  0.00    -0.149 A  
HETATM   13  C   UNL     1      -8.032  14.736  67.309  1.00  0.00    -0.232 A  
ENDBRANCH   7   8
BRANCH   7  14
HETATM   14  C   UNL     1     -11.566  11.744  68.226  1.00  0.00    -0.308 C  
HETATM   15  N   UNL     1     -11.702  12.931  68.903  1.00  0.00    -0.309 N  
HETATM   16  H1  UNL     1     -12.487  13.001  69.550  1.00  0.00     0.000 HD 
HETATM   17  O   UNL     1     -12.367  10.846  68.472  1.00  0.00    -0.490 OA 
HETATM   18  H2  UNL     1     -11.051  13.703  68.766  1.00  0.00     0.000 HD 
ENDBRANCH   7  14
BRANCH   7  19
HETATM   19  C   UNL     1     -10.960  11.946  65.823  1.00  0.00    -0.311 A  
HETATM   20  C   UNL     1     -12.142  12.421  63.369  1.00  0.00    -0.620 A  
HETATM   21  N   UNL     1     -12.214  12.479  65.769  1.00  0.00    -0.626 NA 
HETATM   22  C   UNL     1     -10.854  11.908  63.417  1.00  0.00    -0.469 A  
HETATM   23  C   UNL     1     -12.776  12.696  64.562  1.00  0.00    -0.357 A  
HETATM   24  C   UNL     1     -10.246  11.671  64.655  1.00  0.00    -0.327 A  
ENDBRANCH   7  19
ENDBRANCH   6   7
ENDBRANCH   5   6
ENDBRANCH   4   5
BRANCH   4  25
HETATM   25  C   UNL     1      -8.120   7.820  67.915  1.00  0.00    -0.126 C  
HETATM   26  C   UNL     1      -7.111   7.462  69.022  1.00  0.00    -0.079 C  
HETATM   27  C   UNL     1      -7.861   6.776  66.802  1.00  0.00    -0.107 C  
ENDBRANCH   4  25
ENDBRANCH   2   4
TORSDOF 8
ENDMDL
MODEL      124
REMARK 921   NORMALIZED FREE ENERGY PREDICTED BY IDOCK:   -4.09 KCAL/MOL
REMARK 922        TOTAL FREE ENERGY PREDICTED BY IDOCK:   -7.72 KCAL/MOL
REMARK 923 INTER-LIGAND FREE ENERGY PREDICTED BY IDOCK:   -6.72 KCAL/MOL
REMARK 924 INTRA-LIGAND FREE ENERGY PREDICTED BY IDOCK:   -1.00 KCAL/MOL
REMARK 927      BINDING AFFINITY PREDICTED BY RF-SCORE:    0.00 PKD
ROOT
HETATM    1  C   UNL     1      -8.507   7.854  66.497  1.00  0.00    -0.134 C  
HETATM    2  C   UNL     1      -8.202   9.350  66.757  1.00  0.00    -0.112 C  
HETATM    3  C   UNL     1      -6.696   9.511  66.490  1.00  0.00    -0.075 C  
ENDROOT
BRANCH   2   4
HETATM    4  N   UNL     1      -9.120  10.248  65.977  1.00  0.00    -0.156 NA 
BRANCH   4   5
HETATM    5  C   UNL     1      -8.767  11.694  66.195  1.00  0.00    -0.094 C  
BRANCH   5   6
HETATM    6  C   UNL     1      -8.982  12.188  67.640  1.00  0.00    -0.178 C  
BRANCH   6   7
HETATM    7  C   UNL     1     -10.419  12.664  68.055  1.00  0.00    -0.232 C  
BRANCH   7   8
HETATM    8  C   UNL     1     -10.929  11.717  69.180  1.00  0.00    -0.270 A  
HETATM    9  C   UNL     1     -12.148  11.937  69.848  1.00  0.00    -0.344 A  
HETATM   10  C   UNL     1     -12.622  11.044  70.814  1.00  0.00    -0.463 A  
HETATM   11  C   UNL     1     -10.220  10.542  69.513  1.00  0.00    -0.230 A  
HETATM   12  C   UNL     1     -11.890   9.908  71.140  1.00  0.00    -0.472 A  
HETATM   13  C   UNL     1     -10.687   9.659  70.491  1.00  0.00    -0.374 A  
ENDBRANCH   7   8
BRANCH   7  14
HETATM   14  C   UNL     1     -11.342  12.724  66.793  1.00  0.00    -0.313 C  
HETATM   15  N   UNL     1     -11.251  13.852  66.016  1.00  0.00    -0.297 N  
HETATM   16  H1  UNL     1     -11.853  13.891  65.194  1.00  0.00     0.000 HD 
HETATM   17  O   UNL     1     -12.161  11.867  66.470  1.00  0.00    -0.568 OA 
HETATM   18  H2  UNL     1     -10.614  14.613  66.249  1.00  0.00     0.000 HD 
ENDBRANCH   7  14
BRANCH   7  19
HETATM   19  C   UNL     1     -10.308  14.142  68.554  1.00  0.00    -0.249 A  
HETATM   20  C   UNL     1     -10.204  16.794  69.329  1.00  0.00    -0.278 A  
HETATM   21  N   UNL     1     -11.466  14.833  68.752  1.00  0.00    -0.285 NA 
HETATM   22  C   UNL     1      -9.023  16.087  69.159  1.00  0.00    -0.252 A  
HETATM   23  C   UNL     1     -11.394  16.129  69.122  1.00  0.00    -0.323 A  
HETATM   24  C   UNL     1      -9.067  14.742  68.775  1.00  0.00    -0.191 A  
ENDBRANCH   7  19
ENDBRANCH   6   7
ENDBRANCH   5   6
ENDBRANCH   4   5
BRANCH   4  25
HETATM   25  C   UNL     1      -9.294   9.937  64.519  1.00  0.00    -0.275 C  
HETATM   26  C   UNL     1     -10.188  10.897  63.714  1.00  0.00    -0.407 C  
HETATM   27  C   UNL     1      -7.944   9.938  63.761  1.00  0.00    -0.148 C  
ENDBRANCH   4  25
ENDBRANCH   2   4
TORSDOF 8
ENDMDL
MODEL      125
REMARK 921   NORMALIZED FREE ENERGY PREDICTED BY IDOCK:   -4.09 KCAL/MOL
REMARK 922        TOTAL FREE ENERGY PREDICTED BY IDOCK:   -7.72 KCAL/MOL
REMARK 923 INTER-LIGAND FREE ENERGY PREDICTED BY IDOCK:   -6.37 KCAL/MOL
REMARK 924 INTRA-LIGAND FREE ENERGY PREDICTED BY IDOCK:   -1.34 KCAL/MOL
REMARK 927      BINDING AFFINITY PREDICTED BY RF-SCORE:    0.00 PKD
ROOT
HETATM    1  C   UNL     1      -9.319  10.580  69.191  1.00  0.00    -0.200 C  
HETATM    2  C   UNL     1     -10.847  10.786  69.041  1.00  0.00    -0.235 C  
HETATM    3  C   UNL     1     -11.178  10.352  67.604  1.00  0.00    -0.287 C  
ENDROOT
BRANCH   2   4
HETATM    4  N   UNL     1     -11.609  10.101  70.140  1.00  0.00    -0.271 NA 
BRANCH   4   5
HETATM    5  C   UNL     1     -10.678   9.627  71.222  1.00  0.00    -0.247 C  
BRANCH   5   6
HETATM    6  C   UNL     1     -10.862   8.147  71.612  1.00  0.00    -0.306 C  
BRANCH   6   7
HETATM    7  C   UNL     1      -9.727   7.131  71.230  1.00  0.00    -0.170 C  
BRANCH   7   8
HETATM    8  C   UNL     1     -10.059   5.769  71.907  1.00  0.00    -0.228 A  
HETATM    9  C   UNL     1      -9.751   4.537  71.299  1.00  0.00    -0.252 A  
HETATM   10  C   UNL     1     -10.001   3.322  71.945  1.00  0.00    -0.209 A  
HETATM   11  C   UNL     1     -10.607   5.722  73.207  1.00  0.00    -0.279 A  
HETATM   12  C   UNL     1     -10.564   3.306  73.217  1.00  0.00    -0.275 A  
HETATM   13  C   UNL     1     -10.870   4.506  73.846  1.00  0.00    -0.344 A  
ENDBRANCH   7   8
BRANCH   7  14
HETATM   14  C   UNL     1      -8.332   7.724  71.620  1.00  0.00    -0.110 C  
HETATM   15  N   UNL     1      -7.279   6.845  71.659  1.00  0.00    -0.078 N  
HETATM   16  H1  UNL     1      -6.370   7.231  71.913  1.00  0.00     0.000 HD 
HETATM   17  O   UNL     1      -8.118   8.893  71.928  1.00  0.00    -0.338 OA 
HETATM   18  H2  UNL     1      -7.399   5.855  71.444  1.00  0.00     0.000 HD 
ENDBRANCH   7  14
BRANCH   7  19
HETATM   19  C   UNL     1      -9.701   7.007  69.672  1.00  0.00    -0.157 A  
HETATM   20  C   UNL     1      -9.586   6.919  66.910  1.00  0.00    -0.205 A  
HETATM   21  N   UNL     1      -8.513   7.222  69.038  1.00  0.00    -0.129 NA 
HETATM   22  C   UNL     1     -10.791   6.668  67.550  1.00  0.00    -0.417 A  
HETATM   23  C   UNL     1      -8.480   7.182  67.689  1.00  0.00    -0.120 A  
HETATM   24  C   UNL     1     -10.856   6.704  68.948  1.00  0.00    -0.326 A  
ENDBRANCH   7  19
ENDBRANCH   6   7
ENDBRANCH   5   6
ENDBRANCH   4   5
BRANCH   4  25
HETATM   25  C   UNL     1     -12.785  10.839  70.710  1.00  0.00    -0.360 C  
HETATM   26  C   UNL     1     -13.387  10.272  72.008  1.00  0.00    -0.466 C  
HETATM   27  C   UNL     1     -12.438  12.308  71.052  1.00  0.00    -0.361 C  
ENDBRANCH   4  25
ENDBRANCH   2   4
TORSDOF 8
ENDMDL
MODEL      126
REMARK 921   NORMALIZED FREE ENERGY PREDICTED BY IDOCK:   -4.08 KCAL/MOL
REMARK 922        TOTAL FREE ENERGY PREDICTED BY IDOCK:   -7.70 KCAL/MOL
REMARK 923 INTER-LIGAND FREE ENERGY PREDICTED BY IDOCK:   -6.02 KCAL/MOL
REMARK 924 INTRA-LIGAND FREE ENERGY PREDICTED BY IDOCK:   -1.68 KCAL/MOL
REMARK 927      BINDING AFFINITY PREDICTED BY RF-SCORE:    0.00 PKD
ROOT
HETATM    1  C   UNL     1     -13.160  14.169  65.174  1.00  0.00    -0.053 C  
HETATM    2  C   UNL     1     -12.212  12.945  65.153  1.00  0.00    -0.470 C  
HETATM    3  C   UNL     1     -11.713  12.840  63.703  1.00  0.00    -0.587 C  
ENDROOT
BRANCH   2   4
HETATM    4  N   UNL     1     -11.157  13.042  66.219  1.00  0.00    -0.284 NA 
BRANCH   4   5
HETATM    5  C   UNL     1      -9.931  12.261  65.831  1.00  0.00    -0.254 C  
BRANCH   5   6
HETATM    6  C   UNL     1      -9.950  10.786  66.280  1.00  0.00    -0.272 C  
BRANCH   6   7
HETATM    7  C   UNL     1      -8.994  10.353  67.447  1.00  0.00    -0.140 C  
BRANCH   7   8
HETATM    8  C   UNL     1      -9.862  10.143  68.722  1.00  0.00    -0.180 A  
HETATM    9  C   UNL     1     -11.118  10.757  68.881  1.00  0.00    -0.307 A  
HETATM   10  C   UNL     1     -11.913  10.511  70.005  1.00  0.00    -0.367 A  
HETATM   11  C   UNL     1      -9.453   9.249  69.736  1.00  0.00    -0.203 A  
HETATM   12  C   UNL     1     -11.474   9.644  71.000  1.00  0.00    -0.444 A  
HETATM   13  C   UNL     1     -10.242   9.016  70.866  1.00  0.00    -0.324 A  
ENDBRANCH   7   8
BRANCH   7  14
HETATM   14  C   UNL     1      -7.849  11.407  67.612  1.00  0.00    -0.122 C  
HETATM   15  N   UNL     1      -6.952  11.509  66.578  1.00  0.00    -0.341 N  
HETATM   16  H1  UNL     1      -6.205  12.195  66.685  1.00  0.00     0.000 HD 
HETATM   17  O   UNL     1      -7.670  12.114  68.600  1.00  0.00    -0.125 OA 
HETATM   18  H2  UNL     1      -7.028  10.927  65.744  1.00  0.00     0.000 HD 
ENDBRANCH   7  14
BRANCH   7  19
HETATM   19  C   UNL     1      -8.278   9.032  67.014  1.00  0.00    -0.109 A  
HETATM   20  C   UNL     1      -6.890   6.774  66.228  1.00  0.00    -0.060 A  
HETATM   21  N   UNL     1      -7.077   8.743  67.591  1.00  0.00    -0.078 NA 
HETATM   22  C   UNL     1      -8.126   7.046  65.660  1.00  0.00    -0.129 A  
HETATM   23  C   UNL     1      -6.412   7.640  67.187  1.00  0.00    -0.055 A  
HETATM   24  C   UNL     1      -8.838   8.183  66.058  1.00  0.00    -0.206 A  
ENDBRANCH   7  19
ENDBRANCH   6   7
ENDBRANCH   5   6
ENDBRANCH   4   5
BRANCH   4  25
HETATM   25  C   UNL     1     -10.804  14.419  66.699  1.00  0.00    -0.304 C  
HETATM   26  C   UNL     1     -11.074  14.719  68.184  1.00  0.00    -0.288 C  
HETATM   27  C   UNL     1      -9.300  14.732  66.507  1.00  0.00    -0.316 C  
ENDBRANCH   4  25
ENDBRANCH   2   4
TORSDOF 8
ENDMDL
MODEL      127
REMARK 921   NORMALIZED FREE ENERGY PREDICTED BY IDOCK:   -4.06 KCAL/MOL
REMARK 922        TOTAL FREE ENERGY PREDICTED BY IDOCK:   -7.67 KCAL/MOL
REMARK 923 INTER-LIGAND FREE ENERGY PREDICTED BY IDOCK:   -6.62 KCAL/MOL
REMARK 924 INTRA-LIGAND FREE ENERGY PREDICTED BY IDOCK:   -1.05 KCAL/MOL
REMARK 927      BINDING AFFINITY PREDICTED BY RF-SCORE:    0.00 PKD
ROOT
HETATM    1  C   UNL     1      -8.711   9.836  69.021  1.00  0.00    -0.148 C  
HETATM    2  C   UNL     1      -9.934  10.459  68.305  1.00  0.00    -0.151 C  
HETATM    3  C   UNL     1      -9.943   9.837  66.898  1.00  0.00    -0.270 C  
ENDROOT
BRANCH   2   4
HETATM    4  N   UNL     1     -11.190  10.303  69.114  1.00  0.00    -0.229 NA 
BRANCH   4   5
HETATM    5  C   UNL     1     -10.904   9.605  70.416  1.00  0.00    -0.295 C  
BRANCH   5   6
HETATM    6  C   UNL     1     -11.797   8.378  70.687  1.00  0.00    -0.100 C  
BRANCH   6   7
HETATM    7  C   UNL     1     -11.100   7.019  71.051  1.00  0.00    -0.295 C  
BRANCH   7   8
HETATM    8  C   UNL     1     -10.799   6.266  69.722  1.00  0.00    -0.399 A  
HETATM    9  C   UNL     1     -11.132   6.805  68.465  1.00  0.00    -0.217 A  
HETATM   10  C   UNL     1     -10.801   6.146  67.277  1.00  0.00    -0.438 A  
HETATM   11  C   UNL     1     -10.095   5.043  69.727  1.00  0.00    -0.337 A  
HETATM   12  C   UNL     1     -10.128   4.929  67.314  1.00  0.00    -0.212 A  
HETATM   13  C   UNL     1      -9.778   4.376  68.539  1.00  0.00    -0.181 A  
ENDBRANCH   7   8
BRANCH   7  14
HETATM   14  C   UNL     1     -11.992   6.219  72.058  1.00  0.00    -0.300 C  
HETATM   15  N   UNL     1     -13.289   6.645  72.204  1.00  0.00    -0.501 N  
HETATM   16  H1  UNL     1     -13.870   6.124  72.860  1.00  0.00     0.000 HD 
HETATM   17  O   UNL     1     -11.614   5.277  72.749  1.00  0.00    -0.284 OA 
HETATM   18  H2  UNL     1     -13.653   7.441  71.682  1.00  0.00     0.000 HD 
ENDBRANCH   7  14
BRANCH   7  19
HETATM   19  C   UNL     1      -9.788   7.348  71.835  1.00  0.00    -0.162 A  
HETATM   20  C   UNL     1      -7.414   7.801  73.178  1.00  0.00    -0.131 A  
HETATM   21  N   UNL     1      -8.602   7.185  71.183  1.00  0.00    -0.128 NA 
HETATM   22  C   UNL     1      -8.618   7.999  73.838  1.00  0.00    -0.324 A  
HETATM   23  C   UNL     1      -7.454   7.403  71.859  1.00  0.00    -0.080 A  
HETATM   24  C   UNL     1      -9.824   7.779  73.163  1.00  0.00    -0.361 A  
ENDBRANCH   7  19
ENDBRANCH   6   7
ENDBRANCH   5   6
ENDBRANCH   4   5
BRANCH   4  25
HETATM   25  C   UNL     1     -12.020  11.535  69.320  1.00  0.00    -0.330 C  
HETATM   26  C   UNL     1     -12.321  11.924  70.779  1.00  0.00    -0.416 C  
HETATM   27  C   UNL     1     -11.353  12.793  68.713  1.00  0.00    -0.332 C  
ENDBRANCH   4  25
ENDBRANCH   2   4
TORSDOF 8
ENDMDL
MODEL      128
REMARK 921   NORMALIZED FREE ENERGY PREDICTED BY IDOCK:   -4.06 KCAL/MOL
REMARK 922        TOTAL FREE ENERGY PREDICTED BY IDOCK:   -7.67 KCAL/MOL
REMARK 923 INTER-LIGAND FREE ENERGY PREDICTED BY IDOCK:   -6.48 KCAL/MOL
REMARK 924 INTRA-LIGAND FREE ENERGY PREDICTED BY IDOCK:   -1.19 KCAL/MOL
REMARK 927      BINDING AFFINITY PREDICTED BY RF-SCORE:    0.00 PKD
ROOT
HETATM    1  C   UNL     1      -8.223   7.387  65.337  1.00  0.00    -0.135 C  
HETATM    2  C   UNL     1      -8.391   8.823  65.893  1.00  0.00    -0.126 C  
HETATM    3  C   UNL     1      -7.028   9.503  65.685  1.00  0.00    -0.092 C  
ENDROOT
BRANCH   2   4
HETATM    4  N   UNL     1      -9.583   9.514  65.294  1.00  0.00    -0.281 NA 
BRANCH   4   5
HETATM    5  C   UNL     1     -10.617   9.806  66.348  1.00  0.00    -0.047 C  
BRANCH   5   6
HETATM    6  C   UNL     1     -10.476   8.957  67.627  1.00  0.00    -0.320 C  
BRANCH   6   7
HETATM    7  C   UNL     1     -10.480   9.695  69.012  1.00  0.00    -0.229 C  
BRANCH   7   8
HETATM    8  C   UNL     1     -10.964   8.682  70.091  1.00  0.00    -0.234 A  
HETATM    9  C   UNL     1     -10.886   7.290  69.898  1.00  0.00    -0.264 A  
HETATM   10  C   UNL     1     -11.269   6.392  70.900  1.00  0.00    -0.384 A  
HETATM   11  C   UNL     1     -11.424   9.129  71.349  1.00  0.00    -0.420 A  
HETATM   12  C   UNL     1     -11.740   6.862  72.121  1.00  0.00    -0.327 A  
HETATM   13  C   UNL     1     -11.821   8.231  72.344  1.00  0.00    -0.461 A  
ENDBRANCH   7   8
BRANCH   7  14
HETATM   14  C   UNL     1     -11.343  10.997  68.915  1.00  0.00    -0.280 C  
HETATM   15  N   UNL     1     -11.066  11.988  69.824  1.00  0.00    -0.480 N  
HETATM   16  H1  UNL     1     -11.628  12.837  69.761  1.00  0.00     0.000 HD 
HETATM   17  O   UNL     1     -12.264  11.182  68.124  1.00  0.00    -0.612 OA 
HETATM   18  H2  UNL     1     -10.335  11.881  70.526  1.00  0.00     0.000 HD 
ENDBRANCH   7  14
BRANCH   7  19
HETATM   19  C   UNL     1      -9.024  10.186  69.298  1.00  0.00    -0.183 A  
HETATM   20  C   UNL     1      -6.421  11.048  69.658  1.00  0.00    -0.123 A  
HETATM   21  N   UNL     1      -8.548  11.226  68.555  1.00  0.00    -0.154 NA 
HETATM   22  C   UNL     1      -6.910  10.011  70.439  1.00  0.00    -0.140 A  
HETATM   23  C   UNL     1      -7.272  11.626  68.741  1.00  0.00    -0.116 A  
HETATM   24  C   UNL     1      -8.228   9.574  70.268  1.00  0.00    -0.209 A  
ENDBRANCH   7  19
ENDBRANCH   6   7
ENDBRANCH   5   6
ENDBRANCH   4   5
BRANCH   4  25
HETATM   25  C   UNL     1      -9.310  10.718  64.441  1.00  0.00    -0.242 C  
HETATM   26  C   UNL     1      -9.674  10.600  62.951  1.00  0.00    -0.329 C  
HETATM   27  C   UNL     1     -10.085  11.964  64.933  1.00  0.00    -0.296 C  
ENDBRANCH   4  25
ENDBRANCH   2   4
TORSDOF 8
ENDMDL
MODEL      129
REMARK 921   NORMALIZED FREE ENERGY PREDICTED BY IDOCK:   -4.02 KCAL/MOL
REMARK 922        TOTAL FREE ENERGY PREDICTED BY IDOCK:   -7.60 KCAL/MOL
REMARK 923 INTER-LIGAND FREE ENERGY PREDICTED BY IDOCK:   -6.43 KCAL/MOL
REMARK 924 INTRA-LIGAND FREE ENERGY PREDICTED BY IDOCK:   -1.18 KCAL/MOL
REMARK 927      BINDING AFFINITY PREDICTED BY RF-SCORE:    0.00 PKD
ROOT
HETATM    1  C   UNL     1     -11.798  12.495  68.196  1.00  0.00    -0.371 C  
HETATM    2  C   UNL     1     -10.523  12.061  67.430  1.00  0.00    -0.216 C  
HETATM    3  C   UNL     1      -9.716  13.352  67.217  1.00  0.00    -0.232 C  
ENDROOT
BRANCH   2   4
HETATM    4  N   UNL     1      -9.814  10.935  68.126  1.00  0.00    -0.170 NA 
BRANCH   4   5
HETATM    5  C   UNL     1     -10.702  10.304  69.164  1.00  0.00    -0.228 C  
BRANCH   5   6
HETATM    6  C   UNL     1      -9.949   9.470  70.220  1.00  0.00    -0.310 C  
BRANCH   6   7
HETATM    7  C   UNL     1     -10.632   8.162  70.758  1.00  0.00    -0.234 C  
BRANCH   7   8
HETATM    8  C   UNL     1     -10.445   7.051  69.684  1.00  0.00    -0.238 A  
HETATM    9  C   UNL     1      -9.839   5.816  69.982  1.00  0.00    -0.235 A  
HETATM   10  C   UNL     1      -9.732   4.804  69.023  1.00  0.00    -0.248 A  
HETATM   11  C   UNL     1     -10.960   7.211  68.379  1.00  0.00    -0.080 A  
HETATM   12  C   UNL     1     -10.228   5.000  67.738  1.00  0.00    -0.156 A  
HETATM   13  C   UNL     1     -10.839   6.205  67.416  1.00  0.00    -0.431 A  
ENDBRANCH   7   8
BRANCH   7  14
HETATM   14  C   UNL     1     -12.123   8.457  71.129  1.00  0.00    -0.249 C  
HETATM   15  N   UNL     1     -13.027   7.451  70.896  1.00  0.00    -0.602 N  
HETATM   16  H1  UNL     1     -13.999   7.643  71.137  1.00  0.00     0.000 HD 
HETATM   17  O   UNL     1     -12.548   9.521  71.571  1.00  0.00    -0.326 OA 
HETATM   18  H2  UNL     1     -12.741   6.556  70.500  1.00  0.00     0.000 HD 
ENDBRANCH   7  14
BRANCH   7  19
HETATM   19  C   UNL     1      -9.940   7.780  72.106  1.00  0.00    -0.193 A  
HETATM   20  C   UNL     1      -8.836   7.150  74.562  1.00  0.00    -0.215 A  
HETATM   21  N   UNL     1     -10.643   7.012  72.986  1.00  0.00    -0.264 NA 
HETATM   22  C   UNL     1      -8.102   7.905  73.659  1.00  0.00    -0.248 A  
HETATM   23  C   UNL     1     -10.090   6.722  74.182  1.00  0.00    -0.350 A  
HETATM   24  C   UNL     1      -8.651   8.222  72.412  1.00  0.00    -0.270 A  
ENDBRANCH   7  19
ENDBRANCH   6   7
ENDBRANCH   5   6
ENDBRANCH   4   5
BRANCH   4  25
HETATM   25  C   UNL     1      -9.165   9.901  67.254  1.00  0.00    -0.138 C  
HETATM   26  C   UNL     1      -9.742   9.739  65.836  1.00  0.00    -0.332 C  
HETATM   27  C   UNL     1      -7.661  10.191  67.031  1.00  0.00    -0.092 C  
ENDBRANCH   4  25
ENDBRANCH   2   4
TORSDOF 8
ENDMDL
MODEL      130
REMARK 921   NORMALIZED FREE ENERGY PREDICTED BY IDOCK:   -4.01 KCAL/MOL
REMARK 922        TOTAL FREE ENERGY PREDICTED BY IDOCK:   -7.59 KCAL/MOL
REMARK 923 INTER-LIGAND FREE ENERGY PREDICTED BY IDOCK:   -6.01 KCAL/MOL
REMARK 924 INTRA-LIGAND FREE ENERGY PREDICTED BY IDOCK:   -1.58 KCAL/MOL
REMARK 927      BINDING AFFINITY PREDICTED BY RF-SCORE:    0.00 PKD
ROOT
HETATM    1  C   UNL     1     -10.411  10.919  64.479  1.00  0.00    -0.393 C  
HETATM    2  C   UNL     1     -10.352  11.965  65.620  1.00  0.00    -0.247 C  
HETATM    3  C   UNL     1     -11.814  12.357  65.890  1.00  0.00    -0.467 C  
ENDROOT
BRANCH   2   4
HETATM    4  N   UNL     1      -9.566  11.460  66.796  1.00  0.00    -0.185 NA 
BRANCH   4   5
HETATM    5  C   UNL     1      -9.580   9.957  66.843  1.00  0.00    -0.179 C  
BRANCH   5   6
HETATM    6  C   UNL     1     -10.689   9.360  67.733  1.00  0.00    -0.290 C  
BRANCH   6   7
HETATM    7  C   UNL     1     -10.276   8.329  68.843  1.00  0.00    -0.222 C  
BRANCH   7   8
HETATM    8  C   UNL     1      -8.770   8.553  69.164  1.00  0.00    -0.134 A  
HETATM    9  C   UNL     1      -8.339   9.513  70.099  1.00  0.00    -0.212 A  
HETATM   10  C   UNL     1      -6.986   9.661  70.422  1.00  0.00    -0.128 A  
HETATM   11  C   UNL     1      -7.777   7.731  68.587  1.00  0.00    -0.118 A  
HETATM   12  C   UNL     1      -6.028   8.853  69.819  1.00  0.00    -0.032 A  
HETATM   13  C   UNL     1      -6.424   7.891  68.899  1.00  0.00    -0.048 A  
ENDBRANCH   7   8
BRANCH   7  14
HETATM   14  C   UNL     1     -10.629   6.878  68.375  1.00  0.00    -0.210 C  
HETATM   15  N   UNL     1     -11.344   6.764  67.209  1.00  0.00    -0.753 N  
HETATM   16  H1  UNL     1     -11.574   5.818  66.904  1.00  0.00     0.000 HD 
HETATM   17  O   UNL     1     -10.353   5.848  68.984  1.00  0.00    -0.187 OA 
HETATM   18  H2  UNL     1     -11.630   7.583  66.674  1.00  0.00     0.000 HD 
ENDBRANCH   7  14
BRANCH   7  19
HETATM   19  C   UNL     1     -11.176   8.588  70.095  1.00  0.00    -0.136 A  
HETATM   20  C   UNL     1     -12.709   9.181  72.318  1.00  0.00    -0.447 A  
HETATM   21  N   UNL     1     -11.916   9.733  70.119  1.00  0.00    -0.096 NA 
HETATM   22  C   UNL     1     -11.983   8.000  72.287  1.00  0.00    -0.412 A  
HETATM   23  C   UNL     1     -12.652  10.008  71.217  1.00  0.00    -0.393 A  
HETATM   24  C   UNL     1     -11.210   7.689  71.163  1.00  0.00    -0.280 A  
ENDBRANCH   7  19
ENDBRANCH   6   7
ENDBRANCH   5   6
ENDBRANCH   4   5
BRANCH   4  25
HETATM   25  C   UNL     1      -8.178  12.004  66.967  1.00  0.00    -0.169 C  
HETATM   26  C   UNL     1      -7.862  12.666  68.320  1.00  0.00    -0.144 C  
HETATM   27  C   UNL     1      -7.101  10.903  66.812  1.00  0.00    -0.129 C  
ENDBRANCH   4  25
ENDBRANCH   2   4
TORSDOF 8
ENDMDL
MODEL      131
REMARK 921   NORMALIZED FREE ENERGY PREDICTED BY IDOCK:   -3.98 KCAL/MOL
REMARK 922        TOTAL FREE ENERGY PREDICTED BY IDOCK:   -7.56 KCAL/MOL
REMARK 923 INTER-LIGAND FREE ENERGY PREDICTED BY IDOCK:   -6.65 KCAL/MOL
REMARK 924 INTRA-LIGAND FREE ENERGY PREDICTED BY IDOCK:   -0.91 KCAL/MOL
REMARK 927      BINDING AFFINITY PREDICTED BY RF-SCORE:    0.00 PKD
ROOT
HETATM    1  C   UNL     1      -9.235   8.054  68.894  1.00  0.00    -0.147 C  
HETATM    2  C   UNL     1      -9.320   8.849  70.221  1.00  0.00    -0.185 C  
HETATM    3  C   UNL     1      -7.870   8.970  70.718  1.00  0.00    -0.156 C  
ENDROOT
BRANCH   2   4
HETATM    4  N   UNL     1     -10.078  10.135  70.050  1.00  0.00    -0.233 NA 
BRANCH   4   5
HETATM    5  C   UNL     1     -10.242  10.469  68.592  1.00  0.00    -0.183 C  
BRANCH   5   6
HETATM    6  C   UNL     1      -9.291  11.570  68.083  1.00  0.00    -0.185 C  
BRANCH   6   7
HETATM    7  C   UNL     1      -9.848  12.614  67.051  1.00  0.00    -0.225 C  
BRANCH   7   8
HETATM    8  C   UNL     1      -9.014  13.920  67.197  1.00  0.00    -0.242 A  
HETATM    9  C   UNL     1      -9.184  15.017  66.331  1.00  0.00    -0.328 A  
HETATM   10  C   UNL     1      -8.470  16.206  66.511  1.00  0.00    -0.346 A  
HETATM   11  C   UNL     1      -8.109  14.085  68.268  1.00  0.00    -0.148 A  
HETATM   12  C   UNL     1      -7.567  16.331  67.561  1.00  0.00    -0.170 A  
HETATM   13  C   UNL     1      -7.384  15.269  68.438  1.00  0.00    -0.114 A  
ENDBRANCH   7   8
BRANCH   7  14
HETATM   14  C   UNL     1     -11.387  12.803  67.267  1.00  0.00    -0.314 C  
HETATM   15  N   UNL     1     -11.768  13.727  68.208  1.00  0.00    -0.339 N  
HETATM   16  H1  UNL     1     -12.770  13.850  68.349  1.00  0.00     0.000 HD 
HETATM   17  O   UNL     1     -12.268  12.166  66.695  1.00  0.00    -0.566 OA 
HETATM   18  H2  UNL     1     -11.083  14.264  68.739  1.00  0.00     0.000 HD 
ENDBRANCH   7  14
BRANCH   7  19
HETATM   19  C   UNL     1      -9.706  11.997  65.622  1.00  0.00    -0.223 A  
HETATM   20  C   UNL     1      -9.600  10.920  63.078  1.00  0.00    -0.382 A  
HETATM   21  N   UNL     1     -10.305  12.651  64.586  1.00  0.00    -0.327 NA 
HETATM   22  C   UNL     1      -8.962  10.266  64.122  1.00  0.00    -0.263 A  
HETATM   23  C   UNL     1     -10.248  12.104  63.354  1.00  0.00    -0.388 A  
HETATM   24  C   UNL     1      -9.004  10.809  65.411  1.00  0.00    -0.211 A  
ENDBRANCH   7  19
ENDBRANCH   6   7
ENDBRANCH   5   6
ENDBRANCH   4   5
BRANCH   4  25
HETATM   25  C   UNL     1     -11.376  10.260  70.792  1.00  0.00    -0.337 C  
HETATM   26  C   UNL     1     -12.603  10.682  69.965  1.00  0.00    -0.232 C  
HETATM   27  C   UNL     1     -11.795   8.926  71.456  1.00  0.00    -0.402 C  
ENDBRANCH   4  25
ENDBRANCH   2   4
TORSDOF 8
ENDMDL
MODEL      132
REMARK 921   NORMALIZED FREE ENERGY PREDICTED BY IDOCK:   -3.98 KCAL/MOL
REMARK 922        TOTAL FREE ENERGY PREDICTED BY IDOCK:   -7.54 KCAL/MOL
REMARK 923 INTER-LIGAND FREE ENERGY PREDICTED BY IDOCK:   -6.33 KCAL/MOL
REMARK 924 INTRA-LIGAND FREE ENERGY PREDICTED BY IDOCK:   -1.21 KCAL/MOL
REMARK 927      BINDING AFFINITY PREDICTED BY RF-SCORE:    0.00 PKD
ROOT
HETATM    1  C   UNL     1     -12.111  12.881  66.616  1.00  0.00    -0.360 C  
HETATM    2  C   UNL     1     -11.623  14.265  67.112  1.00  0.00    -0.380 C  
HETATM    3  C   UNL     1     -12.148  14.391  68.552  1.00  0.00    -0.278 C  
ENDROOT
BRANCH   2   4
HETATM    4  N   UNL     1     -10.142  14.432  66.922  1.00  0.00    -0.255 NA 
BRANCH   4   5
HETATM    5  C   UNL     1      -9.452  13.095  66.899  1.00  0.00    -0.244 C  
BRANCH   5   6
HETATM    6  C   UNL     1      -8.907  12.640  68.267  1.00  0.00    -0.172 C  
BRANCH   6   7
HETATM    7  C   UNL     1      -8.579  11.117  68.466  1.00  0.00    -0.157 C  
BRANCH   7   8
HETATM    8  C   UNL     1      -9.663  10.516  69.409  1.00  0.00    -0.188 A  
HETATM    9  C   UNL     1      -9.386   9.444  70.278  1.00  0.00    -0.294 A  
HETATM   10  C   UNL     1     -10.353   8.954  71.162  1.00  0.00    -0.338 A  
HETATM   11  C   UNL     1     -10.951  11.089  69.488  1.00  0.00    -0.297 A  
HETATM   12  C   UNL     1     -11.621   9.522  71.201  1.00  0.00    -0.439 A  
HETATM   13  C   UNL     1     -11.921  10.588  70.362  1.00  0.00    -0.425 A  
ENDBRANCH   7   8
BRANCH   7  14
HETATM   14  C   UNL     1      -7.111  10.954  68.982  1.00  0.00    -0.095 C  
HETATM   15  N   UNL     1      -6.584  12.010  69.684  1.00  0.00    -0.283 N  
HETATM   16  H1  UNL     1      -5.628  11.904  70.020  1.00  0.00     0.000 HD 
HETATM   17  O   UNL     1      -6.389   9.982  68.776  1.00  0.00    -0.041 OA 
HETATM   18  H2  UNL     1      -7.123  12.857  69.860  1.00  0.00     0.000 HD 
ENDBRANCH   7  14
BRANCH   7  19
HETATM   19  C   UNL     1      -8.599  10.435  67.059  1.00  0.00    -0.130 A  
HETATM   20  C   UNL     1      -8.610   9.361  64.511  1.00  0.00    -0.219 A  
HETATM   21  N   UNL     1      -7.573  10.712  66.205  1.00  0.00    -0.132 NA 
HETATM   22  C   UNL     1      -9.641   9.051  65.386  1.00  0.00    -0.084 A  
HETATM   23  C   UNL     1      -7.601  10.184  64.964  1.00  0.00    -0.141 A  
HETATM   24  C   UNL     1      -9.639   9.584  66.680  1.00  0.00    -0.243 A  
ENDBRANCH   7  19
ENDBRANCH   6   7
ENDBRANCH   5   6
ENDBRANCH   4   5
BRANCH   4  25
HETATM   25  C   UNL     1      -9.700  15.300  65.781  1.00  0.00    -0.350 C  
HETATM   26  C   UNL     1     -10.812  15.893  64.898  1.00  0.00    -0.420 C  
HETATM   27  C   UNL     1      -8.893  16.529  66.267  1.00  0.00    -0.364 C  
ENDBRANCH   4  25
ENDBRANCH   2   4
TORSDOF 8
ENDMDL
MODEL      133
REMARK 921   NORMALIZED FREE ENERGY PREDICTED BY IDOCK:   -3.97 KCAL/MOL
REMARK 922        TOTAL FREE ENERGY PREDICTED BY IDOCK:   -7.53 KCAL/MOL
REMARK 923 INTER-LIGAND FREE ENERGY PREDICTED BY IDOCK:   -6.58 KCAL/MOL
REMARK 924 INTRA-LIGAND FREE ENERGY PREDICTED BY IDOCK:   -0.95 KCAL/MOL
REMARK 927      BINDING AFFINITY PREDICTED BY RF-SCORE:    0.00 PKD
ROOT
HETATM    1  C   UNL     1      -9.566   6.645  66.893  1.00  0.00    -0.194 C  
HETATM    2  C   UNL     1      -9.430   8.132  67.304  1.00  0.00    -0.155 C  
HETATM    3  C   UNL     1      -9.556   8.930  65.996  1.00  0.00    -0.320 C  
ENDROOT
BRANCH   2   4
HETATM    4  N   UNL     1     -10.388   8.494  68.403  1.00  0.00    -0.210 NA 
BRANCH   4   5
HETATM    5  C   UNL     1     -10.753   7.280  69.214  1.00  0.00    -0.198 C  
BRANCH   5   6
HETATM    6  C   UNL     1      -9.756   6.948  70.343  1.00  0.00    -0.177 C  
BRANCH   6   7
HETATM    7  C   UNL     1     -10.272   6.989  71.825  1.00  0.00    -0.209 C  
BRANCH   7   8
HETATM    8  C   UNL     1     -11.692   7.626  71.818  1.00  0.00    -0.319 A  
HETATM    9  C   UNL     1     -11.903   8.987  72.112  1.00  0.00    -0.384 A  
HETATM   10  C   UNL     1     -13.177   9.559  72.043  1.00  0.00    -0.539 A  
HETATM   11  C   UNL     1     -12.821   6.874  71.428  1.00  0.00    -0.365 A  
HETATM   12  C   UNL     1     -14.275   8.787  71.679  1.00  0.00    -0.414 A  
HETATM   13  C   UNL     1     -14.097   7.444  71.374  1.00  0.00    -0.491 A  
ENDBRANCH   7   8
BRANCH   7  14
HETATM   14  C   UNL     1      -9.233   7.735  72.727  1.00  0.00    -0.195 C  
HETATM   15  N   UNL     1      -8.067   8.133  72.123  1.00  0.00    -0.127 N  
HETATM   16  H1  UNL     1      -7.390   8.618  72.711  1.00  0.00     0.000 HD 
HETATM   17  O   UNL     1      -9.363   7.953  73.929  1.00  0.00    -0.249 OA 
HETATM   18  H2  UNL     1      -7.887   7.952  71.136  1.00  0.00     0.000 HD 
ENDBRANCH   7  14
BRANCH   7  19
HETATM   19  C   UNL     1     -10.304   5.521  72.361  1.00  0.00    -0.206 A  
HETATM   20  C   UNL     1     -10.419   2.882  73.181  1.00  0.00    -0.249 A  
HETATM   21  N   UNL     1      -9.786   4.543  71.565  1.00  0.00    -0.181 NA 
HETATM   22  C   UNL     1     -10.919   3.876  74.010  1.00  0.00    -0.235 A  
HETATM   23  C   UNL     1      -9.859   3.261  71.980  1.00  0.00    -0.170 A  
HETATM   24  C   UNL     1     -10.858   5.214  73.606  1.00  0.00    -0.363 A  
ENDBRANCH   7  19
ENDBRANCH   6   7
ENDBRANCH   5   6
ENDBRANCH   4   5
BRANCH   4  25
HETATM   25  C   UNL     1     -10.007   9.649  69.282  1.00  0.00    -0.191 C  
HETATM   26  C   UNL     1      -8.544  10.122  69.197  1.00  0.00    -0.167 C  
HETATM   27  C   UNL     1     -10.842  10.914  68.971  1.00  0.00    -0.275 C  
ENDBRANCH   4  25
ENDBRANCH   2   4
TORSDOF 8
ENDMDL
MODEL      134
REMARK 921   NORMALIZED FREE ENERGY PREDICTED BY IDOCK:   -3.96 KCAL/MOL
REMARK 922        TOTAL FREE ENERGY PREDICTED BY IDOCK:   -7.51 KCAL/MOL
REMARK 923 INTER-LIGAND FREE ENERGY PREDICTED BY IDOCK:   -6.17 KCAL/MOL
REMARK 924 INTRA-LIGAND FREE ENERGY PREDICTED BY IDOCK:   -1.35 KCAL/MOL
REMARK 927      BINDING AFFINITY PREDICTED BY RF-SCORE:    0.00 PKD
ROOT
HETATM    1  C   UNL     1      -8.088  10.206  65.271  1.00  0.00    -0.151 C  
HETATM    2  C   UNL     1      -9.184  11.254  64.954  1.00  0.00    -0.112 C  
HETATM    3  C   UNL     1     -10.003  10.651  63.800  1.00  0.00    -0.379 C  
ENDROOT
BRANCH   2   4
HETATM    4  N   UNL     1      -9.949  11.647  66.185  1.00  0.00    -0.214 NA 
BRANCH   4   5
HETATM    5  C   UNL     1      -9.112  11.454  67.420  1.00  0.00    -0.160 C  
BRANCH   5   6
HETATM    6  C   UNL     1      -9.923  11.153  68.696  1.00  0.00    -0.210 C  
BRANCH   6   7
HETATM    7  C   UNL     1      -9.793   9.727  69.340  1.00  0.00    -0.217 C  
BRANCH   7   8
HETATM    8  C   UNL     1      -8.434   9.669  70.097  1.00  0.00    -0.231 A  
HETATM    9  C   UNL     1      -8.245   8.860  71.233  1.00  0.00    -0.207 A  
HETATM   10  C   UNL     1      -7.001   8.771  71.867  1.00  0.00    -0.064 A  
HETATM   11  C   UNL     1      -7.306  10.366  69.613  1.00  0.00    -0.156 A  
HETATM   12  C   UNL     1      -5.913   9.489  71.382  1.00  0.00    -0.052 A  
HETATM   13  C   UNL     1      -6.067  10.289  70.257  1.00  0.00    -0.098 A  
ENDBRANCH   7   8
BRANCH   7  14
HETATM   14  C   UNL     1      -9.966   8.631  68.237  1.00  0.00    -0.180 C  
HETATM   15  N   UNL     1     -11.006   8.801  67.357  1.00  0.00    -0.418 N  
HETATM   16  H1  UNL     1     -11.119   8.086  66.639  1.00  0.00     0.000 HD 
HETATM   17  O   UNL     1      -9.276   7.621  68.124  1.00  0.00    -0.138 OA 
HETATM   18  H2  UNL     1     -11.633   9.602  67.418  1.00  0.00     0.000 HD 
ENDBRANCH   7  14
BRANCH   7  19
HETATM   19  C   UNL     1     -11.001   9.529  70.311  1.00  0.00    -0.269 A  
HETATM   20  C   UNL     1     -13.203   9.094  71.927  1.00  0.00    -0.479 A  
HETATM   21  N   UNL     1     -11.445   8.257  70.520  1.00  0.00    -0.225 NA 
HETATM   22  C   UNL     1     -12.737  10.388  71.744  1.00  0.00    -0.525 A  
HETATM   23  C   UNL     1     -12.526   8.067  71.306  1.00  0.00    -0.253 A  
HETATM   24  C   UNL     1     -11.619  10.616  70.934  1.00  0.00    -0.311 A  
ENDBRANCH   7  19
ENDBRANCH   6   7
ENDBRANCH   5   6
ENDBRANCH   4   5
BRANCH   4  25
HETATM   25  C   UNL     1     -10.608  12.994  66.171  1.00  0.00    -0.277 C  
HETATM   26  C   UNL     1     -10.249  13.923  64.997  1.00  0.00    -0.383 C  
HETATM   27  C   UNL     1     -12.152  12.885  66.121  1.00  0.00    -0.458 C  
ENDBRANCH   4  25
ENDBRANCH   2   4
TORSDOF 8
ENDMDL
MODEL      135
REMARK 921   NORMALIZED FREE ENERGY PREDICTED BY IDOCK:   -3.95 KCAL/MOL
REMARK 922        TOTAL FREE ENERGY PREDICTED BY IDOCK:   -7.51 KCAL/MOL
REMARK 923 INTER-LIGAND FREE ENERGY PREDICTED BY IDOCK:   -6.02 KCAL/MOL
REMARK 924 INTRA-LIGAND FREE ENERGY PREDICTED BY IDOCK:   -1.49 KCAL/MOL
REMARK 927      BINDING AFFINITY PREDICTED BY RF-SCORE:    0.00 PKD
ROOT
HETATM    1  C   UNL     1     -10.337  16.058  67.967  1.00  0.00    -0.266 C  
HETATM    2  C   UNL     1     -10.810  14.614  67.669  1.00  0.00    -0.284 C  
HETATM    3  C   UNL     1     -12.138  14.456  68.427  1.00  0.00    -0.278 C  
ENDROOT
BRANCH   2   4
HETATM    4  N   UNL     1     -10.844  14.334  66.193  1.00  0.00    -0.305 NA 
BRANCH   4   5
HETATM    5  C   UNL     1      -9.946  13.178  65.847  1.00  0.00    -0.269 C  
BRANCH   5   6
HETATM    6  C   UNL     1      -9.414  12.402  67.068  1.00  0.00    -0.211 C  
BRANCH   6   7
HETATM    7  C   UNL     1      -9.351  10.835  66.982  1.00  0.00    -0.174 C  
BRANCH   7   8
HETATM    8  C   UNL     1      -8.899  10.455  65.542  1.00  0.00    -0.193 A  
HETATM    9  C   UNL     1      -9.819  10.265  64.494  1.00  0.00    -0.384 A  
HETATM   10  C   UNL     1      -9.395   9.983  63.192  1.00  0.00    -0.297 A  
HETATM   11  C   UNL     1      -7.528  10.373  65.212  1.00  0.00    -0.113 A  
HETATM   12  C   UNL     1      -8.038   9.884  62.902  1.00  0.00    -0.140 A  
HETATM   13  C   UNL     1      -7.105  10.076  63.913  1.00  0.00    -0.126 A  
ENDBRANCH   7   8
BRANCH   7  14
HETATM   14  C   UNL     1     -10.727  10.225  67.409  1.00  0.00    -0.281 C  
HETATM   15  N   UNL     1     -10.827   8.857  67.389  1.00  0.00    -0.439 N  
HETATM   16  H1  UNL     1     -11.724   8.459  67.667  1.00  0.00     0.000 HD 
HETATM   17  O   UNL     1     -11.725  10.871  67.719  1.00  0.00    -0.569 OA 
HETATM   18  H2  UNL     1     -10.044   8.267  67.110  1.00  0.00     0.000 HD 
ENDBRANCH   7  14
BRANCH   7  19
HETATM   19  C   UNL     1      -8.329  10.337  68.055  1.00  0.00    -0.114 A  
HETATM   20  C   UNL     1      -6.616   9.347  69.986  1.00  0.00    -0.059 A  
HETATM   21  N   UNL     1      -7.994   9.016  68.047  1.00  0.00    -0.101 NA 
HETATM   22  C   UNL     1      -6.928  10.699  69.981  1.00  0.00    -0.131 A  
HETATM   23  C   UNL     1      -7.162   8.551  69.003  1.00  0.00    -0.073 A  
HETATM   24  C   UNL     1      -7.789  11.209  69.003  1.00  0.00    -0.103 A  
ENDBRANCH   7  19
ENDBRANCH   6   7
ENDBRANCH   5   6
ENDBRANCH   4   5
BRANCH   4  25
HETATM   25  C   UNL     1     -12.198  14.188  65.563  1.00  0.00    -0.432 C  
HETATM   26  C   UNL     1     -12.503  15.111  64.370  1.00  0.00    -0.107 C  
HETATM   27  C   UNL     1     -12.432  12.758  65.018  1.00  0.00    -0.572 C  
ENDBRANCH   4  25
ENDBRANCH   2   4
TORSDOF 8
ENDMDL
MODEL      136
REMARK 921   NORMALIZED FREE ENERGY PREDICTED BY IDOCK:   -3.95 KCAL/MOL
REMARK 922        TOTAL FREE ENERGY PREDICTED BY IDOCK:   -7.50 KCAL/MOL
REMARK 923 INTER-LIGAND FREE ENERGY PREDICTED BY IDOCK:   -5.81 KCAL/MOL
REMARK 924 INTRA-LIGAND FREE ENERGY PREDICTED BY IDOCK:   -1.69 KCAL/MOL
REMARK 927      BINDING AFFINITY PREDICTED BY RF-SCORE:    0.00 PKD
ROOT
HETATM    1  C   UNL     1      -7.931   4.378  69.753  1.00  0.00    -0.056 C  
HETATM    2  C   UNL     1      -9.187   3.887  70.515  1.00  0.00    -0.133 C  
HETATM    3  C   UNL     1      -9.317   2.395  70.169  1.00  0.00    -0.183 C  
ENDROOT
BRANCH   2   4
HETATM    4  N   UNL     1      -9.121   4.233  71.975  1.00  0.00    -0.119 NA 
BRANCH   4   5
HETATM    5  C   UNL     1     -10.365   4.962  72.409  1.00  0.00    -0.204 C  
BRANCH   5   6
HETATM    6  C   UNL     1     -11.114   5.673  71.264  1.00  0.00    -0.205 C  
BRANCH   6   7
HETATM    7  C   UNL     1     -10.700   7.145  70.907  1.00  0.00    -0.251 C  
BRANCH   7   8
HETATM    8  C   UNL     1     -10.394   7.198  69.382  1.00  0.00    -0.206 A  
HETATM    9  C   UNL     1     -10.993   6.312  68.468  1.00  0.00    -0.421 A  
HETATM   10  C   UNL     1     -10.754   6.410  67.093  1.00  0.00    -0.433 A  
HETATM   11  C   UNL     1      -9.561   8.204  68.846  1.00  0.00    -0.153 A  
HETATM   12  C   UNL     1      -9.910   7.397  66.596  1.00  0.00    -0.263 A  
HETATM   13  C   UNL     1      -9.311   8.292  67.473  1.00  0.00    -0.166 A  
ENDBRANCH   7   8
BRANCH   7  14
HETATM   14  C   UNL     1      -9.514   7.597  71.821  1.00  0.00    -0.145 C  
HETATM   15  N   UNL     1      -9.845   8.128  73.043  1.00  0.00    -0.276 N  
HETATM   16  H1  UNL     1      -9.071   8.423  73.639  1.00  0.00     0.000 HD 
HETATM   17  O   UNL     1      -8.325   7.551  71.517  1.00  0.00    -0.105 OA 
HETATM   18  H2  UNL     1     -10.815   8.222  73.341  1.00  0.00     0.000 HD 
ENDBRANCH   7  14
BRANCH   7  19
HETATM   19  C   UNL     1     -11.893   8.082  71.287  1.00  0.00    -0.294 A  
HETATM   20  C   UNL     1     -13.910   9.814  72.046  1.00  0.00    -0.258 A  
HETATM   21  N   UNL     1     -11.687   9.428  71.221  1.00  0.00    -0.331 NA 
HETATM   22  C   UNL     1     -14.136   8.446  72.086  1.00  0.00    -0.460 A  
HETATM   23  C   UNL     1     -12.682  10.256  71.604  1.00  0.00    -0.456 A  
HETATM   24  C   UNL     1     -13.123   7.563  71.696  1.00  0.00    -0.401 A  
ENDBRANCH   7  19
ENDBRANCH   6   7
ENDBRANCH   5   6
ENDBRANCH   4   5
BRANCH   4  25
HETATM   25  C   UNL     1      -8.778   3.120  72.920  1.00  0.00    -0.084 C  
HETATM   26  C   UNL     1      -7.404   3.203  73.609  1.00  0.00    -0.054 C  
HETATM   27  C   UNL     1      -9.790   3.015  74.086  1.00  0.00    -0.151 C  
ENDBRANCH   4  25
ENDBRANCH   2   4
TORSDOF 8
ENDMDL
MODEL      137
REMARK 921   NORMALIZED FREE ENERGY PREDICTED BY IDOCK:   -3.95 KCAL/MOL
REMARK 922        TOTAL FREE ENERGY PREDICTED BY IDOCK:   -7.50 KCAL/MOL
REMARK 923 INTER-LIGAND FREE ENERGY PREDICTED BY IDOCK:   -5.70 KCAL/MOL
REMARK 924 INTRA-LIGAND FREE ENERGY PREDICTED BY IDOCK:   -1.80 KCAL/MOL
REMARK 927      BINDING AFFINITY PREDICTED BY RF-SCORE:    0.00 PKD
ROOT
HETATM    1  C   UNL     1      -9.834   4.273  69.845  1.00  0.00    -0.267 C  
HETATM    2  C   UNL     1      -9.275   5.282  70.879  1.00  0.00    -0.146 C  
HETATM    3  C   UNL     1      -7.800   5.484  70.496  1.00  0.00    -0.098 C  
ENDROOT
BRANCH   2   4
HETATM    4  N   UNL     1     -10.122   6.520  70.959  1.00  0.00    -0.184 NA 
BRANCH   4   5
HETATM    5  C   UNL     1     -10.800   6.791  69.643  1.00  0.00    -0.271 C  
BRANCH   5   6
HETATM    6  C   UNL     1     -10.545   8.202  69.078  1.00  0.00    -0.167 C  
BRANCH   6   7
HETATM    7  C   UNL     1      -9.542   8.351  67.879  1.00  0.00    -0.180 C  
BRANCH   7   8
HETATM    8  C   UNL     1      -9.490   6.989  67.129  1.00  0.00    -0.176 A  
HETATM    9  C   UNL     1      -8.283   6.297  66.917  1.00  0.00    -0.109 A  
HETATM   10  C   UNL     1      -8.258   5.045  66.294  1.00  0.00    -0.108 A  
HETATM   11  C   UNL     1     -10.676   6.349  66.706  1.00  0.00    -0.355 A  
HETATM   12  C   UNL     1      -9.440   4.451  65.867  1.00  0.00    -0.174 A  
HETATM   13  C   UNL     1     -10.649   5.105  66.070  1.00  0.00    -0.236 A  
ENDBRANCH   7   8
BRANCH   7  14
HETATM   14  C   UNL     1      -8.157   8.852  68.407  1.00  0.00    -0.109 C  
HETATM   15  N   UNL     1      -7.375   9.549  67.519  1.00  0.00    -0.090 N  
HETATM   16  H1  UNL     1      -6.472   9.875  67.863  1.00  0.00     0.000 HD 
HETATM   17  O   UNL     1      -7.705   8.639  69.528  1.00  0.00    -0.086 OA 
HETATM   18  H2  UNL     1      -7.681   9.730  66.564  1.00  0.00     0.000 HD 
ENDBRANCH   7  14
BRANCH   7  19
HETATM   19  C   UNL     1     -10.069   9.497  66.954  1.00  0.00    -0.230 A  
HETATM   20  C   UNL     1     -10.863  11.542  65.271  1.00  0.00    -0.319 A  
HETATM   21  N   UNL     1      -9.703   9.471  65.641  1.00  0.00    -0.289 NA 
HETATM   22  C   UNL     1     -11.265  11.557  66.598  1.00  0.00    -0.336 A  
HETATM   23  C   UNL     1     -10.094  10.483  64.838  1.00  0.00    -0.333 A  
HETATM   24  C   UNL     1     -10.874  10.522  67.455  1.00  0.00    -0.349 A  
ENDBRANCH   7  19
ENDBRANCH   6   7
ENDBRANCH   5   6
ENDBRANCH   4   5
BRANCH   4  25
HETATM   25  C   UNL     1     -11.088   6.607  72.104  1.00  0.00    -0.254 C  
HETATM   26  C   UNL     1     -10.901   7.789  73.072  1.00  0.00    -0.451 C  
HETATM   27  C   UNL     1     -12.553   6.730  71.620  1.00  0.00    -0.380 C  
ENDBRANCH   4  25
ENDBRANCH   2   4
TORSDOF 8
ENDMDL
MODEL      138
REMARK 921   NORMALIZED FREE ENERGY PREDICTED BY IDOCK:   -3.90 KCAL/MOL
REMARK 922        TOTAL FREE ENERGY PREDICTED BY IDOCK:   -7.44 KCAL/MOL
REMARK 923 INTER-LIGAND FREE ENERGY PREDICTED BY IDOCK:   -6.43 KCAL/MOL
REMARK 924 INTRA-LIGAND FREE ENERGY PREDICTED BY IDOCK:   -1.00 KCAL/MOL
REMARK 927      BINDING AFFINITY PREDICTED BY RF-SCORE:    0.00 PKD
ROOT
HETATM    1  C   UNL     1     -13.145   8.818  71.571  1.00  0.00    -0.358 C  
HETATM    2  C   UNL     1     -12.961  10.183  70.864  1.00  0.00    -0.351 C  
HETATM    3  C   UNL     1     -12.833  11.215  71.997  1.00  0.00    -0.285 C  
ENDROOT
BRANCH   2   4
HETATM    4  N   UNL     1     -11.840  10.143  69.864  1.00  0.00    -0.182 NA 
BRANCH   4   5
HETATM    5  C   UNL     1     -11.114  11.461  69.823  1.00  0.00    -0.126 C  
BRANCH   5   6
HETATM    6  C   UNL     1     -11.633  12.436  68.747  1.00  0.00    -0.373 C  
BRANCH   6   7
HETATM    7  C   UNL     1     -10.670  13.573  68.250  1.00  0.00    -0.271 C  
BRANCH   7   8
HETATM    8  C   UNL     1      -9.225  12.995  68.223  1.00  0.00    -0.191 A  
HETATM    9  C   UNL     1      -8.137  13.674  68.804  1.00  0.00     0.001 A  
HETATM   10  C   UNL     1      -6.855  13.115  68.824  1.00  0.00    -0.102 A  
HETATM   11  C   UNL     1      -8.967  11.716  67.685  1.00  0.00    -0.166 A  
HETATM   12  C   UNL     1      -6.626  11.863  68.265  1.00  0.00    -0.054 A  
HETATM   13  C   UNL     1      -7.682  11.165  67.693  1.00  0.00    -0.113 A  
ENDBRANCH   7   8
BRANCH   7  14
HETATM   14  C   UNL     1     -10.842  14.843  69.148  1.00  0.00    -0.250 C  
HETATM   15  N   UNL     1     -12.040  14.975  69.805  1.00  0.00    -0.371 N  
HETATM   16  H1  UNL     1     -12.152  15.803  70.390  1.00  0.00     0.000 HD 
HETATM   17  O   UNL     1     -10.013  15.739  69.277  1.00  0.00    -0.226 OA 
HETATM   18  H2  UNL     1     -12.780  14.280  69.713  1.00  0.00     0.000 HD 
ENDBRANCH   7  14
BRANCH   7  19
HETATM   19  C   UNL     1     -11.141  14.009  66.825  1.00  0.00    -0.306 A  
HETATM   20  C   UNL     1     -11.959  14.922  64.346  1.00  0.00    -0.408 A  
HETATM   21  N   UNL     1     -10.385  14.929  66.160  1.00  0.00    -0.288 NA 
HETATM   22  C   UNL     1     -12.716  13.963  65.003  1.00  0.00    -0.372 A  
HETATM   23  C   UNL     1     -10.806  15.368  64.956  1.00  0.00    -0.444 A  
HETATM   24  C   UNL     1     -12.305  13.490  66.254  1.00  0.00    -0.440 A  
ENDBRANCH   7  19
ENDBRANCH   6   7
ENDBRANCH   5   6
ENDBRANCH   4   5
BRANCH   4  25
HETATM   25  C   UNL     1     -10.884   8.991  69.963  1.00  0.00    -0.231 C  
HETATM   26  C   UNL     1     -10.532   8.276  68.647  1.00  0.00    -0.199 C  
HETATM   27  C   UNL     1      -9.517   9.419  70.550  1.00  0.00    -0.327 C  
ENDBRANCH   4  25
ENDBRANCH   2   4
TORSDOF 8
ENDMDL
MODEL      139
REMARK 921   NORMALIZED FREE ENERGY PREDICTED BY IDOCK:   -3.90 KCAL/MOL
REMARK 922        TOTAL FREE ENERGY PREDICTED BY IDOCK:   -7.43 KCAL/MOL
REMARK 923 INTER-LIGAND FREE ENERGY PREDICTED BY IDOCK:   -5.88 KCAL/MOL
REMARK 924 INTRA-LIGAND FREE ENERGY PREDICTED BY IDOCK:   -1.55 KCAL/MOL
REMARK 927      BINDING AFFINITY PREDICTED BY RF-SCORE:    0.00 PKD
ROOT
HETATM    1  C   UNL     1     -12.622  12.040  64.043  1.00  0.00    -0.466 C  
HETATM    2  C   UNL     1     -11.484  11.617  65.005  1.00  0.00    -0.120 C  
HETATM    3  C   UNL     1     -10.271  11.339  64.102  1.00  0.00    -0.391 C  
ENDROOT
BRANCH   2   4
HETATM    4  N   UNL     1     -11.284  12.622  66.104  1.00  0.00    -0.295 NA 
BRANCH   4   5
HETATM    5  C   UNL     1     -11.290  11.949  67.450  1.00  0.00    -0.324 C  
BRANCH   5   6
HETATM    6  C   UNL     1     -11.074  10.423  67.397  1.00  0.00    -0.297 C  
BRANCH   6   7
HETATM    7  C   UNL     1      -9.942   9.802  68.290  1.00  0.00    -0.175 C  
BRANCH   7   8
HETATM    8  C   UNL     1      -9.810   8.297  67.914  1.00  0.00    -0.207 A  
HETATM    9  C   UNL     1      -8.672   7.539  68.249  1.00  0.00    -0.123 A  
HETATM   10  C   UNL     1      -8.593   6.174  67.958  1.00  0.00    -0.115 A  
HETATM   11  C   UNL     1     -10.876   7.610  67.294  1.00  0.00    -0.263 A  
HETATM   12  C   UNL     1      -9.650   5.529  67.324  1.00  0.00    -0.132 A  
HETATM   13  C   UNL     1     -10.790   6.249  66.990  1.00  0.00    -0.458 A  
ENDBRANCH   7   8
BRANCH   7  14
HETATM   14  C   UNL     1     -10.255  10.066  69.801  1.00  0.00    -0.250 C  
HETATM   15  N   UNL     1      -9.343   9.592  70.711  1.00  0.00    -0.281 N  
HETATM   16  H1  UNL     1      -9.548   9.764  71.695  1.00  0.00     0.000 HD 
HETATM   17  O   UNL     1     -11.262  10.623  70.231  1.00  0.00    -0.298 OA 
HETATM   18  H2  UNL     1      -8.504   9.093  70.417  1.00  0.00     0.000 HD 
ENDBRANCH   7  14
BRANCH   7  19
HETATM   19  C   UNL     1      -8.620  10.585  68.001  1.00  0.00    -0.121 A  
HETATM   20  C   UNL     1      -6.351  12.093  67.528  1.00  0.00    -0.129 A  
HETATM   21  N   UNL     1      -8.176  11.454  68.953  1.00  0.00    -0.101 NA 
HETATM   22  C   UNL     1      -6.780  11.187  66.568  1.00  0.00    -0.128 A  
HETATM   23  C   UNL     1      -7.071  12.187  68.699  1.00  0.00    -0.103 A  
HETATM   24  C   UNL     1      -7.923  10.415  66.803  1.00  0.00    -0.117 A  
ENDBRANCH   7  19
ENDBRANCH   6   7
ENDBRANCH   5   6
ENDBRANCH   4   5
BRANCH   4  25
HETATM   25  C   UNL     1     -10.122  13.560  65.961  1.00  0.00    -0.310 C  
HETATM   26  C   UNL     1     -10.350  14.808  65.090  1.00  0.00    -0.439 C  
HETATM   27  C   UNL     1      -9.657  14.119  67.328  1.00  0.00    -0.234 C  
ENDBRANCH   4  25
ENDBRANCH   2   4
TORSDOF 8
ENDMDL
MODEL      140
REMARK 921   NORMALIZED FREE ENERGY PREDICTED BY IDOCK:   -3.89 KCAL/MOL
REMARK 922        TOTAL FREE ENERGY PREDICTED BY IDOCK:   -7.42 KCAL/MOL
REMARK 923 INTER-LIGAND FREE ENERGY PREDICTED BY IDOCK:   -6.30 KCAL/MOL
REMARK 924 INTRA-LIGAND FREE ENERGY PREDICTED BY IDOCK:   -1.12 KCAL/MOL
REMARK 927      BINDING AFFINITY PREDICTED BY RF-SCORE:    0.00 PKD
ROOT
HETATM    1  C   UNL     1      -8.905   9.856  69.900  1.00  0.00    -0.222 C  
HETATM    2  C   UNL     1      -8.631   9.403  68.444  1.00  0.00    -0.124 C  
HETATM    3  C   UNL     1      -9.831   8.524  68.058  1.00  0.00    -0.202 C  
ENDROOT
BRANCH   2   4
HETATM    4  N   UNL     1      -8.340  10.571  67.545  1.00  0.00    -0.118 NA 
BRANCH   4   5
HETATM    5  C   UNL     1      -8.543  11.871  68.275  1.00  0.00    -0.162 C  
BRANCH   5   6
HETATM    6  C   UNL     1      -8.886  13.065  67.361  1.00  0.00    -0.203 C  
BRANCH   6   7
HETATM    7  C   UNL     1     -10.389  13.502  67.244  1.00  0.00    -0.241 C  
BRANCH   7   8
HETATM    8  C   UNL     1     -10.914  13.038  65.855  1.00  0.00    -0.292 A  
HETATM    9  C   UNL     1     -10.060  12.502  64.873  1.00  0.00    -0.249 A  
HETATM   10  C   UNL     1     -10.554  12.034  63.652  1.00  0.00    -0.503 A  
HETATM   11  C   UNL     1     -12.295  13.057  65.560  1.00  0.00    -0.527 A  
HETATM   12  C   UNL     1     -11.917  12.087  63.379  1.00  0.00    -0.571 A  
HETATM   13  C   UNL     1     -12.787  12.602  64.332  1.00  0.00    -0.344 A  
ENDBRANCH   7   8
BRANCH   7  14
HETATM   14  C   UNL     1     -10.514  15.041  67.501  1.00  0.00    -0.256 C  
HETATM   15  N   UNL     1      -9.416  15.668  68.036  1.00  0.00    -0.194 N  
HETATM   16  H1  UNL     1      -9.498  16.670  68.204  1.00  0.00     0.000 HD 
HETATM   17  O   UNL     1     -11.521  15.716  67.299  1.00  0.00    -0.201 OA 
HETATM   18  H2  UNL     1      -8.562  15.156  68.255  1.00  0.00     0.000 HD 
ENDBRANCH   7  14
BRANCH   7  19
HETATM   19  C   UNL     1     -11.177  12.825  68.412  1.00  0.00    -0.278 A  
HETATM   20  C   UNL     1     -12.459  11.659  70.568  1.00  0.00    -0.344 A  
HETATM   21  N   UNL     1     -11.302  13.518  69.580  1.00  0.00    -0.236 NA 
HETATM   22  C   UNL     1     -12.363  10.961  69.372  1.00  0.00    -0.188 A  
HETATM   23  C   UNL     1     -11.923  12.928  70.622  1.00  0.00    -0.120 A  
HETATM   24  C   UNL     1     -11.723  11.547  68.275  1.00  0.00    -0.371 A  
ENDBRANCH   7  19
ENDBRANCH   6   7
ENDBRANCH   5   6
ENDBRANCH   4   5
BRANCH   4  25
HETATM   25  C   UNL     1      -7.033  10.551  66.809  1.00  0.00    -0.104 C  
HETATM   26  C   UNL     1      -7.111  10.457  65.275  1.00  0.00    -0.098 C  
HETATM   27  C   UNL     1      -6.196  11.825  67.078  1.00  0.00    -0.152 C  
ENDBRANCH   4  25
ENDBRANCH   2   4
TORSDOF 8
ENDMDL
MODEL      141
REMARK 921   NORMALIZED FREE ENERGY PREDICTED BY IDOCK:   -3.89 KCAL/MOL
REMARK 922        TOTAL FREE ENERGY PREDICTED BY IDOCK:   -7.41 KCAL/MOL
REMARK 923 INTER-LIGAND FREE ENERGY PREDICTED BY IDOCK:   -6.47 KCAL/MOL
REMARK 924 INTRA-LIGAND FREE ENERGY PREDICTED BY IDOCK:   -0.94 KCAL/MOL
REMARK 927      BINDING AFFINITY PREDICTED BY RF-SCORE:    0.00 PKD
ROOT
HETATM    1  C   UNL     1      -7.208  10.383  65.426  1.00  0.00    -0.121 C  
HETATM    2  C   UNL     1      -8.502   9.960  64.687  1.00  0.00    -0.172 C  
HETATM    3  C   UNL     1      -8.350   8.451  64.430  1.00  0.00    -0.106 C  
ENDROOT
BRANCH   2   4
HETATM    4  N   UNL     1      -9.733  10.391  65.433  1.00  0.00    -0.244 NA 
BRANCH   4   5
HETATM    5  C   UNL     1      -9.480  10.410  66.916  1.00  0.00    -0.168 C  
BRANCH   5   6
HETATM    6  C   UNL     1     -10.090   9.216  67.678  1.00  0.00    -0.273 C  
BRANCH   6   7
HETATM    7  C   UNL     1      -9.754   9.060  69.204  1.00  0.00    -0.167 C  
BRANCH   7   8
HETATM    8  C   UNL     1     -10.807   9.876  70.010  1.00  0.00    -0.339 A  
HETATM    9  C   UNL     1     -11.130  11.207  69.685  1.00  0.00    -0.297 A  
HETATM   10  C   UNL     1     -12.120  11.908  70.380  1.00  0.00    -0.421 A  
HETATM   11  C   UNL     1     -11.546   9.275  71.051  1.00  0.00    -0.380 A  
HETATM   12  C   UNL     1     -12.816  11.297  71.418  1.00  0.00    -0.515 A  
HETATM   13  C   UNL     1     -12.526   9.981  71.755  1.00  0.00    -0.475 A  
ENDBRANCH   7   8
BRANCH   7  14
HETATM   14  C   UNL     1      -8.270   9.483  69.466  1.00  0.00    -0.134 C  
HETATM   15  N   UNL     1      -7.312   8.884  68.687  1.00  0.00    -0.076 N  
HETATM   16  H1  UNL     1      -6.346   9.159  68.857  1.00  0.00     0.000 HD 
HETATM   17  O   UNL     1      -7.898  10.271  70.332  1.00  0.00    -0.153 OA 
HETATM   18  H2  UNL     1      -7.556   8.198  67.973  1.00  0.00     0.000 HD 
ENDBRANCH   7  14
BRANCH   7  19
HETATM   19  C   UNL     1      -9.816   7.538  69.555  1.00  0.00    -0.169 A  
HETATM   20  C   UNL     1     -10.070   4.848  70.142  1.00  0.00    -0.332 A  
HETATM   21  N   UNL     1     -10.408   6.703  68.654  1.00  0.00    -0.174 NA 
HETATM   22  C   UNL     1      -9.439   5.687  71.049  1.00  0.00    -0.200 A  
HETATM   23  C   UNL     1     -10.529   5.395  68.964  1.00  0.00    -0.182 A  
HETATM   24  C   UNL     1      -9.300   7.048  70.756  1.00  0.00    -0.161 A  
ENDBRANCH   7  19
ENDBRANCH   6   7
ENDBRANCH   5   6
ENDBRANCH   4   5
BRANCH   4  25
HETATM   25  C   UNL     1     -10.397  11.655  64.971  1.00  0.00    -0.281 C  
HETATM   26  C   UNL     1     -11.058  11.615  63.582  1.00  0.00    -0.506 C  
HETATM   27  C   UNL     1     -11.530  12.098  65.928  1.00  0.00    -0.418 C  
ENDBRANCH   4  25
ENDBRANCH   2   4
TORSDOF 8
ENDMDL
MODEL      142
REMARK 921   NORMALIZED FREE ENERGY PREDICTED BY IDOCK:   -3.88 KCAL/MOL
REMARK 922        TOTAL FREE ENERGY PREDICTED BY IDOCK:   -7.40 KCAL/MOL
REMARK 923 INTER-LIGAND FREE ENERGY PREDICTED BY IDOCK:   -5.83 KCAL/MOL
REMARK 924 INTRA-LIGAND FREE ENERGY PREDICTED BY IDOCK:   -1.56 KCAL/MOL
REMARK 927      BINDING AFFINITY PREDICTED BY RF-SCORE:    0.00 PKD
ROOT
HETATM    1  C   UNL     1     -10.170  13.849  68.546  1.00  0.00    -0.240 C  
HETATM    2  C   UNL     1     -10.395  12.319  68.634  1.00  0.00    -0.188 C  
HETATM    3  C   UNL     1     -11.920  12.128  68.587  1.00  0.00    -0.290 C  
ENDROOT
BRANCH   2   4
HETATM    4  N   UNL     1      -9.595  11.580  67.599  1.00  0.00    -0.169 NA 
BRANCH   4   5
HETATM    5  C   UNL     1      -8.932  10.371  68.200  1.00  0.00    -0.132 C  
BRANCH   5   6
HETATM    6  C   UNL     1      -9.408  10.029  69.626  1.00  0.00    -0.242 C  
BRANCH   6   7
HETATM    7  C   UNL     1      -9.707   8.526  69.968  1.00  0.00    -0.172 C  
BRANCH   7   8
HETATM    8  C   UNL     1      -8.540   7.998  70.853  1.00  0.00    -0.136 A  
HETATM    9  C   UNL     1      -8.625   6.780  71.554  1.00  0.00    -0.120 A  
HETATM   10  C   UNL     1      -7.546   6.290  72.297  1.00  0.00    -0.095 A  
HETATM   11  C   UNL     1      -7.310   8.688  70.915  1.00  0.00    -0.077 A  
HETATM   12  C   UNL     1      -6.354   7.003  72.359  1.00  0.00    -0.052 A  
HETATM   13  C   UNL     1      -6.238   8.204  71.671  1.00  0.00    -0.043 A  
ENDBRANCH   7   8
BRANCH   7  14
HETATM   14  C   UNL     1      -9.934   7.717  68.648  1.00  0.00    -0.182 C  
HETATM   15  N   UNL     1     -11.146   7.882  68.025  1.00  0.00    -0.391 N  
HETATM   16  H1  UNL     1     -11.294   7.354  67.165  1.00  0.00     0.000 HD 
HETATM   17  O   UNL     1      -9.136   6.925  68.154  1.00  0.00    -0.126 OA 
HETATM   18  H2  UNL     1     -11.863   8.501  68.404  1.00  0.00     0.000 HD 
ENDBRANCH   7  14
BRANCH   7  19
HETATM   19  C   UNL     1     -11.074   8.470  70.725  1.00  0.00    -0.254 A  
HETATM   20  C   UNL     1     -13.548   8.302  71.947  1.00  0.00    -0.390 A  
HETATM   21  N   UNL     1     -11.719   7.270  70.783  1.00  0.00    -0.306 NA 
HETATM   22  C   UNL     1     -12.883   9.519  71.920  1.00  0.00    -0.508 A  
HETATM   23  C   UNL     1     -12.929   7.212  71.377  1.00  0.00    -0.368 A  
HETATM   24  C   UNL     1     -11.627   9.611  71.310  1.00  0.00    -0.466 A  
ENDBRANCH   7  19
ENDBRANCH   6   7
ENDBRANCH   5   6
ENDBRANCH   4   5
BRANCH   4  25
HETATM   25  C   UNL     1     -10.295  11.244  66.315  1.00  0.00    -0.247 C  
HETATM   26  C   UNL     1     -10.146  12.258  65.167  1.00  0.00    -0.284 C  
HETATM   27  C   UNL     1      -9.800   9.905  65.718  1.00  0.00    -0.356 C  
ENDBRANCH   4  25
ENDBRANCH   2   4
TORSDOF 8
ENDMDL
MODEL      143
REMARK 921   NORMALIZED FREE ENERGY PREDICTED BY IDOCK:   -3.88 KCAL/MOL
REMARK 922        TOTAL FREE ENERGY PREDICTED BY IDOCK:   -7.40 KCAL/MOL
REMARK 923 INTER-LIGAND FREE ENERGY PREDICTED BY IDOCK:   -5.77 KCAL/MOL
REMARK 924 INTRA-LIGAND FREE ENERGY PREDICTED BY IDOCK:   -1.62 KCAL/MOL
REMARK 927      BINDING AFFINITY PREDICTED BY RF-SCORE:    0.00 PKD
ROOT
HETATM    1  C   UNL     1      -9.258   9.476  66.602  1.00  0.00    -0.190 C  
HETATM    2  C   UNL     1      -9.549  10.669  67.545  1.00  0.00    -0.161 C  
HETATM    3  C   UNL     1     -11.074  10.666  67.748  1.00  0.00    -0.385 C  
ENDROOT
BRANCH   2   4
HETATM    4  N   UNL     1      -8.708  10.613  68.788  1.00  0.00    -0.150 NA 
BRANCH   4   5
HETATM    5  C   UNL     1      -8.394   9.188  69.156  1.00  0.00    -0.123 C  
BRANCH   5   6
HETATM    6  C   UNL     1      -8.881   8.774  70.559  1.00  0.00    -0.200 C  
BRANCH   6   7
HETATM    7  C   UNL     1      -9.904   7.588  70.669  1.00  0.00    -0.179 C  
BRANCH   7   8
HETATM    8  C   UNL     1     -11.292   8.188  71.040  1.00  0.00    -0.293 A  
HETATM    9  C   UNL     1     -12.409   7.377  71.311  1.00  0.00    -0.380 A  
HETATM   10  C   UNL     1     -13.634   7.928  71.701  1.00  0.00    -0.397 A  
HETATM   11  C   UNL     1     -11.457   9.581  71.203  1.00  0.00    -0.430 A  
HETATM   12  C   UNL     1     -13.774   9.306  71.830  1.00  0.00    -0.443 A  
HETATM   13  C   UNL     1     -12.686  10.132  71.578  1.00  0.00    -0.541 A  
ENDBRANCH   7   8
BRANCH   7  14
HETATM   14  C   UNL     1      -9.370   6.521  71.682  1.00  0.00    -0.146 C  
HETATM   15  N   UNL     1      -8.269   6.872  72.423  1.00  0.00    -0.104 N  
HETATM   16  H1  UNL     1      -7.921   6.176  73.082  1.00  0.00     0.000 HD 
HETATM   17  O   UNL     1      -9.832   5.393  71.836  1.00  0.00    -0.163 OA 
HETATM   18  H2  UNL     1      -7.821   7.781  72.318  1.00  0.00     0.000 HD 
ENDBRANCH   7  14
BRANCH   7  19
HETATM   19  C   UNL     1      -9.943   6.859  69.287  1.00  0.00    -0.159 A  
HETATM   20  C   UNL     1      -9.880   5.629  66.811  1.00  0.00    -0.185 A  
HETATM   21  N   UNL     1      -8.850   6.131  68.922  1.00  0.00    -0.122 NA 
HETATM   22  C   UNL     1     -11.008   6.342  67.189  1.00  0.00    -0.476 A  
HETATM   23  C   UNL     1      -8.836   5.545  67.707  1.00  0.00    -0.105 A  
HETATM   24  C   UNL     1     -11.051   6.962  68.443  1.00  0.00    -0.142 A  
ENDBRANCH   7  19
ENDBRANCH   6   7
ENDBRANCH   5   6
ENDBRANCH   4   5
BRANCH   4  25
HETATM   25  C   UNL     1      -7.478  11.472  68.813  1.00  0.00    -0.119 C  
HETATM   26  C   UNL     1      -6.156  10.791  68.418  1.00  0.00    -0.046 C  
HETATM   27  C   UNL     1      -7.595  12.680  67.853  1.00  0.00    -0.132 C  
ENDBRANCH   4  25
ENDBRANCH   2   4
TORSDOF 8
ENDMDL
MODEL      144
REMARK 921   NORMALIZED FREE ENERGY PREDICTED BY IDOCK:   -3.87 KCAL/MOL
REMARK 922        TOTAL FREE ENERGY PREDICTED BY IDOCK:   -7.39 KCAL/MOL
REMARK 923 INTER-LIGAND FREE ENERGY PREDICTED BY IDOCK:   -5.98 KCAL/MOL
REMARK 924 INTRA-LIGAND FREE ENERGY PREDICTED BY IDOCK:   -1.41 KCAL/MOL
REMARK 927      BINDING AFFINITY PREDICTED BY RF-SCORE:    0.00 PKD
ROOT
HETATM    1  C   UNL     1     -10.669  15.214  66.649  1.00  0.00    -0.310 C  
HETATM    2  C   UNL     1     -12.008  14.559  67.069  1.00  0.00    -0.345 C  
HETATM    3  C   UNL     1     -12.582  13.945  65.782  1.00  0.00    -0.533 C  
ENDROOT
BRANCH   2   4
HETATM    4  N   UNL     1     -11.828  13.626  68.233  1.00  0.00    -0.357 NA 
BRANCH   4   5
HETATM    5  C   UNL     1     -10.444  13.036  68.237  1.00  0.00    -0.250 C  
BRANCH   5   6
HETATM    6  C   UNL     1     -10.333  11.677  67.516  1.00  0.00    -0.220 C  
BRANCH   6   7
HETATM    7  C   UNL     1      -8.981  10.886  67.629  1.00  0.00    -0.140 C  
BRANCH   7   8
HETATM    8  C   UNL     1      -9.185   9.740  68.663  1.00  0.00    -0.137 A  
HETATM    9  C   UNL     1     -10.006   9.892  69.796  1.00  0.00    -0.275 A  
HETATM   10  C   UNL     1     -10.227   8.835  70.684  1.00  0.00    -0.247 A  
HETATM   11  C   UNL     1      -8.615   8.466  68.452  1.00  0.00    -0.139 A  
HETATM   12  C   UNL     1      -9.632   7.597  70.463  1.00  0.00    -0.167 A  
HETATM   13  C   UNL     1      -8.824   7.414  69.349  1.00  0.00    -0.137 A  
ENDBRANCH   7   8
BRANCH   7  14
HETATM   14  C   UNL     1      -7.818  11.872  67.978  1.00  0.00    -0.140 C  
HETATM   15  N   UNL     1      -7.496  12.807  67.025  1.00  0.00    -0.377 N  
HETATM   16  H1  UNL     1      -6.738  13.450  67.252  1.00  0.00     0.000 HD 
HETATM   17  O   UNL     1      -7.152  11.849  69.009  1.00  0.00    -0.111 OA 
HETATM   18  H2  UNL     1      -7.991  12.856  66.135  1.00  0.00     0.000 HD 
ENDBRANCH   7  14
BRANCH   7  19
HETATM   19  C   UNL     1      -8.635  10.326  66.211  1.00  0.00    -0.137 A  
HETATM   20  C   UNL     1      -7.924   9.443  63.689  1.00  0.00    -0.142 A  
HETATM   21  N   UNL     1      -7.320  10.127  65.911  1.00  0.00    -0.115 NA 
HETATM   22  C   UNL     1      -9.266   9.613  63.998  1.00  0.00    -0.202 A  
HETATM   23  C   UNL     1      -6.994   9.703  64.672  1.00  0.00    -0.112 A  
HETATM   24  C   UNL     1      -9.634  10.053  65.274  1.00  0.00    -0.355 A  
ENDBRANCH   7  19
ENDBRANCH   6   7
ENDBRANCH   5   6
ENDBRANCH   4   5
BRANCH   4  25
HETATM   25  C   UNL     1     -12.207  14.152  69.587  1.00  0.00    -0.326 C  
HETATM   26  C   UNL     1     -12.380  13.108  70.704  1.00  0.00    -0.405 C  
HETATM   27  C   UNL     1     -11.153  15.142  70.140  1.00  0.00    -0.298 C  
ENDBRANCH   4  25
ENDBRANCH   2   4
TORSDOF 8
ENDMDL
MODEL      145
REMARK 921   NORMALIZED FREE ENERGY PREDICTED BY IDOCK:   -3.85 KCAL/MOL
REMARK 922        TOTAL FREE ENERGY PREDICTED BY IDOCK:   -7.37 KCAL/MOL
REMARK 923 INTER-LIGAND FREE ENERGY PREDICTED BY IDOCK:   -6.09 KCAL/MOL
REMARK 924 INTRA-LIGAND FREE ENERGY PREDICTED BY IDOCK:   -1.27 KCAL/MOL
REMARK 927      BINDING AFFINITY PREDICTED BY RF-SCORE:    0.00 PKD
ROOT
HETATM    1  C   UNL     1     -12.776  13.918  65.331  1.00  0.00    -0.525 C  
HETATM    2  C   UNL     1     -12.313  12.473  65.021  1.00  0.00    -0.453 C  
HETATM    3  C   UNL     1     -11.500  12.576  63.720  1.00  0.00    -0.542 C  
ENDROOT
BRANCH   2   4
HETATM    4  N   UNL     1     -11.619  11.848  66.197  1.00  0.00    -0.458 NA 
BRANCH   4   5
HETATM    5  C   UNL     1     -10.216  11.442  65.835  1.00  0.00    -0.246 C  
BRANCH   5   6
HETATM    6  C   UNL     1     -10.029   9.927  65.621  1.00  0.00    -0.353 C  
BRANCH   6   7
HETATM    7  C   UNL     1      -8.879   9.202  66.406  1.00  0.00    -0.165 C  
BRANCH   7   8
HETATM    8  C   UNL     1      -9.534   8.153  67.351  1.00  0.00    -0.191 A  
HETATM    9  C   UNL     1      -9.106   7.972  68.679  1.00  0.00    -0.140 A  
HETATM   10  C   UNL     1      -9.743   7.069  69.535  1.00  0.00    -0.160 A  
HETATM   11  C   UNL     1     -10.652   7.400  66.931  1.00  0.00    -0.375 A  
HETATM   12  C   UNL     1     -10.827   6.322  69.086  1.00  0.00    -0.403 A  
HETATM   13  C   UNL     1     -11.279   6.486  67.783  1.00  0.00    -0.261 A  
ENDBRANCH   7   8
BRANCH   7  14
HETATM   14  C   UNL     1      -7.986  10.261  67.135  1.00  0.00    -0.114 C  
HETATM   15  N   UNL     1      -6.897  10.729  66.444  1.00  0.00    -0.127 N  
HETATM   16  H1  UNL     1      -6.315  11.418  66.919  1.00  0.00     0.000 HD 
HETATM   17  O   UNL     1      -8.162  10.671  68.279  1.00  0.00    -0.111 OA 
HETATM   18  H2  UNL     1      -6.680  10.403  65.502  1.00  0.00     0.000 HD 
ENDBRANCH   7  14
BRANCH   7  19
HETATM   19  C   UNL     1      -7.938   8.523  65.358  1.00  0.00    -0.113 A  
HETATM   20  C   UNL     1      -6.386   7.324  63.409  1.00  0.00    -0.052 A  
HETATM   21  N   UNL     1      -7.866   9.079  64.115  1.00  0.00    -0.124 NA 
HETATM   22  C   UNL     1      -6.430   6.771  64.680  1.00  0.00    -0.042 A  
HETATM   23  C   UNL     1      -7.110   8.474  63.176  1.00  0.00    -0.091 A  
HETATM   24  C   UNL     1      -7.207   7.375  65.674  1.00  0.00    -0.066 A  
ENDBRANCH   7  19
ENDBRANCH   6   7
ENDBRANCH   5   6
ENDBRANCH   4   5
BRANCH   4  25
HETATM   25  C   UNL     1     -11.657  12.609  67.489  1.00  0.00    -0.359 C  
HETATM   26  C   UNL     1     -11.875  11.780  68.768  1.00  0.00    -0.380 C  
HETATM   27  C   UNL     1     -10.340  13.381  67.746  1.00  0.00    -0.241 C  
ENDBRANCH   4  25
ENDBRANCH   2   4
TORSDOF 8
ENDMDL
MODEL      146
REMARK 921   NORMALIZED FREE ENERGY PREDICTED BY IDOCK:   -3.85 KCAL/MOL
REMARK 922        TOTAL FREE ENERGY PREDICTED BY IDOCK:   -7.36 KCAL/MOL
REMARK 923 INTER-LIGAND FREE ENERGY PREDICTED BY IDOCK:   -7.01 KCAL/MOL
REMARK 924 INTRA-LIGAND FREE ENERGY PREDICTED BY IDOCK:   -0.35 KCAL/MOL
REMARK 927      BINDING AFFINITY PREDICTED BY RF-SCORE:    0.00 PKD
ROOT
HETATM    1  C   UNL     1     -11.024   9.064  70.920  1.00  0.00    -0.332 C  
HETATM    2  C   UNL     1     -10.041   9.679  69.893  1.00  0.00    -0.246 C  
HETATM    3  C   UNL     1      -8.752   8.848  70.015  1.00  0.00    -0.151 C  
ENDROOT
BRANCH   2   4
HETATM    4  N   UNL     1     -10.653   9.770  68.524  1.00  0.00    -0.214 NA 
BRANCH   4   5
HETATM    5  C   UNL     1     -11.198  11.149  68.273  1.00  0.00    -0.279 C  
BRANCH   5   6
HETATM    6  C   UNL     1     -10.190  12.286  68.536  1.00  0.00    -0.213 C  
BRANCH   6   7
HETATM    7  C   UNL     1     -10.606  13.751  68.151  1.00  0.00    -0.260 C  
BRANCH   7   8
HETATM    8  C   UNL     1     -11.293  14.393  69.391  1.00  0.00    -0.319 A  
HETATM    9  C   UNL     1     -12.389  13.789  70.036  1.00  0.00    -0.364 A  
HETATM   10  C   UNL     1     -12.958  14.348  71.184  1.00  0.00    -0.419 A  
HETATM   11  C   UNL     1     -10.780  15.574  69.971  1.00  0.00    -0.331 A  
HETATM   12  C   UNL     1     -12.447  15.525  71.720  1.00  0.00    -0.474 A  
HETATM   13  C   UNL     1     -11.360  16.139  71.111  1.00  0.00    -0.368 A  
ENDBRANCH   7   8
BRANCH   7  14
HETATM   14  C   UNL     1     -11.492  13.727  66.861  1.00  0.00    -0.347 C  
HETATM   15  N   UNL     1     -12.681  14.411  66.917  1.00  0.00    -0.310 N  
HETATM   16  H1  UNL     1     -13.258  14.395  66.077  1.00  0.00     0.000 HD 
HETATM   17  O   UNL     1     -11.226  13.119  65.827  1.00  0.00    -0.283 OA 
HETATM   18  H2  UNL     1     -12.972  14.909  67.758  1.00  0.00     0.000 HD 
ENDBRANCH   7  14
BRANCH   7  19
HETATM   19  C   UNL     1      -9.310  14.525  67.746  1.00  0.00    -0.198 A  
HETATM   20  C   UNL     1      -6.977  15.895  67.172  1.00  0.00    -0.227 A  
HETATM   21  N   UNL     1      -8.117  14.047  68.200  1.00  0.00    -0.140 NA 
HETATM   22  C   UNL     1      -8.184  16.370  66.681  1.00  0.00    -0.314 A  
HETATM   23  C   UNL     1      -6.991  14.735  67.916  1.00  0.00    -0.160 A  
HETATM   24  C   UNL     1      -9.368  15.678  66.960  1.00  0.00    -0.241 A  
ENDBRANCH   7  19
ENDBRANCH   6   7
ENDBRANCH   5   6
ENDBRANCH   4   5
BRANCH   4  25
HETATM   25  C   UNL     1      -9.816   9.290  67.375  1.00  0.00    -0.178 C  
HETATM   26  C   UNL     1     -10.216   7.942  66.750  1.00  0.00    -0.358 C  
HETATM   27  C   UNL     1      -9.831  10.287  66.191  1.00  0.00    -0.284 C  
ENDBRANCH   4  25
ENDBRANCH   2   4
TORSDOF 8
ENDMDL
MODEL      147
REMARK 921   NORMALIZED FREE ENERGY PREDICTED BY IDOCK:   -3.84 KCAL/MOL
REMARK 922        TOTAL FREE ENERGY PREDICTED BY IDOCK:   -7.35 KCAL/MOL
REMARK 923 INTER-LIGAND FREE ENERGY PREDICTED BY IDOCK:   -5.83 KCAL/MOL
REMARK 924 INTRA-LIGAND FREE ENERGY PREDICTED BY IDOCK:   -1.51 KCAL/MOL
REMARK 927      BINDING AFFINITY PREDICTED BY RF-SCORE:    0.00 PKD
ROOT
HETATM    1  C   UNL     1      -6.998   8.145  67.500  1.00  0.00    -0.075 C  
HETATM    2  C   UNL     1      -8.539   8.298  67.507  1.00  0.00    -0.129 C  
HETATM    3  C   UNL     1      -8.943   8.417  66.028  1.00  0.00    -0.228 C  
ENDROOT
BRANCH   2   4
HETATM    4  N   UNL     1      -9.202   7.206  68.296  1.00  0.00    -0.133 NA 
BRANCH   4   5
HETATM    5  C   UNL     1     -10.015   7.780  69.424  1.00  0.00    -0.188 C  
BRANCH   5   6
HETATM    6  C   UNL     1      -9.288   7.801  70.783  1.00  0.00    -0.162 C  
BRANCH   6   7
HETATM    7  C   UNL     1     -10.062   7.287  72.049  1.00  0.00    -0.207 C  
BRANCH   7   8
HETATM    8  C   UNL     1     -11.535   7.777  71.938  1.00  0.00    -0.320 A  
HETATM    9  C   UNL     1     -11.901   9.112  72.195  1.00  0.00    -0.333 A  
HETATM   10  C   UNL     1     -13.218   9.551  72.033  1.00  0.00    -0.539 A  
HETATM   11  C   UNL     1     -12.554   6.911  71.485  1.00  0.00    -0.412 A  
HETATM   12  C   UNL     1     -14.206   8.669  71.609  1.00  0.00    -0.463 A  
HETATM   13  C   UNL     1     -13.874   7.348  71.338  1.00  0.00    -0.436 A  
ENDBRANCH   7   8
BRANCH   7  14
HETATM   14  C   UNL     1      -9.322   7.751  73.347  1.00  0.00    -0.285 C  
HETATM   15  N   UNL     1      -9.797   7.256  74.537  1.00  0.00    -0.361 N  
HETATM   16  H1  UNL     1      -9.316   7.559  75.383  1.00  0.00     0.000 HD 
HETATM   17  O   UNL     1      -8.386   8.544  73.387  1.00  0.00    -0.374 OA 
HETATM   18  H2  UNL     1     -10.592   6.619  74.572  1.00  0.00     0.000 HD 
ENDBRANCH   7  14
BRANCH   7  19
HETATM   19  C   UNL     1      -9.975   5.726  72.061  1.00  0.00    -0.175 A  
HETATM   20  C   UNL     1      -9.803   2.971  72.229  1.00  0.00    -0.234 A  
HETATM   21  N   UNL     1     -10.749   5.054  72.961  1.00  0.00    -0.229 NA 
HETATM   22  C   UNL     1      -9.036   3.646  71.289  1.00  0.00    -0.180 A  
HETATM   23  C   UNL     1     -10.644   3.711  73.032  1.00  0.00    -0.163 A  
HETATM   24  C   UNL     1      -9.123   5.039  71.193  1.00  0.00    -0.177 A  
ENDBRANCH   7  19
ENDBRANCH   6   7
ENDBRANCH   5   6
ENDBRANCH   4   5
BRANCH   4  25
HETATM   25  C   UNL     1      -9.981   6.186  67.520  1.00  0.00    -0.137 C  
HETATM   26  C   UNL     1      -9.254   4.868  67.194  1.00  0.00    -0.130 C  
HETATM   27  C   UNL     1     -11.265   5.747  68.263  1.00  0.00     0.234 C  
ENDBRANCH   4  25
ENDBRANCH   2   4
TORSDOF 8
ENDMDL
MODEL      148
REMARK 921   NORMALIZED FREE ENERGY PREDICTED BY IDOCK:   -3.81 KCAL/MOL
REMARK 922        TOTAL FREE ENERGY PREDICTED BY IDOCK:   -7.30 KCAL/MOL
REMARK 923 INTER-LIGAND FREE ENERGY PREDICTED BY IDOCK:   -6.29 KCAL/MOL
REMARK 924 INTRA-LIGAND FREE ENERGY PREDICTED BY IDOCK:   -1.01 KCAL/MOL
REMARK 927      BINDING AFFINITY PREDICTED BY RF-SCORE:    0.00 PKD
ROOT
HETATM    1  C   UNL     1     -12.630  15.356  69.313  1.00  0.00     0.139 C  
HETATM    2  C   UNL     1     -11.178  15.734  69.698  1.00  0.00    -0.319 C  
HETATM    3  C   UNL     1     -11.056  15.412  71.197  1.00  0.00    -0.362 C  
ENDROOT
BRANCH   2   4
HETATM    4  N   UNL     1     -10.175  15.081  68.790  1.00  0.00    -0.228 NA 
BRANCH   4   5
HETATM    5  C   UNL     1     -10.674  13.742  68.317  1.00  0.00    -0.253 C  
BRANCH   5   6
HETATM    6  C   UNL     1      -9.618  12.620  68.363  1.00  0.00    -0.173 C  
BRANCH   6   7
HETATM    7  C   UNL     1      -9.853  11.343  67.480  1.00  0.00    -0.194 C  
BRANCH   7   8
HETATM    8  C   UNL     1     -10.521  11.799  66.150  1.00  0.00    -0.284 A  
HETATM    9  C   UNL     1      -9.905  11.609  64.899  1.00  0.00    -0.267 A  
HETATM   10  C   UNL     1     -10.544  11.970  63.709  1.00  0.00    -0.478 A  
HETATM   11  C   UNL     1     -11.823  12.347  66.146  1.00  0.00    -0.442 A  
HETATM   12  C   UNL     1     -11.817  12.530  63.737  1.00  0.00    -0.577 A  
HETATM   13  C   UNL     1     -12.454  12.721  64.956  1.00  0.00    -0.572 A  
ENDBRANCH   7   8
BRANCH   7  14
HETATM   14  C   UNL     1     -10.676  10.285  68.288  1.00  0.00    -0.237 C  
HETATM   15  N   UNL     1     -11.070   9.161  67.607  1.00  0.00    -0.441 N  
HETATM   16  H1  UNL     1     -11.607   8.472  68.133  1.00  0.00     0.000 HD 
HETATM   17  O   UNL     1     -11.026  10.401  69.459  1.00  0.00    -0.227 OA 
HETATM   18  H2  UNL     1     -10.838   9.021  66.624  1.00  0.00     0.000 HD 
ENDBRANCH   7  14
BRANCH   7  19
HETATM   19  C   UNL     1      -8.463  10.675  67.225  1.00  0.00    -0.126 A  
HETATM   20  C   UNL     1      -6.058   9.369  66.830  1.00  0.00    -0.064 A  
HETATM   21  N   UNL     1      -8.445   9.469  66.589  1.00  0.00    -0.132 NA 
HETATM   22  C   UNL     1      -6.065  10.610  67.450  1.00  0.00    -0.053 A  
HETATM   23  C   UNL     1      -7.262   8.844  66.413  1.00  0.00    -0.084 A  
HETATM   24  C   UNL     1      -7.277  11.281  67.647  1.00  0.00    -0.092 A  
ENDBRANCH   7  19
ENDBRANCH   6   7
ENDBRANCH   5   6
ENDBRANCH   4   5
BRANCH   4  25
HETATM   25  C   UNL     1      -9.652  15.907  67.652  1.00  0.00    -0.221 C  
HETATM   26  C   UNL     1     -10.290  15.659  66.274  1.00  0.00    -0.316 C  
HETATM   27  C   UNL     1      -9.843  17.423  67.901  1.00  0.00    -0.287 C  
ENDBRANCH   4  25
ENDBRANCH   2   4
TORSDOF 8
ENDMDL
MODEL      149
REMARK 921   NORMALIZED FREE ENERGY PREDICTED BY IDOCK:   -3.79 KCAL/MOL
REMARK 922        TOTAL FREE ENERGY PREDICTED BY IDOCK:   -7.27 KCAL/MOL
REMARK 923 INTER-LIGAND FREE ENERGY PREDICTED BY IDOCK:   -5.73 KCAL/MOL
REMARK 924 INTRA-LIGAND FREE ENERGY PREDICTED BY IDOCK:   -1.54 KCAL/MOL
REMARK 927      BINDING AFFINITY PREDICTED BY RF-SCORE:    0.00 PKD
ROOT
HETATM    1  C   UNL     1     -11.027  15.598  70.176  1.00  0.00    -0.350 C  
HETATM    2  C   UNL     1     -10.385  15.417  68.779  1.00  0.00    -0.229 C  
HETATM    3  C   UNL     1     -11.026  16.497  67.892  1.00  0.00    -0.288 C  
ENDROOT
BRANCH   2   4
HETATM    4  N   UNL     1      -8.884  15.417  68.854  1.00  0.00    -0.195 NA 
BRANCH   4   5
HETATM    5  C   UNL     1      -8.334  14.053  68.536  1.00  0.00    -0.143 C  
BRANCH   5   6
HETATM    6  C   UNL     1      -9.361  13.082  67.921  1.00  0.00    -0.212 C  
BRANCH   6   7
HETATM    7  C   UNL     1      -9.163  11.543  68.159  1.00  0.00    -0.181 C  
BRANCH   7   8
HETATM    8  C   UNL     1     -10.294  11.059  69.114  1.00  0.00    -0.210 A  
HETATM    9  C   UNL     1     -10.206   9.845  69.822  1.00  0.00    -0.278 A  
HETATM   10  C   UNL     1     -11.202   9.452  70.722  1.00  0.00    -0.367 A  
HETATM   11  C   UNL     1     -11.419  11.871  69.373  1.00  0.00    -0.366 A  
HETATM   12  C   UNL     1     -12.312  10.262  70.938  1.00  0.00    -0.471 A  
HETATM   13  C   UNL     1     -12.421  11.470  70.261  1.00  0.00    -0.284 A  
ENDBRANCH   7   8
BRANCH   7  14
HETATM   14  C   UNL     1      -7.714  11.270  68.683  1.00  0.00    -0.136 C  
HETATM   15  N   UNL     1      -6.718  11.220  67.740  1.00  0.00    -0.067 N  
HETATM   16  H1  UNL     1      -5.773  11.042  68.081  1.00  0.00     0.000 HD 
HETATM   17  O   UNL     1      -7.409  11.060  69.854  1.00  0.00    -0.045 OA 
HETATM   18  H2  UNL     1      -6.912  11.354  66.748  1.00  0.00     0.000 HD 
ENDBRANCH   7  14
BRANCH   7  19
HETATM   19  C   UNL     1      -9.240  10.830  66.770  1.00  0.00    -0.157 A  
HETATM   20  C   UNL     1      -9.237   9.523  64.333  1.00  0.00    -0.192 A  
HETATM   21  N   UNL     1      -8.843   9.527  66.702  1.00  0.00    -0.133 NA 
HETATM   22  C   UNL     1      -9.673  10.839  64.400  1.00  0.00    -0.356 A  
HETATM   23  C   UNL     1      -8.841   8.911  65.502  1.00  0.00    -0.197 A  
HETATM   24  C   UNL     1      -9.684  11.505  65.631  1.00  0.00    -0.261 A  
ENDBRANCH   7  19
ENDBRANCH   6   7
ENDBRANCH   5   6
ENDBRANCH   4   5
BRANCH   4  25
HETATM   25  C   UNL     1      -8.167  16.491  68.090  1.00  0.00    -0.181 C  
HETATM   26  C   UNL     1      -7.678  17.702  68.905  1.00  0.00    -0.205 C  
HETATM   27  C   UNL     1      -6.895  15.955  67.390  1.00  0.00    -0.228 C  
ENDBRANCH   4  25
ENDBRANCH   2   4
TORSDOF 8
ENDMDL
MODEL      150
REMARK 921   NORMALIZED FREE ENERGY PREDICTED BY IDOCK:   -3.79 KCAL/MOL
REMARK 922        TOTAL FREE ENERGY PREDICTED BY IDOCK:   -7.27 KCAL/MOL
REMARK 923 INTER-LIGAND FREE ENERGY PREDICTED BY IDOCK:   -6.72 KCAL/MOL
REMARK 924 INTRA-LIGAND FREE ENERGY PREDICTED BY IDOCK:   -0.55 KCAL/MOL
REMARK 927      BINDING AFFINITY PREDICTED BY RF-SCORE:    0.00 PKD
ROOT
HETATM    1  C   UNL     1     -13.028   9.695  70.864  1.00  0.00    -0.244 C  
HETATM    2  C   UNL     1     -11.688  10.462  70.988  1.00  0.00    -0.337 C  
HETATM    3  C   UNL     1     -10.605   9.375  71.100  1.00  0.00    -0.403 C  
ENDROOT
BRANCH   2   4
HETATM    4  N   UNL     1     -11.518  11.465  69.883  1.00  0.00    -0.287 NA 
BRANCH   4   5
HETATM    5  C   UNL     1     -11.721  10.819  68.539  1.00  0.00    -0.189 C  
BRANCH   5   6
HETATM    6  C   UNL     1     -10.442  10.209  67.930  1.00  0.00    -0.265 C  
BRANCH   6   7
HETATM    7  C   UNL     1      -9.619  11.075  66.911  1.00  0.00    -0.205 C  
BRANCH   7   8
HETATM    8  C   UNL     1      -8.581  10.142  66.222  1.00  0.00    -0.138 A  
HETATM    9  C   UNL     1      -8.836   8.776  65.998  1.00  0.00    -0.210 A  
HETATM   10  C   UNL     1      -7.919   7.964  65.324  1.00  0.00    -0.126 A  
HETATM   11  C   UNL     1      -7.369  10.658  65.714  1.00  0.00    -0.110 A  
HETATM   12  C   UNL     1      -6.722   8.495  64.856  1.00  0.00    -0.068 A  
HETATM   13  C   UNL     1      -6.446   9.842  65.054  1.00  0.00    -0.098 A  
ENDBRANCH   7   8
BRANCH   7  14
HETATM   14  C   UNL     1      -8.993  12.306  67.647  1.00  0.00    -0.181 C  
HETATM   15  N   UNL     1      -8.513  12.087  68.915  1.00  0.00    -0.365 N  
HETATM   16  H1  UNL     1      -8.105  12.889  69.395  1.00  0.00     0.000 HD 
HETATM   17  O   UNL     1      -8.934  13.448  67.199  1.00  0.00    -0.210 OA 
HETATM   18  H2  UNL     1      -8.562  11.168  69.354  1.00  0.00     0.000 HD 
ENDBRANCH   7  14
BRANCH   7  19
HETATM   19  C   UNL     1     -10.623  11.681  65.877  1.00  0.00    -0.271 A  
HETATM   20  C   UNL     1     -12.508  12.719  64.141  1.00  0.00    -0.450 A  
HETATM   21  N   UNL     1     -11.541  12.579  66.335  1.00  0.00    -0.372 NA 
HETATM   22  C   UNL     1     -11.556  11.831  63.661  1.00  0.00    -0.521 A  
HETATM   23  C   UNL     1     -12.458  13.067  65.473  1.00  0.00    -0.438 A  
HETATM   24  C   UNL     1     -10.594  11.307  64.532  1.00  0.00    -0.401 A  
ENDBRANCH   7  19
ENDBRANCH   6   7
ENDBRANCH   5   6
ENDBRANCH   4   5
BRANCH   4  25
HETATM   25  C   UNL     1     -12.296  12.743  70.003  1.00  0.00    -0.112 C  
HETATM   26  C   UNL     1     -12.754  13.137  71.418  1.00  0.00    -0.390 C  
HETATM   27  C   UNL     1     -11.486  13.963  69.503  1.00  0.00    -0.332 C  
ENDBRANCH   4  25
ENDBRANCH   2   4
TORSDOF 8
ENDMDL
MODEL      151
REMARK 921   NORMALIZED FREE ENERGY PREDICTED BY IDOCK:   -3.78 KCAL/MOL
REMARK 922        TOTAL FREE ENERGY PREDICTED BY IDOCK:   -7.26 KCAL/MOL
REMARK 923 INTER-LIGAND FREE ENERGY PREDICTED BY IDOCK:   -6.84 KCAL/MOL
REMARK 924 INTRA-LIGAND FREE ENERGY PREDICTED BY IDOCK:   -0.42 KCAL/MOL
REMARK 927      BINDING AFFINITY PREDICTED BY RF-SCORE:    0.00 PKD
ROOT
HETATM    1  C   UNL     1     -11.451  11.666  69.127  1.00  0.00    -0.364 C  
HETATM    2  C   UNL     1     -10.865  10.938  67.892  1.00  0.00    -0.247 C  
HETATM    3  C   UNL     1     -11.007  11.931  66.727  1.00  0.00    -0.337 C  
ENDROOT
BRANCH   2   4
HETATM    4  N   UNL     1      -9.483  10.414  68.160  1.00  0.00    -0.143 NA 
BRANCH   4   5
HETATM    5  C   UNL     1      -9.540   9.113  68.913  1.00  0.00    -0.152 C  
BRANCH   5   6
HETATM    6  C   UNL     1      -9.568   9.268  70.446  1.00  0.00    -0.292 C  
BRANCH   6   7
HETATM    7  C   UNL     1     -10.116   8.072  71.304  1.00  0.00    -0.222 C  
BRANCH   7   8
HETATM    8  C   UNL     1     -11.644   8.288  71.503  1.00  0.00    -0.326 A  
HETATM    9  C   UNL     1     -12.558   7.218  71.495  1.00  0.00    -0.415 A  
HETATM   10  C   UNL     1     -13.921   7.421  71.735  1.00  0.00    -0.469 A  
HETATM   11  C   UNL     1     -12.162   9.570  71.788  1.00  0.00    -0.465 A  
HETATM   12  C   UNL     1     -14.407   8.699  71.989  1.00  0.00    -0.512 A  
HETATM   13  C   UNL     1     -13.527   9.774  72.013  1.00  0.00    -0.498 A  
ENDBRANCH   7   8
BRANCH   7  14
HETATM   14  C   UNL     1      -9.300   7.958  72.635  1.00  0.00    -0.213 C  
HETATM   15  N   UNL     1      -9.867   7.218  73.643  1.00  0.00    -0.282 N  
HETATM   16  H1  UNL     1      -9.335   7.145  74.510  1.00  0.00     0.000 HD 
HETATM   17  O   UNL     1      -8.224   8.506  72.858  1.00  0.00    -0.344 OA 
HETATM   18  H2  UNL     1     -10.773   6.765  73.530  1.00  0.00     0.000 HD 
ENDBRANCH   7  14
BRANCH   7  19
HETATM   19  C   UNL     1      -9.819   6.749  70.525  1.00  0.00    -0.176 A  
HETATM   20  C   UNL     1      -9.161   4.464  69.114  1.00  0.00    -0.181 A  
HETATM   21  N   UNL     1      -8.643   6.110  70.786  1.00  0.00    -0.134 NA 
HETATM   22  C   UNL     1     -10.373   5.093  68.867  1.00  0.00    -0.186 A  
HETATM   23  C   UNL     1      -8.337   5.001  70.080  1.00  0.00    -0.085 A  
HETATM   24  C   UNL     1     -10.716   6.245  69.582  1.00  0.00    -0.367 A  
ENDBRANCH   7  19
ENDBRANCH   6   7
ENDBRANCH   5   6
ENDBRANCH   4   5
BRANCH   4  25
HETATM   25  C   UNL     1      -8.550  10.332  66.988  1.00  0.00    -0.129 C  
HETATM   26  C   UNL     1      -7.082   9.992  67.301  1.00  0.00    -0.085 C  
HETATM   27  C   UNL     1      -8.990   9.251  65.971  1.00  0.00    -0.215 C  
ENDBRANCH   4  25
ENDBRANCH   2   4
TORSDOF 8
ENDMDL
MODEL      152
REMARK 921   NORMALIZED FREE ENERGY PREDICTED BY IDOCK:   -3.78 KCAL/MOL
REMARK 922        TOTAL FREE ENERGY PREDICTED BY IDOCK:   -7.26 KCAL/MOL
REMARK 923 INTER-LIGAND FREE ENERGY PREDICTED BY IDOCK:   -6.56 KCAL/MOL
REMARK 924 INTRA-LIGAND FREE ENERGY PREDICTED BY IDOCK:   -0.70 KCAL/MOL
REMARK 927      BINDING AFFINITY PREDICTED BY RF-SCORE:    0.00 PKD
ROOT
HETATM    1  C   UNL     1     -10.515  13.626  65.044  1.00  0.00    -0.406 C  
HETATM    2  C   UNL     1     -10.855  12.123  64.894  1.00  0.00    -0.308 C  
HETATM    3  C   UNL     1     -11.813  12.039  63.694  1.00  0.00    -0.602 C  
ENDROOT
BRANCH   2   4
HETATM    4  N   UNL     1      -9.614  11.278  64.819  1.00  0.00    -0.240 NA 
BRANCH   4   5
HETATM    5  C   UNL     1      -9.465  10.437  66.058  1.00  0.00    -0.185 C  
BRANCH   5   6
HETATM    6  C   UNL     1     -10.693  10.459  66.990  1.00  0.00    -0.298 C  
BRANCH   6   7
HETATM    7  C   UNL     1     -10.448  10.414  68.541  1.00  0.00    -0.210 C  
BRANCH   7   8
HETATM    8  C   UNL     1     -10.637   8.942  69.010  1.00  0.00    -0.203 A  
HETATM    9  C   UNL     1     -11.114   8.622  70.295  1.00  0.00    -0.230 A  
HETATM   10  C   UNL     1     -11.335   7.296  70.682  1.00  0.00    -0.311 A  
HETATM   11  C   UNL     1     -10.415   7.866  68.123  1.00  0.00    -0.227 A  
HETATM   12  C   UNL     1     -11.085   6.255  69.794  1.00  0.00    -0.473 A  
HETATM   13  C   UNL     1     -10.622   6.540  68.516  1.00  0.00    -0.291 A  
ENDBRANCH   7   8
BRANCH   7  14
HETATM   14  C   UNL     1     -11.384  11.445  69.255  1.00  0.00    -0.289 C  
HETATM   15  N   UNL     1     -11.512  12.676  68.660  1.00  0.00    -0.283 N  
HETATM   16  H1  UNL     1     -12.122  13.348  69.126  1.00  0.00     0.000 HD 
HETATM   17  O   UNL     1     -11.975  11.253  70.314  1.00  0.00    -0.325 OA 
HETATM   18  H2  UNL     1     -11.021  12.907  67.797  1.00  0.00     0.000 HD 
ENDBRANCH   7  14
BRANCH   7  19
HETATM   19  C   UNL     1      -8.995  10.922  68.811  1.00  0.00    -0.164 A  
HETATM   20  C   UNL     1      -6.412  11.852  69.146  1.00  0.00    -0.098 A  
HETATM   21  N   UNL     1      -8.649  12.147  68.322  1.00  0.00    -0.178 NA 
HETATM   22  C   UNL     1      -6.766  10.619  69.674  1.00  0.00    -0.116 A  
HETATM   23  C   UNL     1      -7.381  12.578  68.489  1.00  0.00    -0.115 A  
HETATM   24  C   UNL     1      -8.073  10.144  69.515  1.00  0.00    -0.176 A  
ENDBRANCH   7  19
ENDBRANCH   6   7
ENDBRANCH   5   6
ENDBRANCH   4   5
BRANCH   4  25
HETATM   25  C   UNL     1      -9.423  10.464  63.574  1.00  0.00    -0.312 C  
HETATM   26  C   UNL     1      -8.666  11.144  62.418  1.00  0.00    -0.328 C  
HETATM   27  C   UNL     1      -8.627   9.165  63.847  1.00  0.00    -0.188 C  
ENDBRANCH   4  25
ENDBRANCH   2   4
TORSDOF 8
ENDMDL
MODEL      153
REMARK 921   NORMALIZED FREE ENERGY PREDICTED BY IDOCK:   -3.78 KCAL/MOL
REMARK 922        TOTAL FREE ENERGY PREDICTED BY IDOCK:   -7.25 KCAL/MOL
REMARK 923 INTER-LIGAND FREE ENERGY PREDICTED BY IDOCK:   -6.80 KCAL/MOL
REMARK 924 INTRA-LIGAND FREE ENERGY PREDICTED BY IDOCK:   -0.45 KCAL/MOL
REMARK 927      BINDING AFFINITY PREDICTED BY RF-SCORE:    0.00 PKD
ROOT
HETATM    1  C   UNL     1     -10.732  18.826  67.231  1.00  0.00    -0.490 C  
HETATM    2  C   UNL     1      -9.190  18.731  67.122  1.00  0.00    -0.287 C  
HETATM    3  C   UNL     1      -8.708  20.172  66.890  1.00  0.00    -0.412 C  
ENDROOT
BRANCH   2   4
HETATM    4  N   UNL     1      -8.594  18.006  68.295  1.00  0.00    -0.280 NA 
BRANCH   4   5
HETATM    5  C   UNL     1      -9.378  16.760  68.608  1.00  0.00    -0.252 C  
BRANCH   5   6
HETATM    6  C   UNL     1      -9.381  15.712  67.477  1.00  0.00    -0.206 C  
BRANCH   6   7
HETATM    7  C   UNL     1     -10.175  14.377  67.703  1.00  0.00    -0.229 C  
BRANCH   7   8
HETATM    8  C   UNL     1     -10.917  14.033  66.379  1.00  0.00    -0.308 A  
HETATM    9  C   UNL     1     -11.563  12.798  66.182  1.00  0.00    -0.431 A  
HETATM   10  C   UNL     1     -12.276  12.526  65.011  1.00  0.00    -0.519 A  
HETATM   11  C   UNL     1     -11.042  14.991  65.350  1.00  0.00    -0.377 A  
HETATM   12  C   UNL     1     -12.362  13.481  64.003  1.00  0.00    -0.391 A  
HETATM   13  C   UNL     1     -11.742  14.712  64.172  1.00  0.00    -0.196 A  
ENDBRANCH   7   8
BRANCH   7  14
HETATM   14  C   UNL     1     -11.111  14.523  68.949  1.00  0.00    -0.256 C  
HETATM   15  N   UNL     1     -12.372  15.014  68.717  1.00  0.00    -0.598 N  
HETATM   16  H1  UNL     1     -12.982  15.109  69.529  1.00  0.00     0.000 HD 
HETATM   17  O   UNL     1     -10.795  14.273  70.109  1.00  0.00     0.018 OA 
HETATM   18  H2  UNL     1     -12.683  15.270  67.781  1.00  0.00     0.000 HD 
ENDBRANCH   7  14
BRANCH   7  19
HETATM   19  C   UNL     1      -9.145  13.267  68.091  1.00  0.00    -0.207 A  
HETATM   20  C   UNL     1      -7.406  11.273  68.894  1.00  0.00    -0.115 A  
HETATM   21  N   UNL     1      -9.629  12.028  68.388  1.00  0.00    -0.205 NA 
HETATM   22  C   UNL     1      -6.903  12.523  68.563  1.00  0.00    -0.083 A  
HETATM   23  C   UNL     1      -8.764  11.071  68.786  1.00  0.00    -0.145 A  
HETATM   24  C   UNL     1      -7.776  13.535  68.149  1.00  0.00    -0.139 A  
ENDBRANCH   7  19
ENDBRANCH   6   7
ENDBRANCH   5   6
ENDBRANCH   4   5
BRANCH   4  25
HETATM   25  C   UNL     1      -7.120  17.731  68.243  1.00  0.00    -0.230 C  
HETATM   26  C   UNL     1      -6.569  16.745  69.289  1.00  0.00    -0.223 C  
HETATM   27  C   UNL     1      -6.688  17.134  66.882  1.00  0.00    -0.238 C  
ENDBRANCH   4  25
ENDBRANCH   2   4
TORSDOF 8
ENDMDL
MODEL      154
REMARK 921   NORMALIZED FREE ENERGY PREDICTED BY IDOCK:   -3.78 KCAL/MOL
REMARK 922        TOTAL FREE ENERGY PREDICTED BY IDOCK:   -7.25 KCAL/MOL
REMARK 923 INTER-LIGAND FREE ENERGY PREDICTED BY IDOCK:   -6.91 KCAL/MOL
REMARK 924 INTRA-LIGAND FREE ENERGY PREDICTED BY IDOCK:   -0.34 KCAL/MOL
REMARK 927      BINDING AFFINITY PREDICTED BY RF-SCORE:    0.00 PKD
ROOT
HETATM    1  C   UNL     1      -9.224  10.575  68.318  1.00  0.00    -0.152 C  
HETATM    2  C   UNL     1      -8.175  10.908  67.228  1.00  0.00    -0.123 C  
HETATM    3  C   UNL     1      -8.916  10.757  65.889  1.00  0.00    -0.200 C  
ENDROOT
BRANCH   2   4
HETATM    4  N   UNL     1      -7.515  12.234  67.481  1.00  0.00    -0.138 NA 
BRANCH   4   5
HETATM    5  C   UNL     1      -8.427  13.147  68.253  1.00  0.00    -0.161 C  
BRANCH   5   6
HETATM    6  C   UNL     1      -8.519  14.578  67.686  1.00  0.00    -0.189 C  
BRANCH   6   7
HETATM    7  C   UNL     1      -9.934  15.254  67.602  1.00  0.00    -0.222 C  
BRANCH   7   8
HETATM    8  C   UNL     1      -9.724  16.761  67.273  1.00  0.00    -0.250 A  
HETATM    9  C   UNL     1     -10.668  17.742  67.627  1.00  0.00    -0.330 A  
HETATM   10  C   UNL     1     -10.439  19.099  67.379  1.00  0.00    -0.552 A  
HETATM   11  C   UNL     1      -8.525  17.211  66.680  1.00  0.00    -0.284 A  
HETATM   12  C   UNL     1      -9.258  19.511  66.771  1.00  0.00    -0.415 A  
HETATM   13  C   UNL     1      -8.302  18.567  66.419  1.00  0.00    -0.278 A  
ENDBRANCH   7   8
BRANCH   7  14
HETATM   14  C   UNL     1     -10.729  14.985  68.923  1.00  0.00    -0.240 C  
HETATM   15  N   UNL     1     -10.097  15.306  70.098  1.00  0.00    -0.500 N  
HETATM   16  H1  UNL     1     -10.614  15.131  70.959  1.00  0.00     0.000 HD 
HETATM   17  O   UNL     1     -11.846  14.478  68.990  1.00  0.00    -0.299 OA 
HETATM   18  H2  UNL     1      -9.157  15.701  70.110  1.00  0.00     0.000 HD 
ENDBRANCH   7  14
BRANCH   7  19
HETATM   19  C   UNL     1     -10.745  14.528  66.479  1.00  0.00    -0.312 A  
HETATM   20  C   UNL     1     -12.124  13.343  64.397  1.00  0.00    -0.468 A  
HETATM   21  N   UNL     1     -10.081  14.184  65.339  1.00  0.00    -0.344 NA 
HETATM   22  C   UNL     1     -12.799  13.662  65.566  1.00  0.00    -0.443 A  
HETATM   23  C   UNL     1     -10.775  13.614  64.331  1.00  0.00    -0.354 A  
HETATM   24  C   UNL     1     -12.107  14.256  66.627  1.00  0.00    -0.448 A  
ENDBRANCH   7  19
ENDBRANCH   6   7
ENDBRANCH   5   6
ENDBRANCH   4   5
BRANCH   4  25
HETATM   25  C   UNL     1      -6.137  12.201  68.074  1.00  0.00    -0.062 C  
HETATM   26  C   UNL     1      -5.152  13.276  67.580  1.00  0.00    -0.017 C  
HETATM   27  C   UNL     1      -6.163  12.376  69.612  1.00  0.00    -0.130 C  
ENDBRANCH   4  25
ENDBRANCH   2   4
TORSDOF 8
ENDMDL
MODEL      155
REMARK 921   NORMALIZED FREE ENERGY PREDICTED BY IDOCK:   -3.75 KCAL/MOL
REMARK 922        TOTAL FREE ENERGY PREDICTED BY IDOCK:   -7.21 KCAL/MOL
REMARK 923 INTER-LIGAND FREE ENERGY PREDICTED BY IDOCK:   -6.80 KCAL/MOL
REMARK 924 INTRA-LIGAND FREE ENERGY PREDICTED BY IDOCK:   -0.41 KCAL/MOL
REMARK 927      BINDING AFFINITY PREDICTED BY RF-SCORE:    0.00 PKD
ROOT
HETATM    1  C   UNL     1     -10.783  13.668  64.586  1.00  0.00    -0.433 C  
HETATM    2  C   UNL     1     -11.199  12.191  64.792  1.00  0.00    -0.323 C  
HETATM    3  C   UNL     1     -12.205  11.890  63.668  1.00  0.00    -0.586 C  
ENDROOT
BRANCH   2   4
HETATM    4  N   UNL     1     -10.004  11.285  64.881  1.00  0.00    -0.257 NA 
BRANCH   4   5
HETATM    5  C   UNL     1     -10.181  10.272  65.979  1.00  0.00    -0.228 C  
BRANCH   5   6
HETATM    6  C   UNL     1     -11.158  10.706  67.090  1.00  0.00    -0.267 C  
BRANCH   6   7
HETATM    7  C   UNL     1     -10.564  11.375  68.381  1.00  0.00    -0.230 C  
BRANCH   7   8
HETATM    8  C   UNL     1     -10.629  12.919  68.190  1.00  0.00    -0.249 A  
HETATM    9  C   UNL     1     -11.851  13.609  68.086  1.00  0.00    -0.407 A  
HETATM   10  C   UNL     1     -11.895  15.002  67.975  1.00  0.00    -0.266 A  
HETATM   11  C   UNL     1      -9.452  13.699  68.204  1.00  0.00    -0.217 A  
HETATM   12  C   UNL     1     -10.718  15.743  67.967  1.00  0.00    -0.296 A  
HETATM   13  C   UNL     1      -9.497  15.091  68.079  1.00  0.00    -0.193 A  
ENDBRANCH   7   8
BRANCH   7  14
HETATM   14  C   UNL     1      -9.127  10.817  68.653  1.00  0.00    -0.173 C  
HETATM   15  N   UNL     1      -8.949   9.467  68.485  1.00  0.00    -0.128 N  
HETATM   16  H1  UNL     1      -8.013   9.103  68.663  1.00  0.00     0.000 HD 
HETATM   17  O   UNL     1      -8.168  11.481  69.038  1.00  0.00    -0.068 OA 
HETATM   18  H2  UNL     1      -9.714   8.857  68.198  1.00  0.00     0.000 HD 
ENDBRANCH   7  14
BRANCH   7  19
HETATM   19  C   UNL     1     -11.424  10.909  69.600  1.00  0.00    -0.305 A  
HETATM   20  C   UNL     1     -13.005   9.982  71.671  1.00  0.00    -0.554 A  
HETATM   21  N   UNL     1     -11.437   9.579  69.896  1.00  0.00    -0.131 NA 
HETATM   22  C   UNL     1     -12.972  11.342  71.395  1.00  0.00    -0.482 A  
HETATM   23  C   UNL     1     -12.222   9.146  70.905  1.00  0.00    -0.183 A  
HETATM   24  C   UNL     1     -12.169  11.820  70.353  1.00  0.00    -0.416 A  
ENDBRANCH   7  19
ENDBRANCH   6   7
ENDBRANCH   5   6
ENDBRANCH   4   5
BRANCH   4  25
HETATM   25  C   UNL     1      -9.546  10.640  63.606  1.00  0.00    -0.314 C  
HETATM   26  C   UNL     1      -8.635  11.486  62.697  1.00  0.00     0.128 C  
HETATM   27  C   UNL     1      -8.738   9.346  63.867  1.00  0.00    -0.225 C  
ENDBRANCH   4  25
ENDBRANCH   2   4
TORSDOF 8
ENDMDL
MODEL      156
REMARK 921   NORMALIZED FREE ENERGY PREDICTED BY IDOCK:   -3.75 KCAL/MOL
REMARK 922        TOTAL FREE ENERGY PREDICTED BY IDOCK:   -7.21 KCAL/MOL
REMARK 923 INTER-LIGAND FREE ENERGY PREDICTED BY IDOCK:   -7.39 KCAL/MOL
REMARK 924 INTRA-LIGAND FREE ENERGY PREDICTED BY IDOCK:    0.18 KCAL/MOL
REMARK 927      BINDING AFFINITY PREDICTED BY RF-SCORE:    0.00 PKD
ROOT
HETATM    1  C   UNL     1     -13.997  15.534  71.252  1.00  0.00    -0.393 C  
HETATM    2  C   UNL     1     -12.630  15.071  70.692  1.00  0.00    -0.374 C  
HETATM    3  C   UNL     1     -11.580  15.619  71.674  1.00  0.00    -0.519 C  
ENDROOT
BRANCH   2   4
HETATM    4  N   UNL     1     -12.605  13.590  70.443  1.00  0.00    -0.245 NA 
BRANCH   4   5
HETATM    5  C   UNL     1     -11.392  13.203  69.641  1.00  0.00    -0.112 C  
BRANCH   5   6
HETATM    6  C   UNL     1     -11.698  12.785  68.189  1.00  0.00    -0.392 C  
BRANCH   6   7
HETATM    7  C   UNL     1     -10.490  12.518  67.223  1.00  0.00    -0.232 C  
BRANCH   7   8
HETATM    8  C   UNL     1      -9.805  11.194  67.670  1.00  0.00    -0.191 A  
HETATM    9  C   UNL     1      -9.950  10.680  68.972  1.00  0.00    -0.226 A  
HETATM   10  C   UNL     1      -9.378   9.458  69.342  1.00  0.00    -0.172 A  
HETATM   11  C   UNL     1      -9.078  10.408  66.749  1.00  0.00    -0.161 A  
HETATM   12  C   UNL     1      -8.646   8.718  68.420  1.00  0.00    -0.134 A  
HETATM   13  C   UNL     1      -8.494   9.195  67.125  1.00  0.00    -0.120 A  
ENDBRANCH   7   8
BRANCH   7  14
HETATM   14  C   UNL     1      -9.541  13.762  67.205  1.00  0.00    -0.244 C  
HETATM   15  N   UNL     1     -10.092  14.951  66.794  1.00  0.00    -0.247 N  
HETATM   16  H1  UNL     1      -9.473  15.762  66.782  1.00  0.00     0.000 HD 
HETATM   17  O   UNL     1      -8.347  13.749  67.490  1.00  0.00    -0.167 OA 
HETATM   18  H2  UNL     1     -11.070  15.019  66.514  1.00  0.00     0.000 HD 
ENDBRANCH   7  14
BRANCH   7  19
HETATM   19  C   UNL     1     -11.055  12.410  65.769  1.00  0.00    -0.315 A  
HETATM   20  C   UNL     1     -12.161  12.133  63.250  1.00  0.00    -0.533 A  
HETATM   21  N   UNL     1     -12.386  12.643  65.586  1.00  0.00    -0.630 NA 
HETATM   22  C   UNL     1     -10.800  11.926  63.423  1.00  0.00    -0.469 A  
HETATM   23  C   UNL     1     -12.907  12.495  64.351  1.00  0.00    -0.275 A  
HETATM   24  C   UNL     1     -10.231  12.071  64.693  1.00  0.00    -0.313 A  
ENDBRANCH   7  19
ENDBRANCH   6   7
ENDBRANCH   5   6
ENDBRANCH   4   5
BRANCH   4  25
HETATM   25  C   UNL     1     -12.783  12.699  71.637  1.00  0.00    -0.187 C  
HETATM   26  C   UNL     1     -14.086  12.876  72.437  1.00  0.00    -0.205 C  
HETATM   27  C   UNL     1     -12.765  11.200  71.251  1.00  0.00    -0.531 C  
ENDBRANCH   4  25
ENDBRANCH   2   4
TORSDOF 8
ENDMDL
MODEL      157
REMARK 921   NORMALIZED FREE ENERGY PREDICTED BY IDOCK:   -3.74 KCAL/MOL
REMARK 922        TOTAL FREE ENERGY PREDICTED BY IDOCK:   -7.20 KCAL/MOL
REMARK 923 INTER-LIGAND FREE ENERGY PREDICTED BY IDOCK:   -6.35 KCAL/MOL
REMARK 924 INTRA-LIGAND FREE ENERGY PREDICTED BY IDOCK:   -0.85 KCAL/MOL
REMARK 927      BINDING AFFINITY PREDICTED BY RF-SCORE:    0.00 PKD
ROOT
HETATM    1  C   UNL     1     -12.129  13.575  68.628  1.00  0.00    -0.303 C  
HETATM    2  C   UNL     1     -11.756  12.861  69.950  1.00  0.00    -0.254 C  
HETATM    3  C   UNL     1     -12.290  13.769  71.070  1.00  0.00    -0.452 C  
ENDROOT
BRANCH   2   4
HETATM    4  N   UNL     1     -12.227  11.435  69.963  1.00  0.00    -0.311 NA 
BRANCH   4   5
HETATM    5  C   UNL     1     -11.599  10.654  68.841  1.00  0.00    -0.249 C  
BRANCH   5   6
HETATM    6  C   UNL     1     -10.212  11.169  68.409  1.00  0.00    -0.200 C  
BRANCH   6   7
HETATM    7  C   UNL     1      -9.399  10.326  67.363  1.00  0.00    -0.163 C  
BRANCH   7   8
HETATM    8  C   UNL     1      -9.707  10.899  65.948  1.00  0.00    -0.269 A  
HETATM    9  C   UNL     1     -10.048  12.249  65.746  1.00  0.00    -0.274 A  
HETATM   10  C   UNL     1     -10.263  12.763  64.463  1.00  0.00    -0.333 A  
HETATM   11  C   UNL     1      -9.566  10.095  64.796  1.00  0.00    -0.378 A  
HETATM   12  C   UNL     1     -10.141  11.941  63.348  1.00  0.00    -0.464 A  
HETATM   13  C   UNL     1      -9.796  10.606  63.515  1.00  0.00    -0.384 A  
ENDBRANCH   7   8
BRANCH   7  14
HETATM   14  C   UNL     1      -9.734   8.807  67.532  1.00  0.00    -0.167 C  
HETATM   15  N   UNL     1      -9.003   8.115  68.464  1.00  0.00    -0.137 N  
HETATM   16  H1  UNL     1      -9.221   7.125  68.574  1.00  0.00     0.000 HD 
HETATM   17  O   UNL     1     -10.564   8.185  66.874  1.00  0.00    -0.329 OA 
HETATM   18  H2  UNL     1      -8.278   8.568  69.020  1.00  0.00     0.000 HD 
ENDBRANCH   7  14
BRANCH   7  19
HETATM   19  C   UNL     1      -7.882  10.455  67.718  1.00  0.00    -0.101 A  
HETATM   20  C   UNL     1      -5.231  10.809  68.417  1.00  0.00    -0.036 A  
HETATM   21  N   UNL     1      -7.554  10.707  69.017  1.00  0.00    -0.111 NA 
HETATM   22  C   UNL     1      -5.555  10.523  67.099  1.00  0.00    -0.042 A  
HETATM   23  C   UNL     1      -6.255  10.884  69.336  1.00  0.00    -0.063 A  
HETATM   24  C   UNL     1      -6.894  10.335  66.738  1.00  0.00    -0.088 A  
ENDBRANCH   7  19
ENDBRANCH   6   7
ENDBRANCH   5   6
ENDBRANCH   4   5
BRANCH   4  25
HETATM   25  C   UNL     1     -12.129  10.700  71.268  1.00  0.00    -0.299 C  
HETATM   26  C   UNL     1     -13.403   9.983  71.750  1.00  0.00    -0.492 C  
HETATM   27  C   UNL     1     -11.050   9.590  71.229  1.00  0.00    -0.449 C  
ENDBRANCH   4  25
ENDBRANCH   2   4
TORSDOF 8
ENDMDL
MODEL      158
REMARK 921   NORMALIZED FREE ENERGY PREDICTED BY IDOCK:   -3.74 KCAL/MOL
REMARK 922        TOTAL FREE ENERGY PREDICTED BY IDOCK:   -7.20 KCAL/MOL
REMARK 923 INTER-LIGAND FREE ENERGY PREDICTED BY IDOCK:   -7.08 KCAL/MOL
REMARK 924 INTRA-LIGAND FREE ENERGY PREDICTED BY IDOCK:   -0.11 KCAL/MOL
REMARK 927      BINDING AFFINITY PREDICTED BY RF-SCORE:    0.00 PKD
ROOT
HETATM    1  C   UNL     1     -10.788  13.835  64.546  1.00  0.00    -0.399 C  
HETATM    2  C   UNL     1     -11.330  12.398  64.739  1.00  0.00    -0.315 C  
HETATM    3  C   UNL     1     -12.300  12.167  63.569  1.00  0.00    -0.682 C  
ENDROOT
BRANCH   2   4
HETATM    4  N   UNL     1     -10.216  11.401  64.892  1.00  0.00    -0.261 NA 
BRANCH   4   5
HETATM    5  C   UNL     1     -10.430  10.542  66.109  1.00  0.00    -0.168 C  
BRANCH   5   6
HETATM    6  C   UNL     1     -11.197  11.241  67.250  1.00  0.00    -0.364 C  
BRANCH   6   7
HETATM    7  C   UNL     1     -10.440  11.507  68.599  1.00  0.00    -0.224 C  
BRANCH   7   8
HETATM    8  C   UNL     1      -9.199  12.391  68.283  1.00  0.00    -0.189 A  
HETATM    9  C   UNL     1      -7.884  11.906  68.407  1.00  0.00    -0.141 A  
HETATM   10  C   UNL     1      -6.780  12.693  68.063  1.00  0.00    -0.095 A  
HETATM   11  C   UNL     1      -9.353  13.698  67.772  1.00  0.00    -0.218 A  
HETATM   12  C   UNL     1      -6.962  13.986  67.584  1.00  0.00    -0.198 A  
HETATM   13  C   UNL     1      -8.249  14.489  67.442  1.00  0.00    -0.220 A  
ENDBRANCH   7   8
BRANCH   7  14
HETATM   14  C   UNL     1     -10.104  10.146  69.295  1.00  0.00    -0.222 C  
HETATM   15  N   UNL     1     -10.806   9.046  68.868  1.00  0.00    -0.415 N  
HETATM   16  H1  UNL     1     -10.587   8.159  69.321  1.00  0.00     0.000 HD 
HETATM   17  O   UNL     1      -9.298   9.995  70.210  1.00  0.00    -0.162 OA 
HETATM   18  H2  UNL     1     -11.511   9.112  68.134  1.00  0.00     0.000 HD 
ENDBRANCH   7  14
BRANCH   7  19
HETATM   19  C   UNL     1     -11.430  12.231  69.569  1.00  0.00    -0.249 A  
HETATM   20  C   UNL     1     -13.071  13.603  71.321  1.00  0.00    -0.357 A  
HETATM   21  N   UNL     1     -11.505  13.591  69.500  1.00  0.00    -0.272 NA 
HETATM   22  C   UNL     1     -13.024  12.217  71.376  1.00  0.00    -0.354 A  
HETATM   23  C   UNL     1     -12.306  14.241  70.370  1.00  0.00    -0.352 A  
HETATM   24  C   UNL     1     -12.201  11.515  70.487  1.00  0.00    -0.469 A  
ENDBRANCH   7  19
ENDBRANCH   6   7
ENDBRANCH   5   6
ENDBRANCH   4   5
BRANCH   4  25
HETATM   25  C   UNL     1      -9.878  10.573  63.687  1.00  0.00    -0.293 C  
HETATM   26  C   UNL     1      -9.095  11.280  62.566  1.00  0.00    -0.288 C  
HETATM   27  C   UNL     1      -9.010   9.345  64.052  1.00  0.00    -0.174 C  
ENDBRANCH   4  25
ENDBRANCH   2   4
TORSDOF 8
ENDMDL
MODEL      159
REMARK 921   NORMALIZED FREE ENERGY PREDICTED BY IDOCK:   -3.74 KCAL/MOL
REMARK 922        TOTAL FREE ENERGY PREDICTED BY IDOCK:   -7.20 KCAL/MOL
REMARK 923 INTER-LIGAND FREE ENERGY PREDICTED BY IDOCK:   -5.64 KCAL/MOL
REMARK 924 INTRA-LIGAND FREE ENERGY PREDICTED BY IDOCK:   -1.56 KCAL/MOL
REMARK 927      BINDING AFFINITY PREDICTED BY RF-SCORE:    0.00 PKD
ROOT
HETATM    1  C   UNL     1      -9.218   7.786  73.690  1.00  0.00    -0.344 C  
HETATM    2  C   UNL     1      -8.308   6.803  72.912  1.00  0.00    -0.116 C  
HETATM    3  C   UNL     1      -7.677   5.897  73.982  1.00  0.00    -0.098 C  
ENDROOT
BRANCH   2   4
HETATM    4  N   UNL     1      -9.054   6.114  71.805  1.00  0.00    -0.145 NA 
BRANCH   4   5
HETATM    5  C   UNL     1      -8.340   6.284  70.492  1.00  0.00    -0.129 C  
BRANCH   5   6
HETATM    6  C   UNL     1      -8.563   7.654  69.822  1.00  0.00    -0.135 C  
BRANCH   6   7
HETATM    7  C   UNL     1      -9.931   7.910  69.094  1.00  0.00    -0.184 C  
BRANCH   7   8
HETATM    8  C   UNL     1     -11.022   8.108  70.187  1.00  0.00    -0.223 A  
HETATM    9  C   UNL     1     -11.164   9.317  70.892  1.00  0.00    -0.372 A  
HETATM   10  C   UNL     1     -12.187   9.500  71.828  1.00  0.00    -0.465 A  
HETATM   11  C   UNL     1     -11.973   7.098  70.449  1.00  0.00    -0.190 A  
HETATM   12  C   UNL     1     -13.096   8.479  72.083  1.00  0.00    -0.393 A  
HETATM   13  C   UNL     1     -12.987   7.277  71.396  1.00  0.00    -0.420 A  
ENDBRANCH   7   8
BRANCH   7  14
HETATM   14  C   UNL     1     -10.223   6.745  68.091  1.00  0.00    -0.174 C  
HETATM   15  N   UNL     1      -9.358   6.611  67.034  1.00  0.00    -0.136 N  
HETATM   16  H1  UNL     1      -9.549   5.852  66.380  1.00  0.00     0.000 HD 
HETATM   17  O   UNL     1     -11.179   5.976  68.155  1.00  0.00    -0.263 OA 
HETATM   18  H2  UNL     1      -8.564   7.238  66.909  1.00  0.00     0.000 HD 
ENDBRANCH   7  14
BRANCH   7  19
HETATM   19  C   UNL     1      -9.769   9.187  68.206  1.00  0.00    -0.154 A  
HETATM   20  C   UNL     1      -9.398  11.503  66.742  1.00  0.00    -0.191 A  
HETATM   21  N   UNL     1      -8.507   9.664  68.005  1.00  0.00    -0.118 NA 
HETATM   22  C   UNL     1     -10.681  11.005  66.916  1.00  0.00    -0.325 A  
HETATM   23  C   UNL     1      -8.349  10.800  67.294  1.00  0.00    -0.124 A  
HETATM   24  C   UNL     1     -10.877   9.830  67.650  1.00  0.00    -0.301 A  
ENDBRANCH   7  19
ENDBRANCH   6   7
ENDBRANCH   5   6
ENDBRANCH   4   5
BRANCH   4  25
HETATM   25  C   UNL     1      -9.443   4.684  72.039  1.00  0.00    -0.142 C  
HETATM   26  C   UNL     1     -10.774   4.446  72.775  1.00  0.00    -0.235 C  
HETATM   27  C   UNL     1      -9.587   3.897  70.714  1.00  0.00    -0.259 C  
ENDBRANCH   4  25
ENDBRANCH   2   4
TORSDOF 8
ENDMDL
MODEL      160
REMARK 921   NORMALIZED FREE ENERGY PREDICTED BY IDOCK:   -3.73 KCAL/MOL
REMARK 922        TOTAL FREE ENERGY PREDICTED BY IDOCK:   -7.18 KCAL/MOL
REMARK 923 INTER-LIGAND FREE ENERGY PREDICTED BY IDOCK:   -6.85 KCAL/MOL
REMARK 924 INTRA-LIGAND FREE ENERGY PREDICTED BY IDOCK:   -0.33 KCAL/MOL
REMARK 927      BINDING AFFINITY PREDICTED BY RF-SCORE:    0.00 PKD
ROOT
HETATM    1  C   UNL     1      -9.835   9.897  65.452  1.00  0.00    -0.384 C  
HETATM    2  C   UNL     1     -10.410   9.467  66.824  1.00  0.00    -0.233 C  
HETATM    3  C   UNL     1     -10.300   7.933  66.850  1.00  0.00    -0.400 C  
ENDROOT
BRANCH   2   4
HETATM    4  N   UNL     1      -9.753  10.204  67.957  1.00  0.00    -0.142 NA 
BRANCH   4   5
HETATM    5  C   UNL     1      -8.797   9.307  68.695  1.00  0.00    -0.132 C  
BRANCH   5   6
HETATM    6  C   UNL     1      -8.710   9.584  70.209  1.00  0.00    -0.270 C  
BRANCH   6   7
HETATM    7  C   UNL     1      -9.468   8.616  71.186  1.00  0.00    -0.274 C  
BRANCH   7   8
HETATM    8  C   UNL     1     -10.875   9.224  71.462  1.00  0.00    -0.442 A  
HETATM    9  C   UNL     1     -11.289  10.440  70.888  1.00  0.00    -0.307 A  
HETATM   10  C   UNL     1     -12.577  10.944  71.097  1.00  0.00    -0.532 A  
HETATM   11  C   UNL     1     -11.826   8.524  72.236  1.00  0.00    -0.453 A  
HETATM   12  C   UNL     1     -13.485  10.244  71.885  1.00  0.00    -0.403 A  
HETATM   13  C   UNL     1     -13.108   9.036  72.457  1.00  0.00    -0.450 A  
ENDBRANCH   7   8
BRANCH   7  14
HETATM   14  C   UNL     1      -8.605   8.375  72.469  1.00  0.00    -0.184 C  
HETATM   15  N   UNL     1      -9.204   7.684  73.493  1.00  0.00    -0.251 N  
HETATM   16  H1  UNL     1      -8.642   7.527  74.329  1.00  0.00     0.000 HD 
HETATM   17  O   UNL     1      -7.461   8.785  72.643  1.00  0.00    -0.345 OA 
HETATM   18  H2  UNL     1     -10.163   7.345  73.421  1.00  0.00     0.000 HD 
ENDBRANCH   7  14
BRANCH   7  19
HETATM   19  C   UNL     1      -9.572   7.219  70.491  1.00  0.00    -0.168 A  
HETATM   20  C   UNL     1      -9.879   4.725  69.338  1.00  0.00    -0.282 A  
HETATM   21  N   UNL     1     -10.763   6.881  69.921  1.00  0.00    -0.234 NA 
HETATM   22  C   UNL     1      -8.655   5.075  69.888  1.00  0.00    -0.110 A  
HETATM   23  C   UNL     1     -10.895   5.656  69.371  1.00  0.00    -0.264 A  
HETATM   24  C   UNL     1      -8.489   6.338  70.467  1.00  0.00    -0.138 A  
ENDBRANCH   7  19
ENDBRANCH   6   7
ENDBRANCH   5   6
ENDBRANCH   4   5
BRANCH   4  25
HETATM   25  C   UNL     1      -9.125  11.527  67.630  1.00  0.00    -0.168 C  
HETATM   26  C   UNL     1      -9.652  12.747  68.406  1.00  0.00    -0.175 C  
HETATM   27  C   UNL     1      -7.600  11.528  67.895  1.00  0.00    -0.113 C  
ENDBRANCH   4  25
ENDBRANCH   2   4
TORSDOF 8
ENDMDL
MODEL      161
REMARK 921   NORMALIZED FREE ENERGY PREDICTED BY IDOCK:   -3.70 KCAL/MOL
REMARK 922        TOTAL FREE ENERGY PREDICTED BY IDOCK:   -7.14 KCAL/MOL
REMARK 923 INTER-LIGAND FREE ENERGY PREDICTED BY IDOCK:   -5.19 KCAL/MOL
REMARK 924 INTRA-LIGAND FREE ENERGY PREDICTED BY IDOCK:   -1.95 KCAL/MOL
REMARK 927      BINDING AFFINITY PREDICTED BY RF-SCORE:    0.00 PKD
ROOT
HETATM    1  C   UNL     1      -8.842  10.507  69.436  1.00  0.00    -0.091 C  
HETATM    2  C   UNL     1     -10.027   9.809  70.149  1.00  0.00    -0.263 C  
HETATM    3  C   UNL     1     -11.286  10.277  69.401  1.00  0.00    -0.279 C  
ENDROOT
BRANCH   2   4
HETATM    4  N   UNL     1      -9.819   8.324  70.246  1.00  0.00    -0.182 NA 
BRANCH   4   5
HETATM    5  C   UNL     1      -8.510   7.926  69.620  1.00  0.00    -0.132 C  
BRANCH   5   6
HETATM    6  C   UNL     1      -8.559   6.597  68.840  1.00  0.00    -0.126 C  
BRANCH   6   7
HETATM    7  C   UNL     1      -9.162   6.608  67.390  1.00  0.00    -0.124 C  
BRANCH   7   8
HETATM    8  C   UNL     1      -8.924   8.023  66.786  1.00  0.00    -0.169 A  
HETATM    9  C   UNL     1      -7.633   8.510  66.511  1.00  0.00    -0.088 A  
HETATM   10  C   UNL     1      -7.436   9.759  65.912  1.00  0.00    -0.103 A  
HETATM   11  C   UNL     1     -10.011   8.840  66.408  1.00  0.00    -0.346 A  
HETATM   12  C   UNL     1      -8.526  10.553  65.572  1.00  0.00    -0.177 A  
HETATM   13  C   UNL     1      -9.813  10.095  65.823  1.00  0.00    -0.331 A  
ENDBRANCH   7   8
BRANCH   7  14
HETATM   14  C   UNL     1     -10.664   6.171  67.438  1.00  0.00    -0.322 C  
HETATM   15  N   UNL     1     -11.194   5.658  66.280  1.00  0.00    -0.749 N  
HETATM   16  H1  UNL     1     -12.172   5.373  66.311  1.00  0.00     0.000 HD 
HETATM   17  O   UNL     1     -11.407   6.286  68.409  1.00  0.00    -0.298 OA 
HETATM   18  H2  UNL     1     -10.636   5.567  65.431  1.00  0.00     0.000 HD 
ENDBRANCH   7  14
BRANCH   7  19
HETATM   19  C   UNL     1      -8.437   5.499  66.561  1.00  0.00    -0.113 A  
HETATM   20  C   UNL     1      -7.276   3.522  65.014  1.00  0.00    -0.067 A  
HETATM   21  N   UNL     1      -8.477   5.594  65.202  1.00  0.00    -0.146 NA 
HETATM   22  C   UNL     1      -7.204   3.436  66.397  1.00  0.00    -0.063 A  
HETATM   23  C   UNL     1      -7.912   4.615  64.465  1.00  0.00    -0.094 A  
HETATM   24  C   UNL     1      -7.783   4.435  67.187  1.00  0.00    -0.089 A  
ENDBRANCH   7  19
ENDBRANCH   6   7
ENDBRANCH   5   6
ENDBRANCH   4   5
BRANCH   4  25
HETATM   25  C   UNL     1      -9.993   7.703  71.600  1.00  0.00    -0.176 C  
HETATM   26  C   UNL     1      -8.870   7.957  72.622  1.00  0.00    -0.235 C  
HETATM   27  C   UNL     1     -11.278   8.200  72.306  1.00  0.00    -0.425 C  
ENDBRANCH   4  25
ENDBRANCH   2   4
TORSDOF 8
ENDMDL
MODEL      162
REMARK 921   NORMALIZED FREE ENERGY PREDICTED BY IDOCK:   -3.70 KCAL/MOL
REMARK 922        TOTAL FREE ENERGY PREDICTED BY IDOCK:   -7.14 KCAL/MOL
REMARK 923 INTER-LIGAND FREE ENERGY PREDICTED BY IDOCK:   -5.84 KCAL/MOL
REMARK 924 INTRA-LIGAND FREE ENERGY PREDICTED BY IDOCK:   -1.30 KCAL/MOL
REMARK 927      BINDING AFFINITY PREDICTED BY RF-SCORE:    0.00 PKD
ROOT
HETATM    1  C   UNL     1      -8.029   6.198  67.167  1.00  0.00    -0.102 C  
HETATM    2  C   UNL     1      -9.279   5.687  67.926  1.00  0.00    -0.106 C  
HETATM    3  C   UNL     1      -9.756   4.454  67.141  1.00  0.00    -0.230 C  
ENDROOT
BRANCH   2   4
HETATM    4  N   UNL     1      -8.996   5.483  69.387  1.00  0.00    -0.105 NA 
BRANCH   4   5
HETATM    5  C   UNL     1     -10.004   6.212  70.233  1.00  0.00    -0.183 C  
BRANCH   5   6
HETATM    6  C   UNL     1     -10.709   7.380  69.514  1.00  0.00    -0.233 C  
BRANCH   6   7
HETATM    7  C   UNL     1     -10.172   8.835  69.760  1.00  0.00    -0.205 C  
BRANCH   7   8
HETATM    8  C   UNL     1      -9.792   9.443  68.378  1.00  0.00    -0.177 A  
HETATM    9  C   UNL     1     -10.458   9.078  67.192  1.00  0.00    -0.333 A  
HETATM   10  C   UNL     1     -10.147   9.677  65.967  1.00  0.00    -0.318 A  
HETATM   11  C   UNL     1      -8.815  10.457  68.277  1.00  0.00    -0.135 A  
HETATM   12  C   UNL     1      -9.162  10.656  65.894  1.00  0.00    -0.209 A  
HETATM   13  C   UNL     1      -8.494  11.043  67.049  1.00  0.00    -0.141 A  
ENDBRANCH   7   8
BRANCH   7  14
HETATM   14  C   UNL     1      -8.997   8.799  70.794  1.00  0.00    -0.192 C  
HETATM   15  N   UNL     1      -7.817   8.245  70.366  1.00  0.00    -0.086 N  
HETATM   16  H1  UNL     1      -7.052   8.221  71.040  1.00  0.00     0.000 HD 
HETATM   17  O   UNL     1      -9.063   9.187  71.957  1.00  0.00    -0.337 OA 
HETATM   18  H2  UNL     1      -7.710   7.876  69.421  1.00  0.00     0.000 HD 
ENDBRANCH   7  14
BRANCH   7  19
HETATM   19  C   UNL     1     -11.307   9.654  70.455  1.00  0.00    -0.296 A  
HETATM   20  C   UNL     1     -13.216  11.204  71.720  1.00  0.00    -0.486 A  
HETATM   21  N   UNL     1     -11.423  10.975  70.138  1.00  0.00    -0.304 NA 
HETATM   22  C   UNL     1     -13.124   9.853  72.024  1.00  0.00    -0.545 A  
HETATM   23  C   UNL     1     -12.356  11.715  70.773  1.00  0.00    -0.358 A  
HETATM   24  C   UNL     1     -12.166   9.060  71.383  1.00  0.00    -0.387 A  
ENDBRANCH   7  19
ENDBRANCH   6   7
ENDBRANCH   5   6
ENDBRANCH   4   5
BRANCH   4  25
HETATM   25  C   UNL     1      -8.809   4.068  69.849  1.00  0.00    -0.084 C  
HETATM   26  C   UNL     1      -7.365   3.627  70.145  1.00  0.00    -0.041 C  
HETATM   27  C   UNL     1      -9.579   3.780  71.161  1.00  0.00    -0.246 C  
ENDBRANCH   4  25
ENDBRANCH   2   4
TORSDOF 8
ENDMDL
MODEL      163
REMARK 921   NORMALIZED FREE ENERGY PREDICTED BY IDOCK:   -3.70 KCAL/MOL
REMARK 922        TOTAL FREE ENERGY PREDICTED BY IDOCK:   -7.14 KCAL/MOL
REMARK 923 INTER-LIGAND FREE ENERGY PREDICTED BY IDOCK:   -5.76 KCAL/MOL
REMARK 924 INTRA-LIGAND FREE ENERGY PREDICTED BY IDOCK:   -1.37 KCAL/MOL
REMARK 927      BINDING AFFINITY PREDICTED BY RF-SCORE:    0.00 PKD
ROOT
HETATM    1  C   UNL     1      -9.696   4.006  70.707  1.00  0.00    -0.263 C  
HETATM    2  C   UNL     1      -8.632   4.246  71.806  1.00  0.00    -0.106 C  
HETATM    3  C   UNL     1      -7.274   4.090  71.100  1.00  0.00    -0.033 C  
ENDROOT
BRANCH   2   4
HETATM    4  N   UNL     1      -8.865   5.541  72.531  1.00  0.00    -0.130 NA 
BRANCH   4   5
HETATM    5  C   UNL     1      -9.607   6.516  71.658  1.00  0.00    -0.160 C  
BRANCH   5   6
HETATM    6  C   UNL     1      -8.846   7.829  71.386  1.00  0.00    -0.149 C  
BRANCH   6   7
HETATM    7  C   UNL     1      -9.265   8.685  70.138  1.00  0.00    -0.165 C  
BRANCH   7   8
HETATM    8  C   UNL     1      -9.505   7.708  68.949  1.00  0.00    -0.149 A  
HETATM    9  C   UNL     1      -8.551   6.747  68.567  1.00  0.00    -0.125 A  
HETATM   10  C   UNL     1      -8.805   5.837  67.536  1.00  0.00    -0.106 A  
HETATM   11  C   UNL     1     -10.738   7.695  68.262  1.00  0.00    -0.107 A  
HETATM   12  C   UNL     1     -10.021   5.864  66.859  1.00  0.00    -0.205 A  
HETATM   13  C   UNL     1     -10.985   6.795  67.221  1.00  0.00    -0.433 A  
ENDBRANCH   7   8
BRANCH   7  14
HETATM   14  C   UNL     1      -8.186   9.784  69.863  1.00  0.00    -0.183 C  
HETATM   15  N   UNL     1      -8.198  10.362  68.618  1.00  0.00    -0.114 N  
HETATM   16  H1  UNL     1      -7.495  11.078  68.439  1.00  0.00     0.000 HD 
HETATM   17  O   UNL     1      -7.314  10.137  70.653  1.00  0.00    -0.306 OA 
HETATM   18  H2  UNL     1      -8.877  10.089  67.908  1.00  0.00     0.000 HD 
ENDBRANCH   7  14
BRANCH   7  19
HETATM   19  C   UNL     1     -10.566   9.468  70.510  1.00  0.00    -0.297 A  
HETATM   20  C   UNL     1     -12.785  10.977  71.177  1.00  0.00    -0.521 A  
HETATM   21  N   UNL     1     -10.829  10.620  69.829  1.00  0.00    -0.269 NA 
HETATM   22  C   UNL     1     -12.540   9.790  71.852  1.00  0.00    -0.479 A  
HETATM   23  C   UNL     1     -11.913  11.346  70.176  1.00  0.00    -0.377 A  
HETATM   24  C   UNL     1     -11.423   9.017  71.515  1.00  0.00    -0.407 A  
ENDBRANCH   7  19
ENDBRANCH   6   7
ENDBRANCH   5   6
ENDBRANCH   4   5
BRANCH   4  25
HETATM   25  C   UNL     1      -9.474   5.451  73.899  1.00  0.00    -0.138 C  
HETATM   26  C   UNL     1     -10.372   6.625  74.329  1.00  0.00    -0.282 C  
HETATM   27  C   UNL     1     -10.372   4.199  74.053  1.00  0.00    -0.259 C  
ENDBRANCH   4  25
ENDBRANCH   2   4
TORSDOF 8
ENDMDL
MODEL      164
REMARK 921   NORMALIZED FREE ENERGY PREDICTED BY IDOCK:   -3.69 KCAL/MOL
REMARK 922        TOTAL FREE ENERGY PREDICTED BY IDOCK:   -7.12 KCAL/MOL
REMARK 923 INTER-LIGAND FREE ENERGY PREDICTED BY IDOCK:   -6.01 KCAL/MOL
REMARK 924 INTRA-LIGAND FREE ENERGY PREDICTED BY IDOCK:   -1.12 KCAL/MOL
REMARK 927      BINDING AFFINITY PREDICTED BY RF-SCORE:    0.00 PKD
ROOT
HETATM    1  C   UNL     1     -11.240   6.313  68.443  1.00  0.00    -0.272 C  
HETATM    2  C   UNL     1     -10.987   6.705  69.920  1.00  0.00    -0.319 C  
HETATM    3  C   UNL     1     -10.396   5.448  70.580  1.00  0.00    -0.344 C  
ENDROOT
BRANCH   2   4
HETATM    4  N   UNL     1     -10.175   7.964  70.029  1.00  0.00    -0.203 NA 
BRANCH   4   5
HETATM    5  C   UNL     1     -10.197   8.728  68.734  1.00  0.00    -0.206 C  
BRANCH   5   6
HETATM    6  C   UNL     1      -9.793  10.210  68.866  1.00  0.00    -0.194 C  
BRANCH   6   7
HETATM    7  C   UNL     1      -9.344  10.976  67.570  1.00  0.00    -0.167 C  
BRANCH   7   8
HETATM    8  C   UNL     1     -10.508  11.918  67.146  1.00  0.00    -0.249 A  
HETATM    9  C   UNL     1     -11.137  12.787  68.058  1.00  0.00    -0.284 A  
HETATM   10  C   UNL     1     -12.141  13.671  67.649  1.00  0.00    -0.328 A  
HETATM   11  C   UNL     1     -10.919  11.999  65.798  1.00  0.00    -0.351 A  
HETATM   12  C   UNL     1     -12.542  13.711  66.318  1.00  0.00    -0.346 A  
HETATM   13  C   UNL     1     -11.933  12.873  65.393  1.00  0.00    -0.470 A  
ENDBRANCH   7   8
BRANCH   7  14
HETATM   14  C   UNL     1      -8.911   9.948  66.472  1.00  0.00    -0.146 C  
HETATM   15  N   UNL     1      -7.565   9.718  66.340  1.00  0.00    -0.098 N  
HETATM   16  H1  UNL     1      -7.283   9.049  65.624  1.00  0.00     0.000 HD 
HETATM   17  O   UNL     1      -9.673   9.369  65.701  1.00  0.00    -0.278 OA 
HETATM   18  H2  UNL     1      -6.880  10.193  66.929  1.00  0.00     0.000 HD 
ENDBRANCH   7  14
BRANCH   7  19
HETATM   19  C   UNL     1      -8.049  11.780  67.914  1.00  0.00    -0.144 A  
HETATM   20  C   UNL     1      -5.794  13.193  68.665  1.00  0.00    -0.074 A  
HETATM   21  N   UNL     1      -7.226  11.277  68.878  1.00  0.00    -0.104 NA 
HETATM   22  C   UNL     1      -6.610  13.696  67.662  1.00  0.00    -0.176 A  
HETATM   23  C   UNL     1      -6.135  11.986  69.235  1.00  0.00    -0.088 A  
HETATM   24  C   UNL     1      -7.749  12.983  67.271  1.00  0.00    -0.112 A  
ENDBRANCH   7  19
ENDBRANCH   6   7
ENDBRANCH   5   6
ENDBRANCH   4   5
BRANCH   4  25
HETATM   25  C   UNL     1     -10.462   8.856  71.201  1.00  0.00    -0.266 C  
HETATM   26  C   UNL     1     -11.914   8.872  71.711  1.00  0.00    -0.429 C  
HETATM   27  C   UNL     1      -9.619   8.475  72.441  1.00  0.00    -0.356 C  
ENDBRANCH   4  25
ENDBRANCH   2   4
TORSDOF 8
ENDMDL
MODEL      165
REMARK 921   NORMALIZED FREE ENERGY PREDICTED BY IDOCK:   -3.69 KCAL/MOL
REMARK 922        TOTAL FREE ENERGY PREDICTED BY IDOCK:   -7.12 KCAL/MOL
REMARK 923 INTER-LIGAND FREE ENERGY PREDICTED BY IDOCK:   -5.49 KCAL/MOL
REMARK 924 INTRA-LIGAND FREE ENERGY PREDICTED BY IDOCK:   -1.63 KCAL/MOL
REMARK 927      BINDING AFFINITY PREDICTED BY RF-SCORE:    0.00 PKD
ROOT
HETATM    1  C   UNL     1     -10.311  11.083  63.707  1.00  0.00    -0.427 C  
HETATM    2  C   UNL     1     -11.300  12.197  64.132  1.00  0.00    -0.380 C  
HETATM    3  C   UNL     1     -12.618  11.868  63.412  1.00  0.00    -0.555 C  
ENDROOT
BRANCH   2   4
HETATM    4  N   UNL     1     -11.369  12.336  65.626  1.00  0.00    -0.337 NA 
BRANCH   4   5
HETATM    5  C   UNL     1     -10.762  11.138  66.304  1.00  0.00    -0.240 C  
BRANCH   5   6
HETATM    6  C   UNL     1     -10.107  11.444  67.666  1.00  0.00    -0.200 C  
BRANCH   6   7
HETATM    7  C   UNL     1      -8.857  10.598  68.096  1.00  0.00    -0.134 C  
BRANCH   7   8
HETATM    8  C   UNL     1      -8.321   9.864  66.832  1.00  0.00    -0.124 A  
HETATM    9  C   UNL     1      -8.866   8.646  66.386  1.00  0.00    -0.167 A  
HETATM   10  C   UNL     1      -8.414   8.029  65.215  1.00  0.00    -0.133 A  
HETATM   11  C   UNL     1      -7.315  10.447  66.030  1.00  0.00    -0.134 A  
HETATM   12  C   UNL     1      -7.404   8.614  64.458  1.00  0.00    -0.099 A  
HETATM   13  C   UNL     1      -6.853   9.822  64.867  1.00  0.00    -0.117 A  
ENDBRANCH   7   8
BRANCH   7  14
HETATM   14  C   UNL     1      -9.242   9.649  69.279  1.00  0.00    -0.183 C  
HETATM   15  N   UNL     1      -8.361   8.636  69.568  1.00  0.00    -0.115 N  
HETATM   16  H1  UNL     1      -8.612   8.018  70.339  1.00  0.00     0.000 HD 
HETATM   17  O   UNL     1     -10.278   9.715  69.935  1.00  0.00    -0.212 OA 
HETATM   18  H2  UNL     1      -7.499   8.509  69.038  1.00  0.00     0.000 HD 
ENDBRANCH   7  14
BRANCH   7  19
HETATM   19  C   UNL     1      -7.793  11.580  68.685  1.00  0.00    -0.137 A  
HETATM   20  C   UNL     1      -5.940  13.262  69.861  1.00  0.00    -0.136 A  
HETATM   21  N   UNL     1      -6.844  11.063  69.517  1.00  0.00    -0.123 NA 
HETATM   22  C   UNL     1      -6.883  13.789  68.991  1.00  0.00    -0.111 A  
HETATM   23  C   UNL     1      -5.954  11.902  70.087  1.00  0.00    -0.159 A  
HETATM   24  C   UNL     1      -7.820  12.944  68.386  1.00  0.00    -0.133 A  
ENDBRANCH   7  19
ENDBRANCH   6   7
ENDBRANCH   5   6
ENDBRANCH   4   5
BRANCH   4  25
HETATM   25  C   UNL     1     -10.856  13.619  66.211  1.00  0.00    -0.282 C  
HETATM   26  C   UNL     1     -10.166  14.590  65.237  1.00  0.00    -0.431 C  
HETATM   27  C   UNL     1     -11.987  14.455  66.857  1.00  0.00    -0.425 C  
ENDBRANCH   4  25
ENDBRANCH   2   4
TORSDOF 8
ENDMDL
MODEL      166
REMARK 921   NORMALIZED FREE ENERGY PREDICTED BY IDOCK:   -3.68 KCAL/MOL
REMARK 922        TOTAL FREE ENERGY PREDICTED BY IDOCK:   -7.11 KCAL/MOL
REMARK 923 INTER-LIGAND FREE ENERGY PREDICTED BY IDOCK:   -6.19 KCAL/MOL
REMARK 924 INTRA-LIGAND FREE ENERGY PREDICTED BY IDOCK:   -0.92 KCAL/MOL
REMARK 927      BINDING AFFINITY PREDICTED BY RF-SCORE:    0.00 PKD
ROOT
HETATM    1  C   UNL     1      -6.277  16.762  69.161  1.00  0.00    -0.188 C  
HETATM    2  C   UNL     1      -5.819  15.311  69.447  1.00  0.00    -0.103 C  
HETATM    3  C   UNL     1      -5.131  15.364  70.821  1.00  0.00    -0.145 C  
ENDROOT
BRANCH   2   4
HETATM    4  N   UNL     1      -6.949  14.332  69.301  1.00  0.00    -0.122 NA 
BRANCH   4   5
HETATM    5  C   UNL     1      -8.091  14.945  68.536  1.00  0.00    -0.147 C  
BRANCH   5   6
HETATM    6  C   UNL     1      -9.413  15.024  69.326  1.00  0.00    -0.171 C  
BRANCH   6   7
HETATM    7  C   UNL     1     -10.722  15.400  68.546  1.00  0.00    -0.256 C  
BRANCH   7   8
HETATM    8  C   UNL     1     -10.572  16.866  68.043  1.00  0.00    -0.367 A  
HETATM    9  C   UNL     1     -10.269  17.929  68.914  1.00  0.00    -0.331 A  
HETATM   10  C   UNL     1     -10.078  19.230  68.438  1.00  0.00    -0.518 A  
HETATM   11  C   UNL     1     -10.651  17.169  66.666  1.00  0.00    -0.179 A  
HETATM   12  C   UNL     1     -10.185  19.503  67.079  1.00  0.00    -0.540 A  
HETATM   13  C   UNL     1     -10.475  18.473  66.193  1.00  0.00    -0.447 A  
ENDBRANCH   7   8
BRANCH   7  14
HETATM   14  C   UNL     1     -11.970  15.155  69.458  1.00  0.00    -0.321 C  
HETATM   15  N   UNL     1     -11.953  14.022  70.233  1.00  0.00    -0.325 N  
HETATM   16  H1  UNL     1     -12.767  13.862  70.827  1.00  0.00     0.000 HD 
HETATM   17  O   UNL     1     -12.969  15.868  69.503  1.00  0.00     0.197 OA 
HETATM   18  H2  UNL     1     -11.167  13.374  70.216  1.00  0.00     0.000 HD 
ENDBRANCH   7  14
BRANCH   7  19
HETATM   19  C   UNL     1     -10.877  14.397  67.358  1.00  0.00    -0.292 A  
HETATM   20  C   UNL     1     -11.229  12.535  65.344  1.00  0.00    -0.343 A  
HETATM   21  N   UNL     1     -12.130  13.943  67.069  1.00  0.00    -0.429 NA 
HETATM   22  C   UNL     1      -9.956  13.017  65.611  1.00  0.00    -0.239 A  
HETATM   23  C   UNL     1     -12.279  13.029  66.088  1.00  0.00    -0.360 A  
HETATM   24  C   UNL     1      -9.770  13.964  66.624  1.00  0.00    -0.295 A  
ENDBRANCH   7  19
ENDBRANCH   6   7
ENDBRANCH   5   6
ENDBRANCH   4   5
BRANCH   4  25
HETATM   25  C   UNL     1      -6.602  12.970  68.776  1.00  0.00    -0.096 C  
HETATM   26  C   UNL     1      -7.752  11.949  68.703  1.00  0.00    -0.113 C  
HETATM   27  C   UNL     1      -6.044  13.029  67.333  1.00  0.00    -0.064 C  
ENDBRANCH   4  25
ENDBRANCH   2   4
TORSDOF 8
ENDMDL
MODEL      167
REMARK 921   NORMALIZED FREE ENERGY PREDICTED BY IDOCK:   -3.68 KCAL/MOL
REMARK 922        TOTAL FREE ENERGY PREDICTED BY IDOCK:   -7.11 KCAL/MOL
REMARK 923 INTER-LIGAND FREE ENERGY PREDICTED BY IDOCK:   -6.35 KCAL/MOL
REMARK 924 INTRA-LIGAND FREE ENERGY PREDICTED BY IDOCK:   -0.76 KCAL/MOL
REMARK 927      BINDING AFFINITY PREDICTED BY RF-SCORE:    0.00 PKD
ROOT
HETATM    1  C   UNL     1     -10.879   7.120  70.878  1.00  0.00    -0.266 C  
HETATM    2  C   UNL     1     -11.091   8.205  71.963  1.00  0.00    -0.306 C  
HETATM    3  C   UNL     1      -9.919   8.035  72.944  1.00  0.00    -0.360 C  
ENDROOT
BRANCH   2   4
HETATM    4  N   UNL     1     -11.266   9.569  71.358  1.00  0.00    -0.375 NA 
BRANCH   4   5
HETATM    5  C   UNL     1     -10.427   9.715  70.118  1.00  0.00    -0.273 C  
BRANCH   5   6
HETATM    6  C   UNL     1     -10.812  10.915  69.230  1.00  0.00    -0.286 C  
BRANCH   6   7
HETATM    7  C   UNL     1     -10.094  11.072  67.843  1.00  0.00    -0.199 C  
BRANCH   7   8
HETATM    8  C   UNL     1      -8.842  11.974  68.054  1.00  0.00    -0.179 A  
HETATM    9  C   UNL     1      -7.725  11.541  68.792  1.00  0.00    -0.124 A  
HETATM   10  C   UNL     1      -6.584  12.338  68.923  1.00  0.00    -0.094 A  
HETATM   11  C   UNL     1      -8.748  13.238  67.432  1.00  0.00    -0.206 A  
HETATM   12  C   UNL     1      -6.528  13.590  68.319  1.00  0.00    -0.104 A  
HETATM   13  C   UNL     1      -7.612  14.040  67.576  1.00  0.00    -0.195 A  
ENDBRANCH   7   8
BRANCH   7  14
HETATM   14  C   UNL     1     -11.107  11.613  66.780  1.00  0.00    -0.309 C  
HETATM   15  N   UNL     1     -10.860  11.284  65.470  1.00  0.00    -0.222 N  
HETATM   16  H1  UNL     1     -11.520  11.637  64.778  1.00  0.00     0.000 HD 
HETATM   17  O   UNL     1     -12.073  12.332  67.020  1.00  0.00    -0.575 OA 
HETATM   18  H2  UNL     1     -10.057  10.716  65.203  1.00  0.00     0.000 HD 
ENDBRANCH   7  14
BRANCH   7  19
HETATM   19  C   UNL     1      -9.697   9.645  67.344  1.00  0.00    -0.156 A  
HETATM   20  C   UNL     1      -9.079   7.064  66.569  1.00  0.00    -0.183 A  
HETATM   21  N   UNL     1     -10.699   8.746  67.130  1.00  0.00    -0.221 NA 
HETATM   22  C   UNL     1      -8.056   7.983  66.755  1.00  0.00    -0.107 A  
HETATM   23  C   UNL     1     -10.375   7.489  66.760  1.00  0.00    -0.262 A  
HETATM   24  C   UNL     1      -8.361   9.293  67.140  1.00  0.00    -0.124 A  
ENDBRANCH   7  19
ENDBRANCH   6   7
ENDBRANCH   5   6
ENDBRANCH   4   5
BRANCH   4  25
HETATM   25  C   UNL     1     -12.674  10.032  71.128  1.00  0.00    -0.387 C  
HETATM   26  C   UNL     1     -13.793   9.062  71.546  1.00  0.00    -0.367 C  
HETATM   27  C   UNL     1     -12.987  11.340  71.896  1.00  0.00    -0.471 C  
ENDBRANCH   4  25
ENDBRANCH   2   4
TORSDOF 8
ENDMDL
MODEL      168
REMARK 921   NORMALIZED FREE ENERGY PREDICTED BY IDOCK:   -3.68 KCAL/MOL
REMARK 922        TOTAL FREE ENERGY PREDICTED BY IDOCK:   -7.10 KCAL/MOL
REMARK 923 INTER-LIGAND FREE ENERGY PREDICTED BY IDOCK:   -5.89 KCAL/MOL
REMARK 924 INTRA-LIGAND FREE ENERGY PREDICTED BY IDOCK:   -1.22 KCAL/MOL
REMARK 927      BINDING AFFINITY PREDICTED BY RF-SCORE:    0.00 PKD
ROOT
HETATM    1  C   UNL     1     -12.797  12.563  64.263  1.00  0.00    -0.350 C  
HETATM    2  C   UNL     1     -11.391  12.081  64.696  1.00  0.00    -0.318 C  
HETATM    3  C   UNL     1     -10.483  12.327  63.480  1.00  0.00    -0.459 C  
ENDROOT
BRANCH   2   4
HETATM    4  N   UNL     1     -10.962  12.712  65.990  1.00  0.00    -0.275 NA 
BRANCH   4   5
HETATM    5  C   UNL     1     -10.430  11.673  66.941  1.00  0.00    -0.227 C  
BRANCH   5   6
HETATM    6  C   UNL     1     -10.478  10.232  66.396  1.00  0.00    -0.233 C  
BRANCH   6   7
HETATM    7  C   UNL     1      -9.160   9.379  66.437  1.00  0.00    -0.199 C  
BRANCH   7   8
HETATM    8  C   UNL     1      -8.347   9.817  67.689  1.00  0.00    -0.114 A  
HETATM    9  C   UNL     1      -8.656   9.354  68.982  1.00  0.00    -0.135 A  
HETATM   10  C   UNL     1      -7.880   9.709  70.090  1.00  0.00    -0.185 A  
HETATM   11  C   UNL     1      -7.204  10.636  67.560  1.00  0.00    -0.090 A  
HETATM   12  C   UNL     1      -6.773  10.537  69.935  1.00  0.00    -0.142 A  
HETATM   13  C   UNL     1      -6.438  11.003  68.670  1.00  0.00    -0.052 A  
ENDBRANCH   7   8
BRANCH   7  14
HETATM   14  C   UNL     1      -8.391   9.527  65.082  1.00  0.00    -0.142 C  
HETATM   15  N   UNL     1      -9.056   9.130  63.949  1.00  0.00    -0.409 N  
HETATM   16  H1  UNL     1      -8.555   9.226  63.067  1.00  0.00     0.000 HD 
HETATM   17  O   UNL     1      -7.237   9.930  64.961  1.00  0.00    -0.121 OA 
HETATM   18  H2  UNL     1     -10.004   8.757  63.988  1.00  0.00     0.000 HD 
ENDBRANCH   7  14
BRANCH   7  19
HETATM   19  C   UNL     1      -9.568   7.871  66.515  1.00  0.00    -0.212 A  
HETATM   20  C   UNL     1     -10.260   5.194  66.510  1.00  0.00    -0.300 A  
HETATM   21  N   UNL     1      -8.714   6.954  65.980  1.00  0.00    -0.144 NA 
HETATM   22  C   UNL     1     -11.120   6.119  67.085  1.00  0.00    -0.335 A  
HETATM   23  C   UNL     1      -9.074   5.653  65.980  1.00  0.00    -0.156 A  
HETATM   24  C   UNL     1     -10.774   7.475  67.098  1.00  0.00    -0.379 A  
ENDBRANCH   7  19
ENDBRANCH   6   7
ENDBRANCH   5   6
ENDBRANCH   4   5
BRANCH   4  25
HETATM   25  C   UNL     1     -10.044  13.894  65.896  1.00  0.00    -0.317 C  
HETATM   26  C   UNL     1     -10.706  15.283  65.937  1.00  0.00    -0.340 C  
HETATM   27  C   UNL     1      -9.013  13.922  67.050  1.00  0.00    -0.251 C  
ENDBRANCH   4  25
ENDBRANCH   2   4
TORSDOF 8
ENDMDL
MODEL      169
REMARK 921   NORMALIZED FREE ENERGY PREDICTED BY IDOCK:   -3.67 KCAL/MOL
REMARK 922        TOTAL FREE ENERGY PREDICTED BY IDOCK:   -7.09 KCAL/MOL
REMARK 923 INTER-LIGAND FREE ENERGY PREDICTED BY IDOCK:   -5.88 KCAL/MOL
REMARK 924 INTRA-LIGAND FREE ENERGY PREDICTED BY IDOCK:   -1.21 KCAL/MOL
REMARK 927      BINDING AFFINITY PREDICTED BY RF-SCORE:    0.00 PKD
ROOT
HETATM    1  C   UNL     1     -12.161   6.920  70.898  1.00  0.00    -0.424 C  
HETATM    2  C   UNL     1     -11.761   8.158  71.738  1.00  0.00    -0.296 C  
HETATM    3  C   UNL     1     -10.989   7.600  72.945  1.00  0.00    -0.456 C  
ENDROOT
BRANCH   2   4
HETATM    4  N   UNL     1     -11.048   9.187  70.906  1.00  0.00    -0.267 NA 
BRANCH   4   5
HETATM    5  C   UNL     1     -10.692   8.628  69.555  1.00  0.00    -0.182 C  
BRANCH   5   6
HETATM    6  C   UNL     1      -9.204   8.254  69.397  1.00  0.00    -0.155 C  
BRANCH   6   7
HETATM    7  C   UNL     1      -8.578   8.296  67.958  1.00  0.00    -0.132 C  
BRANCH   7   8
HETATM    8  C   UNL     1      -9.106   7.060  67.172  1.00  0.00    -0.137 A  
HETATM    9  C   UNL     1      -8.371   6.467  66.128  1.00  0.00    -0.129 A  
HETATM   10  C   UNL     1      -8.831   5.321  65.472  1.00  0.00    -0.153 A  
HETATM   11  C   UNL     1     -10.315   6.431  67.542  1.00  0.00    -0.245 A  
HETATM   12  C   UNL     1     -10.038   4.737  65.841  1.00  0.00    -0.265 A  
HETATM   13  C   UNL     1     -10.781   5.294  66.874  1.00  0.00    -0.208 A  
ENDBRANCH   7   8
BRANCH   7  14
HETATM   14  C   UNL     1      -7.018   8.377  68.061  1.00  0.00    -0.081 C  
HETATM   15  N   UNL     1      -6.488   8.459  69.325  1.00  0.00    -0.038 N  
HETATM   16  H1  UNL     1      -5.472   8.513  69.393  1.00  0.00     0.000 HD 
HETATM   17  O   UNL     1      -6.244   8.413  67.109  1.00  0.00    -0.053 OA 
HETATM   18  H2  UNL     1      -7.081   8.466  70.154  1.00  0.00     0.000 HD 
ENDBRANCH   7  14
BRANCH   7  19
HETATM   19  C   UNL     1      -9.016   9.636  67.283  1.00  0.00    -0.134 A  
HETATM   20  C   UNL     1      -9.830  12.057  66.223  1.00  0.00    -0.250 A  
HETATM   21  N   UNL     1      -8.557  10.800  67.826  1.00  0.00    -0.126 NA 
HETATM   22  C   UNL     1     -10.275  10.876  65.646  1.00  0.00    -0.323 A  
HETATM   23  C   UNL     1      -8.973  11.970  67.299  1.00  0.00    -0.180 A  
HETATM   24  C   UNL     1      -9.862   9.647  66.172  1.00  0.00    -0.334 A  
ENDBRANCH   7  19
ENDBRANCH   6   7
ENDBRANCH   5   6
ENDBRANCH   4   5
BRANCH   4  25
HETATM   25  C   UNL     1     -11.699  10.534  70.791  1.00  0.00    -0.356 C  
HETATM   26  C   UNL     1     -12.066  11.000  69.370  1.00  0.00    -0.389 C  
HETATM   27  C   UNL     1     -13.030  10.604  71.578  1.00  0.00    -0.566 C  
ENDBRANCH   4  25
ENDBRANCH   2   4
TORSDOF 8
ENDMDL
MODEL      170
REMARK 921   NORMALIZED FREE ENERGY PREDICTED BY IDOCK:   -3.67 KCAL/MOL
REMARK 922        TOTAL FREE ENERGY PREDICTED BY IDOCK:   -7.09 KCAL/MOL
REMARK 923 INTER-LIGAND FREE ENERGY PREDICTED BY IDOCK:   -6.11 KCAL/MOL
REMARK 924 INTRA-LIGAND FREE ENERGY PREDICTED BY IDOCK:   -0.98 KCAL/MOL
REMARK 927      BINDING AFFINITY PREDICTED BY RF-SCORE:    0.00 PKD
ROOT
HETATM    1  C   UNL     1     -13.879   7.643  71.471  1.00  0.00    -0.466 C  
HETATM    2  C   UNL     1     -12.939   8.814  71.094  1.00  0.00    -0.095 C  
HETATM    3  C   UNL     1     -13.127   9.862  72.204  1.00  0.00    -0.497 C  
ENDROOT
BRANCH   2   4
HETATM    4  N   UNL     1     -11.534   8.342  70.850  1.00  0.00    -0.276 NA 
BRANCH   4   5
HETATM    5  C   UNL     1     -10.835   9.232  69.858  1.00  0.00    -0.234 C  
BRANCH   5   6
HETATM    6  C   UNL     1     -10.843   8.698  68.412  1.00  0.00     0.003 C  
BRANCH   6   7
HETATM    7  C   UNL     1      -9.886   9.372  67.366  1.00  0.00    -0.222 C  
BRANCH   7   8
HETATM    8  C   UNL     1     -10.540  10.711  66.916  1.00  0.00    -0.311 A  
HETATM    9  C   UNL     1     -10.537  11.131  65.572  1.00  0.00    -0.289 A  
HETATM   10  C   UNL     1     -11.180  12.307  65.174  1.00  0.00    -0.369 A  
HETATM   11  C   UNL     1     -11.242  11.519  67.837  1.00  0.00    -0.344 A  
HETATM   12  C   UNL     1     -11.844  13.095  66.108  1.00  0.00    -0.453 A  
HETATM   13  C   UNL     1     -11.872  12.702  67.440  1.00  0.00    -0.393 A  
ENDBRANCH   7   8
BRANCH   7  14
HETATM   14  C   UNL     1      -9.589   8.373  66.199  1.00  0.00    -0.176 C  
HETATM   15  N   UNL     1     -10.081   7.099  66.338  1.00  0.00    -0.459 N  
HETATM   16  H1  UNL     1      -9.887   6.448  65.577  1.00  0.00     0.000 HD 
HETATM   17  O   UNL     1      -8.925   8.628  65.197  1.00  0.00    -0.164 OA 
HETATM   18  H2  UNL     1     -10.613   6.818  67.161  1.00  0.00     0.000 HD 
ENDBRANCH   7  14
BRANCH   7  19
HETATM   19  C   UNL     1      -8.507   9.611  68.063  1.00  0.00    -0.118 A  
HETATM   20  C   UNL     1      -6.108   9.936  69.399  1.00  0.00    -0.040 A  
HETATM   21  N   UNL     1      -7.766   8.517  68.395  1.00  0.00    -0.099 NA 
HETATM   22  C   UNL     1      -6.843  11.056  69.036  1.00  0.00    -0.084 A  
HETATM   23  C   UNL     1      -6.602   8.697  69.054  1.00  0.00    -0.048 A  
HETATM   24  C   UNL     1      -8.054  10.900  68.353  1.00  0.00    -0.131 A  
ENDBRANCH   7  19
ENDBRANCH   6   7
ENDBRANCH   5   6
ENDBRANCH   4   5
BRANCH   4  25
HETATM   25  C   UNL     1     -10.683   8.092  72.061  1.00  0.00    -0.278 C  
HETATM   26  C   UNL     1     -10.543   6.627  72.511  1.00  0.00    -0.245 C  
HETATM   27  C   UNL     1      -9.227   8.577  71.857  1.00  0.00    -0.326 C  
ENDBRANCH   4  25
ENDBRANCH   2   4
TORSDOF 8
ENDMDL
MODEL      171
REMARK 921   NORMALIZED FREE ENERGY PREDICTED BY IDOCK:   -3.66 KCAL/MOL
REMARK 922        TOTAL FREE ENERGY PREDICTED BY IDOCK:   -7.09 KCAL/MOL
REMARK 923 INTER-LIGAND FREE ENERGY PREDICTED BY IDOCK:   -6.29 KCAL/MOL
REMARK 924 INTRA-LIGAND FREE ENERGY PREDICTED BY IDOCK:   -0.80 KCAL/MOL
REMARK 927      BINDING AFFINITY PREDICTED BY RF-SCORE:    0.00 PKD
ROOT
HETATM    1  C   UNL     1     -12.542  14.315  65.941  1.00  0.00    -0.376 C  
HETATM    2  C   UNL     1     -11.878  14.323  64.542  1.00  0.00    -0.442 C  
HETATM    3  C   UNL     1     -11.520  15.794  64.269  1.00  0.00    -0.203 C  
ENDROOT
BRANCH   2   4
HETATM    4  N   UNL     1     -10.751  13.333  64.456  1.00  0.00    -0.391 NA 
BRANCH   4   5
HETATM    5  C   UNL     1      -9.939  13.336  65.723  1.00  0.00    -0.251 C  
BRANCH   5   6
HETATM    6  C   UNL     1      -9.693  11.937  66.322  1.00  0.00    -0.247 C  
BRANCH   6   7
HETATM    7  C   UNL     1      -8.977  11.842  67.716  1.00  0.00    -0.173 C  
BRANCH   7   8
HETATM    8  C   UNL     1      -8.497  13.271  68.104  1.00  0.00    -0.173 A  
HETATM    9  C   UNL     1      -7.289  13.811  67.623  1.00  0.00    -0.182 A  
HETATM   10  C   UNL     1      -6.900  15.118  67.932  1.00  0.00    -0.171 A  
HETATM   11  C   UNL     1      -9.308  14.118  68.891  1.00  0.00    -0.014 A  
HETATM   12  C   UNL     1      -7.708  15.921  68.730  1.00  0.00    -0.181 A  
HETATM   13  C   UNL     1      -8.910  15.419  69.211  1.00  0.00    -0.258 A  
ENDBRANCH   7   8
BRANCH   7  14
HETATM   14  C   UNL     1      -7.837  10.772  67.654  1.00  0.00    -0.109 C  
HETATM   15  N   UNL     1      -8.098   9.636  66.929  1.00  0.00    -0.112 N  
HETATM   16  H1  UNL     1      -7.355   8.938  66.889  1.00  0.00     0.000 HD 
HETATM   17  O   UNL     1      -6.756  10.851  68.230  1.00  0.00    -0.061 OA 
HETATM   18  H2  UNL     1      -8.989   9.496  66.454  1.00  0.00     0.000 HD 
ENDBRANCH   7  14
BRANCH   7  19
HETATM   19  C   UNL     1     -10.011  11.283  68.747  1.00  0.00    -0.193 A  
HETATM   20  C   UNL     1     -11.791  10.160  70.540  1.00  0.00    -0.408 A  
HETATM   21  N   UNL     1      -9.560  10.401  69.684  1.00  0.00    -0.165 NA 
HETATM   22  C   UNL     1     -12.251  11.080  69.610  1.00  0.00    -0.370 A  
HETATM   23  C   UNL     1     -10.446   9.858  70.544  1.00  0.00    -0.264 A  
HETATM   24  C   UNL     1     -11.355  11.659  68.704  1.00  0.00    -0.326 A  
ENDBRANCH   7  19
ENDBRANCH   6   7
ENDBRANCH   5   6
ENDBRANCH   4   5
BRANCH   4  25
HETATM   25  C   UNL     1     -11.107  11.938  64.034  1.00  0.00    -0.391 C  
HETATM   26  C   UNL     1     -12.474  11.755  63.351  1.00  0.00    -0.490 C  
HETATM   27  C   UNL     1     -10.087  11.361  63.022  1.00  0.00    -0.333 C  
ENDBRANCH   4  25
ENDBRANCH   2   4
TORSDOF 8
ENDMDL
MODEL      172
REMARK 921   NORMALIZED FREE ENERGY PREDICTED BY IDOCK:   -3.66 KCAL/MOL
REMARK 922        TOTAL FREE ENERGY PREDICTED BY IDOCK:   -7.09 KCAL/MOL
REMARK 923 INTER-LIGAND FREE ENERGY PREDICTED BY IDOCK:   -5.99 KCAL/MOL
REMARK 924 INTRA-LIGAND FREE ENERGY PREDICTED BY IDOCK:   -1.10 KCAL/MOL
REMARK 927      BINDING AFFINITY PREDICTED BY RF-SCORE:    0.00 PKD
ROOT
HETATM    1  C   UNL     1     -10.331  13.839  68.307  1.00  0.00    -0.247 C  
HETATM    2  C   UNL     1     -11.714  13.159  68.153  1.00  0.00    -0.355 C  
HETATM    3  C   UNL     1     -12.261  13.650  66.802  1.00  0.00    -0.416 C  
ENDROOT
BRANCH   2   4
HETATM    4  N   UNL     1     -11.624  11.671  68.338  1.00  0.00    -0.293 NA 
BRANCH   4   5
HETATM    5  C   UNL     1     -10.211  11.192  68.148  1.00  0.00    -0.181 C  
BRANCH   5   6
HETATM    6  C   UNL     1      -9.903  10.673  66.729  1.00  0.00    -0.240 C  
BRANCH   6   7
HETATM    7  C   UNL     1      -8.855   9.514  66.574  1.00  0.00    -0.156 C  
BRANCH   7   8
HETATM    8  C   UNL     1      -9.394   8.277  67.350  1.00  0.00    -0.171 A  
HETATM    9  C   UNL     1      -8.892   7.908  68.612  1.00  0.00    -0.134 A  
HETATM   10  C   UNL     1      -9.427   6.830  69.324  1.00  0.00    -0.142 A  
HETATM   11  C   UNL     1     -10.479   7.525  66.848  1.00  0.00    -0.385 A  
HETATM   12  C   UNL     1     -10.480   6.092  68.793  1.00  0.00    -0.295 A  
HETATM   13  C   UNL     1     -11.004   6.438  67.554  1.00  0.00    -0.454 A  
ENDBRANCH   7   8
BRANCH   7  14
HETATM   14  C   UNL     1      -7.446  10.007  67.043  1.00  0.00    -0.092 C  
HETATM   15  N   UNL     1      -6.632   9.074  67.634  1.00  0.00    -0.061 N  
HETATM   16  H1  UNL     1      -5.714   9.395  67.940  1.00  0.00     0.000 HD 
HETATM   17  O   UNL     1      -7.033  11.161  66.959  1.00  0.00    -0.106 OA 
HETATM   18  H2  UNL     1      -6.930   8.107  67.761  1.00  0.00     0.000 HD 
ENDBRANCH   7  14
BRANCH   7  19
HETATM   19  C   UNL     1      -8.698   9.212  65.048  1.00  0.00    -0.189 A  
HETATM   20  C   UNL     1      -8.275   8.678  62.368  1.00  0.00    -0.182 A  
HETATM   21  N   UNL     1      -7.868   8.193  64.685  1.00  0.00    -0.128 NA 
HETATM   22  C   UNL     1      -9.145   9.696  62.731  1.00  0.00    -0.254 A  
HETATM   23  C   UNL     1      -7.669   7.954  63.372  1.00  0.00    -0.140 A  
HETATM   24  C   UNL     1      -9.371   9.968  64.085  1.00  0.00    -0.335 A  
ENDBRANCH   7  19
ENDBRANCH   6   7
ENDBRANCH   5   6
ENDBRANCH   4   5
BRANCH   4  25
HETATM   25  C   UNL     1     -12.234  11.106  69.587  1.00  0.00    -0.290 C  
HETATM   26  C   UNL     1     -11.523   9.890  70.209  1.00  0.00    -0.349 C  
HETATM   27  C   UNL     1     -12.289  12.149  70.729  1.00  0.00    -0.391 C  
ENDBRANCH   4  25
ENDBRANCH   2   4
TORSDOF 8
ENDMDL
MODEL      173
REMARK 921   NORMALIZED FREE ENERGY PREDICTED BY IDOCK:   -3.65 KCAL/MOL
REMARK 922        TOTAL FREE ENERGY PREDICTED BY IDOCK:   -7.07 KCAL/MOL
REMARK 923 INTER-LIGAND FREE ENERGY PREDICTED BY IDOCK:   -5.96 KCAL/MOL
REMARK 924 INTRA-LIGAND FREE ENERGY PREDICTED BY IDOCK:   -1.10 KCAL/MOL
REMARK 927      BINDING AFFINITY PREDICTED BY RF-SCORE:    0.00 PKD
ROOT
HETATM    1  C   UNL     1     -11.018   6.615  67.694  1.00  0.00    -0.392 C  
HETATM    2  C   UNL     1     -10.594   6.954  69.145  1.00  0.00    -0.223 C  
HETATM    3  C   UNL     1     -10.052   5.639  69.729  1.00  0.00    -0.286 C  
ENDROOT
BRANCH   2   4
HETATM    4  N   UNL     1      -9.671   8.138  69.191  1.00  0.00    -0.161 NA 
BRANCH   4   5
HETATM    5  C   UNL     1      -9.703   8.892  67.889  1.00  0.00    -0.160 C  
BRANCH   5   6
HETATM    6  C   UNL     1      -8.806  10.146  67.861  1.00  0.00    -0.125 C  
BRANCH   6   7
HETATM    7  C   UNL     1      -9.470  11.525  67.512  1.00  0.00    -0.173 C  
BRANCH   7   8
HETATM    8  C   UNL     1      -8.420  12.641  67.783  1.00  0.00    -0.172 A  
HETATM    9  C   UNL     1      -7.270  12.414  68.563  1.00  0.00    -0.103 A  
HETATM   10  C   UNL     1      -6.305  13.409  68.748  1.00  0.00    -0.094 A  
HETATM   11  C   UNL     1      -8.540  13.911  67.176  1.00  0.00    -0.217 A  
HETATM   12  C   UNL     1      -6.463  14.658  68.157  1.00  0.00    -0.142 A  
HETATM   13  C   UNL     1      -7.582  14.910  67.374  1.00  0.00    -0.232 A  
ENDBRANCH   7   8
BRANCH   7  14
HETATM   14  C   UNL     1     -10.806  11.687  68.311  1.00  0.00    -0.219 C  
HETATM   15  N   UNL     1     -11.801  10.782  68.038  1.00  0.00    -0.319 N  
HETATM   16  H1  UNL     1     -12.671  10.887  68.558  1.00  0.00     0.000 HD 
HETATM   17  O   UNL     1     -11.043  12.575  69.126  1.00  0.00    -0.243 OA 
HETATM   18  H2  UNL     1     -11.676  10.041  67.349  1.00  0.00     0.000 HD 
ENDBRANCH   7  14
BRANCH   7  19
HETATM   19  C   UNL     1      -9.893  11.486  66.007  1.00  0.00    -0.225 A  
HETATM   20  C   UNL     1     -10.777  11.382  63.389  1.00  0.00    -0.405 A  
HETATM   21  N   UNL     1     -11.017  12.168  65.646  1.00  0.00    -0.285 NA 
HETATM   22  C   UNL     1      -9.615  10.711  63.743  1.00  0.00    -0.354 A  
HETATM   23  C   UNL     1     -11.436  12.098  64.365  1.00  0.00    -0.350 A  
HETATM   24  C   UNL     1      -9.157  10.765  65.065  1.00  0.00    -0.226 A  
ENDBRANCH   7  19
ENDBRANCH   6   7
ENDBRANCH   5   6
ENDBRANCH   4   5
BRANCH   4  25
HETATM   25  C   UNL     1      -9.812   9.061  70.365  1.00  0.00    -0.202 C  
HETATM   26  C   UNL     1     -11.180   9.071  71.071  1.00  0.00    -0.361 C  
HETATM   27  C   UNL     1      -8.799   8.730  71.488  1.00  0.00    -0.295 C  
ENDBRANCH   4  25
ENDBRANCH   2   4
TORSDOF 8
ENDMDL
MODEL      174
REMARK 921   NORMALIZED FREE ENERGY PREDICTED BY IDOCK:   -3.65 KCAL/MOL
REMARK 922        TOTAL FREE ENERGY PREDICTED BY IDOCK:   -7.06 KCAL/MOL
REMARK 923 INTER-LIGAND FREE ENERGY PREDICTED BY IDOCK:   -5.58 KCAL/MOL
REMARK 924 INTRA-LIGAND FREE ENERGY PREDICTED BY IDOCK:   -1.48 KCAL/MOL
REMARK 927      BINDING AFFINITY PREDICTED BY RF-SCORE:    0.00 PKD
ROOT
HETATM    1  C   UNL     1     -11.693  12.175  64.484  1.00  0.00    -0.410 C  
HETATM    2  C   UNL     1     -11.568  13.037  65.764  1.00  0.00    -0.356 C  
HETATM    3  C   UNL     1     -12.709  14.065  65.676  1.00  0.00    -0.515 C  
ENDROOT
BRANCH   2   4
HETATM    4  N   UNL     1     -11.526  12.188  67.003  1.00  0.00    -0.367 NA 
BRANCH   4   5
HETATM    5  C   UNL     1     -10.917  10.844  66.710  1.00  0.00    -0.185 C  
BRANCH   5   6
HETATM    6  C   UNL     1     -10.699   9.961  67.955  1.00  0.00    -0.296 C  
BRANCH   6   7
HETATM    7  C   UNL     1      -9.452   9.007  67.980  1.00  0.00    -0.157 C  
BRANCH   7   8
HETATM    8  C   UNL     1      -8.246   9.784  67.376  1.00  0.00    -0.114 A  
HETATM    9  C   UNL     1      -7.837   9.608  66.041  1.00  0.00    -0.102 A  
HETATM   10  C   UNL     1      -6.790  10.356  65.494  1.00  0.00    -0.125 A  
HETATM   11  C   UNL     1      -7.567  10.766  68.129  1.00  0.00    -0.093 A  
HETATM   12  C   UNL     1      -6.123  11.300  66.268  1.00  0.00    -0.084 A  
HETATM   13  C   UNL     1      -6.510  11.503  67.586  1.00  0.00    -0.067 A  
ENDBRANCH   7   8
BRANCH   7  14
HETATM   14  C   UNL     1      -9.794   7.670  67.244  1.00  0.00    -0.186 C  
HETATM   15  N   UNL     1      -8.746   6.820  66.992  1.00  0.00    -0.113 N  
HETATM   16  H1  UNL     1      -8.969   5.948  66.512  1.00  0.00     0.000 HD 
HETATM   17  O   UNL     1     -10.909   7.343  66.844  1.00  0.00    -0.357 OA 
HETATM   18  H2  UNL     1      -7.793   7.049  67.271  1.00  0.00     0.000 HD 
ENDBRANCH   7  14
BRANCH   7  19
HETATM   19  C   UNL     1      -9.189   8.603  69.467  1.00  0.00    -0.150 A  
HETATM   20  C   UNL     1      -8.732   7.747  72.056  1.00  0.00    -0.162 A  
HETATM   21  N   UNL     1      -8.224   7.671  69.710  1.00  0.00    -0.129 NA 
HETATM   22  C   UNL     1      -9.694   8.719  71.820  1.00  0.00    -0.380 A  
HETATM   23  C   UNL     1      -8.022   7.261  70.980  1.00  0.00    -0.098 A  
HETATM   24  C   UNL     1      -9.926   9.163  70.513  1.00  0.00    -0.288 A  
ENDBRANCH   7  19
ENDBRANCH   6   7
ENDBRANCH   5   6
ENDBRANCH   4   5
BRANCH   4  25
HETATM   25  C   UNL     1     -10.925  12.809  68.230  1.00  0.00    -0.252 C  
HETATM   26  C   UNL     1      -9.950  13.978  68.000  1.00  0.00    -0.235 C  
HETATM   27  C   UNL     1     -12.006  13.386  69.177  1.00  0.00    -0.363 C  
ENDBRANCH   4  25
ENDBRANCH   2   4
TORSDOF 8
ENDMDL
MODEL      175
REMARK 921   NORMALIZED FREE ENERGY PREDICTED BY IDOCK:   -3.65 KCAL/MOL
REMARK 922        TOTAL FREE ENERGY PREDICTED BY IDOCK:   -7.06 KCAL/MOL
REMARK 923 INTER-LIGAND FREE ENERGY PREDICTED BY IDOCK:   -6.18 KCAL/MOL
REMARK 924 INTRA-LIGAND FREE ENERGY PREDICTED BY IDOCK:   -0.88 KCAL/MOL
REMARK 927      BINDING AFFINITY PREDICTED BY RF-SCORE:    0.00 PKD
ROOT
HETATM    1  C   UNL     1      -9.817  12.392  68.653  1.00  0.00    -0.086 C  
HETATM    2  C   UNL     1     -11.351  12.485  68.846  1.00  0.00    -0.297 C  
HETATM    3  C   UNL     1     -11.923  12.752  67.444  1.00  0.00    -0.335 C  
ENDROOT
BRANCH   2   4
HETATM    4  N   UNL     1     -11.893  11.286  69.572  1.00  0.00    -0.326 NA 
BRANCH   4   5
HETATM    5  C   UNL     1     -11.028  10.079  69.331  1.00  0.00    -0.244 C  
BRANCH   5   6
HETATM    6  C   UNL     1     -10.459   9.440  70.613  1.00  0.00    -0.354 C  
BRANCH   6   7
HETATM    7  C   UNL     1     -10.408   7.873  70.703  1.00  0.00    -0.205 C  
BRANCH   7   8
HETATM    8  C   UNL     1     -10.125   7.324  69.274  1.00  0.00    -0.183 A  
HETATM    9  C   UNL     1     -11.082   6.582  68.555  1.00  0.00    -0.347 A  
HETATM   10  C   UNL     1     -10.836   6.146  67.249  1.00  0.00    -0.438 A  
HETATM   11  C   UNL     1      -8.918   7.627  68.607  1.00  0.00    -0.133 A  
HETATM   12  C   UNL     1      -9.628   6.440  66.626  1.00  0.00    -0.194 A  
HETATM   13  C   UNL     1      -8.668   7.178  67.307  1.00  0.00    -0.120 A  
ENDBRANCH   7   8
BRANCH   7  14
HETATM   14  C   UNL     1     -11.726   7.336  71.353  1.00  0.00    -0.287 C  
HETATM   15  N   UNL     1     -11.701   7.121  72.708  1.00  0.00    -0.534 N  
HETATM   16  H1  UNL     1     -12.559   6.771  73.132  1.00  0.00     0.000 HD 
HETATM   17  O   UNL     1     -12.756   7.059  70.745  1.00  0.00    -0.282 OA 
HETATM   18  H2  UNL     1     -10.865   7.302  73.263  1.00  0.00     0.000 HD 
ENDBRANCH   7  14
BRANCH   7  19
HETATM   19  C   UNL     1      -9.269   7.488  71.702  1.00  0.00    -0.134 A  
HETATM   20  C   UNL     1      -7.350   6.716  73.538  1.00  0.00    -0.080 A  
HETATM   21  N   UNL     1      -9.047   6.162  71.930  1.00  0.00    -0.141 NA 
HETATM   22  C   UNL     1      -7.549   8.066  73.287  1.00  0.00    -0.193 A  
HETATM   23  C   UNL     1      -8.112   5.807  72.836  1.00  0.00    -0.115 A  
HETATM   24  C   UNL     1      -8.513   8.465  72.354  1.00  0.00    -0.238 A  
ENDBRANCH   7  19
ENDBRANCH   6   7
ENDBRANCH   5   6
ENDBRANCH   4   5
BRANCH   4  25
HETATM   25  C   UNL     1     -12.201  11.460  71.030  1.00  0.00    -0.285 C  
HETATM   26  C   UNL     1     -12.560  12.884  71.491  1.00  0.00    -0.269 C  
HETATM   27  C   UNL     1     -13.403  10.593  71.477  1.00  0.00    -0.359 C  
ENDBRANCH   4  25
ENDBRANCH   2   4
TORSDOF 8
ENDMDL
MODEL      176
REMARK 921   NORMALIZED FREE ENERGY PREDICTED BY IDOCK:   -3.64 KCAL/MOL
REMARK 922        TOTAL FREE ENERGY PREDICTED BY IDOCK:   -7.05 KCAL/MOL
REMARK 923 INTER-LIGAND FREE ENERGY PREDICTED BY IDOCK:   -6.38 KCAL/MOL
REMARK 924 INTRA-LIGAND FREE ENERGY PREDICTED BY IDOCK:   -0.67 KCAL/MOL
REMARK 927      BINDING AFFINITY PREDICTED BY RF-SCORE:    0.00 PKD
ROOT
HETATM    1  C   UNL     1      -9.701   9.411  65.358  1.00  0.00    -0.248 C  
HETATM    2  C   UNL     1      -9.674  10.717  64.526  1.00  0.00    -0.309 C  
HETATM    3  C   UNL     1      -9.634  10.264  63.057  1.00  0.00    -0.297 C  
ENDROOT
BRANCH   2   4
HETATM    4  N   UNL     1     -10.793  11.643  64.910  1.00  0.00    -0.303 NA 
BRANCH   4   5
HETATM    5  C   UNL     1     -10.323  12.663  65.911  1.00  0.00    -0.276 C  
BRANCH   5   6
HETATM    6  C   UNL     1     -10.805  12.405  67.353  1.00  0.00    -0.273 C  
BRANCH   6   7
HETATM    7  C   UNL     1     -10.717  13.583  68.387  1.00  0.00    -0.273 C  
BRANCH   7   8
HETATM    8  C   UNL     1     -11.577  13.195  69.626  1.00  0.00    -0.321 A  
HETATM    9  C   UNL     1     -12.073  11.892  69.813  1.00  0.00    -0.321 A  
HETATM   10  C   UNL     1     -12.794  11.543  70.960  1.00  0.00    -0.358 A  
HETATM   11  C   UNL     1     -11.818  14.126  70.659  1.00  0.00    -0.333 A  
HETATM   12  C   UNL     1     -13.036  12.488  71.951  1.00  0.00    -0.473 A  
HETATM   13  C   UNL     1     -12.551  13.781  71.798  1.00  0.00    -0.319 A  
ENDBRANCH   7   8
BRANCH   7  14
HETATM   14  C   UNL     1     -11.141  14.924  67.700  1.00  0.00    -0.311 C  
HETATM   15  N   UNL     1     -12.488  15.182  67.632  1.00  0.00    -0.016 N  
HETATM   16  H1  UNL     1     -12.764  16.055  67.184  1.00  0.00     0.000 HD 
HETATM   17  O   UNL     1     -10.373  15.734  67.189  1.00  0.00    -0.278 OA 
HETATM   18  H2  UNL     1     -13.177  14.533  68.011  1.00  0.00     0.000 HD 
ENDBRANCH   7  14
BRANCH   7  19
HETATM   19  C   UNL     1      -9.213  13.774  68.768  1.00  0.00     0.018 A  
HETATM   20  C   UNL     1      -6.558  14.245  69.382  1.00  0.00    -0.132 A  
HETATM   21  N   UNL     1      -8.863  14.922  69.415  1.00  0.00    -0.104 NA 
HETATM   22  C   UNL     1      -6.912  13.060  68.753  1.00  0.00    -0.103 A  
HETATM   23  C   UNL     1      -7.561  15.136  69.698  1.00  0.00    -0.163 A  
HETATM   24  C   UNL     1      -8.254  12.811  68.445  1.00  0.00    -0.128 A  
ENDBRANCH   7  19
ENDBRANCH   6   7
ENDBRANCH   5   6
ENDBRANCH   4   5
BRANCH   4  25
HETATM   25  C   UNL     1     -11.557  12.283  63.789  1.00  0.00    -0.471 C  
HETATM   26  C   UNL     1     -13.012  11.817  63.596  1.00  0.00    -0.222 C  
HETATM   27  C   UNL     1     -11.661  13.818  63.960  1.00  0.00    -0.364 C  
ENDBRANCH   4  25
ENDBRANCH   2   4
TORSDOF 8
ENDMDL
MODEL      177
REMARK 921   NORMALIZED FREE ENERGY PREDICTED BY IDOCK:   -3.63 KCAL/MOL
REMARK 922        TOTAL FREE ENERGY PREDICTED BY IDOCK:   -7.04 KCAL/MOL
REMARK 923 INTER-LIGAND FREE ENERGY PREDICTED BY IDOCK:   -5.40 KCAL/MOL
REMARK 924 INTRA-LIGAND FREE ENERGY PREDICTED BY IDOCK:   -1.64 KCAL/MOL
REMARK 927      BINDING AFFINITY PREDICTED BY RF-SCORE:    0.00 PKD
ROOT
HETATM    1  C   UNL     1     -12.834   8.331  71.824  1.00  0.00    -0.362 C  
HETATM    2  C   UNL     1     -11.476   7.936  71.194  1.00  0.00    -0.273 C  
HETATM    3  C   UNL     1     -10.406   8.525  72.128  1.00  0.00    -0.409 C  
ENDROOT
BRANCH   2   4
HETATM    4  N   UNL     1     -11.395   6.459  70.931  1.00  0.00    -0.322 NA 
BRANCH   4   5
HETATM    5  C   UNL     1     -11.177   6.188  69.467  1.00  0.00    -0.411 C  
BRANCH   5   6
HETATM    6  C   UNL     1     -10.832   7.439  68.635  1.00  0.00    -0.073 C  
BRANCH   6   7
HETATM    7  C   UNL     1      -9.608   7.365  67.655  1.00  0.00    -0.164 C  
BRANCH   7   8
HETATM    8  C   UNL     1      -9.424   8.772  67.015  1.00  0.00    -0.218 A  
HETATM    9  C   UNL     1     -10.511   9.632  66.774  1.00  0.00    -0.257 A  
HETATM   10  C   UNL     1     -10.324  10.917  66.254  1.00  0.00    -0.306 A  
HETATM   11  C   UNL     1      -8.135   9.275  66.732  1.00  0.00    -0.112 A  
HETATM   12  C   UNL     1      -9.044  11.376  65.962  1.00  0.00    -0.218 A  
HETATM   13  C   UNL     1      -7.950  10.554  66.198  1.00  0.00    -0.147 A  
ENDBRANCH   7   8
BRANCH   7  14
HETATM   14  C   UNL     1      -9.827   6.209  66.622  1.00  0.00    -0.159 C  
HETATM   15  N   UNL     1      -8.966   6.167  65.554  1.00  0.00    -0.339 N  
HETATM   16  H1  UNL     1      -9.108   5.414  64.881  1.00  0.00     0.000 HD 
HETATM   17  O   UNL     1     -10.723   5.371  66.673  1.00  0.00    -0.295 OA 
HETATM   18  H2  UNL     1      -8.222   6.854  65.439  1.00  0.00     0.000 HD 
ENDBRANCH   7  14
BRANCH   7  19
HETATM   19  C   UNL     1      -8.353   6.942  68.486  1.00  0.00    -0.121 A  
HETATM   20  C   UNL     1      -6.187   6.058  69.959  1.00  0.00    -0.027 A  
HETATM   21  N   UNL     1      -7.661   5.842  68.075  1.00  0.00    -0.095 NA 
HETATM   22  C   UNL     1      -6.868   7.197  70.365  1.00  0.00    -0.057 A  
HETATM   23  C   UNL     1      -6.612   5.422  68.813  1.00  0.00    -0.051 A  
HETATM   24  C   UNL     1      -7.961   7.655  69.621  1.00  0.00    -0.124 A  
ENDBRANCH   7  19
ENDBRANCH   6   7
ENDBRANCH   5   6
ENDBRANCH   4   5
BRANCH   4  25
HETATM   25  C   UNL     1     -10.448   5.669  71.785  1.00  0.00    -0.228 C  
HETATM   26  C   UNL     1     -11.012   5.115  73.106  1.00  0.00    -0.368 C  
HETATM   27  C   UNL     1      -9.899   4.425  71.045  1.00  0.00    -0.260 C  
ENDBRANCH   4  25
ENDBRANCH   2   4
TORSDOF 8
ENDMDL
MODEL      178
REMARK 921   NORMALIZED FREE ENERGY PREDICTED BY IDOCK:   -3.63 KCAL/MOL
REMARK 922        TOTAL FREE ENERGY PREDICTED BY IDOCK:   -7.03 KCAL/MOL
REMARK 923 INTER-LIGAND FREE ENERGY PREDICTED BY IDOCK:   -5.57 KCAL/MOL
REMARK 924 INTRA-LIGAND FREE ENERGY PREDICTED BY IDOCK:   -1.46 KCAL/MOL
REMARK 927      BINDING AFFINITY PREDICTED BY RF-SCORE:    0.00 PKD
ROOT
HETATM    1  C   UNL     1      -9.278   3.228  70.792  1.00  0.00    -0.208 C  
HETATM    2  C   UNL     1      -8.601   3.743  72.087  1.00  0.00    -0.095 C  
HETATM    3  C   UNL     1      -7.089   3.640  71.825  1.00  0.00    -0.038 C  
ENDROOT
BRANCH   2   4
HETATM    4  N   UNL     1      -9.121   5.096  72.484  1.00  0.00    -0.133 NA 
BRANCH   4   5
HETATM    5  C   UNL     1      -9.591   5.863  71.279  1.00  0.00    -0.168 C  
BRANCH   5   6
HETATM    6  C   UNL     1      -9.161   7.344  71.263  1.00  0.00    -0.153 C  
BRANCH   6   7
HETATM    7  C   UNL     1      -9.748   8.275  70.143  1.00  0.00    -0.176 C  
BRANCH   7   8
HETATM    8  C   UNL     1     -11.007   8.982  70.722  1.00  0.00    -0.315 A  
HETATM    9  C   UNL     1     -11.882   8.339  71.617  1.00  0.00    -0.345 A  
HETATM   10  C   UNL     1     -12.976   9.006  72.176  1.00  0.00    -0.490 A  
HETATM   11  C   UNL     1     -11.272  10.339  70.434  1.00  0.00    -0.407 A  
HETATM   12  C   UNL     1     -13.225  10.336  71.855  1.00  0.00    -0.550 A  
HETATM   13  C   UNL     1     -12.375  11.001  70.982  1.00  0.00    -0.490 A  
ENDBRANCH   7   8
BRANCH   7  14
HETATM   14  C   UNL     1     -10.014   7.440  68.846  1.00  0.00    -0.169 C  
HETATM   15  N   UNL     1      -8.921   7.133  68.075  1.00  0.00    -0.128 N  
HETATM   16  H1  UNL     1      -9.094   6.590  67.230  1.00  0.00     0.000 HD 
HETATM   17  O   UNL     1     -11.118   7.077  68.449  1.00  0.00    -0.117 OA 
HETATM   18  H2  UNL     1      -7.982   7.434  68.335  1.00  0.00     0.000 HD 
ENDBRANCH   7  14
BRANCH   7  19
HETATM   19  C   UNL     1      -8.640   9.305  69.748  1.00  0.00    -0.159 A  
HETATM   20  C   UNL     1      -6.669  11.059  68.921  1.00  0.00    -0.074 A  
HETATM   21  N   UNL     1      -8.752   9.926  68.540  1.00  0.00    -0.119 NA 
HETATM   22  C   UNL     1      -6.565  10.455  70.166  1.00  0.00    -0.146 A  
HETATM   23  C   UNL     1      -7.775  10.772  68.151  1.00  0.00    -0.102 A  
HETATM   24  C   UNL     1      -7.562   9.572  70.595  1.00  0.00    -0.145 A  
ENDBRANCH   7  19
ENDBRANCH   6   7
ENDBRANCH   5   6
ENDBRANCH   4   5
BRANCH   4  25
HETATM   25  C   UNL     1     -10.133   5.133  73.591  1.00  0.00    -0.188 C  
HETATM   26  C   UNL     1     -10.108   6.373  74.503  1.00  0.00    -0.358 C  
HETATM   27  C   UNL     1     -11.584   5.077  73.052  1.00  0.00    -0.299 C  
ENDBRANCH   4  25
ENDBRANCH   2   4
TORSDOF 8
ENDMDL
MODEL      179
REMARK 921   NORMALIZED FREE ENERGY PREDICTED BY IDOCK:   -3.61 KCAL/MOL
REMARK 922        TOTAL FREE ENERGY PREDICTED BY IDOCK:   -7.00 KCAL/MOL
REMARK 923 INTER-LIGAND FREE ENERGY PREDICTED BY IDOCK:   -5.98 KCAL/MOL
REMARK 924 INTRA-LIGAND FREE ENERGY PREDICTED BY IDOCK:   -1.02 KCAL/MOL
REMARK 927      BINDING AFFINITY PREDICTED BY RF-SCORE:    0.00 PKD
ROOT
HETATM    1  C   UNL     1     -11.657  15.371  68.023  1.00  0.00    -0.303 C  
HETATM    2  C   UNL     1     -11.067  14.591  69.223  1.00  0.00    -0.270 C  
HETATM    3  C   UNL     1     -10.668  15.663  70.250  1.00  0.00    -0.354 C  
ENDROOT
BRANCH   2   4
HETATM    4  N   UNL     1     -12.004  13.519  69.704  1.00  0.00    -0.329 NA 
BRANCH   4   5
HETATM    5  C   UNL     1     -11.439  12.152  69.427  1.00  0.00    -0.290 C  
BRANCH   5   6
HETATM    6  C   UNL     1     -10.803  12.000  68.032  1.00  0.00    -0.254 C  
BRANCH   6   7
HETATM    7  C   UNL     1      -9.624  10.977  67.861  1.00  0.00    -0.180 C  
BRANCH   7   8
HETATM    8  C   UNL     1      -8.295  11.786  67.801  1.00  0.00    -0.146 A  
HETATM    9  C   UNL     1      -8.171  13.064  68.378  1.00  0.00    -0.123 A  
HETATM   10  C   UNL     1      -6.955  13.754  68.368  1.00  0.00    -0.103 A  
HETATM   11  C   UNL     1      -7.130  11.224  67.236  1.00  0.00    -0.114 A  
HETATM   12  C   UNL     1      -5.829  13.185  67.783  1.00  0.00    -0.138 A  
HETATM   13  C   UNL     1      -5.918  11.921  67.214  1.00  0.00    -0.134 A  
ENDBRANCH   7   8
BRANCH   7  14
HETATM   14  C   UNL     1      -9.885  10.071  66.612  1.00  0.00    -0.203 C  
HETATM   15  N   UNL     1      -9.495   8.758  66.711  1.00  0.00    -0.175 N  
HETATM   16  H1  UNL     1      -9.665   8.168  65.897  1.00  0.00     0.000 HD 
HETATM   17  O   UNL     1     -10.371  10.449  65.549  1.00  0.00    -0.264 OA 
HETATM   18  H2  UNL     1      -9.057   8.392  67.555  1.00  0.00     0.000 HD 
ENDBRANCH   7  14
BRANCH   7  19
HETATM   19  C   UNL     1      -9.651  10.007  69.086  1.00  0.00    -0.210 A  
HETATM   20  C   UNL     1      -9.829   8.347  71.291  1.00  0.00    -0.255 A  
HETATM   21  N   UNL     1     -10.776   9.262  69.282  1.00  0.00    -0.219 NA 
HETATM   22  C   UNL     1      -8.669   9.077  71.080  1.00  0.00    -0.266 A  
HETATM   23  C   UNL     1     -10.846   8.465  70.368  1.00  0.00    -0.235 A  
HETATM   24  C   UNL     1      -8.567   9.914  69.963  1.00  0.00    -0.196 A  
ENDBRANCH   7  19
ENDBRANCH   6   7
ENDBRANCH   5   6
ENDBRANCH   4   5
BRANCH   4  25
HETATM   25  C   UNL     1     -12.499  13.636  71.115  1.00  0.00    -0.359 C  
HETATM   26  C   UNL     1     -13.717  14.550  71.342  1.00  0.00    -0.448 C  
HETATM   27  C   UNL     1     -12.929  12.266  71.694  1.00  0.00    -0.416 C  
ENDBRANCH   4  25
ENDBRANCH   2   4
TORSDOF 8
ENDMDL
MODEL      180
REMARK 921   NORMALIZED FREE ENERGY PREDICTED BY IDOCK:   -3.60 KCAL/MOL
REMARK 922        TOTAL FREE ENERGY PREDICTED BY IDOCK:   -7.00 KCAL/MOL
REMARK 923 INTER-LIGAND FREE ENERGY PREDICTED BY IDOCK:   -5.31 KCAL/MOL
REMARK 924 INTRA-LIGAND FREE ENERGY PREDICTED BY IDOCK:   -1.68 KCAL/MOL
REMARK 927      BINDING AFFINITY PREDICTED BY RF-SCORE:    0.00 PKD
ROOT
HETATM    1  C   UNL     1     -11.006   6.598  68.099  1.00  0.00    -0.323 C  
HETATM    2  C   UNL     1      -9.749   7.474  67.869  1.00  0.00    -0.146 C  
HETATM    3  C   UNL     1     -10.208   8.920  68.116  1.00  0.00    -0.245 C  
ENDROOT
BRANCH   2   4
HETATM    4  N   UNL     1      -8.581   6.993  68.683  1.00  0.00    -0.121 NA 
BRANCH   4   5
HETATM    5  C   UNL     1      -9.029   6.016  69.735  1.00  0.00    -0.133 C  
BRANCH   5   6
HETATM    6  C   UNL     1      -8.446   6.284  71.137  1.00  0.00    -0.124 C  
BRANCH   6   7
HETATM    7  C   UNL     1      -9.435   6.332  72.356  1.00  0.00    -0.146 C  
BRANCH   7   8
HETATM    8  C   UNL     1     -10.673   7.175  71.931  1.00  0.00    -0.243 A  
HETATM    9  C   UNL     1     -11.966   6.623  71.862  1.00  0.00    -0.386 A  
HETATM   10  C   UNL     1     -13.078   7.406  71.537  1.00  0.00    -0.424 A  
HETATM   11  C   UNL     1     -10.555   8.560  71.682  1.00  0.00    -0.353 A  
HETATM   12  C   UNL     1     -12.927   8.763  71.273  1.00  0.00    -0.229 A  
HETATM   13  C   UNL     1     -11.665   9.339  71.343  1.00  0.00    -0.431 A  
ENDBRANCH   7   8
BRANCH   7  14
HETATM   14  C   UNL     1      -8.690   6.871  73.622  1.00  0.00    -0.138 C  
HETATM   15  N   UNL     1      -9.447   7.561  74.535  1.00  0.00    -0.330 N  
HETATM   16  H1  UNL     1      -8.962   7.913  75.360  1.00  0.00     0.000 HD 
HETATM   17  O   UNL     1      -7.486   6.760  73.839  1.00  0.00    -0.086 OA 
HETATM   18  H2  UNL     1     -10.446   7.714  74.396  1.00  0.00     0.000 HD 
ENDBRANCH   7  14
BRANCH   7  19
HETATM   19  C   UNL     1      -9.834   4.862  72.708  1.00  0.00    -0.157 A  
HETATM   20  C   UNL     1     -10.447   2.269  73.445  1.00  0.00    -0.222 A  
HETATM   21  N   UNL     1     -10.196   4.593  73.994  1.00  0.00    -0.189 NA 
HETATM   22  C   UNL     1     -10.110   2.540  72.127  1.00  0.00    -0.213 A  
HETATM   23  C   UNL     1     -10.484   3.320  74.336  1.00  0.00    -0.191 A  
HETATM   24  C   UNL     1      -9.806   3.851  71.744  1.00  0.00    -0.249 A  
ENDBRANCH   7  19
ENDBRANCH   6   7
ENDBRANCH   5   6
ENDBRANCH   4   5
BRANCH   4  25
HETATM   25  C   UNL     1      -7.392   6.480  67.925  1.00  0.00    -0.093 C  
HETATM   26  C   UNL     1      -7.179   4.956  67.933  1.00  0.00    -0.070 C  
HETATM   27  C   UNL     1      -7.455   6.854  66.424  1.00  0.00    -0.074 C  
ENDBRANCH   4  25
ENDBRANCH   2   4
TORSDOF 8
ENDMDL
MODEL      181
REMARK 921   NORMALIZED FREE ENERGY PREDICTED BY IDOCK:   -3.59 KCAL/MOL
REMARK 922        TOTAL FREE ENERGY PREDICTED BY IDOCK:   -6.98 KCAL/MOL
REMARK 923 INTER-LIGAND FREE ENERGY PREDICTED BY IDOCK:   -5.96 KCAL/MOL
REMARK 924 INTRA-LIGAND FREE ENERGY PREDICTED BY IDOCK:   -1.01 KCAL/MOL
REMARK 927      BINDING AFFINITY PREDICTED BY RF-SCORE:    0.00 PKD
ROOT
HETATM    1  C   UNL     1     -14.339   7.352  71.328  1.00  0.00    -0.408 C  
HETATM    2  C   UNL     1     -13.544   8.644  71.637  1.00  0.00    -0.371 C  
HETATM    3  C   UNL     1     -14.277   9.301  72.818  1.00  0.00     0.002 C  
ENDROOT
BRANCH   2   4
HETATM    4  N   UNL     1     -12.081   8.363  71.831  1.00  0.00    -0.319 NA 
BRANCH   4   5
HETATM    5  C   UNL     1     -11.703   7.046  71.210  1.00  0.00    -0.317 C  
BRANCH   5   6
HETATM    6  C   UNL     1     -11.628   5.873  72.209  1.00  0.00    -0.338 C  
BRANCH   6   7
HETATM    7  C   UNL     1     -10.270   5.096  72.340  1.00  0.00    -0.249 C  
BRANCH   7   8
HETATM    8  C   UNL     1      -9.949   4.459  70.957  1.00  0.00    -0.242 A  
HETATM    9  C   UNL     1     -10.005   5.200  69.761  1.00  0.00    -0.313 A  
HETATM   10  C   UNL     1      -9.657   4.630  68.533  1.00  0.00    -0.220 A  
HETATM   11  C   UNL     1      -9.501   3.124  70.862  1.00  0.00    -0.230 A  
HETATM   12  C   UNL     1      -9.242   3.304  68.466  1.00  0.00    -0.233 A  
HETATM   13  C   UNL     1      -9.167   2.550  69.631  1.00  0.00    -0.195 A  
ENDBRANCH   7   8
BRANCH   7  14
HETATM   14  C   UNL     1     -10.359   4.071  73.519  1.00  0.00    -0.163 C  
HETATM   15  N   UNL     1      -9.286   4.022  74.375  1.00  0.00    -0.105 N  
HETATM   16  H1  UNL     1      -9.344   3.353  75.143  1.00  0.00     0.000 HD 
HETATM   17  O   UNL     1     -11.286   3.289  73.712  1.00  0.00    -0.218 OA 
HETATM   18  H2  UNL     1      -8.473   4.623  74.249  1.00  0.00     0.000 HD 
ENDBRANCH   7  14
BRANCH   7  19
HETATM   19  C   UNL     1      -9.171   6.122  72.769  1.00  0.00    -0.138 A  
HETATM   20  C   UNL     1      -7.330   8.041  73.527  1.00  0.00    -0.181 A  
HETATM   21  N   UNL     1      -9.441   6.936  73.829  1.00  0.00    -0.185 NA 
HETATM   22  C   UNL     1      -7.035   7.195  72.468  1.00  0.00    -0.068 A  
HETATM   23  C   UNL     1      -8.533   7.872  74.178  1.00  0.00    -0.256 A  
HETATM   24  C   UNL     1      -7.958   6.217  72.083  1.00  0.00    -0.109 A  
ENDBRANCH   7  19
ENDBRANCH   6   7
ENDBRANCH   5   6
ENDBRANCH   4   5
BRANCH   4  25
HETATM   25  C   UNL     1     -11.124   9.451  71.439  1.00  0.00    -0.380 C  
HETATM   26  C   UNL     1      -9.889   9.020  70.628  1.00  0.00    -0.284 C  
HETATM   27  C   UNL     1     -11.803  10.534  70.565  1.00  0.00    -0.442 C  
ENDBRANCH   4  25
ENDBRANCH   2   4
TORSDOF 8
ENDMDL
MODEL      182
REMARK 921   NORMALIZED FREE ENERGY PREDICTED BY IDOCK:   -3.57 KCAL/MOL
REMARK 922        TOTAL FREE ENERGY PREDICTED BY IDOCK:   -6.95 KCAL/MOL
REMARK 923 INTER-LIGAND FREE ENERGY PREDICTED BY IDOCK:   -5.53 KCAL/MOL
REMARK 924 INTRA-LIGAND FREE ENERGY PREDICTED BY IDOCK:   -1.42 KCAL/MOL
REMARK 927      BINDING AFFINITY PREDICTED BY RF-SCORE:    0.00 PKD
ROOT
HETATM    1  C   UNL     1      -9.629  13.533  68.125  1.00  0.00    -0.215 C  
HETATM    2  C   UNL     1     -11.169  13.459  67.980  1.00  0.00    -0.268 C  
HETATM    3  C   UNL     1     -11.461  13.860  66.524  1.00  0.00    -0.361 C  
ENDROOT
BRANCH   2   4
HETATM    4  N   UNL     1     -11.705  12.129  68.428  1.00  0.00    -0.318 NA 
BRANCH   4   5
HETATM    5  C   UNL     1     -10.613  11.095  68.459  1.00  0.00    -0.191 C  
BRANCH   5   6
HETATM    6  C   UNL     1     -10.852   9.893  67.523  1.00  0.00    -0.307 C  
BRANCH   6   7
HETATM    7  C   UNL     1      -9.670   9.422  66.603  1.00  0.00    -0.280 C  
BRANCH   7   8
HETATM    8  C   UNL     1      -8.339   9.897  67.255  1.00  0.00    -0.121 A  
HETATM    9  C   UNL     1      -7.541  10.902  66.678  1.00  0.00    -0.139 A  
HETATM   10  C   UNL     1      -6.378  11.361  67.306  1.00  0.00    -0.097 A  
HETATM   11  C   UNL     1      -7.926   9.391  68.507  1.00  0.00    -0.093 A  
HETATM   12  C   UNL     1      -5.983  10.827  68.528  1.00  0.00    -0.043 A  
HETATM   13  C   UNL     1      -6.756   9.840  69.126  1.00  0.00    -0.053 A  
ENDBRANCH   7   8
BRANCH   7  14
HETATM   14  C   UNL     1      -9.897   9.941  65.144  1.00  0.00    -0.278 C  
HETATM   15  N   UNL     1      -9.007   9.510  64.191  1.00  0.00    -0.338 N  
HETATM   16  H1  UNL     1      -9.155   9.848  63.241  1.00  0.00     0.000 HD 
HETATM   17  O   UNL     1     -10.775  10.727  64.798  1.00  0.00    -0.270 OA 
HETATM   18  H2  UNL     1      -8.238   8.882  64.423  1.00  0.00     0.000 HD 
ENDBRANCH   7  14
BRANCH   7  19
HETATM   19  C   UNL     1      -9.736   7.863  66.499  1.00  0.00    -0.209 A  
HETATM   20  C   UNL     1      -9.816   5.119  66.174  1.00  0.00    -0.204 A  
HETATM   21  N   UNL     1      -8.687   7.222  65.910  1.00  0.00    -0.149 NA 
HETATM   22  C   UNL     1     -10.873   5.762  66.803  1.00  0.00    -0.327 A  
HETATM   23  C   UNL     1      -8.750   5.883  65.754  1.00  0.00    -0.151 A  
HETATM   24  C   UNL     1     -10.836   7.149  66.978  1.00  0.00    -0.382 A  
ENDBRANCH   7  19
ENDBRANCH   6   7
ENDBRANCH   5   6
ENDBRANCH   4   5
BRANCH   4  25
HETATM   25  C   UNL     1     -12.512  12.116  69.693  1.00  0.00     0.155 C  
HETATM   26  C   UNL     1     -12.297  10.915  70.632  1.00  0.00    -0.470 C  
HETATM   27  C   UNL     1     -12.227  13.355  70.576  1.00  0.00    -0.425 C  
ENDBRANCH   4  25
ENDBRANCH   2   4
TORSDOF 8
ENDMDL
MODEL      183
REMARK 921   NORMALIZED FREE ENERGY PREDICTED BY IDOCK:   -3.56 KCAL/MOL
REMARK 922        TOTAL FREE ENERGY PREDICTED BY IDOCK:   -6.94 KCAL/MOL
REMARK 923 INTER-LIGAND FREE ENERGY PREDICTED BY IDOCK:   -6.83 KCAL/MOL
REMARK 924 INTRA-LIGAND FREE ENERGY PREDICTED BY IDOCK:   -0.11 KCAL/MOL
REMARK 927      BINDING AFFINITY PREDICTED BY RF-SCORE:    0.00 PKD
ROOT
HETATM    1  C   UNL     1     -12.227  13.494  68.986  1.00  0.00    -0.224 C  
HETATM    2  C   UNL     1     -12.064  12.787  70.354  1.00  0.00    -0.302 C  
HETATM    3  C   UNL     1     -12.842  13.655  71.357  1.00  0.00    -0.442 C  
ENDROOT
BRANCH   2   4
HETATM    4  N   UNL     1     -12.454  11.338  70.279  1.00  0.00    -0.275 NA 
BRANCH   4   5
HETATM    5  C   UNL     1     -11.749  10.652  69.141  1.00  0.00    -0.253 C  
BRANCH   5   6
HETATM    6  C   UNL     1     -10.491  11.390  68.638  1.00  0.00    -0.224 C  
BRANCH   6   7
HETATM    7  C   UNL     1      -9.508  10.618  67.688  1.00  0.00    -0.167 C  
BRANCH   7   8
HETATM    8  C   UNL     1      -9.623   9.100  68.014  1.00  0.00    -0.165 A  
HETATM    9  C   UNL     1     -10.592   8.277  67.410  1.00  0.00    -0.324 A  
HETATM   10  C   UNL     1     -10.645   6.903  67.668  1.00  0.00    -0.328 A  
HETATM   11  C   UNL     1      -8.693   8.472  68.870  1.00  0.00    -0.131 A  
HETATM   12  C   UNL     1      -9.730   6.316  68.535  1.00  0.00    -0.137 A  
HETATM   13  C   UNL     1      -8.756   7.101  69.138  1.00  0.00    -0.133 A  
ENDBRANCH   7   8
BRANCH   7  14
HETATM   14  C   UNL     1      -8.064  11.203  67.833  1.00  0.00    -0.119 C  
HETATM   15  N   UNL     1      -7.862  12.102  68.850  1.00  0.00    -0.327 N  
HETATM   16  H1  UNL     1      -6.921  12.483  68.944  1.00  0.00     0.000 HD 
HETATM   17  O   UNL     1      -7.118  10.951  67.091  1.00  0.00    -0.091 OA 
HETATM   18  H2  UNL     1      -8.616  12.375  69.480  1.00  0.00     0.000 HD 
ENDBRANCH   7  14
BRANCH   7  19
HETATM   19  C   UNL     1      -9.930  10.923  66.214  1.00  0.00    -0.227 A  
HETATM   20  C   UNL     1     -10.532  11.474  63.572  1.00  0.00    -0.486 A  
HETATM   21  N   UNL     1      -9.319  10.216  65.220  1.00  0.00    -0.203 NA 
HETATM   22  C   UNL     1     -11.180  12.175  64.579  1.00  0.00    -0.385 A  
HETATM   23  C   UNL     1      -9.621  10.506  63.937  1.00  0.00    -0.309 A  
HETATM   24  C   UNL     1     -10.886  11.897  65.918  1.00  0.00    -0.342 A  
ENDBRANCH   7  19
ENDBRANCH   6   7
ENDBRANCH   5   6
ENDBRANCH   4   5
BRANCH   4  25
HETATM   25  C   UNL     1     -12.354  10.543  71.548  1.00  0.00    -0.341 C  
HETATM   26  C   UNL     1     -13.619   9.784  71.985  1.00  0.00    -0.436 C  
HETATM   27  C   UNL     1     -11.257   9.454  71.465  1.00  0.00    -0.457 C  
ENDBRANCH   4  25
ENDBRANCH   2   4
TORSDOF 8
ENDMDL
MODEL      184
REMARK 921   NORMALIZED FREE ENERGY PREDICTED BY IDOCK:   -3.56 KCAL/MOL
REMARK 922        TOTAL FREE ENERGY PREDICTED BY IDOCK:   -6.93 KCAL/MOL
REMARK 923 INTER-LIGAND FREE ENERGY PREDICTED BY IDOCK:   -5.56 KCAL/MOL
REMARK 924 INTRA-LIGAND FREE ENERGY PREDICTED BY IDOCK:   -1.37 KCAL/MOL
REMARK 927      BINDING AFFINITY PREDICTED BY RF-SCORE:    0.00 PKD
ROOT
HETATM    1  C   UNL     1      -6.557   8.107  66.337  1.00  0.00    -0.051 C  
HETATM    2  C   UNL     1      -8.064   8.009  65.994  1.00  0.00    -0.110 C  
HETATM    3  C   UNL     1      -8.120   7.512  64.540  1.00  0.00    -0.086 C  
ENDROOT
BRANCH   2   4
HETATM    4  N   UNL     1      -8.813   7.194  67.009  1.00  0.00    -0.121 NA 
BRANCH   4   5
HETATM    5  C   UNL     1      -9.748   8.061  67.807  1.00  0.00    -0.156 C  
BRANCH   5   6
HETATM    6  C   UNL     1      -9.058   8.895  68.905  1.00  0.00    -0.140 C  
BRANCH   6   7
HETATM    7  C   UNL     1      -9.407   8.584  70.403  1.00  0.00    -0.179 C  
BRANCH   7   8
HETATM    8  C   UNL     1     -10.758   9.283  70.733  1.00  0.00    -0.350 A  
HETATM    9  C   UNL     1     -11.690   8.725  71.629  1.00  0.00    -0.402 A  
HETATM   10  C   UNL     1     -12.873   9.393  71.961  1.00  0.00    -0.496 A  
HETATM   11  C   UNL     1     -11.061  10.557  70.207  1.00  0.00    -0.359 A  
HETATM   12  C   UNL     1     -13.156  10.637  71.408  1.00  0.00    -0.499 A  
HETATM   13  C   UNL     1     -12.251  11.217  70.528  1.00  0.00    -0.474 A  
ENDBRANCH   7   8
BRANCH   7  14
HETATM   14  C   UNL     1      -8.216   9.012  71.324  1.00  0.00    -0.110 C  
HETATM   15  N   UNL     1      -8.224   8.524  72.607  1.00  0.00    -0.113 N  
HETATM   16  H1  UNL     1      -7.448   8.803  73.207  1.00  0.00     0.000 HD 
HETATM   17  O   UNL     1      -7.308   9.773  71.003  1.00  0.00    -0.329 OA 
HETATM   18  H2  UNL     1      -8.968   7.913  72.943  1.00  0.00     0.000 HD 
ENDBRANCH   7  14
BRANCH   7  19
HETATM   19  C   UNL     1      -9.510   7.032  70.559  1.00  0.00    -0.166 A  
HETATM   20  C   UNL     1      -9.588   4.273  70.729  1.00  0.00    -0.256 A  
HETATM   21  N   UNL     1      -8.351   6.332  70.725  1.00  0.00    -0.125 NA 
HETATM   22  C   UNL     1     -10.773   4.981  70.592  1.00  0.00    -0.040 A  
HETATM   23  C   UNL     1      -8.410   4.986  70.798  1.00  0.00    -0.107 A  
HETATM   24  C   UNL     1     -10.743   6.377  70.512  1.00  0.00    -0.311 A  
ENDBRANCH   7  19
ENDBRANCH   6   7
ENDBRANCH   5   6
ENDBRANCH   4   5
BRANCH   4  25
HETATM   25  C   UNL     1      -9.499   5.956  66.511  1.00  0.00    -0.155 C  
HETATM   26  C   UNL     1      -9.028   4.620  67.113  1.00  0.00    -0.118 C  
HETATM   27  C   UNL     1     -11.023   5.989  66.783  1.00  0.00    -0.305 C  
ENDBRANCH   4  25
ENDBRANCH   2   4
TORSDOF 8
ENDMDL
MODEL      185
REMARK 921   NORMALIZED FREE ENERGY PREDICTED BY IDOCK:   -3.55 KCAL/MOL
REMARK 922        TOTAL FREE ENERGY PREDICTED BY IDOCK:   -6.92 KCAL/MOL
REMARK 923 INTER-LIGAND FREE ENERGY PREDICTED BY IDOCK:   -5.74 KCAL/MOL
REMARK 924 INTRA-LIGAND FREE ENERGY PREDICTED BY IDOCK:   -1.18 KCAL/MOL
REMARK 927      BINDING AFFINITY PREDICTED BY RF-SCORE:    0.00 PKD
ROOT
HETATM    1  C   UNL     1      -9.986  12.208  68.609  1.00  0.00    -0.137 C  
HETATM    2  C   UNL     1     -11.289  11.393  68.416  1.00  0.00    -0.281 C  
HETATM    3  C   UNL     1     -11.264  10.923  66.952  1.00  0.00    -0.162 C  
ENDROOT
BRANCH   2   4
HETATM    4  N   UNL     1     -11.433  10.322  69.460  1.00  0.00    -0.233 NA 
BRANCH   4   5
HETATM    5  C   UNL     1     -10.110  10.031  70.114  1.00  0.00    -0.211 C  
BRANCH   5   6
HETATM    6  C   UNL     1      -9.134   9.221  69.238  1.00  0.00    -0.151 C  
BRANCH   6   7
HETATM    7  C   UNL     1      -8.851   7.727  69.630  1.00  0.00    -0.139 C  
BRANCH   7   8
HETATM    8  C   UNL     1      -9.480   7.474  71.031  1.00  0.00    -0.162 A  
HETATM    9  C   UNL     1     -10.499   6.525  71.233  1.00  0.00    -0.250 A  
HETATM   10  C   UNL     1     -11.013   6.266  72.507  1.00  0.00    -0.286 A  
HETATM   11  C   UNL     1      -8.983   8.133  72.177  1.00  0.00    -0.246 A  
HETATM   12  C   UNL     1     -10.521   6.949  73.615  1.00  0.00    -0.400 A  
HETATM   13  C   UNL     1      -9.509   7.884  73.448  1.00  0.00    -0.341 A  
ENDBRANCH   7   8
BRANCH   7  14
HETATM   14  C   UNL     1      -7.314   7.441  69.550  1.00  0.00    -0.085 C  
HETATM   15  N   UNL     1      -6.669   7.851  68.410  1.00  0.00    -0.064 N  
HETATM   16  H1  UNL     1      -5.668   7.665  68.358  1.00  0.00     0.000 HD 
HETATM   17  O   UNL     1      -6.656   6.851  70.403  1.00  0.00    -0.049 OA 
HETATM   18  H2  UNL     1      -7.167   8.319  67.653  1.00  0.00     0.000 HD 
ENDBRANCH   7  14
BRANCH   7  19
HETATM   19  C   UNL     1      -9.496   6.814  68.537  1.00  0.00    -0.131 A  
HETATM   20  C   UNL     1     -10.504   5.189  66.540  1.00  0.00    -0.346 A  
HETATM   21  N   UNL     1      -8.877   5.634  68.249  1.00  0.00    -0.109 NA 
HETATM   22  C   UNL     1     -11.157   6.374  66.849  1.00  0.00    -0.346 A  
HETATM   23  C   UNL     1      -9.380   4.859  67.266  1.00  0.00    -0.131 A  
HETATM   24  C   UNL     1     -10.657   7.198  67.863  1.00  0.00    -0.269 A  
ENDBRANCH   7  19
ENDBRANCH   6   7
ENDBRANCH   5   6
ENDBRANCH   4   5
BRANCH   4  25
HETATM   25  C   UNL     1     -12.521  10.509  70.477  1.00  0.00    -0.347 C  
HETATM   26  C   UNL     1     -12.455   9.613  71.726  1.00  0.00    -0.487 C  
HETATM   27  C   UNL     1     -12.550  11.952  71.036  1.00  0.00    -0.381 C  
ENDBRANCH   4  25
ENDBRANCH   2   4
TORSDOF 8
ENDMDL
MODEL      186
REMARK 921   NORMALIZED FREE ENERGY PREDICTED BY IDOCK:   -3.55 KCAL/MOL
REMARK 922        TOTAL FREE ENERGY PREDICTED BY IDOCK:   -6.91 KCAL/MOL
REMARK 923 INTER-LIGAND FREE ENERGY PREDICTED BY IDOCK:   -5.48 KCAL/MOL
REMARK 924 INTRA-LIGAND FREE ENERGY PREDICTED BY IDOCK:   -1.43 KCAL/MOL
REMARK 927      BINDING AFFINITY PREDICTED BY RF-SCORE:    0.00 PKD
ROOT
HETATM    1  C   UNL     1      -9.559   5.155  68.839  1.00  0.00    -0.201 C  
HETATM    2  C   UNL     1     -10.193   5.289  70.245  1.00  0.00    -0.275 C  
HETATM    3  C   UNL     1      -9.783   4.015  71.001  1.00  0.00    -0.252 C  
ENDROOT
BRANCH   2   4
HETATM    4  N   UNL     1      -9.835   6.596  70.893  1.00  0.00    -0.183 NA 
BRANCH   4   5
HETATM    5  C   UNL     1      -8.844   7.356  70.053  1.00  0.00    -0.141 C  
BRANCH   5   6
HETATM    6  C   UNL     1      -8.931   8.888  70.201  1.00  0.00    -0.183 C  
BRANCH   6   7
HETATM    7  C   UNL     1      -9.216   9.743  68.915  1.00  0.00    -0.155 C  
BRANCH   7   8
HETATM    8  C   UNL     1     -10.335  10.768  69.262  1.00  0.00    -0.228 A  
HETATM    9  C   UNL     1     -11.251  10.550  70.308  1.00  0.00    -0.391 A  
HETATM   10  C   UNL     1     -12.213  11.506  70.646  1.00  0.00    -0.473 A  
HETATM   11  C   UNL     1     -10.416  12.007  68.589  1.00  0.00    -0.238 A  
HETATM   12  C   UNL     1     -12.285  12.708  69.949  1.00  0.00    -0.238 A  
HETATM   13  C   UNL     1     -11.388  12.956  68.918  1.00  0.00    -0.335 A  
ENDBRANCH   7   8
BRANCH   7  14
HETATM   14  C   UNL     1      -9.554   8.798  67.715  1.00  0.00    -0.148 C  
HETATM   15  N   UNL     1      -8.496   8.164  67.113  1.00  0.00    -0.123 N  
HETATM   16  H1  UNL     1      -8.717   7.548  66.331  1.00  0.00     0.000 HD 
HETATM   17  O   UNL     1     -10.676   8.614  67.250  1.00  0.00    -0.271 OA 
HETATM   18  H2  UNL     1      -7.538   8.301  67.432  1.00  0.00     0.000 HD 
ENDBRANCH   7  14
BRANCH   7  19
HETATM   19  C   UNL     1      -7.885  10.459  68.513  1.00  0.00    -0.107 A  
HETATM   20  C   UNL     1      -5.531  11.645  67.677  1.00  0.00    -0.060 A  
HETATM   21  N   UNL     1      -7.801  10.983  67.256  1.00  0.00    -0.118 NA 
HETATM   22  C   UNL     1      -5.621  11.143  68.968  1.00  0.00    -0.040 A  
HETATM   23  C   UNL     1      -6.641  11.550  66.866  1.00  0.00    -0.138 A  
HETATM   24  C   UNL     1      -6.811  10.548  69.400  1.00  0.00    -0.088 A  
ENDBRANCH   7  19
ENDBRANCH   6   7
ENDBRANCH   5   6
ENDBRANCH   4   5
BRANCH   4  25
HETATM   25  C   UNL     1     -10.973   7.471  71.329  1.00  0.00    -0.242 C  
HETATM   26  C   UNL     1     -12.390   6.970  70.998  1.00  0.00    -0.402 C  
HETATM   27  C   UNL     1     -10.986   7.686  72.862  1.00  0.00    -0.456 C  
ENDBRANCH   4  25
ENDBRANCH   2   4
TORSDOF 8
ENDMDL
MODEL      187
REMARK 921   NORMALIZED FREE ENERGY PREDICTED BY IDOCK:   -3.51 KCAL/MOL
REMARK 922        TOTAL FREE ENERGY PREDICTED BY IDOCK:   -6.85 KCAL/MOL
REMARK 923 INTER-LIGAND FREE ENERGY PREDICTED BY IDOCK:   -6.93 KCAL/MOL
REMARK 924 INTRA-LIGAND FREE ENERGY PREDICTED BY IDOCK:    0.08 KCAL/MOL
REMARK 927      BINDING AFFINITY PREDICTED BY RF-SCORE:    0.00 PKD
ROOT
HETATM    1  C   UNL     1      -6.536   7.005  65.834  1.00  0.00    -0.052 C  
HETATM    2  C   UNL     1      -7.668   8.059  65.905  1.00  0.00    -0.092 C  
HETATM    3  C   UNL     1      -8.191   8.195  64.466  1.00  0.00    -0.118 C  
ENDROOT
BRANCH   2   4
HETATM    4  N   UNL     1      -8.684   7.713  66.957  1.00  0.00    -0.124 NA 
BRANCH   4   5
HETATM    5  C   UNL     1      -9.170   8.952  67.659  1.00  0.00    -0.136 C  
BRANCH   5   6
HETATM    6  C   UNL     1     -10.155   9.803  66.833  1.00  0.00    -0.287 C  
BRANCH   6   7
HETATM    7  C   UNL     1     -10.301  11.325  67.189  1.00  0.00    -0.244 C  
BRANCH   7   8
HETATM    8  C   UNL     1     -11.017  12.027  65.999  1.00  0.00    -0.346 A  
HETATM    9  C   UNL     1     -11.775  13.201  66.168  1.00  0.00    -0.428 A  
HETATM   10  C   UNL     1     -12.363  13.853  65.080  1.00  0.00    -0.471 A  
HETATM   11  C   UNL     1     -10.856  11.555  64.678  1.00  0.00    -0.372 A  
HETATM   12  C   UNL     1     -12.207  13.351  63.793  1.00  0.00    -0.482 A  
HETATM   13  C   UNL     1     -11.457  12.200  63.592  1.00  0.00    -0.566 A  
ENDBRANCH   7   8
BRANCH   7  14
HETATM   14  C   UNL     1      -8.898  11.923  67.543  1.00  0.00    -0.169 C  
HETATM   15  N   UNL     1      -8.140  12.378  66.494  1.00  0.00    -0.391 N  
HETATM   16  H1  UNL     1      -7.226  12.767  66.725  1.00  0.00     0.000 HD 
HETATM   17  O   UNL     1      -8.414  11.980  68.671  1.00  0.00    -0.121 OA 
HETATM   18  H2  UNL     1      -8.473  12.329  65.532  1.00  0.00     0.000 HD 
ENDBRANCH   7  14
BRANCH   7  19
HETATM   19  C   UNL     1     -11.137  11.431  68.506  1.00  0.00    -0.235 A  
HETATM   20  C   UNL     1     -12.519  11.715  70.884  1.00  0.00    -0.440 A  
HETATM   21  N   UNL     1     -11.458  12.677  68.956  1.00  0.00    -0.284 NA 
HETATM   22  C   UNL     1     -12.223  10.443  70.416  1.00  0.00    -0.389 A  
HETATM   23  C   UNL     1     -12.126  12.795  70.123  1.00  0.00    -0.298 A  
HETATM   24  C   UNL     1     -11.531  10.291  69.210  1.00  0.00    -0.223 A  
ENDBRANCH   7  19
ENDBRANCH   6   7
ENDBRANCH   5   6
ENDBRANCH   4   5
BRANCH   4  25
HETATM   25  C   UNL     1      -9.825   6.837  66.533  1.00  0.00    -0.104 C  
HETATM   26  C   UNL     1      -9.476   5.382  66.169  1.00  0.00    -0.171 C  
HETATM   27  C   UNL     1     -10.902   6.712  67.638  1.00  0.00    -0.393 C  
ENDBRANCH   4  25
ENDBRANCH   2   4
TORSDOF 8
ENDMDL
MODEL      188
REMARK 921   NORMALIZED FREE ENERGY PREDICTED BY IDOCK:   -3.49 KCAL/MOL
REMARK 922        TOTAL FREE ENERGY PREDICTED BY IDOCK:   -6.83 KCAL/MOL
REMARK 923 INTER-LIGAND FREE ENERGY PREDICTED BY IDOCK:   -5.90 KCAL/MOL
REMARK 924 INTRA-LIGAND FREE ENERGY PREDICTED BY IDOCK:   -0.93 KCAL/MOL
REMARK 927      BINDING AFFINITY PREDICTED BY RF-SCORE:    0.00 PKD
ROOT
HETATM    1  C   UNL     1      -8.482  11.364  66.317  1.00  0.00    -0.138 C  
HETATM    2  C   UNL     1      -9.950  11.699  65.953  1.00  0.00    -0.231 C  
HETATM    3  C   UNL     1     -10.326  10.717  64.831  1.00  0.00    -0.347 C  
ENDROOT
BRANCH   2   4
HETATM    4  N   UNL     1     -10.836  11.700  67.166  1.00  0.00    -0.247 NA 
BRANCH   4   5
HETATM    5  C   UNL     1     -10.017  11.623  68.426  1.00  0.00    -0.201 C  
BRANCH   5   6
HETATM    6  C   UNL     1     -10.499  10.557  69.431  1.00  0.00    -0.264 C  
BRANCH   6   7
HETATM    7  C   UNL     1      -9.699   9.209  69.523  1.00  0.00    -0.176 C  
BRANCH   7   8
HETATM    8  C   UNL     1      -8.268   9.538  70.040  1.00  0.00    -0.181 A  
HETATM    9  C   UNL     1      -7.592  10.716  69.671  1.00  0.00    -0.100 A  
HETATM   10  C   UNL     1      -6.331  11.027  70.191  1.00  0.00    -0.147 A  
HETATM   11  C   UNL     1      -7.627   8.699  70.977  1.00  0.00    -0.109 A  
HETATM   12  C   UNL     1      -5.713  10.169  71.094  1.00  0.00    -0.054 A  
HETATM   13  C   UNL     1      -6.360   9.004  71.485  1.00  0.00    -0.079 A  
ENDBRANCH   7   8
BRANCH   7  14
HETATM   14  C   UNL     1      -9.734   8.477  68.140  1.00  0.00    -0.155 C  
HETATM   15  N   UNL     1     -10.953   8.401  67.514  1.00  0.00    -0.466 N  
HETATM   16  H1  UNL     1     -10.975   7.924  66.613  1.00  0.00     0.000 HD 
HETATM   17  O   UNL     1      -8.773   7.937  67.598  1.00  0.00    -0.126 OA 
HETATM   18  H2  UNL     1     -11.793   8.803  67.928  1.00  0.00     0.000 HD 
ENDBRANCH   7  14
BRANCH   7  19
HETATM   19  C   UNL     1     -10.463   8.265  70.508  1.00  0.00    -0.210 A  
HETATM   20  C   UNL     1     -11.753   6.669  72.361  1.00  0.00    -0.260 A  
HETATM   21  N   UNL     1     -11.165   8.843  71.524  1.00  0.00    -0.299 NA 
HETATM   22  C   UNL     1     -11.067   6.076  71.312  1.00  0.00    -0.337 A  
HETATM   23  C   UNL     1     -11.780   8.046  72.422  1.00  0.00    -0.386 A  
HETATM   24  C   UNL     1     -10.418   6.877  70.365  1.00  0.00    -0.229 A  
ENDBRANCH   7  19
ENDBRANCH   6   7
ENDBRANCH   5   6
ENDBRANCH   4   5
BRANCH   4  25
HETATM   25  C   UNL     1     -11.872  12.783  67.248  1.00  0.00    -0.350 C  
HETATM   26  C   UNL     1     -11.737  13.775  68.417  1.00  0.00    -0.393 C  
HETATM   27  C   UNL     1     -11.880  13.673  65.982  1.00  0.00    -0.415 C  
ENDBRANCH   4  25
ENDBRANCH   2   4
TORSDOF 8
ENDMDL
MODEL      189
REMARK 921   NORMALIZED FREE ENERGY PREDICTED BY IDOCK:   -3.48 KCAL/MOL
REMARK 922        TOTAL FREE ENERGY PREDICTED BY IDOCK:   -6.81 KCAL/MOL
REMARK 923 INTER-LIGAND FREE ENERGY PREDICTED BY IDOCK:   -6.57 KCAL/MOL
REMARK 924 INTRA-LIGAND FREE ENERGY PREDICTED BY IDOCK:   -0.24 KCAL/MOL
REMARK 927      BINDING AFFINITY PREDICTED BY RF-SCORE:    0.00 PKD
ROOT
HETATM    1  C   UNL     1     -10.754  15.056  64.925  1.00  0.00    -0.420 C  
HETATM    2  C   UNL     1     -10.878  13.760  65.764  1.00  0.00    -0.277 C  
HETATM    3  C   UNL     1     -12.378  13.611  66.066  1.00  0.00    -0.493 C  
ENDROOT
BRANCH   2   4
HETATM    4  N   UNL     1     -10.212  12.595  65.088  1.00  0.00    -0.290 NA 
BRANCH   4   5
HETATM    5  C   UNL     1      -9.415  11.787  66.076  1.00  0.00    -0.230 C  
BRANCH   5   6
HETATM    6  C   UNL     1     -10.161  10.560  66.639  1.00  0.00    -0.275 C  
BRANCH   6   7
HETATM    7  C   UNL     1      -9.743  10.022  68.053  1.00  0.00    -0.158 C  
BRANCH   7   8
HETATM    8  C   UNL     1     -10.075   8.502  68.101  1.00  0.00    -0.240 A  
HETATM    9  C   UNL     1     -10.644   7.825  67.006  1.00  0.00    -0.396 A  
HETATM   10  C   UNL     1     -10.880   6.447  67.043  1.00  0.00    -0.464 A  
HETATM   11  C   UNL     1      -9.731   7.722  69.227  1.00  0.00    -0.165 A  
HETATM   12  C   UNL     1     -10.554   5.709  68.175  1.00  0.00    -0.256 A  
HETATM   13  C   UNL     1      -9.983   6.347  69.269  1.00  0.00    -0.178 A  
ENDBRANCH   7   8
BRANCH   7  14
HETATM   14  C   UNL     1     -10.438  10.871  69.169  1.00  0.00    -0.221 C  
HETATM   15  N   UNL     1     -10.499  12.227  68.964  1.00  0.00    -0.419 N  
HETATM   16  H1  UNL     1     -10.951  12.780  69.691  1.00  0.00     0.000 HD 
HETATM   17  O   UNL     1     -10.893  10.426  70.220  1.00  0.00    -0.292 OA 
HETATM   18  H2  UNL     1     -10.110  12.659  68.126  1.00  0.00     0.000 HD 
ENDBRANCH   7  14
BRANCH   7  19
HETATM   19  C   UNL     1      -8.212  10.282  68.232  1.00  0.00    -0.115 A  
HETATM   20  C   UNL     1      -5.531  10.888  68.539  1.00  0.00    -0.040 A  
HETATM   21  N   UNL     1      -7.828  11.192  69.172  1.00  0.00    -0.106 NA 
HETATM   22  C   UNL     1      -5.913   9.938  67.602  1.00  0.00    -0.050 A  
HETATM   23  C   UNL     1      -6.516  11.480  69.300  1.00  0.00    -0.103 A  
HETATM   24  C   UNL     1      -7.266   9.620  67.446  1.00  0.00    -0.086 A  
ENDBRANCH   7  19
ENDBRANCH   6   7
ENDBRANCH   5   6
ENDBRANCH   4   5
BRANCH   4  25
HETATM   25  C   UNL     1     -11.081  11.720  64.234  1.00  0.00    -0.355 C  
HETATM   26  C   UNL     1     -12.108  12.436  63.339  1.00  0.00    -0.620 C  
HETATM   27  C   UNL     1     -10.251  10.854  63.256  1.00  0.00    -0.317 C  
ENDBRANCH   4  25
ENDBRANCH   2   4
TORSDOF 8
ENDMDL
MODEL      190
REMARK 921   NORMALIZED FREE ENERGY PREDICTED BY IDOCK:   -3.46 KCAL/MOL
REMARK 922        TOTAL FREE ENERGY PREDICTED BY IDOCK:   -6.78 KCAL/MOL
REMARK 923 INTER-LIGAND FREE ENERGY PREDICTED BY IDOCK:   -5.94 KCAL/MOL
REMARK 924 INTRA-LIGAND FREE ENERGY PREDICTED BY IDOCK:   -0.84 KCAL/MOL
REMARK 927      BINDING AFFINITY PREDICTED BY RF-SCORE:    0.00 PKD
ROOT
HETATM    1  C   UNL     1      -8.179   9.258  66.119  1.00  0.00    -0.111 C  
HETATM    2  C   UNL     1      -9.110  10.480  65.928  1.00  0.00    -0.168 C  
HETATM    3  C   UNL     1      -9.851  10.225  64.605  1.00  0.00    -0.396 C  
ENDROOT
BRANCH   2   4
HETATM    4  N   UNL     1      -9.966  10.721  67.138  1.00  0.00    -0.188 NA 
BRANCH   4   5
HETATM    5  C   UNL     1      -9.374  10.058  68.352  1.00  0.00    -0.138 C  
BRANCH   5   6
HETATM    6  C   UNL     1     -10.329   9.978  69.560  1.00  0.00    -0.256 C  
BRANCH   6   7
HETATM    7  C   UNL     1     -10.584   8.573  70.213  1.00  0.00    -0.238 C  
BRANCH   7   8
HETATM    8  C   UNL     1     -10.344   7.489  69.122  1.00  0.00    -0.215 A  
HETATM    9  C   UNL     1      -9.508   6.379  69.342  1.00  0.00    -0.146 A  
HETATM   10  C   UNL     1      -9.348   5.382  68.373  1.00  0.00    -0.138 A  
HETATM   11  C   UNL     1     -11.033   7.537  67.890  1.00  0.00    -0.027 A  
HETATM   12  C   UNL     1     -10.021   5.469  67.159  1.00  0.00    -0.193 A  
HETATM   13  C   UNL     1     -10.861   6.548  66.917  1.00  0.00    -0.427 A  
ENDBRANCH   7   8
BRANCH   7  14
HETATM   14  C   UNL     1     -12.011   8.538  70.855  1.00  0.00    -0.181 C  
HETATM   15  N   UNL     1     -12.694   7.350  70.774  1.00  0.00    -0.585 N  
HETATM   16  H1  UNL     1     -13.624   7.328  71.191  1.00  0.00     0.000 HD 
HETATM   17  O   UNL     1     -12.575   9.492  71.385  1.00  0.00    -0.320 OA 
HETATM   18  H2  UNL     1     -12.292   6.532  70.318  1.00  0.00     0.000 HD 
ENDBRANCH   7  14
BRANCH   7  19
HETATM   19  C   UNL     1      -9.591   8.414  71.409  1.00  0.00    -0.194 A  
HETATM   20  C   UNL     1      -7.747   8.052  73.438  1.00  0.00    -0.209 A  
HETATM   21  N   UNL     1      -8.273   8.679  71.180  1.00  0.00    -0.139 NA 
HETATM   22  C   UNL     1      -9.090   7.811  73.687  1.00  0.00    -0.345 A  
HETATM   23  C   UNL     1      -7.388   8.488  72.181  1.00  0.00    -0.071 A  
HETATM   24  C   UNL     1     -10.030   7.998  72.668  1.00  0.00    -0.358 A  
ENDBRANCH   7  19
ENDBRANCH   6   7
ENDBRANCH   5   6
ENDBRANCH   4   5
BRANCH   4  25
HETATM   25  C   UNL     1     -10.354  12.143  67.422  1.00  0.00    -0.205 C  
HETATM   26  C   UNL     1      -9.431  13.233  66.850  1.00  0.00    -0.249 C  
HETATM   27  C   UNL     1     -11.755  12.485  66.859  1.00  0.00    -0.447 C  
ENDBRANCH   4  25
ENDBRANCH   2   4
TORSDOF 8
ENDMDL
MODEL      191
REMARK 921   NORMALIZED FREE ENERGY PREDICTED BY IDOCK:   -3.43 KCAL/MOL
REMARK 922        TOTAL FREE ENERGY PREDICTED BY IDOCK:   -6.74 KCAL/MOL
REMARK 923 INTER-LIGAND FREE ENERGY PREDICTED BY IDOCK:   -6.06 KCAL/MOL
REMARK 924 INTRA-LIGAND FREE ENERGY PREDICTED BY IDOCK:   -0.68 KCAL/MOL
REMARK 927      BINDING AFFINITY PREDICTED BY RF-SCORE:    0.00 PKD
ROOT
HETATM    1  C   UNL     1     -12.808  13.976  65.893  1.00  0.00    -0.354 C  
HETATM    2  C   UNL     1     -12.157  14.176  64.502  1.00  0.00    -0.468 C  
HETATM    3  C   UNL     1     -12.303  15.676  64.196  1.00  0.00     0.134 C  
ENDROOT
BRANCH   2   4
HETATM    4  N   UNL     1     -10.764  13.616  64.454  1.00  0.00    -0.402 NA 
BRANCH   4   5
HETATM    5  C   UNL     1     -10.082  13.767  65.787  1.00  0.00    -0.307 C  
BRANCH   5   6
HETATM    6  C   UNL     1      -9.289  15.079  65.948  1.00  0.00    -0.249 C  
BRANCH   6   7
HETATM    7  C   UNL     1      -8.971  15.580  67.402  1.00  0.00    -0.203 C  
BRANCH   7   8
HETATM    8  C   UNL     1     -10.141  15.135  68.327  1.00  0.00    -0.223 A  
HETATM    9  C   UNL     1     -11.092  16.046  68.821  1.00  0.00    -0.338 A  
HETATM   10  C   UNL     1     -12.172  15.622  69.602  1.00  0.00    -0.264 A  
HETATM   11  C   UNL     1     -10.340  13.771  68.634  1.00  0.00    -0.225 A  
HETATM   12  C   UNL     1     -12.330  14.274  69.909  1.00  0.00    -0.377 A  
HETATM   13  C   UNL     1     -11.412  13.350  69.428  1.00  0.00    -0.333 A  
ENDBRANCH   7   8
BRANCH   7  14
HETATM   14  C   UNL     1      -8.712  17.124  67.385  1.00  0.00    -0.204 C  
HETATM   15  N   UNL     1      -8.140  17.665  68.509  1.00  0.00    -0.278 N  
HETATM   16  H1  UNL     1      -7.972  18.670  68.499  1.00  0.00     0.000 HD 
HETATM   17  O   UNL     1      -9.014  17.885  66.469  1.00  0.00    -0.262 OA 
HETATM   18  H2  UNL     1      -7.896  17.090  69.315  1.00  0.00     0.000 HD 
ENDBRANCH   7  14
BRANCH   7  19
HETATM   19  C   UNL     1      -7.614  14.941  67.842  1.00  0.00    -0.136 A  
HETATM   20  C   UNL     1      -5.178  13.798  68.479  1.00  0.00    -0.091 A  
HETATM   21  N   UNL     1      -6.469  15.446  67.301  1.00  0.00    -0.309 NA 
HETATM   22  C   UNL     1      -6.336  13.299  69.058  1.00  0.00    -0.098 A  
HETATM   23  C   UNL     1      -5.291  14.868  67.619  1.00  0.00     0.061 A  
HETATM   24  C   UNL     1      -7.572  13.877  68.746  1.00  0.00    -0.108 A  
ENDBRANCH   7  19
ENDBRANCH   6   7
ENDBRANCH   5   6
ENDBRANCH   4   5
BRANCH   4  25
HETATM   25  C   UNL     1     -10.611  12.226  63.912  1.00  0.00    -0.427 C  
HETATM   26  C   UNL     1     -10.234  11.130  64.925  1.00  0.00    -0.361 C  
HETATM   27  C   UNL     1     -11.915  11.713  63.253  1.00  0.00    -0.235 C  
ENDBRANCH   4  25
ENDBRANCH   2   4
TORSDOF 8
ENDMDL
MODEL      192
REMARK 921   NORMALIZED FREE ENERGY PREDICTED BY IDOCK:   -3.43 KCAL/MOL
REMARK 922        TOTAL FREE ENERGY PREDICTED BY IDOCK:   -6.74 KCAL/MOL
REMARK 923 INTER-LIGAND FREE ENERGY PREDICTED BY IDOCK:   -5.52 KCAL/MOL
REMARK 924 INTRA-LIGAND FREE ENERGY PREDICTED BY IDOCK:   -1.22 KCAL/MOL
REMARK 927      BINDING AFFINITY PREDICTED BY RF-SCORE:    0.00 PKD
ROOT
HETATM    1  C   UNL     1      -6.946   7.214  66.901  1.00  0.00    -0.077 C  
HETATM    2  C   UNL     1      -8.259   6.445  67.195  1.00  0.00    -0.113 C  
HETATM    3  C   UNL     1      -8.420   5.454  66.030  1.00  0.00    -0.123 C  
ENDROOT
BRANCH   2   4
HETATM    4  N   UNL     1      -8.262   5.860  68.578  1.00  0.00    -0.108 NA 
BRANCH   4   5
HETATM    5  C   UNL     1      -9.327   6.499  69.427  1.00  0.00    -0.143 C  
BRANCH   5   6
HETATM    6  C   UNL     1      -8.811   7.614  70.358  1.00  0.00    -0.144 C  
BRANCH   6   7
HETATM    7  C   UNL     1      -9.391   7.692  71.815  1.00  0.00    -0.176 C  
BRANCH   7   8
HETATM    8  C   UNL     1     -10.723   8.495  71.756  1.00  0.00    -0.373 A  
HETATM    9  C   UNL     1     -11.812   8.201  72.598  1.00  0.00    -0.389 A  
HETATM   10  C   UNL     1     -12.980   8.969  72.575  1.00  0.00    -0.429 A  
HETATM   11  C   UNL     1     -10.855   9.615  70.906  1.00  0.00    -0.409 A  
HETATM   12  C   UNL     1     -13.091  10.052  71.710  1.00  0.00    -0.562 A  
HETATM   13  C   UNL     1     -12.030  10.373  70.873  1.00  0.00    -0.478 A  
ENDBRANCH   7   8
BRANCH   7  14
HETATM   14  C   UNL     1      -8.316   8.293  72.781  1.00  0.00    -0.171 C  
HETATM   15  N   UNL     1      -7.035   8.384  72.297  1.00  0.00    -0.092 N  
HETATM   16  H1  UNL     1      -6.334   8.775  72.926  1.00  0.00     0.000 HD 
HETATM   17  O   UNL     1      -8.521   8.650  73.938  1.00  0.00    -0.310 OA 
HETATM   18  H2  UNL     1      -6.795   8.074  71.355  1.00  0.00     0.000 HD 
ENDBRANCH   7  14
BRANCH   7  19
HETATM   19  C   UNL     1      -9.623   6.230  72.317  1.00  0.00    -0.151 A  
HETATM   20  C   UNL     1      -9.936   3.597  73.103  1.00  0.00    -0.195 A  
HETATM   21  N   UNL     1      -8.524   5.474  72.599  1.00  0.00    -0.117 NA 
HETATM   22  C   UNL     1     -11.059   4.371  72.848  1.00  0.00    -0.193 A  
HETATM   23  C   UNL     1      -8.698   4.189  72.974  1.00  0.00    -0.099 A  
HETATM   24  C   UNL     1     -10.910   5.706  72.457  1.00  0.00    -0.299 A  
ENDBRANCH   7  19
ENDBRANCH   6   7
ENDBRANCH   5   6
ENDBRANCH   4   5
BRANCH   4  25
HETATM   25  C   UNL     1      -8.301   4.363  68.680  1.00  0.00    -0.084 C  
HETATM   26  C   UNL     1      -7.168   3.700  69.484  1.00  0.00    -0.045 C  
HETATM   27  C   UNL     1      -9.600   3.861  69.354  1.00  0.00    -0.239 C  
ENDBRANCH   4  25
ENDBRANCH   2   4
TORSDOF 8
ENDMDL
MODEL      193
REMARK 921   NORMALIZED FREE ENERGY PREDICTED BY IDOCK:   -3.43 KCAL/MOL
REMARK 922        TOTAL FREE ENERGY PREDICTED BY IDOCK:   -6.74 KCAL/MOL
REMARK 923 INTER-LIGAND FREE ENERGY PREDICTED BY IDOCK:   -5.75 KCAL/MOL
REMARK 924 INTRA-LIGAND FREE ENERGY PREDICTED BY IDOCK:   -0.98 KCAL/MOL
REMARK 927      BINDING AFFINITY PREDICTED BY RF-SCORE:    0.00 PKD
ROOT
HETATM    1  C   UNL     1     -11.734   9.860  71.048  1.00  0.00    -0.466 C  
HETATM    2  C   UNL     1     -10.314   9.483  70.556  1.00  0.00    -0.288 C  
HETATM    3  C   UNL     1      -9.592   8.916  71.790  1.00  0.00    -0.353 C  
ENDROOT
BRANCH   2   4
HETATM    4  N   UNL     1     -10.364   8.596  69.344  1.00  0.00    -0.215 NA 
BRANCH   4   5
HETATM    5  C   UNL     1      -9.434   9.101  68.274  1.00  0.00    -0.142 C  
BRANCH   5   6
HETATM    6  C   UNL     1      -8.717  10.419  68.628  1.00  0.00    -0.138 C  
BRANCH   6   7
HETATM    7  C   UNL     1      -8.371  11.412  67.462  1.00  0.00    -0.137 C  
BRANCH   7   8
HETATM    8  C   UNL     1      -8.127  10.570  66.176  1.00  0.00    -0.145 A  
HETATM    9  C   UNL     1      -9.157  10.287  65.260  1.00  0.00    -0.228 A  
HETATM   10  C   UNL     1      -8.910   9.581  64.079  1.00  0.00    -0.243 A  
HETATM   11  C   UNL     1      -6.829  10.129  65.836  1.00  0.00    -0.115 A  
HETATM   12  C   UNL     1      -7.625   9.138  63.781  1.00  0.00    -0.113 A  
HETATM   13  C   UNL     1      -6.586   9.409  64.662  1.00  0.00    -0.084 A  
ENDBRANCH   7   8
BRANCH   7  14
HETATM   14  C   UNL     1      -7.166  12.319  67.880  1.00  0.00    -0.106 C  
HETATM   15  N   UNL     1      -6.839  12.335  69.213  1.00  0.00    -0.246 N  
HETATM   16  H1  UNL     1      -6.054  12.926  69.485  1.00  0.00     0.000 HD 
HETATM   17  O   UNL     1      -6.522  13.039  67.121  1.00  0.00    -0.224 OA 
HETATM   18  H2  UNL     1      -7.356  11.783  69.897  1.00  0.00     0.000 HD 
ENDBRANCH   7  14
BRANCH   7  19
HETATM   19  C   UNL     1      -9.580  12.388  67.289  1.00  0.00    -0.199 A  
HETATM   20  C   UNL     1     -11.626  14.227  67.006  1.00  0.00    -0.406 A  
HETATM   21  N   UNL     1      -9.429  13.440  66.436  1.00  0.00    -0.250 NA 
HETATM   22  C   UNL     1     -11.798  13.141  67.852  1.00  0.00    -0.390 A  
HETATM   23  C   UNL     1     -10.436  14.331  66.318  1.00  0.00    -0.291 A  
HETATM   24  C   UNL     1     -10.770  12.202  67.995  1.00  0.00    -0.242 A  
ENDBRANCH   7  19
ENDBRANCH   6   7
ENDBRANCH   5   6
ENDBRANCH   4   5
BRANCH   4  25
HETATM   25  C   UNL     1     -10.192   7.124  69.574  1.00  0.00    -0.195 C  
HETATM   26  C   UNL     1     -11.388   6.227  69.206  1.00  0.00    -0.411 C  
HETATM   27  C   UNL     1      -9.008   6.545  68.763  1.00  0.00    -0.124 C  
ENDBRANCH   4  25
ENDBRANCH   2   4
TORSDOF 8
ENDMDL
MODEL      194
REMARK 921   NORMALIZED FREE ENERGY PREDICTED BY IDOCK:   -3.42 KCAL/MOL
REMARK 922        TOTAL FREE ENERGY PREDICTED BY IDOCK:   -6.72 KCAL/MOL
REMARK 923 INTER-LIGAND FREE ENERGY PREDICTED BY IDOCK:   -6.22 KCAL/MOL
REMARK 924 INTRA-LIGAND FREE ENERGY PREDICTED BY IDOCK:   -0.51 KCAL/MOL
REMARK 927      BINDING AFFINITY PREDICTED BY RF-SCORE:    0.00 PKD
ROOT
HETATM    1  C   UNL     1      -7.213   6.841  68.065  1.00  0.00    -0.091 C  
HETATM    2  C   UNL     1      -7.385   8.113  67.198  1.00  0.00    -0.088 C  
HETATM    3  C   UNL     1      -6.488   7.894  65.970  1.00  0.00    -0.046 C  
ENDROOT
BRANCH   2   4
HETATM    4  N   UNL     1      -8.833   8.406  66.926  1.00  0.00    -0.138 NA 
BRANCH   4   5
HETATM    5  C   UNL     1      -9.703   7.886  68.038  1.00  0.00    -0.159 C  
BRANCH   5   6
HETATM    6  C   UNL     1      -9.643   8.720  69.333  1.00  0.00    -0.163 C  
BRANCH   6   7
HETATM    7  C   UNL     1     -10.260   8.107  70.640  1.00  0.00    -0.211 C  
BRANCH   7   8
HETATM    8  C   UNL     1      -9.149   8.095  71.731  1.00  0.00    -0.229 A  
HETATM    9  C   UNL     1      -7.804   8.381  71.432  1.00  0.00    -0.137 A  
HETATM   10  C   UNL     1      -6.828   8.425  72.432  1.00  0.00    -0.106 A  
HETATM   11  C   UNL     1      -9.471   7.879  73.089  1.00  0.00    -0.344 A  
HETATM   12  C   UNL     1      -7.170   8.184  73.759  1.00  0.00    -0.186 A  
HETATM   13  C   UNL     1      -8.492   7.908  74.086  1.00  0.00    -0.312 A  
ENDBRANCH   7   8
BRANCH   7  14
HETATM   14  C   UNL     1     -10.875   6.703  70.328  1.00  0.00    -0.271 C  
HETATM   15  N   UNL     1     -12.111   6.690  69.731  1.00  0.00    -0.545 N  
HETATM   16  H1  UNL     1     -12.512   5.775  69.528  1.00  0.00     0.000 HD 
HETATM   17  O   UNL     1     -10.359   5.623  70.608  1.00  0.00    -0.220 OA 
HETATM   18  H2  UNL     1     -12.604   7.553  69.503  1.00  0.00     0.000 HD 
ENDBRANCH   7  14
BRANCH   7  19
HETATM   19  C   UNL     1     -11.471   9.002  71.063  1.00  0.00    -0.295 A  
HETATM   20  C   UNL     1     -13.516  10.690  71.846  1.00  0.00    -0.341 A  
HETATM   21  N   UNL     1     -11.526  10.271  70.568  1.00  0.00    -0.321 NA 
HETATM   22  C   UNL     1     -13.484   9.389  72.328  1.00  0.00    -0.539 A  
HETATM   23  C   UNL     1     -12.528  11.081  70.969  1.00  0.00    -0.409 A  
HETATM   24  C   UNL     1     -12.456   8.526  71.931  1.00  0.00    -0.402 A  
ENDBRANCH   7  19
ENDBRANCH   6   7
ENDBRANCH   5   6
ENDBRANCH   4   5
BRANCH   4  25
HETATM   25  C   UNL     1      -9.182   9.822  66.570  1.00  0.00    -0.156 C  
HETATM   26  C   UNL     1      -8.078  10.874  66.778  1.00  0.00    -0.142 C  
HETATM   27  C   UNL     1      -9.580   9.965  65.081  1.00  0.00    -0.367 C  
ENDBRANCH   4  25
ENDBRANCH   2   4
TORSDOF 8
ENDMDL
MODEL      195
REMARK 921   NORMALIZED FREE ENERGY PREDICTED BY IDOCK:   -3.41 KCAL/MOL
REMARK 922        TOTAL FREE ENERGY PREDICTED BY IDOCK:   -6.71 KCAL/MOL
REMARK 923 INTER-LIGAND FREE ENERGY PREDICTED BY IDOCK:   -5.77 KCAL/MOL
REMARK 924 INTRA-LIGAND FREE ENERGY PREDICTED BY IDOCK:   -0.94 KCAL/MOL
REMARK 927      BINDING AFFINITY PREDICTED BY RF-SCORE:    0.00 PKD
ROOT
HETATM    1  C   UNL     1     -11.055   6.240  67.407  1.00  0.00    -0.384 C  
HETATM    2  C   UNL     1      -9.680   6.028  66.727  1.00  0.00    -0.153 C  
HETATM    3  C   UNL     1      -9.857   4.797  65.823  1.00  0.00    -0.214 C  
ENDROOT
BRANCH   2   4
HETATM    4  N   UNL     1      -9.191   7.283  66.061  1.00  0.00    -0.089 NA 
BRANCH   4   5
HETATM    5  C   UNL     1      -9.230   8.445  67.016  1.00  0.00    -0.151 C  
BRANCH   5   6
HETATM    6  C   UNL     1     -10.165   9.591  66.581  1.00  0.00    -0.310 C  
BRANCH   6   7
HETATM    7  C   UNL     1     -10.141  10.924  67.410  1.00  0.00    -0.223 C  
BRANCH   7   8
HETATM    8  C   UNL     1     -10.745  10.624  68.813  1.00  0.00    -0.249 A  
HETATM    9  C   UNL     1     -10.189   9.663  69.677  1.00  0.00    -0.239 A  
HETATM   10  C   UNL     1     -10.706   9.446  70.958  1.00  0.00    -0.407 A  
HETATM   11  C   UNL     1     -11.833  11.375  69.307  1.00  0.00    -0.417 A  
HETATM   12  C   UNL     1     -11.795  10.185  71.409  1.00  0.00    -0.414 A  
HETATM   13  C   UNL     1     -12.360  11.148  70.582  1.00  0.00    -0.482 A  
ENDBRANCH   7   8
BRANCH   7  14
HETATM   14  C   UNL     1     -10.878  12.054  66.617  1.00  0.00    -0.272 C  
HETATM   15  N   UNL     1     -10.376  13.325  66.746  1.00  0.00    -0.255 N  
HETATM   16  H1  UNL     1     -10.856  14.061  66.229  1.00  0.00     0.000 HD 
HETATM   17  O   UNL     1     -11.883  11.899  65.928  1.00  0.00    -0.466 OA 
HETATM   18  H2  UNL     1      -9.563  13.523  67.329  1.00  0.00     0.000 HD 
ENDBRANCH   7  14
BRANCH   7  19
HETATM   19  C   UNL     1      -8.655  11.396  67.514  1.00  0.00    -0.137 A  
HETATM   20  C   UNL     1      -6.074  12.370  67.715  1.00  0.00    -0.111 A  
HETATM   21  N   UNL     1      -8.316  12.201  68.561  1.00  0.00    -0.132 NA 
HETATM   22  C   UNL     1      -6.404  11.526  66.664  1.00  0.00    -0.103 A  
HETATM   23  C   UNL     1      -7.054  12.672  68.636  1.00  0.00    -0.096 A  
HETATM   24  C   UNL     1      -7.706  11.023  66.559  1.00  0.00    -0.154 A  
ENDBRANCH   7  19
ENDBRANCH   6   7
ENDBRANCH   5   6
ENDBRANCH   4   5
BRANCH   4  25
HETATM   25  C   UNL     1      -7.874   7.201  65.347  1.00  0.00    -0.119 C  
HETATM   26  C   UNL     1      -7.689   8.136  64.138  1.00  0.00    -0.136 C  
HETATM   27  C   UNL     1      -6.686   7.535  66.281  1.00  0.00    -0.057 C  
ENDBRANCH   4  25
ENDBRANCH   2   4
TORSDOF 8
ENDMDL
MODEL      196
REMARK 921   NORMALIZED FREE ENERGY PREDICTED BY IDOCK:   -3.41 KCAL/MOL
REMARK 922        TOTAL FREE ENERGY PREDICTED BY IDOCK:   -6.71 KCAL/MOL
REMARK 923 INTER-LIGAND FREE ENERGY PREDICTED BY IDOCK:   -5.60 KCAL/MOL
REMARK 924 INTRA-LIGAND FREE ENERGY PREDICTED BY IDOCK:   -1.11 KCAL/MOL
REMARK 927      BINDING AFFINITY PREDICTED BY RF-SCORE:    0.00 PKD
ROOT
HETATM    1  C   UNL     1      -6.666   7.658  67.101  1.00  0.00    -0.067 C  
HETATM    2  C   UNL     1      -7.132   8.895  66.294  1.00  0.00    -0.083 C  
HETATM    3  C   UNL     1      -6.663   8.643  64.852  1.00  0.00    -0.068 C  
ENDROOT
BRANCH   2   4
HETATM    4  N   UNL     1      -8.599   9.161  66.485  1.00  0.00    -0.125 NA 
BRANCH   4   5
HETATM    5  C   UNL     1      -9.132   8.394  67.664  1.00  0.00    -0.135 C  
BRANCH   5   6
HETATM    6  C   UNL     1      -9.509   9.272  68.874  1.00  0.00    -0.154 C  
BRANCH   6   7
HETATM    7  C   UNL     1      -9.689   8.576  70.270  1.00  0.00    -0.182 C  
BRANCH   7   8
HETATM    8  C   UNL     1     -11.036   9.067  70.877  1.00  0.00    -0.332 A  
HETATM    9  C   UNL     1     -11.742   8.316  71.835  1.00  0.00    -0.381 A  
HETATM   10  C   UNL     1     -12.920   8.797  72.416  1.00  0.00    -0.442 A  
HETATM   11  C   UNL     1     -11.557  10.337  70.548  1.00  0.00    -0.424 A  
HETATM   12  C   UNL     1     -13.423  10.042  72.055  1.00  0.00    -0.448 A  
HETATM   13  C   UNL     1     -12.743  10.810  71.118  1.00  0.00    -0.532 A  
ENDBRANCH   7   8
BRANCH   7  14
HETATM   14  C   UNL     1      -8.437   8.855  71.165  1.00  0.00    -0.198 C  
HETATM   15  N   UNL     1      -7.248   9.071  70.513  1.00  0.00    -0.069 N  
HETATM   16  H1  UNL     1      -6.432   9.252  71.097  1.00  0.00     0.000 HD 
HETATM   17  O   UNL     1      -8.428   8.856  72.394  1.00  0.00    -0.396 OA 
HETATM   18  H2  UNL     1      -7.185   9.051  69.496  1.00  0.00     0.000 HD 
ENDBRANCH   7  14
BRANCH   7  19
HETATM   19  C   UNL     1      -9.693   7.030  70.037  1.00  0.00    -0.170 A  
HETATM   20  C   UNL     1      -9.560   4.306  69.581  1.00  0.00    -0.275 A  
HETATM   21  N   UNL     1      -8.671   6.305  70.574  1.00  0.00    -0.142 NA 
HETATM   22  C   UNL     1     -10.619   5.033  69.058  1.00  0.00     0.061 A  
HETATM   23  C   UNL     1      -8.620   4.978  70.333  1.00  0.00    -0.108 A  
HETATM   24  C   UNL     1     -10.698   6.411  69.290  1.00  0.00    -0.349 A  
ENDBRANCH   7  19
ENDBRANCH   6   7
ENDBRANCH   5   6
ENDBRANCH   4   5
BRANCH   4  25
HETATM   25  C   UNL     1      -9.027  10.598  66.523  1.00  0.00    -0.156 C  
HETATM   26  C   UNL     1      -7.913  11.642  66.718  1.00  0.00    -0.140 C  
HETATM   27  C   UNL     1      -9.737  11.027  65.216  1.00  0.00    -0.286 C  
ENDBRANCH   4  25
ENDBRANCH   2   4
TORSDOF 8
ENDMDL
MODEL      197
REMARK 921   NORMALIZED FREE ENERGY PREDICTED BY IDOCK:   -3.40 KCAL/MOL
REMARK 922        TOTAL FREE ENERGY PREDICTED BY IDOCK:   -6.70 KCAL/MOL
REMARK 923 INTER-LIGAND FREE ENERGY PREDICTED BY IDOCK:   -6.89 KCAL/MOL
REMARK 924 INTRA-LIGAND FREE ENERGY PREDICTED BY IDOCK:    0.18 KCAL/MOL
REMARK 927      BINDING AFFINITY PREDICTED BY RF-SCORE:    0.00 PKD
ROOT
HETATM    1  C   UNL     1      -7.715  18.239  68.574  1.00  0.00    -0.319 C  
HETATM    2  C   UNL     1      -7.436  16.836  67.979  1.00  0.00    -0.167 C  
HETATM    3  C   UNL     1      -6.146  16.991  67.157  1.00  0.00    -0.199 C  
ENDROOT
BRANCH   2   4
HETATM    4  N   UNL     1      -7.429  15.774  69.042  1.00  0.00    -0.171 NA 
BRANCH   4   5
HETATM    5  C   UNL     1      -8.490  14.742  68.773  1.00  0.00    -0.170 C  
BRANCH   5   6
HETATM    6  C   UNL     1      -8.841  14.568  67.282  1.00  0.00    -0.221 C  
BRANCH   6   7
HETATM    7  C   UNL     1     -10.330  14.797  66.838  1.00  0.00    -0.267 C  
BRANCH   7   8
HETATM    8  C   UNL     1     -10.709  13.666  65.838  1.00  0.00    -0.281 A  
HETATM    9  C   UNL     1     -11.823  13.765  64.984  1.00  0.00    -0.381 A  
HETATM   10  C   UNL     1     -12.116  12.768  64.048  1.00  0.00    -0.533 A  
HETATM   11  C   UNL     1      -9.888  12.527  65.689  1.00  0.00    -0.227 A  
HETATM   12  C   UNL     1     -11.303  11.645  63.941  1.00  0.00    -0.457 A  
HETATM   13  C   UNL     1     -10.191  11.524  64.764  1.00  0.00    -0.331 A  
ENDBRANCH   7   8
BRANCH   7  14
HETATM   14  C   UNL     1     -10.495  16.246  66.269  1.00  0.00    -0.308 C  
HETATM   15  N   UNL     1     -10.720  16.355  64.920  1.00  0.00    -0.302 N  
HETATM   16  H1  UNL     1     -10.828  17.299  64.549  1.00  0.00     0.000 HD 
HETATM   17  O   UNL     1     -10.402  17.281  66.924  1.00  0.00    -0.315 OA 
HETATM   18  H2  UNL     1     -10.777  15.534  64.318  1.00  0.00     0.000 HD 
ENDBRANCH   7  14
BRANCH   7  19
HETATM   19  C   UNL     1     -11.224  14.754  68.120  1.00  0.00    -0.294 A  
HETATM   20  C   UNL     1     -12.699  14.749  70.459  1.00  0.00    -0.397 A  
HETATM   21  N   UNL     1     -11.417  15.920  68.799  1.00  0.00    -0.378 NA 
HETATM   22  C   UNL     1     -12.532  13.565  69.757  1.00  0.00    -0.155 A  
HETATM   23  C   UNL     1     -12.133  15.895  69.942  1.00  0.00    -0.227 A  
HETATM   24  C   UNL     1     -11.793  13.560  68.568  1.00  0.00    -0.398 A  
ENDBRANCH   7  19
ENDBRANCH   6   7
ENDBRANCH   5   6
ENDBRANCH   4   5
BRANCH   4  25
HETATM   25  C   UNL     1      -6.107  15.137  69.355  1.00  0.00    -0.112 C  
HETATM   26  C   UNL     1      -5.320  15.733  70.536  1.00  0.00    -0.159 C  
HETATM   27  C   UNL     1      -6.255  13.636  69.704  1.00  0.00    -0.122 C  
ENDBRANCH   4  25
ENDBRANCH   2   4
TORSDOF 8
ENDMDL
MODEL      198
REMARK 921   NORMALIZED FREE ENERGY PREDICTED BY IDOCK:   -3.40 KCAL/MOL
REMARK 922        TOTAL FREE ENERGY PREDICTED BY IDOCK:   -6.70 KCAL/MOL
REMARK 923 INTER-LIGAND FREE ENERGY PREDICTED BY IDOCK:   -5.19 KCAL/MOL
REMARK 924 INTRA-LIGAND FREE ENERGY PREDICTED BY IDOCK:   -1.52 KCAL/MOL
REMARK 927      BINDING AFFINITY PREDICTED BY RF-SCORE:    0.00 PKD
ROOT
HETATM    1  C   UNL     1      -8.580   8.078  72.594  1.00  0.00    -0.237 C  
HETATM    2  C   UNL     1      -7.833   8.778  71.432  1.00  0.00    -0.128 C  
HETATM    3  C   UNL     1      -6.368   8.874  71.888  1.00  0.00    -0.062 C  
ENDROOT
BRANCH   2   4
HETATM    4  N   UNL     1      -8.082   8.093  70.119  1.00  0.00    -0.111 NA 
BRANCH   4   5
HETATM    5  C   UNL     1      -7.551   8.917  68.977  1.00  0.00    -0.085 C  
BRANCH   5   6
HETATM    6  C   UNL     1      -8.637   9.649  68.164  1.00  0.00    -0.119 C  
BRANCH   6   7
HETATM    7  C   UNL     1      -8.808   9.277  66.649  1.00  0.00    -0.146 C  
BRANCH   7   8
HETATM    8  C   UNL     1      -9.326   7.811  66.573  1.00  0.00    -0.243 A  
HETATM    9  C   UNL     1     -10.539   7.415  67.166  1.00  0.00    -0.413 A  
HETATM   10  C   UNL     1     -11.022   6.109  67.039  1.00  0.00    -0.414 A  
HETATM   11  C   UNL     1      -8.632   6.837  65.823  1.00  0.00    -0.144 A  
HETATM   12  C   UNL     1     -10.304   5.163  66.314  1.00  0.00    -0.313 A  
HETATM   13  C   UNL     1      -9.108   5.527  65.709  1.00  0.00    -0.152 A  
ENDBRANCH   7   8
BRANCH   7  14
HETATM   14  C   UNL     1      -7.464   9.528  65.887  1.00  0.00    -0.100 C  
HETATM   15  N   UNL     1      -6.744  10.636  66.257  1.00  0.00    -0.121 N  
HETATM   16  H1  UNL     1      -5.868  10.800  65.761  1.00  0.00     0.000 HD 
HETATM   17  O   UNL     1      -7.028   8.838  64.969  1.00  0.00    -0.075 OA 
HETATM   18  H2  UNL     1      -7.069  11.265  66.991  1.00  0.00     0.000 HD 
ENDBRANCH   7  14
BRANCH   7  19
HETATM   19  C   UNL     1      -9.829  10.281  66.021  1.00  0.00    -0.233 A  
HETATM   20  C   UNL     1     -11.528  12.104  64.823  1.00  0.00    -0.377 A  
HETATM   21  N   UNL     1      -9.925  10.323  64.662  1.00  0.00    -0.336 NA 
HETATM   22  C   UNL     1     -11.459  12.045  66.207  1.00  0.00    -0.408 A  
HETATM   23  C   UNL     1     -10.754  11.225  64.097  1.00  0.00    -0.369 A  
HETATM   24  C   UNL     1     -10.608  11.120  66.822  1.00  0.00    -0.311 A  
ENDBRANCH   7  19
ENDBRANCH   6   7
ENDBRANCH   5   6
ENDBRANCH   4   5
BRANCH   4  25
HETATM   25  C   UNL     1      -7.653   6.660  70.010  1.00  0.00    -0.100 C  
HETATM   26  C   UNL     1      -8.773   5.618  69.840  1.00  0.00    -0.127 C  
HETATM   27  C   UNL     1      -6.717   6.424  68.800  1.00  0.00    -0.061 C  
ENDBRANCH   4  25
ENDBRANCH   2   4
TORSDOF 8
ENDMDL
MODEL      199
REMARK 921   NORMALIZED FREE ENERGY PREDICTED BY IDOCK:   -3.40 KCAL/MOL
REMARK 922        TOTAL FREE ENERGY PREDICTED BY IDOCK:   -6.70 KCAL/MOL
REMARK 923 INTER-LIGAND FREE ENERGY PREDICTED BY IDOCK:   -6.33 KCAL/MOL
REMARK 924 INTRA-LIGAND FREE ENERGY PREDICTED BY IDOCK:   -0.37 KCAL/MOL
REMARK 927      BINDING AFFINITY PREDICTED BY RF-SCORE:    0.00 PKD
ROOT
HETATM    1  C   UNL     1      -9.726  17.347  69.160  1.00  0.00    -0.110 C  
HETATM    2  C   UNL     1      -8.591  17.207  68.116  1.00  0.00    -0.232 C  
HETATM    3  C   UNL     1      -7.514  16.347  68.797  1.00  0.00    -0.207 C  
ENDROOT
BRANCH   2   4
HETATM    4  N   UNL     1      -9.110  16.709  66.796  1.00  0.00    -0.224 NA 
BRANCH   4   5
HETATM    5  C   UNL     1      -9.191  15.207  66.787  1.00  0.00    -0.254 C  
BRANCH   5   6
HETATM    6  C   UNL     1     -10.181  14.618  67.812  1.00  0.00    -0.229 C  
BRANCH   6   7
HETATM    7  C   UNL     1     -10.711  13.159  67.578  1.00  0.00    -0.248 C  
BRANCH   7   8
HETATM    8  C   UNL     1      -9.489  12.255  67.246  1.00  0.00    -0.186 A  
HETATM    9  C   UNL     1      -8.487  11.974  68.194  1.00  0.00    -0.171 A  
HETATM   10  C   UNL     1      -7.426  11.111  67.900  1.00  0.00    -0.094 A  
HETATM   11  C   UNL     1      -9.387  11.606  65.996  1.00  0.00    -0.241 A  
HETATM   12  C   UNL     1      -7.338  10.506  66.651  1.00  0.00    -0.120 A  
HETATM   13  C   UNL     1      -8.318  10.756  65.699  1.00  0.00    -0.144 A  
ENDBRANCH   7   8
BRANCH   7  14
HETATM   14  C   UNL     1     -11.825  13.170  66.479  1.00  0.00    -0.400 C  
HETATM   15  N   UNL     1     -13.031  13.725  66.829  1.00  0.00     0.056 N  
HETATM   16  H1  UNL     1     -13.756  13.732  66.112  1.00  0.00     0.000 HD 
HETATM   17  O   UNL     1     -11.716  12.691  65.353  1.00  0.00    -0.347 OA 
HETATM   18  H2  UNL     1     -13.193  14.110  67.759  1.00  0.00     0.000 HD 
ENDBRANCH   7  14
BRANCH   7  19
HETATM   19  C   UNL     1     -11.430  12.696  68.887  1.00  0.00    -0.306 A  
HETATM   20  C   UNL     1     -12.607  11.960  71.279  1.00  0.00    -0.383 A  
HETATM   21  N   UNL     1     -11.798  13.656  69.783  1.00  0.00    -0.312 NA 
HETATM   22  C   UNL     1     -12.264  10.980  70.358  1.00  0.00    -0.461 A  
HETATM   23  C   UNL     1     -12.364  13.275  70.947  1.00  0.00    -0.329 A  
HETATM   24  C   UNL     1     -11.675  11.345  69.143  1.00  0.00    -0.410 A  
ENDBRANCH   7  19
ENDBRANCH   6   7
ENDBRANCH   5   6
ENDBRANCH   4   5
BRANCH   4  25
HETATM   25  C   UNL     1     -10.376  17.332  66.288  1.00  0.00    -0.322 C  
HETATM   26  C   UNL     1     -10.322  18.837  65.971  1.00  0.00    -0.467 C  
HETATM   27  C   UNL     1     -10.857  16.676  64.971  1.00  0.00    -0.190 C  
ENDBRANCH   4  25
ENDBRANCH   2   4
TORSDOF 8
ENDMDL
MODEL      200
REMARK 921   NORMALIZED FREE ENERGY PREDICTED BY IDOCK:   -3.40 KCAL/MOL
REMARK 922        TOTAL FREE ENERGY PREDICTED BY IDOCK:   -6.69 KCAL/MOL
REMARK 923 INTER-LIGAND FREE ENERGY PREDICTED BY IDOCK:   -6.46 KCAL/MOL
REMARK 924 INTRA-LIGAND FREE ENERGY PREDICTED BY IDOCK:   -0.24 KCAL/MOL
REMARK 927      BINDING AFFINITY PREDICTED BY RF-SCORE:    0.00 PKD
ROOT
HETATM    1  C   UNL     1      -7.483  18.955  66.603  1.00  0.00    -0.242 C  
HETATM    2  C   UNL     1      -7.120  17.586  67.230  1.00  0.00    -0.167 C  
HETATM    3  C   UNL     1      -5.800  17.168  66.561  1.00  0.00    -0.215 C  
ENDROOT
BRANCH   2   4
HETATM    4  N   UNL     1      -7.121  17.645  68.731  1.00  0.00    -0.254 NA 
BRANCH   4   5
HETATM    5  C   UNL     1      -8.020  16.584  69.307  1.00  0.00    -0.104 C  
BRANCH   5   6
HETATM    6  C   UNL     1      -8.828  15.799  68.255  1.00  0.00    -0.180 C  
BRANCH   6   7
HETATM    7  C   UNL     1     -10.348  16.150  68.072  1.00  0.00    -0.271 C  
BRANCH   7   8
HETATM    8  C   UNL     1     -10.885  15.330  66.863  1.00  0.00    -0.317 A  
HETATM    9  C   UNL     1     -11.791  14.265  67.024  1.00  0.00    -0.455 A  
HETATM   10  C   UNL     1     -12.311  13.576  65.924  1.00  0.00    -0.507 A  
HETATM   11  C   UNL     1     -10.545  15.686  65.539  1.00  0.00    -0.422 A  
HETATM   12  C   UNL     1     -11.939  13.933  64.632  1.00  0.00    -0.443 A  
HETATM   13  C   UNL     1     -11.053  14.986  64.441  1.00  0.00    -0.120 A  
ENDBRANCH   7   8
BRANCH   7  14
HETATM   14  C   UNL     1     -10.519  17.699  67.929  1.00  0.00    -0.392 C  
HETATM   15  N   UNL     1     -10.445  18.436  69.085  1.00  0.00    -0.370 N  
HETATM   16  H1  UNL     1     -10.557  19.445  68.992  1.00  0.00     0.000 HD 
HETATM   17  O   UNL     1     -10.752  18.295  66.881  1.00  0.00    -0.352 OA 
HETATM   18  H2  UNL     1     -10.285  17.996  69.991  1.00  0.00     0.000 HD 
ENDBRANCH   7  14
BRANCH   7  19
HETATM   19  C   UNL     1     -11.089  15.774  69.396  1.00  0.00    -0.314 A  
HETATM   20  C   UNL     1     -12.466  15.240  71.734  1.00  0.00    -0.431 A  
HETATM   21  N   UNL     1     -12.440  15.951  69.440  1.00  0.00     0.024 NA 
HETATM   22  C   UNL     1     -11.096  15.027  71.686  1.00  0.00    -0.077 A  
HETATM   23  C   UNL     1     -13.092  15.693  70.592  1.00  0.00    -0.204 A  
HETATM   24  C   UNL     1     -10.393  15.288  70.505  1.00  0.00    -0.008 A  
ENDBRANCH   7  19
ENDBRANCH   6   7
ENDBRANCH   5   6
ENDBRANCH   4   5
BRANCH   4  25
HETATM   25  C   UNL     1      -5.783  17.661  69.409  1.00  0.00    -0.217 C  
HETATM   26  C   UNL     1      -5.535  18.803  70.411  1.00  0.00    -0.231 C  
HETATM   27  C   UNL     1      -5.530  16.369  70.224  1.00  0.00    -0.188 C  
ENDBRANCH   4  25
ENDBRANCH   2   4
TORSDOF 8
ENDMDL
MODEL      201
REMARK 921   NORMALIZED FREE ENERGY PREDICTED BY IDOCK:   -3.39 KCAL/MOL
REMARK 922        TOTAL FREE ENERGY PREDICTED BY IDOCK:   -6.69 KCAL/MOL
REMARK 923 INTER-LIGAND FREE ENERGY PREDICTED BY IDOCK:   -5.00 KCAL/MOL
REMARK 924 INTRA-LIGAND FREE ENERGY PREDICTED BY IDOCK:   -1.69 KCAL/MOL
REMARK 927      BINDING AFFINITY PREDICTED BY RF-SCORE:    0.00 PKD
ROOT
HETATM    1  C   UNL     1     -13.166   8.022  71.438  1.00  0.00    -0.260 C  
HETATM    2  C   UNL     1     -11.690   7.701  71.098  1.00  0.00    -0.290 C  
HETATM    3  C   UNL     1     -10.854   8.520  72.095  1.00  0.00    -0.427 C  
ENDROOT
BRANCH   2   4
HETATM    4  N   UNL     1     -11.435   6.221  71.068  1.00  0.00    -0.322 NA 
BRANCH   4   5
HETATM    5  C   UNL     1     -10.918   5.794  69.722  1.00  0.00    -0.327 C  
BRANCH   5   6
HETATM    6  C   UNL     1     -10.762   6.945  68.708  1.00  0.00    -0.255 C  
BRANCH   6   7
HETATM    7  C   UNL     1      -9.398   7.081  67.943  1.00  0.00    -0.123 C  
BRANCH   7   8
HETATM    8  C   UNL     1      -8.253   6.771  68.951  1.00  0.00    -0.121 A  
HETATM    9  C   UNL     1      -7.407   5.656  68.802  1.00  0.00    -0.083 A  
HETATM   10  C   UNL     1      -6.345   5.423  69.682  1.00  0.00    -0.030 A  
HETATM   11  C   UNL     1      -7.965   7.655  70.013  1.00  0.00    -0.114 A  
HETATM   12  C   UNL     1      -6.100   6.298  70.734  1.00  0.00    -0.038 A  
HETATM   13  C   UNL     1      -6.912   7.413  70.901  1.00  0.00    -0.059 A  
ENDBRANCH   7   8
BRANCH   7  14
HETATM   14  C   UNL     1      -9.304   8.492  67.274  1.00  0.00    -0.149 C  
HETATM   15  N   UNL     1     -10.242   8.783  66.315  1.00  0.00    -0.378 N  
HETATM   16  H1  UNL     1     -10.181   9.702  65.878  1.00  0.00     0.000 HD 
HETATM   17  O   UNL     1      -8.442   9.335  67.510  1.00  0.00    -0.115 OA 
HETATM   18  H2  UNL     1     -10.964   8.113  66.052  1.00  0.00     0.000 HD 
ENDBRANCH   7  14
BRANCH   7  19
HETATM   19  C   UNL     1      -9.411   6.063  66.757  1.00  0.00    -0.138 A  
HETATM   20  C   UNL     1      -9.413   4.375  64.567  1.00  0.00    -0.131 A  
HETATM   21  N   UNL     1      -8.395   6.132  65.850  1.00  0.00    -0.134 NA 
HETATM   22  C   UNL     1     -10.433   4.278  65.502  1.00  0.00    -0.177 A  
HETATM   23  C   UNL     1      -8.419   5.305  64.784  1.00  0.00    -0.149 A  
HETATM   24  C   UNL     1     -10.435   5.124  66.617  1.00  0.00    -0.328 A  
ENDBRANCH   7  19
ENDBRANCH   6   7
ENDBRANCH   5   6
ENDBRANCH   4   5
BRANCH   4  25
HETATM   25  C   UNL     1     -10.605   5.654  72.182  1.00  0.00    -0.223 C  
HETATM   26  C   UNL     1     -11.365   4.910  73.295  1.00  0.00    -0.408 C  
HETATM   27  C   UNL     1      -9.568   4.627  71.668  1.00  0.00    -0.221 C  
ENDBRANCH   4  25
ENDBRANCH   2   4
TORSDOF 8
ENDMDL
MODEL      202
REMARK 921   NORMALIZED FREE ENERGY PREDICTED BY IDOCK:   -3.37 KCAL/MOL
REMARK 922        TOTAL FREE ENERGY PREDICTED BY IDOCK:   -6.65 KCAL/MOL
REMARK 923 INTER-LIGAND FREE ENERGY PREDICTED BY IDOCK:   -5.08 KCAL/MOL
REMARK 924 INTRA-LIGAND FREE ENERGY PREDICTED BY IDOCK:   -1.58 KCAL/MOL
REMARK 927      BINDING AFFINITY PREDICTED BY RF-SCORE:    0.00 PKD
ROOT
HETATM    1  C   UNL     1      -9.601   3.770  70.121  1.00  0.00    -0.258 C  
HETATM    2  C   UNL     1      -9.281   4.492  71.453  1.00  0.00    -0.136 C  
HETATM    3  C   UNL     1      -7.823   4.124  71.777  1.00  0.00    -0.075 C  
ENDROOT
BRANCH   2   4
HETATM    4  N   UNL     1      -9.600   5.958  71.381  1.00  0.00    -0.163 NA 
BRANCH   4   5
HETATM    5  C   UNL     1      -9.921   6.367  69.969  1.00  0.00    -0.169 C  
BRANCH   5   6
HETATM    6  C   UNL     1      -9.089   7.555  69.448  1.00  0.00    -0.142 C  
BRANCH   6   7
HETATM    7  C   UNL     1      -9.574   8.287  68.146  1.00  0.00    -0.163 C  
BRANCH   7   8
HETATM    8  C   UNL     1     -10.458   9.493  68.578  1.00  0.00    -0.247 A  
HETATM    9  C   UNL     1     -10.920  10.451  67.656  1.00  0.00    -0.374 A  
HETATM   10  C   UNL     1     -11.763  11.495  68.048  1.00  0.00    -0.343 A  
HETATM   11  C   UNL     1     -10.906   9.621  69.911  1.00  0.00    -0.287 A  
HETATM   12  C   UNL     1     -12.168  11.609  69.374  1.00  0.00    -0.246 A  
HETATM   13  C   UNL     1     -11.737  10.674  70.305  1.00  0.00    -0.433 A  
ENDBRANCH   7   8
BRANCH   7  14
HETATM   14  C   UNL     1     -10.290   7.266  67.200  1.00  0.00    -0.297 C  
HETATM   15  N   UNL     1      -9.481   6.446  66.454  1.00  0.00    -0.236 N  
HETATM   16  H1  UNL     1      -9.947   5.782  65.837  1.00  0.00     0.000 HD 
HETATM   17  O   UNL     1     -11.504   7.170  67.048  1.00  0.00     0.038 OA 
HETATM   18  H2  UNL     1      -8.464   6.500  66.512  1.00  0.00     0.000 HD 
ENDBRANCH   7  14
BRANCH   7  19
HETATM   19  C   UNL     1      -8.306   8.757  67.361  1.00  0.00    -0.109 A  
HETATM   20  C   UNL     1      -6.099   9.490  65.866  1.00  0.00    -0.063 A  
HETATM   21  N   UNL     1      -8.459   9.084  66.046  1.00  0.00    -0.124 NA 
HETATM   22  C   UNL     1      -5.941   9.189  67.211  1.00  0.00    -0.050 A  
HETATM   23  C   UNL     1      -7.368   9.432  65.332  1.00  0.00    -0.096 A  
HETATM   24  C   UNL     1      -7.054   8.824  67.976  1.00  0.00    -0.079 A  
ENDBRANCH   7  19
ENDBRANCH   6   7
ENDBRANCH   5   6
ENDBRANCH   4   5
BRANCH   4  25
HETATM   25  C   UNL     1     -10.622   6.478  72.350  1.00  0.00    -0.215 C  
HETATM   26  C   UNL     1     -10.377   7.888  72.915  1.00  0.00    -0.413 C  
HETATM   27  C   UNL     1     -12.034   6.551  71.720  1.00  0.00    -0.394 C  
ENDBRANCH   4  25
ENDBRANCH   2   4
TORSDOF 8
ENDMDL
MODEL      203
REMARK 921   NORMALIZED FREE ENERGY PREDICTED BY IDOCK:   -3.34 KCAL/MOL
REMARK 922        TOTAL FREE ENERGY PREDICTED BY IDOCK:   -6.62 KCAL/MOL
REMARK 923 INTER-LIGAND FREE ENERGY PREDICTED BY IDOCK:   -5.74 KCAL/MOL
REMARK 924 INTRA-LIGAND FREE ENERGY PREDICTED BY IDOCK:   -0.88 KCAL/MOL
REMARK 927      BINDING AFFINITY PREDICTED BY RF-SCORE:    0.00 PKD
ROOT
HETATM    1  C   UNL     1     -13.026  10.120  70.146  1.00  0.00     0.108 C  
HETATM    2  C   UNL     1     -11.702  10.786  70.596  1.00  0.00    -0.342 C  
HETATM    3  C   UNL     1     -10.771   9.624  70.981  1.00  0.00    -0.393 C  
ENDROOT
BRANCH   2   4
HETATM    4  N   UNL     1     -11.184  11.745  69.563  1.00  0.00    -0.228 NA 
BRANCH   4   5
HETATM    5  C   UNL     1     -11.556  11.291  68.177  1.00  0.00    -0.289 C  
BRANCH   5   6
HETATM    6  C   UNL     1     -10.412  10.601  67.408  1.00  0.00    -0.280 C  
BRANCH   6   7
HETATM    7  C   UNL     1      -9.693  11.405  66.268  1.00  0.00    -0.239 C  
BRANCH   7   8
HETATM    8  C   UNL     1      -8.520  12.201  66.913  1.00  0.00    -0.173 A  
HETATM    9  C   UNL     1      -7.192  11.736  66.878  1.00  0.00    -0.103 A  
HETATM   10  C   UNL     1      -6.141  12.490  67.409  1.00  0.00    -0.155 A  
HETATM   11  C   UNL     1      -8.738  13.473  67.485  1.00  0.00    -0.208 A  
HETATM   12  C   UNL     1      -6.389  13.730  67.988  1.00  0.00    -0.141 A  
HETATM   13  C   UNL     1      -7.689  14.220  68.029  1.00  0.00    -0.141 A  
ENDBRANCH   7   8
BRANCH   7  14
HETATM   14  C   UNL     1     -10.734  12.291  65.507  1.00  0.00    -0.279 C  
HETATM   15  N   UNL     1     -10.269  13.468  64.975  1.00  0.00    -0.499 N  
HETATM   16  H1  UNL     1     -10.948  14.046  64.479  1.00  0.00     0.000 HD 
HETATM   17  O   UNL     1     -11.929  12.037  65.385  1.00  0.00    -0.399 OA 
HETATM   18  H2  UNL     1      -9.294  13.750  65.070  1.00  0.00     0.000 HD 
ENDBRANCH   7  14
BRANCH   7  19
HETATM   19  C   UNL     1      -9.176  10.377  65.210  1.00  0.00    -0.199 A  
HETATM   20  C   UNL     1      -8.384   8.584  63.259  1.00  0.00    -0.107 A  
HETATM   21  N   UNL     1      -9.179  10.758  63.900  1.00  0.00    -0.222 NA 
HETATM   22  C   UNL     1      -8.348   8.201  64.592  1.00  0.00    -0.089 A  
HETATM   23  C   UNL     1      -8.797   9.865  62.963  1.00  0.00    -0.245 A  
HETATM   24  C   UNL     1      -8.740   9.105  65.585  1.00  0.00    -0.203 A  
ENDBRANCH   7  19
ENDBRANCH   6   7
ENDBRANCH   5   6
ENDBRANCH   4   5
BRANCH   4  25
HETATM   25  C   UNL     1     -11.498  13.198  69.769  1.00  0.00    -0.145 C  
HETATM   26  C   UNL     1     -12.090  13.950  68.564  1.00  0.00    -0.331 C  
HETATM   27  C   UNL     1     -12.528  13.413  70.904  1.00  0.00    -0.439 C  
ENDBRANCH   4  25
ENDBRANCH   2   4
TORSDOF 8
ENDMDL
MODEL      204
REMARK 921   NORMALIZED FREE ENERGY PREDICTED BY IDOCK:   -3.34 KCAL/MOL
REMARK 922        TOTAL FREE ENERGY PREDICTED BY IDOCK:   -6.61 KCAL/MOL
REMARK 923 INTER-LIGAND FREE ENERGY PREDICTED BY IDOCK:   -5.22 KCAL/MOL
REMARK 924 INTRA-LIGAND FREE ENERGY PREDICTED BY IDOCK:   -1.39 KCAL/MOL
REMARK 927      BINDING AFFINITY PREDICTED BY RF-SCORE:    0.00 PKD
ROOT
HETATM    1  C   UNL     1     -10.121   8.582  72.043  1.00  0.00    -0.386 C  
HETATM    2  C   UNL     1      -9.265   7.291  71.990  1.00  0.00    -0.132 C  
HETATM    3  C   UNL     1      -8.570   7.207  73.359  1.00  0.00    -0.162 C  
ENDROOT
BRANCH   2   4
HETATM    4  N   UNL     1     -10.083   6.100  71.580  1.00  0.00    -0.190 NA 
BRANCH   4   5
HETATM    5  C   UNL     1      -9.741   5.673  70.178  1.00  0.00    -0.174 C  
BRANCH   5   6
HETATM    6  C   UNL     1     -10.371   6.549  69.077  1.00  0.00    -0.226 C  
BRANCH   6   7
HETATM    7  C   UNL     1      -9.430   7.133  67.964  1.00  0.00    -0.132 C  
BRANCH   7   8
HETATM    8  C   UNL     1      -9.440   6.142  66.764  1.00  0.00    -0.164 A  
HETATM    9  C   UNL     1     -10.505   5.250  66.538  1.00  0.00    -0.354 A  
HETATM   10  C   UNL     1     -10.528   4.407  65.423  1.00  0.00    -0.219 A  
HETATM   11  C   UNL     1      -8.409   6.163  65.800  1.00  0.00    -0.143 A  
HETATM   12  C   UNL     1      -9.486   4.433  64.502  1.00  0.00    -0.131 A  
HETATM   13  C   UNL     1      -8.425   5.309  64.693  1.00  0.00    -0.142 A  
ENDBRANCH   7   8
BRANCH   7  14
HETATM   14  C   UNL     1      -8.011   7.411  68.562  1.00  0.00    -0.124 C  
HETATM   15  N   UNL     1      -7.778   8.679  69.032  1.00  0.00    -0.094 N  
HETATM   16  H1  UNL     1      -6.853   8.860  69.421  1.00  0.00     0.000 HD 
HETATM   17  O   UNL     1      -7.088   6.602  68.606  1.00  0.00    -0.077 OA 
HETATM   18  H2  UNL     1      -8.494   9.404  68.993  1.00  0.00     0.000 HD 
ENDBRANCH   7  14
BRANCH   7  19
HETATM   19  C   UNL     1      -9.986   8.536  67.555  1.00  0.00    -0.200 A  
HETATM   20  C   UNL     1     -11.099  10.978  66.888  1.00  0.00    -0.280 A  
HETATM   21  N   UNL     1     -10.653   9.255  68.502  1.00  0.00    -0.206 NA 
HETATM   22  C   UNL     1     -10.395  10.265  65.929  1.00  0.00    -0.241 A  
HETATM   23  C   UNL     1     -11.196  10.441  68.154  1.00  0.00    -0.268 A  
HETATM   24  C   UNL     1      -9.822   9.032  66.260  1.00  0.00    -0.361 A  
ENDBRANCH   7  19
ENDBRANCH   6   7
ENDBRANCH   5   6
ENDBRANCH   4   5
BRANCH   4  25
HETATM   25  C   UNL     1     -10.099   4.933  72.523  1.00  0.00    -0.182 C  
HETATM   26  C   UNL     1     -11.403   4.702  73.307  1.00  0.00    -0.393 C  
HETATM   27  C   UNL     1      -9.844   3.593  71.791  1.00  0.00    -0.235 C  
ENDBRANCH   4  25
ENDBRANCH   2   4
TORSDOF 8
ENDMDL
MODEL      205
REMARK 921   NORMALIZED FREE ENERGY PREDICTED BY IDOCK:   -3.31 KCAL/MOL
REMARK 922        TOTAL FREE ENERGY PREDICTED BY IDOCK:   -6.57 KCAL/MOL
REMARK 923 INTER-LIGAND FREE ENERGY PREDICTED BY IDOCK:   -6.73 KCAL/MOL
REMARK 924 INTRA-LIGAND FREE ENERGY PREDICTED BY IDOCK:    0.17 KCAL/MOL
REMARK 927      BINDING AFFINITY PREDICTED BY RF-SCORE:    0.00 PKD
ROOT
HETATM    1  C   UNL     1     -10.550  15.372  70.540  1.00  0.00    -0.229 C  
HETATM    2  C   UNL     1     -10.722  14.765  69.126  1.00  0.00    -0.254 C  
HETATM    3  C   UNL     1     -12.090  15.265  68.631  1.00  0.00    -0.160 C  
ENDROOT
BRANCH   2   4
HETATM    4  N   UNL     1      -9.542  15.064  68.246  1.00  0.00    -0.206 NA 
BRANCH   4   5
HETATM    5  C   UNL     1      -9.176  13.863  67.416  1.00  0.00    -0.224 C  
BRANCH   5   6
HETATM    6  C   UNL     1      -9.917  13.776  66.067  1.00  0.00    -0.319 C  
BRANCH   6   7
HETATM    7  C   UNL     1     -10.776  12.496  65.772  1.00  0.00    -0.299 C  
BRANCH   7   8
HETATM    8  C   UNL     1     -10.003  11.631  64.735  1.00  0.00    -0.292 A  
HETATM    9  C   UNL     1      -9.683  10.282  64.975  1.00  0.00    -0.370 A  
HETATM   10  C   UNL     1      -9.041   9.500  64.009  1.00  0.00    -0.183 A  
HETATM   11  C   UNL     1      -9.669  12.151  63.465  1.00  0.00    -0.131 A  
HETATM   12  C   UNL     1      -8.702  10.047  62.776  1.00  0.00    -0.215 A  
HETATM   13  C   UNL     1      -9.013  11.373  62.506  1.00  0.00    -0.172 A  
ENDBRANCH   7   8
BRANCH   7  14
HETATM   14  C   UNL     1     -12.215  12.915  65.320  1.00  0.00    -0.476 C  
HETATM   15  N   UNL     1     -12.841  12.092  64.418  1.00  0.00    -0.510 N  
HETATM   16  H1  UNL     1     -13.778  12.366  64.123  1.00  0.00     0.000 HD 
HETATM   17  O   UNL     1     -12.803  13.933  65.677  1.00  0.00    -0.541 OA 
HETATM   18  H2  UNL     1     -12.392  11.250  64.060  1.00  0.00     0.000 HD 
ENDBRANCH   7  14
BRANCH   7  19
HETATM   19  C   UNL     1     -10.976  11.732  67.122  1.00  0.00    -0.276 A  
HETATM   20  C   UNL     1     -11.393  10.503  69.563  1.00  0.00    -0.341 A  
HETATM   21  N   UNL     1     -12.219  11.745  67.681  1.00  0.00    -0.369 NA 
HETATM   22  C   UNL     1     -10.133  10.459  68.985  1.00  0.00    -0.227 A  
HETATM   23  C   UNL     1     -12.400  11.146  68.877  1.00  0.00     0.118 A  
HETATM   24  C   UNL     1      -9.915  11.072  67.746  1.00  0.00    -0.194 A  
ENDBRANCH   7  19
ENDBRANCH   6   7
ENDBRANCH   5   6
ENDBRANCH   4   5
BRANCH   4  25
HETATM   25  C   UNL     1      -9.617  16.308  67.411  1.00  0.00    -0.230 C  
HETATM   26  C   UNL     1      -9.770  17.637  68.173  1.00  0.00    -0.310 C  
HETATM   27  C   UNL     1      -8.349  16.502  66.544  1.00  0.00    -0.327 C  
ENDBRANCH   4  25
ENDBRANCH   2   4
TORSDOF 8
ENDMDL
MODEL      206
REMARK 921   NORMALIZED FREE ENERGY PREDICTED BY IDOCK:   -3.29 KCAL/MOL
REMARK 922        TOTAL FREE ENERGY PREDICTED BY IDOCK:   -6.53 KCAL/MOL
REMARK 923 INTER-LIGAND FREE ENERGY PREDICTED BY IDOCK:   -6.04 KCAL/MOL
REMARK 924 INTRA-LIGAND FREE ENERGY PREDICTED BY IDOCK:   -0.49 KCAL/MOL
REMARK 927      BINDING AFFINITY PREDICTED BY RF-SCORE:    0.00 PKD
ROOT
HETATM    1  C   UNL     1      -7.438   9.974  70.367  1.00  0.00    -0.069 C  
HETATM    2  C   UNL     1      -8.422   9.194  69.460  1.00  0.00    -0.128 C  
HETATM    3  C   UNL     1      -8.371   7.740  69.957  1.00  0.00    -0.130 C  
ENDROOT
BRANCH   2   4
HETATM    4  N   UNL     1      -9.777   9.843  69.424  1.00  0.00    -0.201 NA 
BRANCH   4   5
HETATM    5  C   UNL     1     -10.510   9.480  68.161  1.00  0.00    -0.223 C  
BRANCH   5   6
HETATM    6  C   UNL     1     -11.008  10.691  67.347  1.00  0.00    -0.361 C  
BRANCH   6   7
HETATM    7  C   UNL     1     -10.141  11.176  66.131  1.00  0.00    -0.284 C  
BRANCH   7   8
HETATM    8  C   UNL     1     -10.868  12.391  65.483  1.00  0.00    -0.316 A  
HETATM    9  C   UNL     1     -12.271  12.469  65.405  1.00  0.00    -0.475 A  
HETATM   10  C   UNL     1     -12.911  13.593  64.874  1.00  0.00    -0.256 A  
HETATM   11  C   UNL     1     -10.138  13.509  65.022  1.00  0.00    -0.280 A  
HETATM   12  C   UNL     1     -12.165  14.670  64.406  1.00  0.00    -0.473 A  
HETATM   13  C   UNL     1     -10.778  14.626  64.477  1.00  0.00    -0.156 A  
ENDBRANCH   7   8
BRANCH   7  14
HETATM   14  C   UNL     1      -9.882   9.981  65.155  1.00  0.00    -0.318 C  
HETATM   15  N   UNL     1     -10.092  10.220  63.820  1.00  0.00    -0.483 N  
HETATM   16  H1  UNL     1      -9.923   9.441  63.183  1.00  0.00     0.000 HD 
HETATM   17  O   UNL     1      -9.548   8.848  65.491  1.00  0.00    -0.184 OA 
HETATM   18  H2  UNL     1     -10.400  11.131  63.481  1.00  0.00     0.000 HD 
ENDBRANCH   7  14
BRANCH   7  19
HETATM   19  C   UNL     1      -8.732  11.575  66.677  1.00  0.00    -0.182 A  
HETATM   20  C   UNL     1      -6.278  12.420  67.632  1.00  0.00    -0.132 A  
HETATM   21  N   UNL     1      -8.678  12.470  67.705  1.00  0.00    -0.166 NA 
HETATM   22  C   UNL     1      -6.325  11.486  66.608  1.00  0.00    -0.103 A  
HETATM   23  C   UNL     1      -7.471  12.876  68.150  1.00  0.00    -0.126 A  
HETATM   24  C   UNL     1      -7.563  11.047  66.124  1.00  0.00    -0.084 A  
ENDBRANCH   7  19
ENDBRANCH   6   7
ENDBRANCH   5   6
ENDBRANCH   4   5
BRANCH   4  25
HETATM   25  C   UNL     1     -10.645   9.666  70.634  1.00  0.00    -0.319 C  
HETATM   26  C   UNL     1     -11.737  10.727  70.857  1.00  0.00    -0.334 C  
HETATM   27  C   UNL     1     -11.410   8.321  70.608  1.00  0.00    -0.257 C  
ENDBRANCH   4  25
ENDBRANCH   2   4
TORSDOF 8
ENDMDL
MODEL      207
REMARK 921   NORMALIZED FREE ENERGY PREDICTED BY IDOCK:   -3.28 KCAL/MOL
REMARK 922        TOTAL FREE ENERGY PREDICTED BY IDOCK:   -6.53 KCAL/MOL
REMARK 923 INTER-LIGAND FREE ENERGY PREDICTED BY IDOCK:   -4.78 KCAL/MOL
REMARK 924 INTRA-LIGAND FREE ENERGY PREDICTED BY IDOCK:   -1.75 KCAL/MOL
REMARK 927      BINDING AFFINITY PREDICTED BY RF-SCORE:    0.00 PKD
ROOT
HETATM    1  C   UNL     1      -8.099   7.796  65.145  1.00  0.00    -0.137 C  
HETATM    2  C   UNL     1      -8.767   8.195  66.484  1.00  0.00    -0.143 C  
HETATM    3  C   UNL     1      -9.918   9.139  66.101  1.00  0.00    -0.338 C  
ENDROOT
BRANCH   2   4
HETATM    4  N   UNL     1      -9.135   6.989  67.301  1.00  0.00    -0.124 NA 
BRANCH   4   5
HETATM    5  C   UNL     1      -8.718   7.168  68.736  1.00  0.00    -0.124 C  
BRANCH   5   6
HETATM    6  C   UNL     1      -7.415   7.970  68.922  1.00  0.00    -0.093 C  
BRANCH   6   7
HETATM    7  C   UNL     1      -7.454   9.249  69.832  1.00  0.00    -0.085 C  
BRANCH   7   8
HETATM    8  C   UNL     1      -6.901  10.443  69.000  1.00  0.00    -0.064 A  
HETATM    9  C   UNL     1      -6.385  10.274  67.701  1.00  0.00    -0.058 A  
HETATM   10  C   UNL     1      -5.948  11.364  66.942  1.00  0.00    -0.122 A  
HETATM   11  C   UNL     1      -6.978  11.764  69.491  1.00  0.00     0.027 A  
HETATM   12  C   UNL     1      -6.014  12.653  67.462  1.00  0.00    -0.151 A  
HETATM   13  C   UNL     1      -6.526  12.852  68.738  1.00  0.00    -0.085 A  
ENDBRANCH   7   8
BRANCH   7  14
HETATM   14  C   UNL     1      -6.678   8.975  71.163  1.00  0.00    -0.090 C  
HETATM   15  N   UNL     1      -6.581   7.665  71.562  1.00  0.00    -0.044 N  
HETATM   16  H1  UNL     1      -6.077   7.487  72.430  1.00  0.00     0.000 HD 
HETATM   17  O   UNL     1      -6.190   9.836  71.891  1.00  0.00    -0.301 OA 
HETATM   18  H2  UNL     1      -6.994   6.909  71.017  1.00  0.00     0.000 HD 
ENDBRANCH   7  14
BRANCH   7  19
HETATM   19  C   UNL     1      -8.938   9.486  70.261  1.00  0.00    -0.248 A  
HETATM   20  C   UNL     1     -11.576   9.761  71.045  1.00  0.00    -0.455 A  
HETATM   21  N   UNL     1      -9.353   8.939  71.439  1.00  0.00    -0.258 NA 
HETATM   22  C   UNL     1     -11.152  10.348  69.861  1.00  0.00    -0.367 A  
HETATM   23  C   UNL     1     -10.647   9.077  71.799  1.00  0.00    -0.356 A  
HETATM   24  C   UNL     1      -9.817  10.220  69.461  1.00  0.00    -0.244 A  
ENDBRANCH   7  19
ENDBRANCH   6   7
ENDBRANCH   5   6
ENDBRANCH   4   5
BRANCH   4  25
HETATM   25  C   UNL     1     -10.551   6.504  67.195  1.00  0.00    -0.328 C  
HETATM   26  C   UNL     1     -10.766   5.165  66.468  1.00  0.00    -0.262 C  
HETATM   27  C   UNL     1     -11.200   6.299  68.585  1.00  0.00    -0.328 C  
ENDBRANCH   4  25
ENDBRANCH   2   4
TORSDOF 8
ENDMDL
MODEL      208
REMARK 921   NORMALIZED FREE ENERGY PREDICTED BY IDOCK:   -3.27 KCAL/MOL
REMARK 922        TOTAL FREE ENERGY PREDICTED BY IDOCK:   -6.51 KCAL/MOL
REMARK 923 INTER-LIGAND FREE ENERGY PREDICTED BY IDOCK:   -6.95 KCAL/MOL
REMARK 924 INTRA-LIGAND FREE ENERGY PREDICTED BY IDOCK:    0.43 KCAL/MOL
REMARK 927      BINDING AFFINITY PREDICTED BY RF-SCORE:    0.00 PKD
ROOT
HETATM    1  C   UNL     1      -9.720   9.541  65.633  1.00  0.00    -0.361 C  
HETATM    2  C   UNL     1      -8.243   9.976  65.473  1.00  0.00    -0.146 C  
HETATM    3  C   UNL     1      -8.015  10.098  63.957  1.00  0.00    -0.154 C  
ENDROOT
BRANCH   2   4
HETATM    4  N   UNL     1      -7.930  11.192  66.297  1.00  0.00    -0.154 NA 
BRANCH   4   5
HETATM    5  C   UNL     1      -9.194  11.848  66.783  1.00  0.00    -0.194 C  
BRANCH   5   6
HETATM    6  C   UNL     1      -9.618  13.088  65.971  1.00  0.00    -0.175 C  
BRANCH   6   7
HETATM    7  C   UNL     1     -10.837  13.932  66.487  1.00  0.00    -0.295 C  
BRANCH   7   8
HETATM    8  C   UNL     1     -11.245  13.375  67.882  1.00  0.00    -0.303 A  
HETATM    9  C   UNL     1     -11.509  14.220  68.977  1.00  0.00    -0.318 A  
HETATM   10  C   UNL     1     -11.934  13.709  70.207  1.00  0.00    -0.397 A  
HETATM   11  C   UNL     1     -11.453  11.992  68.077  1.00  0.00    -0.392 A  
HETATM   12  C   UNL     1     -12.106  12.339  70.377  1.00  0.00    -0.385 A  
HETATM   13  C   UNL     1     -11.863  11.481  69.312  1.00  0.00    -0.414 A  
ENDBRANCH   7   8
BRANCH   7  14
HETATM   14  C   UNL     1     -11.983  13.913  65.422  1.00  0.00    -0.381 C  
HETATM   15  N   UNL     1     -11.614  14.112  64.115  1.00  0.00    -0.625 N  
HETATM   16  H1  UNL     1     -12.361  14.100  63.422  1.00  0.00     0.000 HD 
HETATM   17  O   UNL     1     -13.179  13.774  65.668  1.00  0.00    -0.574 OA 
HETATM   18  H2  UNL     1     -10.641  14.265  63.852  1.00  0.00     0.000 HD 
ENDBRANCH   7  14
BRANCH   7  19
HETATM   19  C   UNL     1     -10.381  15.425  66.575  1.00  0.00    -0.289 A  
HETATM   20  C   UNL     1      -9.437  18.020  66.718  1.00  0.00    -0.293 A  
HETATM   21  N   UNL     1      -9.507  15.879  65.632  1.00  0.00    -0.383 NA 
HETATM   22  C   UNL     1     -10.351  17.575  67.662  1.00  0.00    -0.360 A  
HETATM   23  C   UNL     1      -9.052  17.146  65.725  1.00  0.00     0.172 A  
HETATM   24  C   UNL     1     -10.839  16.265  67.593  1.00  0.00    -0.293 A  
ENDBRANCH   7  19
ENDBRANCH   6   7
ENDBRANCH   5   6
ENDBRANCH   4   5
BRANCH   4  25
HETATM   25  C   UNL     1      -6.936  11.021  67.407  1.00  0.00    -0.086 C  
HETATM   26  C   UNL     1      -6.815  12.185  68.407  1.00  0.00    -0.073 C  
HETATM   27  C   UNL     1      -7.254   9.787  68.286  1.00  0.00    -0.078 C  
ENDBRANCH   4  25
ENDBRANCH   2   4
TORSDOF 8
ENDMDL
MODEL      209
REMARK 921   NORMALIZED FREE ENERGY PREDICTED BY IDOCK:   -3.27 KCAL/MOL
REMARK 922        TOTAL FREE ENERGY PREDICTED BY IDOCK:   -6.51 KCAL/MOL
REMARK 923 INTER-LIGAND FREE ENERGY PREDICTED BY IDOCK:   -5.85 KCAL/MOL
REMARK 924 INTRA-LIGAND FREE ENERGY PREDICTED BY IDOCK:   -0.66 KCAL/MOL
REMARK 927      BINDING AFFINITY PREDICTED BY RF-SCORE:    0.00 PKD
ROOT
HETATM    1  C   UNL     1     -13.156  14.900  70.687  1.00  0.00    -0.363 C  
HETATM    2  C   UNL     1     -12.075  15.956  71.030  1.00  0.00    -0.395 C  
HETATM    3  C   UNL     1     -11.663  15.661  72.481  1.00  0.00    -0.567 C  
ENDROOT
BRANCH   2   4
HETATM    4  N   UNL     1     -10.972  15.971  70.010  1.00  0.00    -0.340 NA 
BRANCH   4   5
HETATM    5  C   UNL     1     -11.232  14.961  68.926  1.00  0.00    -0.269 C  
BRANCH   5   6
HETATM    6  C   UNL     1     -10.241  13.780  68.909  1.00  0.00    -0.111 C  
BRANCH   6   7
HETATM    7  C   UNL     1      -9.520  13.435  67.558  1.00  0.00    -0.219 C  
BRANCH   7   8
HETATM    8  C   UNL     1     -10.615  13.245  66.468  1.00  0.00    -0.289 A  
HETATM    9  C   UNL     1     -11.365  14.324  65.965  1.00  0.00    -0.335 A  
HETATM   10  C   UNL     1     -12.304  14.147  64.943  1.00  0.00    -0.446 A  
HETATM   11  C   UNL     1     -10.836  11.981  65.877  1.00  0.00    -0.329 A  
HETATM   12  C   UNL     1     -12.517  12.886  64.397  1.00  0.00    -0.447 A  
HETATM   13  C   UNL     1     -11.785  11.803  64.866  1.00  0.00    -0.187 A  
ENDBRANCH   7   8
BRANCH   7  14
HETATM   14  C   UNL     1      -8.585  12.196  67.758  1.00  0.00    -0.164 C  
HETATM   15  N   UNL     1      -8.568  11.633  69.010  1.00  0.00    -0.371 N  
HETATM   16  H1  UNL     1      -7.958  10.826  69.141  1.00  0.00     0.000 HD 
HETATM   17  O   UNL     1      -7.846  11.718  66.902  1.00  0.00    -0.160 OA 
HETATM   18  H2  UNL     1      -9.135  12.004  69.771  1.00  0.00     0.000 HD 
ENDBRANCH   7  14
BRANCH   7  19
HETATM   19  C   UNL     1      -8.563  14.620  67.210  1.00  0.00    -0.214 A  
HETATM   20  C   UNL     1      -6.861  16.749  66.738  1.00  0.00    -0.265 A  
HETATM   21  N   UNL     1      -7.397  14.722  67.910  1.00  0.00    -0.134 NA 
HETATM   22  C   UNL     1      -8.030  16.634  66.000  1.00  0.00    -0.052 A  
HETATM   23  C   UNL     1      -6.585  15.773  67.671  1.00  0.00    -0.171 A  
HETATM   24  C   UNL     1      -8.893  15.556  66.227  1.00  0.00    -0.338 A  
ENDBRANCH   7  19
ENDBRANCH   6   7
ENDBRANCH   5   6
ENDBRANCH   4   5
BRANCH   4  25
HETATM   25  C   UNL     1     -10.595  17.307  69.440  1.00  0.00    -0.079 C  
HETATM   26  C   UNL     1      -9.095  17.647  69.422  1.00  0.00     0.408 C  
HETATM   27  C   UNL     1     -11.045  17.456  67.966  1.00  0.00    -0.016 C  
ENDBRANCH   4  25
ENDBRANCH   2   4
TORSDOF 8
ENDMDL
MODEL      210
REMARK 921   NORMALIZED FREE ENERGY PREDICTED BY IDOCK:   -3.27 KCAL/MOL
REMARK 922        TOTAL FREE ENERGY PREDICTED BY IDOCK:   -6.50 KCAL/MOL
REMARK 923 INTER-LIGAND FREE ENERGY PREDICTED BY IDOCK:   -6.79 KCAL/MOL
REMARK 924 INTRA-LIGAND FREE ENERGY PREDICTED BY IDOCK:    0.29 KCAL/MOL
REMARK 927      BINDING AFFINITY PREDICTED BY RF-SCORE:    0.00 PKD
ROOT
HETATM    1  C   UNL     1     -11.829  15.983  71.510  1.00  0.00    -0.554 C  
HETATM    2  C   UNL     1     -11.913  14.456  71.263  1.00  0.00    -0.291 C  
HETATM    3  C   UNL     1     -13.001  13.947  72.222  1.00  0.00    -0.450 C  
ENDROOT
BRANCH   2   4
HETATM    4  N   UNL     1     -12.102  14.139  69.807  1.00  0.00    -0.336 NA 
BRANCH   4   5
HETATM    5  C   UNL     1     -11.578  15.255  68.944  1.00  0.00    -0.347 C  
BRANCH   5   6
HETATM    6  C   UNL     1     -10.040  15.320  68.856  1.00  0.00    -0.225 C  
BRANCH   6   7
HETATM    7  C   UNL     1      -9.398  16.016  67.604  1.00  0.00    -0.214 C  
BRANCH   7   8
HETATM    8  C   UNL     1      -9.763  17.529  67.660  1.00  0.00    -0.275 A  
HETATM    9  C   UNL     1     -10.636  18.122  66.730  1.00  0.00    -0.310 A  
HETATM   10  C   UNL     1     -11.002  19.468  66.828  1.00  0.00    -0.391 A  
HETATM   11  C   UNL     1      -9.295  18.347  68.711  1.00  0.00    -0.301 A  
HETATM   12  C   UNL     1     -10.506  20.257  67.860  1.00  0.00    -0.321 A  
HETATM   13  C   UNL     1      -9.650  19.697  68.800  1.00  0.00    -0.444 A  
ENDBRANCH   7   8
BRANCH   7  14
HETATM   14  C   UNL     1      -9.858  15.288  66.298  1.00  0.00    -0.294 C  
HETATM   15  N   UNL     1      -9.822  16.022  65.138  1.00  0.00     0.080 N  
HETATM   16  H1  UNL     1     -10.122  15.548  64.287  1.00  0.00     0.000 HD 
HETATM   17  O   UNL     1     -10.281  14.137  66.237  1.00  0.00    -0.279 OA 
HETATM   18  H2  UNL     1      -9.511  16.993  65.129  1.00  0.00     0.000 HD 
ENDBRANCH   7  14
BRANCH   7  19
HETATM   19  C   UNL     1      -7.851  15.796  67.675  1.00  0.00    -0.150 A  
HETATM   20  C   UNL     1      -5.129  15.397  67.947  1.00  0.00    -0.119 A  
HETATM   21  N   UNL     1      -7.393  14.747  68.415  1.00  0.00    -0.109 NA 
HETATM   22  C   UNL     1      -5.589  16.448  67.167  1.00  0.00    -0.111 A  
HETATM   23  C   UNL     1      -6.061  14.574  68.542  1.00  0.00    -0.091 A  
HETATM   24  C   UNL     1      -6.965  16.652  67.018  1.00  0.00    -0.241 A  
ENDBRANCH   7  19
ENDBRANCH   6   7
ENDBRANCH   5   6
ENDBRANCH   4   5
BRANCH   4  25
HETATM   25  C   UNL     1     -11.611  12.802  69.336  1.00  0.00    -0.298 C  
HETATM   26  C   UNL     1     -12.141  11.571  70.091  1.00  0.00    -0.432 C  
HETATM   27  C   UNL     1     -11.980  12.538  67.856  1.00  0.00    -0.283 C  
ENDBRANCH   4  25
ENDBRANCH   2   4
TORSDOF 8
ENDMDL
MODEL      211
REMARK 921   NORMALIZED FREE ENERGY PREDICTED BY IDOCK:   -3.26 KCAL/MOL
REMARK 922        TOTAL FREE ENERGY PREDICTED BY IDOCK:   -6.49 KCAL/MOL
REMARK 923 INTER-LIGAND FREE ENERGY PREDICTED BY IDOCK:   -5.60 KCAL/MOL
REMARK 924 INTRA-LIGAND FREE ENERGY PREDICTED BY IDOCK:   -0.89 KCAL/MOL
REMARK 927      BINDING AFFINITY PREDICTED BY RF-SCORE:    0.00 PKD
ROOT
HETATM    1  C   UNL     1      -9.769  11.983  66.907  1.00  0.00    -0.213 C  
HETATM    2  C   UNL     1      -8.342  11.529  67.299  1.00  0.00    -0.154 C  
HETATM    3  C   UNL     1      -7.785  12.654  68.186  1.00  0.00    -0.142 C  
ENDROOT
BRANCH   2   4
HETATM    4  N   UNL     1      -8.342  10.148  67.890  1.00  0.00    -0.117 NA 
BRANCH   4   5
HETATM    5  C   UNL     1      -9.739   9.720  68.248  1.00  0.00    -0.145 C  
BRANCH   5   6
HETATM    6  C   UNL     1     -10.044   9.754  69.759  1.00  0.00    -0.268 C  
BRANCH   6   7
HETATM    7  C   UNL     1     -10.333   8.394  70.489  1.00  0.00    -0.220 C  
BRANCH   7   8
HETATM    8  C   UNL     1      -9.326   8.262  71.669  1.00  0.00    -0.254 A  
HETATM    9  C   UNL     1      -9.723   7.823  72.945  1.00  0.00    -0.310 A  
HETATM   10  C   UNL     1      -8.796   7.652  73.979  1.00  0.00    -0.305 A  
HETATM   11  C   UNL     1      -7.948   8.498  71.473  1.00  0.00    -0.169 A  
HETATM   12  C   UNL     1      -7.448   7.916  73.763  1.00  0.00    -0.186 A  
HETATM   13  C   UNL     1      -7.025   8.342  72.511  1.00  0.00    -0.104 A  
ENDBRANCH   7   8
BRANCH   7  14
HETATM   14  C   UNL     1     -10.279   7.218  69.458  1.00  0.00    -0.198 C  
HETATM   15  N   UNL     1      -9.276   6.296  69.628  1.00  0.00    -0.141 N  
HETATM   16  H1  UNL     1      -9.240   5.530  68.956  1.00  0.00     0.000 HD 
HETATM   17  O   UNL     1     -11.031   7.079  68.498  1.00  0.00    -0.166 OA 
HETATM   18  H2  UNL     1      -8.600   6.374  70.388  1.00  0.00     0.000 HD 
ENDBRANCH   7  14
BRANCH   7  19
HETATM   19  C   UNL     1     -11.812   8.428  70.997  1.00  0.00    -0.252 A  
HETATM   20  C   UNL     1     -14.380   8.563  72.012  1.00  0.00    -0.537 A  
HETATM   21  N   UNL     1     -12.322   9.631  71.386  1.00  0.00    -0.352 NA 
HETATM   22  C   UNL     1     -13.878   7.341  71.588  1.00  0.00    -0.461 A  
HETATM   23  C   UNL     1     -13.574   9.674  71.887  1.00  0.00    -0.364 A  
HETATM   24  C   UNL     1     -12.582   7.265  71.066  1.00  0.00    -0.304 A  
ENDBRANCH   7  19
ENDBRANCH   6   7
ENDBRANCH   5   6
ENDBRANCH   4   5
BRANCH   4  25
HETATM   25  C   UNL     1      -7.619   9.081  67.120  1.00  0.00    -0.091 C  
HETATM   26  C   UNL     1      -6.790   9.550  65.912  1.00  0.00    -0.087 C  
HETATM   27  C   UNL     1      -6.613   8.308  68.006  1.00  0.00    -0.057 C  
ENDBRANCH   4  25
ENDBRANCH   2   4
TORSDOF 8
ENDMDL
MODEL      212
REMARK 921   NORMALIZED FREE ENERGY PREDICTED BY IDOCK:   -3.26 KCAL/MOL
REMARK 922        TOTAL FREE ENERGY PREDICTED BY IDOCK:   -6.49 KCAL/MOL
REMARK 923 INTER-LIGAND FREE ENERGY PREDICTED BY IDOCK:   -5.86 KCAL/MOL
REMARK 924 INTRA-LIGAND FREE ENERGY PREDICTED BY IDOCK:   -0.63 KCAL/MOL
REMARK 927      BINDING AFFINITY PREDICTED BY RF-SCORE:    0.00 PKD
ROOT
HETATM    1  C   UNL     1      -6.440   9.718  65.578  1.00  0.00    -0.084 C  
HETATM    2  C   UNL     1      -6.977  10.375  66.873  1.00  0.00    -0.093 C  
HETATM    3  C   UNL     1      -6.189  11.687  67.022  1.00  0.00    -0.144 C  
ENDROOT
BRANCH   2   4
HETATM    4  N   UNL     1      -8.475  10.492  66.856  1.00  0.00    -0.124 NA 
BRANCH   4   5
HETATM    5  C   UNL     1      -8.897  11.900  66.534  1.00  0.00    -0.178 C  
BRANCH   5   6
HETATM    6  C   UNL     1      -9.790  12.555  67.606  1.00  0.00    -0.202 C  
BRANCH   6   7
HETATM    7  C   UNL     1     -10.150  14.075  67.446  1.00  0.00    -0.244 C  
BRANCH   7   8
HETATM    8  C   UNL     1     -10.958  14.509  68.704  1.00  0.00    -0.263 A  
HETATM    9  C   UNL     1     -11.967  13.701  69.260  1.00  0.00    -0.384 A  
HETATM   10  C   UNL     1     -12.643  14.077  70.425  1.00  0.00    -0.374 A  
HETATM   11  C   UNL     1     -10.642  15.702  69.390  1.00  0.00    -0.253 A  
HETATM   12  C   UNL     1     -12.327  15.270  71.066  1.00  0.00    -0.426 A  
HETATM   13  C   UNL     1     -11.329  16.084  70.546  1.00  0.00    -0.420 A  
ENDBRANCH   7   8
BRANCH   7  14
HETATM   14  C   UNL     1     -10.896  14.301  66.089  1.00  0.00    -0.310 C  
HETATM   15  N   UNL     1     -11.628  15.457  65.974  1.00  0.00    -0.006 N  
HETATM   16  H1  UNL     1     -12.115  15.605  65.090  1.00  0.00     0.000 HD 
HETATM   17  O   UNL     1     -10.909  13.516  65.145  1.00  0.00    -0.303 OA 
HETATM   18  H2  UNL     1     -11.682  16.134  66.734  1.00  0.00     0.000 HD 
ENDBRANCH   7  14
BRANCH   7  19
HETATM   19  C   UNL     1      -8.812  14.873  67.318  1.00  0.00    -0.201 A  
HETATM   20  C   UNL     1      -6.452  16.312  67.236  1.00  0.00    -0.223 A  
HETATM   21  N   UNL     1      -7.815  14.586  68.202  1.00  0.00    -0.125 NA 
HETATM   22  C   UNL     1      -7.451  16.588  66.313  1.00  0.00    -0.094 A  
HETATM   23  C   UNL     1      -6.674  15.305  68.151  1.00  0.00    -0.129 A  
HETATM   24  C   UNL     1      -8.645  15.859  66.343  1.00  0.00    -0.364 A  
ENDBRANCH   7  19
ENDBRANCH   6   7
ENDBRANCH   5   6
ENDBRANCH   4   5
BRANCH   4  25
HETATM   25  C   UNL     1      -9.223   9.489  66.028  1.00  0.00    -0.196 C  
HETATM   26  C   UNL     1     -10.279   8.644  66.763  1.00  0.00    -0.361 C  
HETATM   27  C   UNL     1      -9.999  10.158  64.868  1.00  0.00    -0.358 C  
ENDBRANCH   4  25
ENDBRANCH   2   4
TORSDOF 8
ENDMDL
MODEL      213
REMARK 921   NORMALIZED FREE ENERGY PREDICTED BY IDOCK:   -3.24 KCAL/MOL
REMARK 922        TOTAL FREE ENERGY PREDICTED BY IDOCK:   -6.47 KCAL/MOL
REMARK 923 INTER-LIGAND FREE ENERGY PREDICTED BY IDOCK:   -5.62 KCAL/MOL
REMARK 924 INTRA-LIGAND FREE ENERGY PREDICTED BY IDOCK:   -0.85 KCAL/MOL
REMARK 927      BINDING AFFINITY PREDICTED BY RF-SCORE:    0.00 PKD
ROOT
HETATM    1  C   UNL     1      -9.283   8.149  73.060  1.00  0.00    -0.343 C  
HETATM    2  C   UNL     1      -9.005   7.580  71.646  1.00  0.00    -0.123 C  
HETATM    3  C   UNL     1      -8.610   6.111  71.869  1.00  0.00    -0.132 C  
ENDROOT
BRANCH   2   4
HETATM    4  N   UNL     1     -10.155   7.830  70.712  1.00  0.00    -0.192 NA 
BRANCH   4   5
HETATM    5  C   UNL     1      -9.671   8.421  69.415  1.00  0.00    -0.177 C  
BRANCH   5   6
HETATM    6  C   UNL     1      -9.143   9.864  69.535  1.00  0.00    -0.237 C  
BRANCH   6   7
HETATM    7  C   UNL     1      -9.829  10.979  68.667  1.00  0.00    -0.197 C  
BRANCH   7   8
HETATM    8  C   UNL     1     -10.980  11.599  69.512  1.00  0.00    -0.159 A  
HETATM    9  C   UNL     1     -11.680  10.857  70.482  1.00  0.00    -0.441 A  
HETATM   10  C   UNL     1     -12.671  11.444  71.274  1.00  0.00    -0.498 A  
HETATM   11  C   UNL     1     -11.308  12.968  69.394  1.00  0.00    -0.269 A  
HETATM   12  C   UNL     1     -12.990  12.789  71.119  1.00  0.00    -0.244 A  
HETATM   13  C   UNL     1     -12.310  13.550  70.176  1.00  0.00    -0.345 A  
ENDBRANCH   7   8
BRANCH   7  14
HETATM   14  C   UNL     1     -10.284  10.378  67.296  1.00  0.00    -0.211 C  
HETATM   15  N   UNL     1      -9.322  10.262  66.325  1.00  0.00    -0.162 N  
HETATM   16  H1  UNL     1      -9.619   9.871  65.431  1.00  0.00     0.000 HD 
HETATM   17  O   UNL     1     -11.432  10.043  67.013  1.00  0.00     0.058 OA 
HETATM   18  H2  UNL     1      -8.358  10.553  66.488  1.00  0.00     0.000 HD 
ENDBRANCH   7  14
BRANCH   7  19
HETATM   19  C   UNL     1      -8.741  12.044  68.309  1.00  0.00    -0.178 A  
HETATM   20  C   UNL     1      -6.766  13.914  67.813  1.00  0.00    -0.186 A  
HETATM   21  N   UNL     1      -7.444  11.753  68.613  1.00  0.00    -0.116 NA 
HETATM   22  C   UNL     1      -8.079  14.204  67.473  1.00  0.00    -0.199 A  
HETATM   23  C   UNL     1      -6.497  12.682  68.370  1.00  0.00    -0.078 A  
HETATM   24  C   UNL     1      -9.084  13.260  67.714  1.00  0.00    -0.202 A  
ENDBRANCH   7  19
ENDBRANCH   6   7
ENDBRANCH   5   6
ENDBRANCH   4   5
BRANCH   4  25
HETATM   25  C   UNL     1     -11.098   6.687  70.478  1.00  0.00    -0.307 C  
HETATM   26  C   UNL     1     -12.504   6.822  71.091  1.00  0.00    -0.351 C  
HETATM   27  C   UNL     1     -11.354   6.445  68.971  1.00  0.00    -0.332 C  
ENDBRANCH   4  25
ENDBRANCH   2   4
TORSDOF 8
ENDMDL
MODEL      214
REMARK 921   NORMALIZED FREE ENERGY PREDICTED BY IDOCK:   -3.24 KCAL/MOL
REMARK 922        TOTAL FREE ENERGY PREDICTED BY IDOCK:   -6.46 KCAL/MOL
REMARK 923 INTER-LIGAND FREE ENERGY PREDICTED BY IDOCK:   -5.19 KCAL/MOL
REMARK 924 INTRA-LIGAND FREE ENERGY PREDICTED BY IDOCK:   -1.28 KCAL/MOL
REMARK 927      BINDING AFFINITY PREDICTED BY RF-SCORE:    0.00 PKD
ROOT
HETATM    1  C   UNL     1     -10.119   4.872  71.206  1.00  0.00    -0.269 C  
HETATM    2  C   UNL     1      -8.614   4.690  71.526  1.00  0.00    -0.116 C  
HETATM    3  C   UNL     1      -8.030   3.934  70.321  1.00  0.00    -0.052 C  
ENDROOT
BRANCH   2   4
HETATM    4  N   UNL     1      -7.960   5.996  71.878  1.00  0.00    -0.106 NA 
BRANCH   4   5
HETATM    5  C   UNL     1      -8.971   7.109  71.911  1.00  0.00    -0.127 C  
BRANCH   5   6
HETATM    6  C   UNL     1      -8.628   8.304  70.999  1.00  0.00    -0.165 C  
BRANCH   6   7
HETATM    7  C   UNL     1      -9.669   8.722  69.900  1.00  0.00    -0.183 C  
BRANCH   7   8
HETATM    8  C   UNL     1     -10.940   9.253  70.624  1.00  0.00    -0.336 A  
HETATM    9  C   UNL     1     -11.483  10.521  70.346  1.00  0.00    -0.427 A  
HETATM   10  C   UNL     1     -12.660  10.961  70.961  1.00  0.00    -0.517 A  
HETATM   11  C   UNL     1     -11.650   8.437  71.530  1.00  0.00    -0.338 A  
HETATM   12  C   UNL     1     -13.326  10.145  71.869  1.00  0.00    -0.505 A  
HETATM   13  C   UNL     1     -12.818   8.884  72.156  1.00  0.00    -0.471 A  
ENDBRANCH   7   8
BRANCH   7  14
HETATM   14  C   UNL     1      -9.930   7.518  68.934  1.00  0.00    -0.168 C  
HETATM   15  N   UNL     1      -8.839   7.007  68.278  1.00  0.00    -0.127 N  
HETATM   16  H1  UNL     1      -9.009   6.223  67.648  1.00  0.00     0.000 HD 
HETATM   17  O   UNL     1     -11.030   7.028  68.692  1.00  0.00    -0.177 OA 
HETATM   18  H2  UNL     1      -7.904   7.391  68.413  1.00  0.00     0.000 HD 
ENDBRANCH   7  14
BRANCH   7  19
HETATM   19  C   UNL     1      -9.009   9.826  69.011  1.00  0.00    -0.154 A  
HETATM   20  C   UNL     1      -7.843  11.684  67.328  1.00  0.00    -0.157 A  
HETATM   21  N   UNL     1      -9.566  10.077  67.793  1.00  0.00    -0.147 NA 
HETATM   22  C   UNL     1      -7.289  11.456  68.579  1.00  0.00    -0.105 A  
HETATM   23  C   UNL     1      -8.977  10.982  66.983  1.00  0.00    -0.148 A  
HETATM   24  C   UNL     1      -7.877  10.523  69.440  1.00  0.00    -0.151 A  
ENDBRANCH   7  19
ENDBRANCH   6   7
ENDBRANCH   5   6
ENDBRANCH   4   5
BRANCH   4  25
HETATM   25  C   UNL     1      -7.087   6.009  73.099  1.00  0.00    -0.085 C  
HETATM   26  C   UNL     1      -5.722   6.705  72.959  1.00  0.00    -0.042 C  
HETATM   27  C   UNL     1      -7.768   6.724  74.291  1.00  0.00    -0.114 C  
ENDBRANCH   4  25
ENDBRANCH   2   4
TORSDOF 8
ENDMDL
MODEL      215
REMARK 921   NORMALIZED FREE ENERGY PREDICTED BY IDOCK:   -3.22 KCAL/MOL
REMARK 922        TOTAL FREE ENERGY PREDICTED BY IDOCK:   -6.43 KCAL/MOL
REMARK 923 INTER-LIGAND FREE ENERGY PREDICTED BY IDOCK:   -6.13 KCAL/MOL
REMARK 924 INTRA-LIGAND FREE ENERGY PREDICTED BY IDOCK:   -0.31 KCAL/MOL
REMARK 927      BINDING AFFINITY PREDICTED BY RF-SCORE:    0.00 PKD
ROOT
HETATM    1  C   UNL     1     -10.861  17.096  67.866  1.00  0.00    -0.294 C  
HETATM    2  C   UNL     1     -10.348  15.764  68.470  1.00  0.00    -0.229 C  
HETATM    3  C   UNL     1      -9.342  16.171  69.559  1.00  0.00    -0.096 C  
ENDROOT
BRANCH   2   4
HETATM    4  N   UNL     1     -11.482  14.879  68.903  1.00  0.00    -0.283 NA 
BRANCH   4   5
HETATM    5  C   UNL     1     -11.374  13.521  68.264  1.00  0.00    -0.294 C  
BRANCH   5   6
HETATM    6  C   UNL     1     -10.147  13.348  67.346  1.00  0.00    -0.237 C  
BRANCH   6   7
HETATM    7  C   UNL     1      -9.396  11.969  67.362  1.00  0.00    -0.178 C  
BRANCH   7   8
HETATM    8  C   UNL     1     -10.071  11.072  68.441  1.00  0.00    -0.194 A  
HETATM    9  C   UNL     1     -11.453  10.809  68.437  1.00  0.00    -0.358 A  
HETATM   10  C   UNL     1     -12.036   9.953  69.377  1.00  0.00     0.268 A  
HETATM   11  C   UNL     1      -9.297  10.413  69.421  1.00  0.00    -0.186 A  
HETATM   12  C   UNL     1     -11.251   9.336  70.346  1.00  0.00    -0.290 A  
HETATM   13  C   UNL     1      -9.882   9.569  70.370  1.00  0.00    -0.329 A  
ENDBRANCH   7   8
BRANCH   7  14
HETATM   14  C   UNL     1      -7.865  12.203  67.582  1.00  0.00    -0.153 C  
HETATM   15  N   UNL     1      -7.312  13.294  66.957  1.00  0.00    -0.332 N  
HETATM   16  H1  UNL     1      -6.314  13.445  67.100  1.00  0.00     0.000 HD 
HETATM   17  O   UNL     1      -7.120  11.472  68.229  1.00  0.00    -0.071 OA 
HETATM   18  H2  UNL     1      -7.872  13.920  66.380  1.00  0.00     0.000 HD 
ENDBRANCH   7  14
BRANCH   7  19
HETATM   19  C   UNL     1      -9.517  11.342  65.936  1.00  0.00    -0.222 A  
HETATM   20  C   UNL     1      -9.584  10.241  63.400  1.00  0.00    -0.316 A  
HETATM   21  N   UNL     1      -8.706  10.288  65.635  1.00  0.00    -0.155 NA 
HETATM   22  C   UNL     1     -10.434  11.293  63.709  1.00  0.00    -0.459 A  
HETATM   23  C   UNL     1      -8.749   9.770  64.389  1.00  0.00    -0.206 A  
HETATM   24  C   UNL     1     -10.412  11.851  64.992  1.00  0.00    -0.333 A  
ENDBRANCH   7  19
ENDBRANCH   6   7
ENDBRANCH   5   6
ENDBRANCH   4   5
BRANCH   4  25
HETATM   25  C   UNL     1     -11.735  14.775  70.378  1.00  0.00    -0.295 C  
HETATM   26  C   UNL     1     -12.727  15.788  70.977  1.00  0.00    -0.453 C  
HETATM   27  C   UNL     1     -12.307  13.392  70.772  1.00  0.00    -0.433 C  
ENDBRANCH   4  25
ENDBRANCH   2   4
TORSDOF 8
ENDMDL
MODEL      216
REMARK 921   NORMALIZED FREE ENERGY PREDICTED BY IDOCK:   -3.22 KCAL/MOL
REMARK 922        TOTAL FREE ENERGY PREDICTED BY IDOCK:   -6.43 KCAL/MOL
REMARK 923 INTER-LIGAND FREE ENERGY PREDICTED BY IDOCK:   -4.72 KCAL/MOL
REMARK 924 INTRA-LIGAND FREE ENERGY PREDICTED BY IDOCK:   -1.71 KCAL/MOL
REMARK 927      BINDING AFFINITY PREDICTED BY RF-SCORE:    0.00 PKD
ROOT
HETATM    1  C   UNL     1      -8.108  10.229  65.099  1.00  0.00    -0.151 C  
HETATM    2  C   UNL     1      -8.972  10.733  66.281  1.00  0.00    -0.170 C  
HETATM    3  C   UNL     1     -10.206  11.386  65.636  1.00  0.00    -0.298 C  
ENDROOT
BRANCH   2   4
HETATM    4  N   UNL     1      -9.237   9.642  67.279  1.00  0.00    -0.134 NA 
BRANCH   4   5
HETATM    5  C   UNL     1      -8.690   8.328  66.793  1.00  0.00    -0.133 C  
BRANCH   5   6
HETATM    6  C   UNL     1      -8.409   7.305  67.912  1.00  0.00    -0.119 C  
BRANCH   6   7
HETATM    7  C   UNL     1      -9.499   6.217  68.214  1.00  0.00    -0.117 C  
BRANCH   7   8
HETATM    8  C   UNL     1      -8.802   4.825  68.193  1.00  0.00    -0.116 A  
HETATM    9  C   UNL     1      -9.338   3.710  68.864  1.00  0.00    -0.235 A  
HETATM   10  C   UNL     1      -8.732   2.452  68.787  1.00  0.00    -0.129 A  
HETATM   11  C   UNL     1      -7.641   4.609  67.419  1.00  0.00    -0.085 A  
HETATM   12  C   UNL     1      -7.575   2.274  68.036  1.00  0.00    -0.055 A  
HETATM   13  C   UNL     1      -7.028   3.354  67.355  1.00  0.00    -0.054 A  
ENDBRANCH   7   8
BRANCH   7  14
HETATM   14  C   UNL     1     -10.685   6.361  67.204  1.00  0.00    -0.361 C  
HETATM   15  N   UNL     1     -11.370   7.551  67.223  1.00  0.00    -0.240 N  
HETATM   16  H1  UNL     1     -12.143   7.645  66.565  1.00  0.00     0.000 HD 
HETATM   17  O   UNL     1     -11.071   5.487  66.432  1.00  0.00    -0.167 OA 
HETATM   18  H2  UNL     1     -11.118   8.303  67.864  1.00  0.00     0.000 HD 
ENDBRANCH   7  14
BRANCH   7  19
HETATM   19  C   UNL     1     -10.113   6.531  69.617  1.00  0.00    -0.181 A  
HETATM   20  C   UNL     1     -11.296   7.175  72.032  1.00  0.00    -0.293 A  
HETATM   21  N   UNL     1     -11.466   6.433  69.754  1.00  0.00    -0.427 NA 
HETATM   22  C   UNL     1      -9.916   7.246  71.909  1.00  0.00    -0.184 A  
HETATM   23  C   UNL     1     -12.025   6.760  70.939  1.00  0.00    -0.383 A  
HETATM   24  C   UNL     1      -9.309   6.915  70.693  1.00  0.00    -0.162 A  
ENDBRANCH   7  19
ENDBRANCH   6   7
ENDBRANCH   5   6
ENDBRANCH   4   5
BRANCH   4  25
HETATM   25  C   UNL     1      -8.839   9.913  68.700  1.00  0.00    -0.128 C  
HETATM   26  C   UNL     1      -7.802  11.028  68.922  1.00  0.00    -0.138 C  
HETATM   27  C   UNL     1     -10.049  10.329  69.572  1.00  0.00    -0.260 C  
ENDBRANCH   4  25
ENDBRANCH   2   4
TORSDOF 8
ENDMDL
MODEL      217
REMARK 921   NORMALIZED FREE ENERGY PREDICTED BY IDOCK:   -3.21 KCAL/MOL
REMARK 922        TOTAL FREE ENERGY PREDICTED BY IDOCK:   -6.43 KCAL/MOL
REMARK 923 INTER-LIGAND FREE ENERGY PREDICTED BY IDOCK:   -4.80 KCAL/MOL
REMARK 924 INTRA-LIGAND FREE ENERGY PREDICTED BY IDOCK:   -1.62 KCAL/MOL
REMARK 927      BINDING AFFINITY PREDICTED BY RF-SCORE:    0.00 PKD
ROOT
HETATM    1  C   UNL     1      -8.668   8.112  65.891  1.00  0.00    -0.184 C  
HETATM    2  C   UNL     1      -9.203   7.651  67.270  1.00  0.00    -0.131 C  
HETATM    3  C   UNL     1     -10.716   7.920  67.231  1.00  0.00    -0.299 C  
ENDROOT
BRANCH   2   4
HETATM    4  N   UNL     1      -8.781   6.245  67.587  1.00  0.00    -0.114 NA 
BRANCH   4   5
HETATM    5  C   UNL     1      -8.020   6.195  68.884  1.00  0.00    -0.101 C  
BRANCH   5   6
HETATM    6  C   UNL     1      -8.195   7.445  69.770  1.00  0.00    -0.129 C  
BRANCH   6   7
HETATM    7  C   UNL     1      -8.578   7.238  71.279  1.00  0.00    -0.119 C  
BRANCH   7   8
HETATM    8  C   UNL     1     -10.112   7.464  71.416  1.00  0.00    -0.196 A  
HETATM    9  C   UNL     1     -10.649   8.480  72.228  1.00  0.00    -0.408 A  
HETATM   10  C   UNL     1     -12.027   8.709  72.295  1.00  0.00    -0.438 A  
HETATM   11  C   UNL     1     -11.026   6.703  70.655  1.00  0.00    -0.329 A  
HETATM   12  C   UNL     1     -12.905   7.928  71.552  1.00  0.00    -0.340 A  
HETATM   13  C   UNL     1     -12.404   6.922  70.735  1.00  0.00    -0.314 A  
ENDBRANCH   7   8
BRANCH   7  14
HETATM   14  C   UNL     1      -7.704   8.173  72.179  1.00  0.00    -0.118 C  
HETATM   15  N   UNL     1      -7.498   7.765  73.473  1.00  0.00    -0.115 N  
HETATM   16  H1  UNL     1      -6.929   8.374  74.061  1.00  0.00     0.000 HD 
HETATM   17  O   UNL     1      -7.227   9.251  71.833  1.00  0.00    -0.326 OA 
HETATM   18  H2  UNL     1      -7.894   6.896  73.830  1.00  0.00     0.000 HD 
ENDBRANCH   7  14
BRANCH   7  19
HETATM   19  C   UNL     1      -8.172   5.783  71.680  1.00  0.00    -0.119 A  
HETATM   20  C   UNL     1      -7.371   3.203  72.270  1.00  0.00    -0.051 A  
HETATM   21  N   UNL     1      -6.845   5.472  71.682  1.00  0.00    -0.064 NA 
HETATM   22  C   UNL     1      -8.721   3.521  72.301  1.00  0.00    -0.107 A  
HETATM   23  C   UNL     1      -6.475   4.205  71.965  1.00  0.00    -0.022 A  
HETATM   24  C   UNL     1      -9.134   4.826  72.011  1.00  0.00    -0.152 A  
ENDBRANCH   7  19
ENDBRANCH   6   7
ENDBRANCH   5   6
ENDBRANCH   4   5
BRANCH   4  25
HETATM   25  C   UNL     1      -9.846   5.189  67.532  1.00  0.00    -0.162 C  
HETATM   26  C   UNL     1     -10.040   4.480  66.180  1.00  0.00    -0.282 C  
HETATM   27  C   UNL     1      -9.579   4.043  68.537  1.00  0.00    -0.184 C  
ENDBRANCH   4  25
ENDBRANCH   2   4
TORSDOF 8
ENDMDL
MODEL      218
REMARK 921   NORMALIZED FREE ENERGY PREDICTED BY IDOCK:   -3.18 KCAL/MOL
REMARK 922        TOTAL FREE ENERGY PREDICTED BY IDOCK:   -6.38 KCAL/MOL
REMARK 923 INTER-LIGAND FREE ENERGY PREDICTED BY IDOCK:   -5.78 KCAL/MOL
REMARK 924 INTRA-LIGAND FREE ENERGY PREDICTED BY IDOCK:   -0.60 KCAL/MOL
REMARK 927      BINDING AFFINITY PREDICTED BY RF-SCORE:    0.00 PKD
ROOT
HETATM    1  C   UNL     1      -9.949  15.361  65.860  1.00  0.00    -0.374 C  
HETATM    2  C   UNL     1     -10.469  13.998  66.381  1.00  0.00    -0.284 C  
HETATM    3  C   UNL     1     -11.913  14.261  66.840  1.00  0.00    -0.467 C  
ENDROOT
BRANCH   2   4
HETATM    4  N   UNL     1     -10.278  12.907  65.366  1.00  0.00    -0.293 NA 
BRANCH   4   5
HETATM    5  C   UNL     1      -9.549  11.737  65.970  1.00  0.00    -0.230 C  
BRANCH   5   6
HETATM    6  C   UNL     1      -9.872  11.489  67.458  1.00  0.00    -0.203 C  
BRANCH   6   7
HETATM    7  C   UNL     1      -8.832  10.688  68.319  1.00  0.00    -0.139 C  
BRANCH   7   8
HETATM    8  C   UNL     1      -7.736  11.687  68.793  1.00  0.00    -0.111 A  
HETATM    9  C   UNL     1      -7.784  13.057  68.474  1.00  0.00    -0.111 A  
HETATM   10  C   UNL     1      -6.824  13.952  68.957  1.00  0.00    -0.111 A  
HETATM   11  C   UNL     1      -6.691  11.264  69.644  1.00  0.00    -0.122 A  
HETATM   12  C   UNL     1      -5.792  13.503  69.773  1.00  0.00    -0.117 A  
HETATM   13  C   UNL     1      -5.724  12.158  70.114  1.00  0.00    -0.153 A  
ENDBRANCH   7   8
BRANCH   7  14
HETATM   14  C   UNL     1      -8.287   9.473  67.497  1.00  0.00    -0.125 C  
HETATM   15  N   UNL     1      -6.977   9.541  67.094  1.00  0.00    -0.084 N  
HETATM   16  H1  UNL     1      -6.622   8.749  66.558  1.00  0.00     0.000 HD 
HETATM   17  O   UNL     1      -8.945   8.494  67.156  1.00  0.00    -0.127 OA 
HETATM   18  H2  UNL     1      -6.388  10.342  67.319  1.00  0.00     0.000 HD 
ENDBRANCH   7  14
BRANCH   7  19
HETATM   19  C   UNL     1      -9.597  10.057  69.528  1.00  0.00    -0.230 A  
HETATM   20  C   UNL     1     -11.021   9.069  71.682  1.00  0.00    -0.435 A  
HETATM   21  N   UNL     1     -10.955  10.172  69.550  1.00  0.00    -0.242 NA 
HETATM   22  C   UNL     1      -9.642   8.921  71.652  1.00  0.00    -0.363 A  
HETATM   23  C   UNL     1     -11.631   9.691  70.614  1.00  0.00    -0.299 A  
HETATM   24  C   UNL     1      -8.915   9.411  70.562  1.00  0.00    -0.303 A  
ENDBRANCH   7  19
ENDBRANCH   6   7
ENDBRANCH   5   6
ENDBRANCH   4   5
BRANCH   4  25
HETATM   25  C   UNL     1     -11.495  12.465  64.609  1.00  0.00    -0.331 C  
HETATM   26  C   UNL     1     -11.979  13.397  63.483  1.00  0.00    -0.467 C  
HETATM   27  C   UNL     1     -11.283  11.097  63.916  1.00  0.00    -0.056 C  
ENDBRANCH   4  25
ENDBRANCH   2   4
TORSDOF 8
ENDMDL
MODEL      219
REMARK 921   NORMALIZED FREE ENERGY PREDICTED BY IDOCK:   -3.18 KCAL/MOL
REMARK 922        TOTAL FREE ENERGY PREDICTED BY IDOCK:   -6.37 KCAL/MOL
REMARK 923 INTER-LIGAND FREE ENERGY PREDICTED BY IDOCK:   -4.90 KCAL/MOL
REMARK 924 INTRA-LIGAND FREE ENERGY PREDICTED BY IDOCK:   -1.47 KCAL/MOL
REMARK 927      BINDING AFFINITY PREDICTED BY RF-SCORE:    0.00 PKD
ROOT
HETATM    1  C   UNL     1      -7.084   9.312  70.548  1.00  0.00    -0.100 C  
HETATM    2  C   UNL     1      -7.163   8.156  71.575  1.00  0.00    -0.077 C  
HETATM    3  C   UNL     1      -8.433   8.429  72.399  1.00  0.00    -0.238 C  
ENDROOT
BRANCH   2   4
HETATM    4  N   UNL     1      -7.075   6.813  70.907  1.00  0.00    -0.067 NA 
BRANCH   4   5
HETATM    5  C   UNL     1      -7.390   6.924  69.440  1.00  0.00    -0.091 C  
BRANCH   5   6
HETATM    6  C   UNL     1      -8.446   5.918  68.941  1.00  0.00    -0.105 C  
BRANCH   6   7
HETATM    7  C   UNL     1      -9.916   6.428  68.731  1.00  0.00    -0.165 C  
BRANCH   7   8
HETATM    8  C   UNL     1     -10.698   6.188  70.056  1.00  0.00    -0.370 A  
HETATM    9  C   UNL     1     -10.216   5.332  71.064  1.00  0.00    -0.299 A  
HETATM   10  C   UNL     1     -10.900   5.172  72.273  1.00  0.00    -0.241 A  
HETATM   11  C   UNL     1     -11.888   6.895  70.332  1.00  0.00    -0.351 A  
HETATM   12  C   UNL     1     -12.083   5.864  72.508  1.00  0.00    -0.100 A  
HETATM   13  C   UNL     1     -12.579   6.723  71.535  1.00  0.00    -0.371 A  
ENDBRANCH   7   8
BRANCH   7  14
HETATM   14  C   UNL     1     -10.543   5.736  67.476  1.00  0.00    -0.253 C  
HETATM   15  N   UNL     1     -11.509   6.440  66.801  1.00  0.00    -0.746 N  
HETATM   16  H1  UNL     1     -11.918   5.988  65.984  1.00  0.00     0.000 HD 
HETATM   17  O   UNL     1     -10.268   4.608  67.075  1.00  0.00    -0.196 OA 
HETATM   18  H2  UNL     1     -11.804   7.368  67.104  1.00  0.00     0.000 HD 
ENDBRANCH   7  14
BRANCH   7  19
HETATM   19  C   UNL     1      -9.849   7.948  68.372  1.00  0.00    -0.173 A  
HETATM   20  C   UNL     1      -9.585  10.620  67.710  1.00  0.00    -0.172 A  
HETATM   21  N   UNL     1      -9.232   8.298  67.207  1.00  0.00    -0.136 NA 
HETATM   22  C   UNL     1     -10.242  10.270  68.881  1.00  0.00    -0.220 A  
HETATM   23  C   UNL     1      -9.106   9.608  66.907  1.00  0.00    -0.138 A  
HETATM   24  C   UNL     1     -10.386   8.920  69.219  1.00  0.00    -0.221 A  
ENDBRANCH   7  19
ENDBRANCH   6   7
ENDBRANCH   5   6
ENDBRANCH   4   5
BRANCH   4  25
HETATM   25  C   UNL     1      -5.823   6.021  71.143  1.00  0.00    -0.022 C  
HETATM   26  C   UNL     1      -5.299   5.979  72.590  1.00  0.00    -0.030 C  
HETATM   27  C   UNL     1      -5.995   4.533  70.750  1.00  0.00    -0.017 C  
ENDBRANCH   4  25
ENDBRANCH   2   4
TORSDOF 8
ENDMDL
MODEL      220
REMARK 921   NORMALIZED FREE ENERGY PREDICTED BY IDOCK:   -3.16 KCAL/MOL
REMARK 922        TOTAL FREE ENERGY PREDICTED BY IDOCK:   -6.35 KCAL/MOL
REMARK 923 INTER-LIGAND FREE ENERGY PREDICTED BY IDOCK:   -5.24 KCAL/MOL
REMARK 924 INTRA-LIGAND FREE ENERGY PREDICTED BY IDOCK:   -1.11 KCAL/MOL
REMARK 927      BINDING AFFINITY PREDICTED BY RF-SCORE:    0.00 PKD
ROOT
HETATM    1  C   UNL     1      -5.783  11.702  69.802  1.00  0.00    -0.095 C  
HETATM    2  C   UNL     1      -6.393  10.510  69.024  1.00  0.00    -0.045 C  
HETATM    3  C   UNL     1      -5.270   9.465  68.931  1.00  0.00    -0.037 C  
ENDROOT
BRANCH   2   4
HETATM    4  N   UNL     1      -7.686  10.051  69.636  1.00  0.00    -0.139 NA 
BRANCH   4   5
HETATM    5  C   UNL     1      -8.778   9.997  68.602  1.00  0.00    -0.127 C  
BRANCH   5   6
HETATM    6  C   UNL     1      -8.449  10.743  67.294  1.00  0.00    -0.124 C  
BRANCH   6   7
HETATM    7  C   UNL     1      -9.011  10.162  65.947  1.00  0.00    -0.182 C  
BRANCH   7   8
HETATM    8  C   UNL     1      -9.458   8.695  66.210  1.00  0.00    -0.307 A  
HETATM    9  C   UNL     1      -8.631   7.596  65.911  1.00  0.00    -0.164 A  
HETATM   10  C   UNL     1      -9.021   6.286  66.209  1.00  0.00    -0.164 A  
HETATM   11  C   UNL     1     -10.687   8.416  66.846  1.00  0.00    -0.163 A  
HETATM   12  C   UNL     1     -10.249   6.040  66.813  1.00  0.00    -0.268 A  
HETATM   13  C   UNL     1     -11.083   7.105  67.129  1.00  0.00    -0.220 A  
ENDBRANCH   7   8
BRANCH   7  14
HETATM   14  C   UNL     1      -7.941  10.319  64.816  1.00  0.00    -0.141 C  
HETATM   15  N   UNL     1      -6.764  10.936  65.162  1.00  0.00    -0.353 N  
HETATM   16  H1  UNL     1      -6.067  11.039  64.425  1.00  0.00     0.000 HD 
HETATM   17  O   UNL     1      -8.086   9.971  63.647  1.00  0.00    -0.144 OA 
HETATM   18  H2  UNL     1      -6.596  11.275  66.109  1.00  0.00     0.000 HD 
ENDBRANCH   7  14
BRANCH   7  19
HETATM   19  C   UNL     1     -10.212  11.058  65.504  1.00  0.00    -0.268 A  
HETATM   20  C   UNL     1     -12.407  12.605  64.844  1.00  0.00    -0.563 A  
HETATM   21  N   UNL     1     -10.706  11.951  66.408  1.00  0.00    -0.256 NA 
HETATM   22  C   UNL     1     -11.890  11.722  63.908  1.00  0.00    -0.449 A  
HETATM   23  C   UNL     1     -11.783  12.690  66.070  1.00  0.00    -0.417 A  
HETATM   24  C   UNL     1     -10.775  10.941  64.231  1.00  0.00    -0.241 A  
ENDBRANCH   7  19
ENDBRANCH   6   7
ENDBRANCH   5   6
ENDBRANCH   4   5
BRANCH   4  25
HETATM   25  C   UNL     1      -7.640   8.795  70.455  1.00  0.00    -0.082 C  
HETATM   26  C   UNL     1      -8.368   8.831  71.811  1.00  0.00    -0.161 C  
HETATM   27  C   UNL     1      -8.268   7.593  69.709  1.00  0.00    -0.131 C  
ENDBRANCH   4  25
ENDBRANCH   2   4
TORSDOF 8
ENDMDL
MODEL      221
REMARK 921   NORMALIZED FREE ENERGY PREDICTED BY IDOCK:   -3.16 KCAL/MOL
REMARK 922        TOTAL FREE ENERGY PREDICTED BY IDOCK:   -6.35 KCAL/MOL
REMARK 923 INTER-LIGAND FREE ENERGY PREDICTED BY IDOCK:   -5.70 KCAL/MOL
REMARK 924 INTRA-LIGAND FREE ENERGY PREDICTED BY IDOCK:   -0.65 KCAL/MOL
REMARK 927      BINDING AFFINITY PREDICTED BY RF-SCORE:    0.00 PKD
ROOT
HETATM    1  C   UNL     1     -14.219   7.328  71.218  1.00  0.00    -0.368 C  
HETATM    2  C   UNL     1     -13.524   8.684  71.495  1.00  0.00    -0.309 C  
HETATM    3  C   UNL     1     -14.130   9.191  72.814  1.00  0.00    -0.175 C  
ENDROOT
BRANCH   2   4
HETATM    4  N   UNL     1     -12.028   8.560  71.449  1.00  0.00    -0.292 NA 
BRANCH   4   5
HETATM    5  C   UNL     1     -11.614   7.403  70.581  1.00  0.00    -0.268 C  
BRANCH   5   6
HETATM    6  C   UNL     1     -10.991   6.223  71.353  1.00  0.00    -0.327 C  
BRANCH   6   7
HETATM    7  C   UNL     1      -9.643   5.617  70.821  1.00  0.00    -0.213 C  
BRANCH   7   8
HETATM    8  C   UNL     1      -9.813   5.338  69.299  1.00  0.00    -0.256 A  
HETATM    9  C   UNL     1      -9.331   4.162  68.696  1.00  0.00    -0.219 A  
HETATM   10  C   UNL     1      -9.544   3.897  67.340  1.00  0.00    -0.218 A  
HETATM   11  C   UNL     1     -10.541   6.227  68.478  1.00  0.00    -0.315 A  
HETATM   12  C   UNL     1     -10.244   4.802  66.549  1.00  0.00    -0.294 A  
HETATM   13  C   UNL     1     -10.740   5.969  67.119  1.00  0.00    -0.409 A  
ENDBRANCH   7   8
BRANCH   7  14
HETATM   14  C   UNL     1      -9.257   4.360  71.670  1.00  0.00    -0.135 C  
HETATM   15  N   UNL     1     -10.290   3.669  72.253  1.00  0.00    -0.123 N  
HETATM   16  H1  UNL     1     -10.038   2.851  72.806  1.00  0.00     0.000 HD 
HETATM   17  O   UNL     1      -8.111   3.972  71.883  1.00  0.00    -0.080 OA 
HETATM   18  H2  UNL     1     -11.260   3.961  72.139  1.00  0.00     0.000 HD 
ENDBRANCH   7  14
BRANCH   7  19
HETATM   19  C   UNL     1      -8.510   6.660  71.092  1.00  0.00    -0.126 A  
HETATM   20  C   UNL     1      -6.608   8.595  71.625  1.00  0.00    -0.074 A  
HETATM   21  N   UNL     1      -8.448   7.223  72.332  1.00  0.00    -0.111 NA 
HETATM   22  C   UNL     1      -6.646   8.004  70.370  1.00  0.00    -0.037 A  
HETATM   23  C   UNL     1      -7.517   8.171  72.569  1.00  0.00    -0.117 A  
HETATM   24  C   UNL     1      -7.600   7.019  70.094  1.00  0.00    -0.095 A  
ENDBRANCH   7  19
ENDBRANCH   6   7
ENDBRANCH   5   6
ENDBRANCH   4   5
BRANCH   4  25
HETATM   25  C   UNL     1     -11.255   9.803  71.117  1.00  0.00    -0.374 C  
HETATM   26  C   UNL     1     -10.174   9.669  70.029  1.00  0.00    -0.296 C  
HETATM   27  C   UNL     1     -12.175  10.940  70.611  1.00  0.00    -0.472 C  
ENDBRANCH   4  25
ENDBRANCH   2   4
TORSDOF 8
ENDMDL
MODEL      222
REMARK 921   NORMALIZED FREE ENERGY PREDICTED BY IDOCK:   -3.08 KCAL/MOL
REMARK 922        TOTAL FREE ENERGY PREDICTED BY IDOCK:   -6.23 KCAL/MOL
REMARK 923 INTER-LIGAND FREE ENERGY PREDICTED BY IDOCK:   -5.25 KCAL/MOL
REMARK 924 INTRA-LIGAND FREE ENERGY PREDICTED BY IDOCK:   -0.98 KCAL/MOL
REMARK 927      BINDING AFFINITY PREDICTED BY RF-SCORE:    0.00 PKD
ROOT
HETATM    1  C   UNL     1     -10.354  13.435  64.627  1.00  0.00    -0.400 C  
HETATM    2  C   UNL     1     -10.911  11.990  64.608  1.00  0.00    -0.317 C  
HETATM    3  C   UNL     1     -11.895  11.948  63.426  1.00  0.00    -0.512 C  
ENDROOT
BRANCH   2   4
HETATM    4  N   UNL     1      -9.808  10.970  64.597  1.00  0.00    -0.261 NA 
BRANCH   4   5
HETATM    5  C   UNL     1     -10.060   9.900  65.624  1.00  0.00    -0.237 C  
BRANCH   5   6
HETATM    6  C   UNL     1     -10.236  10.429  67.061  1.00  0.00    -0.277 C  
BRANCH   6   7
HETATM    7  C   UNL     1      -8.951  10.851  67.859  1.00  0.00    -0.141 C  
BRANCH   7   8
HETATM    8  C   UNL     1      -7.716  10.247  67.127  1.00  0.00    -0.092 A  
HETATM    9  C   UNL     1      -6.943  10.997  66.222  1.00  0.00    -0.095 A  
HETATM   10  C   UNL     1      -5.802  10.460  65.618  1.00  0.00    -0.114 A  
HETATM   11  C   UNL     1      -7.273   8.939  67.417  1.00  0.00    -0.080 A  
HETATM   12  C   UNL     1      -5.402   9.159  65.904  1.00  0.00    -0.040 A  
HETATM   13  C   UNL     1      -6.140   8.398  66.801  1.00  0.00    -0.054 A  
ENDBRANCH   7   8
BRANCH   7  14
HETATM   14  C   UNL     1      -9.091  10.418  69.356  1.00  0.00    -0.152 C  
HETATM   15  N   UNL     1     -10.354  10.453  69.892  1.00  0.00    -0.398 N  
HETATM   16  H1  UNL     1     -10.445  10.171  70.868  1.00  0.00     0.000 HD 
HETATM   17  O   UNL     1      -8.163  10.090  70.091  1.00  0.00    -0.176 OA 
HETATM   18  H2  UNL     1     -11.161  10.747  69.342  1.00  0.00     0.000 HD 
ENDBRANCH   7  14
BRANCH   7  19
HETATM   19  C   UNL     1      -8.896  12.413  67.886  1.00  0.00    -0.180 A  
HETATM   20  C   UNL     1      -8.926  15.178  67.861  1.00  0.00    -0.174 A  
HETATM   21  N   UNL     1     -10.009  13.080  68.304  1.00  0.00    -0.233 NA 
HETATM   22  C   UNL     1      -7.779  14.506  67.464  1.00  0.00    -0.208 A  
HETATM   23  C   UNL     1     -10.006  14.429  68.277  1.00  0.00    -0.232 A  
HETATM   24  C   UNL     1      -7.753  13.107  67.481  1.00  0.00    -0.168 A  
ENDBRANCH   7  19
ENDBRANCH   6   7
ENDBRANCH   5   6
ENDBRANCH   4   5
BRANCH   4  25
HETATM   25  C   UNL     1      -9.443  10.382  63.266  1.00  0.00    -0.323 C  
HETATM   26  C   UNL     1      -8.490  11.212  62.387  1.00  0.00    -0.282 C  
HETATM   27  C   UNL     1      -8.740   9.011  63.412  1.00  0.00    -0.101 C  
ENDBRANCH   4  25
ENDBRANCH   2   4
TORSDOF 8
ENDMDL
MODEL      223
REMARK 921   NORMALIZED FREE ENERGY PREDICTED BY IDOCK:   -3.06 KCAL/MOL
REMARK 922        TOTAL FREE ENERGY PREDICTED BY IDOCK:   -6.20 KCAL/MOL
REMARK 923 INTER-LIGAND FREE ENERGY PREDICTED BY IDOCK:   -5.75 KCAL/MOL
REMARK 924 INTRA-LIGAND FREE ENERGY PREDICTED BY IDOCK:   -0.46 KCAL/MOL
REMARK 927      BINDING AFFINITY PREDICTED BY RF-SCORE:    0.00 PKD
ROOT
HETATM    1  C   UNL     1      -6.661  10.182  69.760  1.00  0.00    -0.096 C  
HETATM    2  C   UNL     1      -8.046  10.173  69.067  1.00  0.00    -0.125 C  
HETATM    3  C   UNL     1      -8.175  11.550  68.394  1.00  0.00    -0.152 C  
ENDROOT
BRANCH   2   4
HETATM    4  N   UNL     1      -8.213   8.975  68.176  1.00  0.00    -0.112 NA 
BRANCH   4   5
HETATM    5  C   UNL     1      -8.596   7.761  68.980  1.00  0.00    -0.135 C  
BRANCH   5   6
HETATM    6  C   UNL     1      -9.201   8.081  70.361  1.00  0.00    -0.155 C  
BRANCH   6   7
HETATM    7  C   UNL     1     -10.227   7.063  70.976  1.00  0.00    -0.209 C  
BRANCH   7   8
HETATM    8  C   UNL     1      -9.597   6.476  72.272  1.00  0.00    -0.149 A  
HETATM    9  C   UNL     1     -10.339   5.695  73.178  1.00  0.00    -0.227 A  
HETATM   10  C   UNL     1      -9.745   5.124  74.307  1.00  0.00    -0.174 A  
HETATM   11  C   UNL     1      -8.220   6.634  72.543  1.00  0.00    -0.105 A  
HETATM   12  C   UNL     1      -8.391   5.318  74.562  1.00  0.00    -0.103 A  
HETATM   13  C   UNL     1      -7.630   6.075  73.681  1.00  0.00    -0.096 A  
ENDBRANCH   7   8
BRANCH   7  14
HETATM   14  C   UNL     1     -10.617   5.992  69.904  1.00  0.00    -0.279 C  
HETATM   15  N   UNL     1     -10.039   4.753  70.032  1.00  0.00    -0.250 N  
HETATM   16  H1  UNL     1     -10.293   4.055  69.333  1.00  0.00     0.000 HD 
HETATM   17  O   UNL     1     -11.360   6.184  68.945  1.00  0.00    -0.367 OA 
HETATM   18  H2  UNL     1      -9.389   4.542  70.788  1.00  0.00     0.000 HD 
ENDBRANCH   7  14
BRANCH   7  19
HETATM   19  C   UNL     1     -11.549   7.840  71.280  1.00  0.00    -0.277 A  
HETATM   20  C   UNL     1     -13.947   9.150  71.702  1.00  0.00    -0.345 A  
HETATM   21  N   UNL     1     -12.711   7.128  71.312  1.00  0.00    -0.384 NA 
HETATM   22  C   UNL     1     -12.765   9.877  71.702  1.00  0.00    -0.527 A  
HETATM   23  C   UNL     1     -13.871   7.788  71.511  1.00  0.00    -0.358 A  
HETATM   24  C   UNL     1     -11.546   9.220  71.497  1.00  0.00    -0.452 A  
ENDBRANCH   7  19
ENDBRANCH   6   7
ENDBRANCH   5   6
ENDBRANCH   4   5
BRANCH   4  25
HETATM   25  C   UNL     1      -9.097   9.141  66.976  1.00  0.00    -0.123 C  
HETATM   26  C   UNL     1      -8.413   9.043  65.600  1.00  0.00    -0.163 C  
HETATM   27  C   UNL     1     -10.218   8.075  66.928  1.00  0.00    -0.385 C  
ENDBRANCH   4  25
ENDBRANCH   2   4
TORSDOF 8
ENDMDL
MODEL      224
REMARK 921   NORMALIZED FREE ENERGY PREDICTED BY IDOCK:   -3.06 KCAL/MOL
REMARK 922        TOTAL FREE ENERGY PREDICTED BY IDOCK:   -6.20 KCAL/MOL
REMARK 923 INTER-LIGAND FREE ENERGY PREDICTED BY IDOCK:   -5.30 KCAL/MOL
REMARK 924 INTRA-LIGAND FREE ENERGY PREDICTED BY IDOCK:   -0.90 KCAL/MOL
REMARK 927      BINDING AFFINITY PREDICTED BY RF-SCORE:    0.00 PKD
ROOT
HETATM    1  C   UNL     1      -8.249   7.996  74.293  1.00  0.00    -0.308 C  
HETATM    2  C   UNL     1      -7.970   6.922  73.213  1.00  0.00    -0.097 C  
HETATM    3  C   UNL     1      -7.353   5.734  73.969  1.00  0.00    -0.092 C  
ENDROOT
BRANCH   2   4
HETATM    4  N   UNL     1      -9.195   6.630  72.392  1.00  0.00    -0.136 NA 
BRANCH   4   5
HETATM    5  C   UNL     1      -8.957   6.957  70.943  1.00  0.00    -0.149 C  
BRANCH   5   6
HETATM    6  C   UNL     1      -8.658   8.445  70.670  1.00  0.00    -0.150 C  
BRANCH   6   7
HETATM    7  C   UNL     1      -9.441   9.159  69.511  1.00  0.00    -0.170 C  
BRANCH   7   8
HETATM    8  C   UNL     1     -10.722   9.797  70.124  1.00  0.00    -0.339 A  
HETATM    9  C   UNL     1     -11.307   9.310  71.308  1.00  0.00    -0.423 A  
HETATM   10  C   UNL     1     -12.423   9.930  71.879  1.00  0.00    -0.435 A  
HETATM   11  C   UNL     1     -11.298  10.953  69.554  1.00  0.00    -0.351 A  
HETATM   12  C   UNL     1     -12.984  11.054  71.281  1.00  0.00    -0.472 A  
HETATM   13  C   UNL     1     -12.423  11.563  70.117  1.00  0.00    -0.239 A  
ENDBRANCH   7   8
BRANCH   7  14
HETATM   14  C   UNL     1      -9.715   8.143  68.353  1.00  0.00    -0.161 C  
HETATM   15  N   UNL     1      -8.618   7.541  67.789  1.00  0.00    -0.121 N  
HETATM   16  H1  UNL     1      -8.797   6.879  67.034  1.00  0.00     0.000 HD 
HETATM   17  O   UNL     1     -10.821   7.875  67.889  1.00  0.00    -0.129 OA 
HETATM   18  H2  UNL     1      -7.672   7.746  68.108  1.00  0.00     0.000 HD 
ENDBRANCH   7  14
BRANCH   7  19
HETATM   19  C   UNL     1      -8.499  10.242  68.894  1.00  0.00    -0.138 A  
HETATM   20  C   UNL     1      -6.862  12.246  67.917  1.00  0.00    -0.093 A  
HETATM   21  N   UNL     1      -7.552  10.796  69.703  1.00  0.00    -0.098 NA 
HETATM   22  C   UNL     1      -7.802  11.664  67.078  1.00  0.00    -0.164 A  
HETATM   23  C   UNL     1      -6.769  11.778  69.210  1.00  0.00    -0.110 A  
HETATM   24  C   UNL     1      -8.629  10.645  67.563  1.00  0.00    -0.122 A  
ENDBRANCH   7  19
ENDBRANCH   6   7
ENDBRANCH   5   6
ENDBRANCH   4   5
BRANCH   4  25
HETATM   25  C   UNL     1      -9.813   5.273  72.557  1.00  0.00    -0.162 C  
HETATM   26  C   UNL     1     -11.226   5.231  73.166  1.00  0.00    -0.382 C  
HETATM   27  C   UNL     1      -9.950   4.530  71.206  1.00  0.00    -0.258 C  
ENDBRANCH   4  25
ENDBRANCH   2   4
TORSDOF 8
ENDMDL
MODEL      225
REMARK 921   NORMALIZED FREE ENERGY PREDICTED BY IDOCK:   -3.02 KCAL/MOL
REMARK 922        TOTAL FREE ENERGY PREDICTED BY IDOCK:   -6.14 KCAL/MOL
REMARK 923 INTER-LIGAND FREE ENERGY PREDICTED BY IDOCK:   -5.73 KCAL/MOL
REMARK 924 INTRA-LIGAND FREE ENERGY PREDICTED BY IDOCK:   -0.42 KCAL/MOL
REMARK 927      BINDING AFFINITY PREDICTED BY RF-SCORE:    0.00 PKD
ROOT
HETATM    1  C   UNL     1     -12.029  13.030  66.934  1.00  0.00    -0.415 C  
HETATM    2  C   UNL     1     -11.274  13.776  68.062  1.00  0.00    -0.267 C  
HETATM    3  C   UNL     1     -11.822  13.191  69.374  1.00  0.00    -0.383 C  
ENDROOT
BRANCH   2   4
HETATM    4  N   UNL     1      -9.786  13.712  67.870  1.00  0.00    -0.226 NA 
BRANCH   4   5
HETATM    5  C   UNL     1      -9.406  12.531  67.019  1.00  0.00    -0.210 C  
BRANCH   5   6
HETATM    6  C   UNL     1      -9.009  11.275  67.820  1.00  0.00    -0.141 C  
BRANCH   6   7
HETATM    7  C   UNL     1      -8.653   9.969  67.024  1.00  0.00    -0.126 C  
BRANCH   7   8
HETATM    8  C   UNL     1      -9.548   8.819  67.571  1.00  0.00    -0.192 A  
HETATM    9  C   UNL     1     -10.008   7.773  66.748  1.00  0.00    -0.331 A  
HETATM   10  C   UNL     1     -10.761   6.715  67.266  1.00  0.00    -0.427 A  
HETATM   11  C   UNL     1      -9.861   8.737  68.945  1.00  0.00    -0.183 A  
HETATM   12  C   UNL     1     -11.075   6.673  68.621  1.00  0.00    -0.288 A  
HETATM   13  C   UNL     1     -10.627   7.686  69.459  1.00  0.00    -0.227 A  
ENDBRANCH   7   8
BRANCH   7  14
HETATM   14  C   UNL     1      -7.116   9.693  67.119  1.00  0.00    -0.086 C  
HETATM   15  N   UNL     1      -6.314  10.767  67.414  1.00  0.00    -0.057 N  
HETATM   16  H1  UNL     1      -5.312  10.587  67.476  1.00  0.00     0.000 HD 
HETATM   17  O   UNL     1      -6.574   8.609  66.914  1.00  0.00    -0.060 OA 
HETATM   18  H2  UNL     1      -6.701  11.698  67.564  1.00  0.00     0.000 HD 
ENDBRANCH   7  14
BRANCH   7  19
HETATM   19  C   UNL     1      -8.929  10.241  65.509  1.00  0.00    -0.173 A  
HETATM   20  C   UNL     1      -9.535  10.635  62.840  1.00  0.00    -0.367 A  
HETATM   21  N   UNL     1     -10.192  10.608  65.150  1.00  0.00    -0.306 NA 
HETATM   22  C   UNL     1      -8.240  10.293  63.201  1.00  0.00    -0.163 A  
HETATM   23  C   UNL     1     -10.469  10.788  63.842  1.00  0.00    -0.181 A  
HETATM   24  C   UNL     1      -7.923  10.099  64.551  1.00  0.00    -0.147 A  
ENDBRANCH   7  19
ENDBRANCH   6   7
ENDBRANCH   5   6
ENDBRANCH   4   5
BRANCH   4  25
HETATM   25  C   UNL     1      -9.109  14.967  67.404  1.00  0.00    -0.186 C  
HETATM   26  C   UNL     1      -7.569  14.957  67.403  1.00  0.00    -0.232 C  
HETATM   27  C   UNL     1      -9.496  15.330  65.950  1.00  0.00    -0.351 C  
ENDBRANCH   4  25
ENDBRANCH   2   4
TORSDOF 8
ENDMDL
MODEL      226
REMARK 921   NORMALIZED FREE ENERGY PREDICTED BY IDOCK:   -3.01 KCAL/MOL
REMARK 922        TOTAL FREE ENERGY PREDICTED BY IDOCK:   -6.13 KCAL/MOL
REMARK 923 INTER-LIGAND FREE ENERGY PREDICTED BY IDOCK:   -4.97 KCAL/MOL
REMARK 924 INTRA-LIGAND FREE ENERGY PREDICTED BY IDOCK:   -1.16 KCAL/MOL
REMARK 927      BINDING AFFINITY PREDICTED BY RF-SCORE:    0.00 PKD
ROOT
HETATM    1  C   UNL     1      -6.573   6.393  66.094  1.00  0.00    -0.048 C  
HETATM    2  C   UNL     1      -8.019   5.896  66.340  1.00  0.00    -0.102 C  
HETATM    3  C   UNL     1      -8.533   5.439  64.965  1.00  0.00    -0.150 C  
ENDROOT
BRANCH   2   4
HETATM    4  N   UNL     1      -8.076   4.881  67.447  1.00  0.00    -0.105 NA 
BRANCH   4   5
HETATM    5  C   UNL     1      -8.970   5.355  68.561  1.00  0.00    -0.107 C  
BRANCH   5   6
HETATM    6  C   UNL     1      -9.874   6.546  68.184  1.00  0.00    -0.131 C  
BRANCH   6   7
HETATM    7  C   UNL     1      -9.727   7.878  69.003  1.00  0.00    -0.162 C  
BRANCH   7   8
HETATM    8  C   UNL     1      -9.815   9.066  68.001  1.00  0.00    -0.197 A  
HETATM    9  C   UNL     1      -9.622  10.401  68.404  1.00  0.00    -0.153 A  
HETATM   10  C   UNL     1      -9.645  11.452  67.482  1.00  0.00    -0.176 A  
HETATM   11  C   UNL     1     -10.006   8.836  66.621  1.00  0.00    -0.355 A  
HETATM   12  C   UNL     1      -9.860  11.197  66.132  1.00  0.00    -0.265 A  
HETATM   13  C   UNL     1     -10.043   9.889  65.702  1.00  0.00    -0.307 A  
ENDBRANCH   7   8
BRANCH   7  14
HETATM   14  C   UNL     1      -8.408   7.839  69.845  1.00  0.00    -0.130 C  
HETATM   15  N   UNL     1      -7.251   8.183  69.193  1.00  0.00    -0.071 N  
HETATM   16  H1  UNL     1      -6.391   8.157  69.741  1.00  0.00     0.000 HD 
HETATM   17  O   UNL     1      -8.326   7.490  71.020  1.00  0.00    -0.111 OA 
HETATM   18  H2  UNL     1      -7.250   8.450  68.209  1.00  0.00     0.000 HD 
ENDBRANCH   7  14
BRANCH   7  19
HETATM   19  C   UNL     1     -10.884   7.925  70.053  1.00  0.00    -0.238 A  
HETATM   20  C   UNL     1     -12.838   8.072  72.004  1.00  0.00    -0.313 A  
HETATM   21  N   UNL     1     -11.123   9.111  70.682  1.00  0.00    -0.251 NA 
HETATM   22  C   UNL     1     -12.622   6.870  71.345  1.00  0.00    -0.400 A  
HETATM   23  C   UNL     1     -12.075   9.159  71.637  1.00  0.00    -0.362 A  
HETATM   24  C   UNL     1     -11.640   6.789  70.352  1.00  0.00    -0.422 A  
ENDBRANCH   7  19
ENDBRANCH   6   7
ENDBRANCH   5   6
ENDBRANCH   4   5
BRANCH   4  25
HETATM   25  C   UNL     1      -8.388   3.467  67.055  1.00  0.00    -0.096 C  
HETATM   26  C   UNL     1      -7.190   2.508  66.937  1.00  0.00    -0.057 C  
HETATM   27  C   UNL     1      -9.338   2.780  68.066  1.00  0.00    -0.257 C  
ENDBRANCH   4  25
ENDBRANCH   2   4
TORSDOF 8
ENDMDL
MODEL      227
REMARK 921   NORMALIZED FREE ENERGY PREDICTED BY IDOCK:   -2.99 KCAL/MOL
REMARK 922        TOTAL FREE ENERGY PREDICTED BY IDOCK:   -6.10 KCAL/MOL
REMARK 923 INTER-LIGAND FREE ENERGY PREDICTED BY IDOCK:   -5.79 KCAL/MOL
REMARK 924 INTRA-LIGAND FREE ENERGY PREDICTED BY IDOCK:   -0.31 KCAL/MOL
REMARK 927      BINDING AFFINITY PREDICTED BY RF-SCORE:    0.00 PKD
ROOT
HETATM    1  C   UNL     1      -7.394  10.263  70.038  1.00  0.00    -0.157 C  
HETATM    2  C   UNL     1      -8.297   9.542  69.008  1.00  0.00    -0.126 C  
HETATM    3  C   UNL     1      -7.974   8.046  69.158  1.00  0.00    -0.114 C  
ENDROOT
BRANCH   2   4
HETATM    4  N   UNL     1      -9.739   9.934  69.163  1.00  0.00    -0.187 NA 
BRANCH   4   5
HETATM    5  C   UNL     1     -10.521   9.600  67.922  1.00  0.00    -0.246 C  
BRANCH   5   6
HETATM    6  C   UNL     1     -11.268  10.797  67.302  1.00  0.00    -0.272 C  
BRANCH   6   7
HETATM    7  C   UNL     1     -10.488  11.723  66.303  1.00  0.00    -0.281 C  
BRANCH   7   8
HETATM    8  C   UNL     1      -9.365  12.447  67.102  1.00  0.00    -0.199 A  
HETATM    9  C   UNL     1      -8.002  12.285  66.791  1.00  0.00     0.010 A  
HETATM   10  C   UNL     1      -7.008  12.988  67.479  1.00  0.00    -0.155 A  
HETATM   11  C   UNL     1      -9.683  13.369  68.123  1.00  0.00    -0.226 A  
HETATM   12  C   UNL     1      -7.350  13.872  68.497  1.00  0.00    -0.116 A  
HETATM   13  C   UNL     1      -8.687  14.060  68.821  1.00  0.00    -0.028 A  
ENDBRANCH   7   8
BRANCH   7  14
HETATM   14  C   UNL     1     -11.488  12.685  65.580  1.00  0.00    -0.350 C  
HETATM   15  N   UNL     1     -10.986  13.889  65.153  1.00  0.00    -0.332 N  
HETATM   16  H1  UNL     1     -11.639  14.516  64.682  1.00  0.00     0.000 HD 
HETATM   17  O   UNL     1     -12.684  12.464  65.403  1.00  0.00    -0.582 OA 
HETATM   18  H2  UNL     1     -10.010  14.144  65.300  1.00  0.00     0.000 HD 
ENDBRANCH   7  14
BRANCH   7  19
HETATM   19  C   UNL     1      -9.897  10.819  65.173  1.00  0.00    -0.277 A  
HETATM   20  C   UNL     1      -8.722   9.224  63.243  1.00  0.00    -0.190 A  
HETATM   21  N   UNL     1      -9.177   9.723  65.548  1.00  0.00    -0.197 NA 
HETATM   22  C   UNL     1      -9.480  10.319  62.854  1.00  0.00    -0.333 A  
HETATM   23  C   UNL     1      -8.605   8.963  64.591  1.00  0.00    -0.143 A  
HETATM   24  C   UNL     1     -10.084  11.127  63.824  1.00  0.00    -0.416 A  
ENDBRANCH   7  19
ENDBRANCH   6   7
ENDBRANCH   5   6
ENDBRANCH   4   5
BRANCH   4  25
HETATM   25  C   UNL     1     -10.441   9.458  70.401  1.00  0.00    -0.256 C  
HETATM   26  C   UNL     1     -11.575  10.351  70.934  1.00  0.00    -0.428 C  
HETATM   27  C   UNL     1     -11.101   8.073  70.197  1.00  0.00    -0.191 C  
ENDBRANCH   4  25
ENDBRANCH   2   4
TORSDOF 8
ENDMDL
MODEL      228
REMARK 921   NORMALIZED FREE ENERGY PREDICTED BY IDOCK:   -2.95 KCAL/MOL
REMARK 922        TOTAL FREE ENERGY PREDICTED BY IDOCK:   -6.03 KCAL/MOL
REMARK 923 INTER-LIGAND FREE ENERGY PREDICTED BY IDOCK:   -4.71 KCAL/MOL
REMARK 924 INTRA-LIGAND FREE ENERGY PREDICTED BY IDOCK:   -1.33 KCAL/MOL
REMARK 927      BINDING AFFINITY PREDICTED BY RF-SCORE:    0.00 PKD
ROOT
HETATM    1  C   UNL     1     -11.342   8.140  72.557  1.00  0.00    -0.469 C  
HETATM    2  C   UNL     1      -9.885   7.894  72.093  1.00  0.00    -0.205 C  
HETATM    3  C   UNL     1      -9.029   7.995  73.367  1.00  0.00    -0.341 C  
ENDROOT
BRANCH   2   4
HETATM    4  N   UNL     1      -9.761   6.623  71.302  1.00  0.00    -0.173 NA 
BRANCH   4   5
HETATM    5  C   UNL     1      -9.127   6.886  69.963  1.00  0.00    -0.145 C  
BRANCH   5   6
HETATM    6  C   UNL     1      -9.836   7.971  69.129  1.00  0.00    -0.178 C  
BRANCH   6   7
HETATM    7  C   UNL     1      -8.957   9.088  68.463  1.00  0.00    -0.133 C  
BRANCH   7   8
HETATM    8  C   UNL     1      -8.262   8.468  67.216  1.00  0.00    -0.108 A  
HETATM    9  C   UNL     1      -8.923   7.564  66.364  1.00  0.00    -0.196 A  
HETATM   10  C   UNL     1      -8.306   7.060  65.214  1.00  0.00    -0.100 A  
HETATM   11  C   UNL     1      -6.958   8.862  66.843  1.00  0.00    -0.078 A  
HETATM   12  C   UNL     1      -7.012   7.448  64.885  1.00  0.00    -0.051 A  
HETATM   13  C   UNL     1      -6.337   8.346  65.702  1.00  0.00    -0.052 A  
ENDBRANCH   7   8
BRANCH   7  14
HETATM   14  C   UNL     1      -7.971   9.688  69.520  1.00  0.00    -0.125 C  
HETATM   15  N   UNL     1      -7.950  11.055  69.637  1.00  0.00    -0.353 N  
HETATM   16  H1  UNL     1      -7.307  11.445  70.326  1.00  0.00     0.000 HD 
HETATM   17  O   UNL     1      -7.197   9.038  70.218  1.00  0.00    -0.044 OA 
HETATM   18  H2  UNL     1      -8.546  11.651  69.063  1.00  0.00     0.000 HD 
ENDBRANCH   7  14
BRANCH   7  19
HETATM   19  C   UNL     1      -9.902  10.269  68.066  1.00  0.00    -0.150 A  
HETATM   20  C   UNL     1     -11.462  12.449  67.390  1.00  0.00    -0.418 A  
HETATM   21  N   UNL     1      -9.436  11.179  67.163  1.00  0.00    -0.172 NA 
HETATM   22  C   UNL     1     -11.954  11.511  68.285  1.00  0.00    -0.239 A  
HETATM   23  C   UNL     1     -10.210  12.240  66.853  1.00  0.00    -0.213 A  
HETATM   24  C   UNL     1     -11.174  10.401  68.626  1.00  0.00    -0.305 A  
ENDBRANCH   7  19
ENDBRANCH   6   7
ENDBRANCH   5   6
ENDBRANCH   4   5
BRANCH   4  25
HETATM   25  C   UNL     1      -9.123   5.454  71.993  1.00  0.00    -0.137 C  
HETATM   26  C   UNL     1     -10.075   4.368  72.526  1.00  0.00    -0.237 C  
HETATM   27  C   UNL     1      -8.147   4.693  71.064  1.00  0.00    -0.086 C  
ENDBRANCH   4  25
ENDBRANCH   2   4
TORSDOF 8
ENDMDL
MODEL      229
REMARK 921   NORMALIZED FREE ENERGY PREDICTED BY IDOCK:   -2.93 KCAL/MOL
REMARK 922        TOTAL FREE ENERGY PREDICTED BY IDOCK:   -6.02 KCAL/MOL
REMARK 923 INTER-LIGAND FREE ENERGY PREDICTED BY IDOCK:   -6.01 KCAL/MOL
REMARK 924 INTRA-LIGAND FREE ENERGY PREDICTED BY IDOCK:   -0.01 KCAL/MOL
REMARK 927      BINDING AFFINITY PREDICTED BY RF-SCORE:    0.00 PKD
ROOT
HETATM    1  C   UNL     1     -12.349  13.943  64.591  1.00  0.00    -0.421 C  
HETATM    2  C   UNL     1     -12.127  12.455  64.958  1.00  0.00    -0.407 C  
HETATM    3  C   UNL     1     -11.730  11.765  63.642  1.00  0.00    -0.517 C  
ENDROOT
BRANCH   2   4
HETATM    4  N   UNL     1     -11.172  12.303  66.108  1.00  0.00    -0.312 NA 
BRANCH   4   5
HETATM    5  C   UNL     1     -10.820  13.645  66.691  1.00  0.00    -0.283 C  
BRANCH   5   6
HETATM    6  C   UNL     1      -9.324  14.004  66.597  1.00  0.00    -0.292 C  
BRANCH   6   7
HETATM    7  C   UNL     1      -8.677  14.809  67.780  1.00  0.00    -0.173 C  
BRANCH   7   8
HETATM    8  C   UNL     1      -7.597  13.903  68.439  1.00  0.00    -0.130 A  
HETATM    9  C   UNL     1      -6.586  14.425  69.267  1.00  0.00    -0.122 A  
HETATM   10  C   UNL     1      -5.658  13.592  69.900  1.00  0.00    -0.109 A  
HETATM   11  C   UNL     1      -7.645  12.499  68.297  1.00  0.00    -0.129 A  
HETATM   12  C   UNL     1      -5.715  12.214  69.722  1.00  0.00    -0.111 A  
HETATM   13  C   UNL     1      -6.707  11.668  68.917  1.00  0.00    -0.088 A  
ENDBRANCH   7   8
BRANCH   7  14
HETATM   14  C   UNL     1      -9.795  15.298  68.760  1.00  0.00    -0.217 C  
HETATM   15  N   UNL     1      -9.431  15.472  70.072  1.00  0.00    -0.292 N  
HETATM   16  H1  UNL     1     -10.159  15.790  70.711  1.00  0.00     0.000 HD 
HETATM   17  O   UNL     1     -10.968  15.499  68.457  1.00  0.00    -0.261 OA 
HETATM   18  H2  UNL     1      -8.480  15.291  70.392  1.00  0.00     0.000 HD 
ENDBRANCH   7  14
BRANCH   7  19
HETATM   19  C   UNL     1      -8.051  16.112  67.187  1.00  0.00    -0.192 A  
HETATM   20  C   UNL     1      -7.041  18.411  66.027  1.00  0.00    -0.307 A  
HETATM   21  N   UNL     1      -8.897  17.127  66.849  1.00  0.00    -0.226 NA 
HETATM   22  C   UNL     1      -6.171  17.395  66.397  1.00  0.00    -0.258 A  
HETATM   23  C   UNL     1      -8.385  18.236  66.277  1.00  0.00    -0.203 A  
HETATM   24  C   UNL     1      -6.673  16.232  66.991  1.00  0.00    -0.217 A  
ENDBRANCH   7  19
ENDBRANCH   6   7
ENDBRANCH   5   6
ENDBRANCH   4   5
BRANCH   4  25
HETATM   25  C   UNL     1     -11.549  11.320  67.176  1.00  0.00    -0.028 C  
HETATM   26  C   UNL     1     -10.541  10.191  67.458  1.00  0.00    -0.327 C  
HETATM   27  C   UNL     1     -11.757  12.005  68.548  1.00  0.00    -0.387 C  
ENDBRANCH   4  25
ENDBRANCH   2   4
TORSDOF 8
ENDMDL
MODEL      230
REMARK 921   NORMALIZED FREE ENERGY PREDICTED BY IDOCK:   -2.93 KCAL/MOL
REMARK 922        TOTAL FREE ENERGY PREDICTED BY IDOCK:   -6.01 KCAL/MOL
REMARK 923 INTER-LIGAND FREE ENERGY PREDICTED BY IDOCK:   -4.96 KCAL/MOL
REMARK 924 INTRA-LIGAND FREE ENERGY PREDICTED BY IDOCK:   -1.05 KCAL/MOL
REMARK 927      BINDING AFFINITY PREDICTED BY RF-SCORE:    0.00 PKD
ROOT
HETATM    1  C   UNL     1     -11.015  10.340  67.398  1.00  0.00    -0.317 C  
HETATM    2  C   UNL     1      -9.724  11.106  67.018  1.00  0.00    -0.186 C  
HETATM    3  C   UNL     1     -10.202  12.455  66.454  1.00  0.00    -0.253 C  
ENDROOT
BRANCH   2   4
HETATM    4  N   UNL     1      -8.755  11.165  68.164  1.00  0.00    -0.138 NA 
BRANCH   4   5
HETATM    5  C   UNL     1      -8.424   9.782  68.655  1.00  0.00    -0.116 C  
BRANCH   5   6
HETATM    6  C   UNL     1      -8.498   9.618  70.186  1.00  0.00    -0.231 C  
BRANCH   6   7
HETATM    7  C   UNL     1      -9.518   8.579  70.774  1.00  0.00    -0.213 C  
BRANCH   7   8
HETATM    8  C   UNL     1      -9.706   7.449  69.720  1.00  0.00    -0.170 A  
HETATM    9  C   UNL     1     -10.975   7.086  69.231  1.00  0.00    -0.211 A  
HETATM   10  C   UNL     1     -11.124   6.110  68.241  1.00  0.00    -0.336 A  
HETATM   11  C   UNL     1      -8.590   6.800  69.148  1.00  0.00    -0.131 A  
HETATM   12  C   UNL     1     -10.008   5.470  67.712  1.00  0.00    -0.188 A  
HETATM   13  C   UNL     1      -8.741   5.814  68.168  1.00  0.00    -0.107 A  
ENDBRANCH   7   8
BRANCH   7  14
HETATM   14  C   UNL     1     -10.840   9.308  71.183  1.00  0.00    -0.337 C  
HETATM   15  N   UNL     1     -11.081  10.524  70.593  1.00  0.00    -0.420 N  
HETATM   16  H1  UNL     1     -11.943  11.000  70.860  1.00  0.00     0.000 HD 
HETATM   17  O   UNL     1     -11.650   8.899  72.011  1.00  0.00    -0.351 OA 
HETATM   18  H2  UNL     1     -10.431  10.932  69.922  1.00  0.00     0.000 HD 
ENDBRANCH   7  14
BRANCH   7  19
HETATM   19  C   UNL     1      -8.922   8.026  72.109  1.00  0.00    -0.164 A  
HETATM   20  C   UNL     1      -7.736   7.089  74.425  1.00  0.00    -0.135 A  
HETATM   21  N   UNL     1      -8.076   8.834  72.809  1.00  0.00    -0.392 NA 
HETATM   22  C   UNL     1      -8.620   6.273  73.734  1.00  0.00    -0.126 A  
HETATM   23  C   UNL     1      -7.501   8.355  73.932  1.00  0.00    -0.114 A  
HETATM   24  C   UNL     1      -9.231   6.743  72.566  1.00  0.00    -0.146 A  
ENDBRANCH   7  19
ENDBRANCH   6   7
ENDBRANCH   5   6
ENDBRANCH   4   5
BRANCH   4  25
HETATM   25  C   UNL     1      -7.518  11.990  67.964  1.00  0.00    -0.113 C  
HETATM   26  C   UNL     1      -7.298  13.149  68.952  1.00  0.00    -0.019 C  
HETATM   27  C   UNL     1      -6.230  11.138  68.071  1.00  0.00    -0.049 C  
ENDBRANCH   4  25
ENDBRANCH   2   4
TORSDOF 8
ENDMDL
MODEL      231
REMARK 921   NORMALIZED FREE ENERGY PREDICTED BY IDOCK:   -2.93 KCAL/MOL
REMARK 922        TOTAL FREE ENERGY PREDICTED BY IDOCK:   -6.00 KCAL/MOL
REMARK 923 INTER-LIGAND FREE ENERGY PREDICTED BY IDOCK:   -4.87 KCAL/MOL
REMARK 924 INTRA-LIGAND FREE ENERGY PREDICTED BY IDOCK:   -1.14 KCAL/MOL
REMARK 927      BINDING AFFINITY PREDICTED BY RF-SCORE:    0.00 PKD
ROOT
HETATM    1  C   UNL     1      -7.450   9.979  64.531  1.00  0.00    -0.142 C  
HETATM    2  C   UNL     1      -8.841  10.554  64.896  1.00  0.00    -0.192 C  
HETATM    3  C   UNL     1      -9.655  10.509  63.592  1.00  0.00    -0.370 C  
ENDROOT
BRANCH   2   4
HETATM    4  N   UNL     1      -9.438   9.853  66.083  1.00  0.00    -0.186 NA 
BRANCH   4   5
HETATM    5  C   UNL     1      -8.625   8.642  66.453  1.00  0.00    -0.119 C  
BRANCH   5   6
HETATM    6  C   UNL     1      -8.516   8.391  67.970  1.00  0.00    -0.132 C  
BRANCH   6   7
HETATM    7  C   UNL     1      -9.172   7.091  68.557  1.00  0.00    -0.137 C  
BRANCH   7   8
HETATM    8  C   UNL     1      -8.025   6.143  69.013  1.00  0.00    -0.108 A  
HETATM    9  C   UNL     1      -6.680   6.377  68.670  1.00  0.00    -0.061 A  
HETATM   10  C   UNL     1      -5.654   5.550  69.137  1.00  0.00    -0.008 A  
HETATM   11  C   UNL     1      -8.287   5.051  69.869  1.00  0.00    -0.081 A  
HETATM   12  C   UNL     1      -5.944   4.466  69.960  1.00  0.00    -0.018 A  
HETATM   13  C   UNL     1      -7.261   4.215  70.322  1.00  0.00    -0.042 A  
ENDBRANCH   7   8
BRANCH   7  14
HETATM   14  C   UNL     1     -10.146   6.467  67.502  1.00  0.00    -0.155 C  
HETATM   15  N   UNL     1      -9.828   5.215  67.036  1.00  0.00    -0.161 N  
HETATM   16  H1  UNL     1     -10.463   4.809  66.348  1.00  0.00     0.000 HD 
HETATM   17  O   UNL     1     -11.138   7.020  67.036  1.00  0.00    -0.373 OA 
HETATM   18  H2  UNL     1      -9.000   4.717  67.360  1.00  0.00     0.000 HD 
ENDBRANCH   7  14
BRANCH   7  19
HETATM   19  C   UNL     1     -10.081   7.512  69.757  1.00  0.00    -0.194 A  
HETATM   20  C   UNL     1     -11.566   8.283  71.958  1.00  0.00    -0.403 A  
HETATM   21  N   UNL     1      -9.800   8.691  70.383  1.00  0.00    -0.178 NA 
HETATM   22  C   UNL     1     -11.878   7.098  71.307  1.00  0.00    -0.355 A  
HETATM   23  C   UNL     1     -10.531   9.045  71.460  1.00  0.00    -0.339 A  
HETATM   24  C   UNL     1     -11.136   6.705  70.188  1.00  0.00    -0.384 A  
ENDBRANCH   7  19
ENDBRANCH   6   7
ENDBRANCH   5   6
ENDBRANCH   4   5
BRANCH   4  25
HETATM   25  C   UNL     1      -9.746  10.698  67.284  1.00  0.00    -0.168 C  
HETATM   26  C   UNL     1      -9.337  12.180  67.205  1.00  0.00    -0.193 C  
HETATM   27  C   UNL     1     -11.261  10.730  67.598  1.00  0.00    -0.370 C  
ENDBRANCH   4  25
ENDBRANCH   2   4
TORSDOF 8
ENDMDL
MODEL      232
REMARK 921   NORMALIZED FREE ENERGY PREDICTED BY IDOCK:   -2.92 KCAL/MOL
REMARK 922        TOTAL FREE ENERGY PREDICTED BY IDOCK:   -6.00 KCAL/MOL
REMARK 923 INTER-LIGAND FREE ENERGY PREDICTED BY IDOCK:   -4.80 KCAL/MOL
REMARK 924 INTRA-LIGAND FREE ENERGY PREDICTED BY IDOCK:   -1.20 KCAL/MOL
REMARK 927      BINDING AFFINITY PREDICTED BY RF-SCORE:    0.00 PKD
ROOT
HETATM    1  C   UNL     1     -11.669  11.600  67.637  1.00  0.00    -0.300 C  
HETATM    2  C   UNL     1     -10.597  11.502  66.525  1.00  0.00    -0.258 C  
HETATM    3  C   UNL     1     -10.449  12.930  65.973  1.00  0.00    -0.290 C  
ENDROOT
BRANCH   2   4
HETATM    4  N   UNL     1      -9.341  10.842  67.021  1.00  0.00    -0.163 NA 
BRANCH   4   5
HETATM    5  C   UNL     1      -9.610  10.057  68.276  1.00  0.00    -0.140 C  
BRANCH   5   6
HETATM    6  C   UNL     1      -8.668   8.855  68.485  1.00  0.00    -0.134 C  
BRANCH   6   7
HETATM    7  C   UNL     1      -9.296   7.489  68.938  1.00  0.00    -0.142 C  
BRANCH   7   8
HETATM    8  C   UNL     1      -8.132   6.481  69.166  1.00  0.00    -0.112 A  
HETATM    9  C   UNL     1      -8.234   5.416  70.080  1.00  0.00    -0.100 A  
HETATM   10  C   UNL     1      -7.203   4.483  70.231  1.00  0.00    -0.049 A  
HETATM   11  C   UNL     1      -6.954   6.550  68.392  1.00  0.00    -0.080 A  
HETATM   12  C   UNL     1      -6.043   4.590  69.472  1.00  0.00    -0.026 A  
HETATM   13  C   UNL     1      -5.917   5.626  68.555  1.00  0.00    -0.017 A  
ENDBRANCH   7   8
BRANCH   7  14
HETATM   14  C   UNL     1     -10.360   7.022  67.890  1.00  0.00    -0.199 C  
HETATM   15  N   UNL     1     -10.775   5.717  67.973  1.00  0.00    -0.195 N  
HETATM   16  H1  UNL     1     -11.468   5.412  67.290  1.00  0.00     0.000 HD 
HETATM   17  O   UNL     1     -10.817   7.715  66.984  1.00  0.00    -0.334 OA 
HETATM   18  H2  UNL     1     -10.409   5.083  68.683  1.00  0.00     0.000 HD 
ENDBRANCH   7  14
BRANCH   7  19
HETATM   19  C   UNL     1     -10.101   7.746  70.254  1.00  0.00    -0.195 A  
HETATM   20  C   UNL     1     -11.624   8.271  72.501  1.00  0.00    -0.454 A  
HETATM   21  N   UNL     1     -11.432   7.449  70.252  1.00  0.00    -0.228 NA 
HETATM   22  C   UNL     1     -10.265   8.546  72.520  1.00  0.00    -0.323 A  
HETATM   23  C   UNL     1     -12.159   7.721  71.356  1.00  0.00    -0.311 A  
HETATM   24  C   UNL     1      -9.485   8.276  71.390  1.00  0.00    -0.227 A  
ENDBRANCH   7  19
ENDBRANCH   6   7
ENDBRANCH   5   6
ENDBRANCH   4   5
BRANCH   4  25
HETATM   25  C   UNL     1      -8.560  10.038  66.024  1.00  0.00    -0.138 C  
HETATM   26  C   UNL     1      -9.158   9.927  64.610  1.00  0.00    -0.288 C  
HETATM   27  C   UNL     1      -7.140  10.612  65.801  1.00  0.00    -0.096 C  
ENDBRANCH   4  25
ENDBRANCH   2   4
TORSDOF 8
ENDMDL
MODEL      233
REMARK 921   NORMALIZED FREE ENERGY PREDICTED BY IDOCK:   -2.92 KCAL/MOL
REMARK 922        TOTAL FREE ENERGY PREDICTED BY IDOCK:   -5.99 KCAL/MOL
REMARK 923 INTER-LIGAND FREE ENERGY PREDICTED BY IDOCK:   -5.22 KCAL/MOL
REMARK 924 INTRA-LIGAND FREE ENERGY PREDICTED BY IDOCK:   -0.77 KCAL/MOL
REMARK 927      BINDING AFFINITY PREDICTED BY RF-SCORE:    0.00 PKD
ROOT
HETATM    1  C   UNL     1     -11.060   7.433  69.934  1.00  0.00    -0.208 C  
HETATM    2  C   UNL     1      -9.822   8.344  70.122  1.00  0.00    -0.181 C  
HETATM    3  C   UNL     1      -8.727   7.734  69.231  1.00  0.00    -0.139 C  
ENDROOT
BRANCH   2   4
HETATM    4  N   UNL     1     -10.154   9.789  69.880  1.00  0.00    -0.236 NA 
BRANCH   4   5
HETATM    5  C   UNL     1      -9.389  10.323  68.699  1.00  0.00    -0.162 C  
BRANCH   5   6
HETATM    6  C   UNL     1      -8.989  11.807  68.821  1.00  0.00     0.015 C  
BRANCH   6   7
HETATM    7  C   UNL     1      -8.384  12.519  67.560  1.00  0.00    -0.175 C  
BRANCH   7   8
HETATM    8  C   UNL     1      -9.166  12.020  66.310  1.00  0.00    -0.208 A  
HETATM    9  C   UNL     1     -10.246  12.742  65.766  1.00  0.00    -0.302 A  
HETATM   10  C   UNL     1     -10.901  12.312  64.608  1.00  0.00    -0.349 A  
HETATM   11  C   UNL     1      -8.760  10.859  65.618  1.00  0.00    -0.190 A  
HETATM   12  C   UNL     1     -10.494  11.150  63.961  1.00  0.00    -0.447 A  
HETATM   13  C   UNL     1      -9.425  10.422  64.468  1.00  0.00    -0.342 A  
ENDBRANCH   7   8
BRANCH   7  14
HETATM   14  C   UNL     1      -6.841  12.267  67.499  1.00  0.00    -0.135 C  
HETATM   15  N   UNL     1      -6.149  12.392  68.678  1.00  0.00    -0.062 N  
HETATM   16  H1  UNL     1      -5.144  12.228  68.639  1.00  0.00     0.000 HD 
HETATM   17  O   UNL     1      -6.202  12.008  66.482  1.00  0.00    -0.117 OA 
HETATM   18  H2  UNL     1      -6.618  12.637  69.550  1.00  0.00     0.000 HD 
ENDBRANCH   7  14
BRANCH   7  19
HETATM   19  C   UNL     1      -8.542  14.061  67.759  1.00  0.00    -0.183 A  
HETATM   20  C   UNL     1      -8.967  16.772  68.106  1.00  0.00    -0.224 A  
HETATM   21  N   UNL     1      -9.402  14.492  68.724  1.00  0.00    -0.200 NA 
HETATM   22  C   UNL     1      -8.065  16.341  67.143  1.00  0.00    -0.219 A  
HETATM   23  C   UNL     1      -9.602  15.819  68.872  1.00  0.00    -0.229 A  
HETATM   24  C   UNL     1      -7.839  14.972  66.966  1.00  0.00    -0.164 A  
ENDBRANCH   7  19
ENDBRANCH   6   7
ENDBRANCH   5   6
ENDBRANCH   4   5
BRANCH   4  25
HETATM   25  C   UNL     1     -11.609  10.146  69.801  1.00  0.00    -0.182 C  
HETATM   26  C   UNL     1     -12.145  11.091  70.891  1.00  0.00    -0.444 C  
HETATM   27  C   UNL     1     -11.962  10.850  68.468  1.00  0.00    -0.137 C  
ENDBRANCH   4  25
ENDBRANCH   2   4
TORSDOF 8
ENDMDL
MODEL      234
REMARK 921   NORMALIZED FREE ENERGY PREDICTED BY IDOCK:   -2.89 KCAL/MOL
REMARK 922        TOTAL FREE ENERGY PREDICTED BY IDOCK:   -5.94 KCAL/MOL
REMARK 923 INTER-LIGAND FREE ENERGY PREDICTED BY IDOCK:   -4.91 KCAL/MOL
REMARK 924 INTRA-LIGAND FREE ENERGY PREDICTED BY IDOCK:   -1.04 KCAL/MOL
REMARK 927      BINDING AFFINITY PREDICTED BY RF-SCORE:    0.00 PKD
ROOT
HETATM    1  C   UNL     1     -11.699  12.039  66.774  1.00  0.00    -0.339 C  
HETATM    2  C   UNL     1     -11.380  12.646  68.162  1.00  0.00    -0.290 C  
HETATM    3  C   UNL     1     -12.128  11.764  69.175  1.00  0.00    -0.290 C  
ENDROOT
BRANCH   2   4
HETATM    4  N   UNL     1      -9.901  12.801  68.374  1.00  0.00    -0.219 NA 
BRANCH   4   5
HETATM    5  C   UNL     1      -9.132  11.868  67.478  1.00  0.00    -0.178 C  
BRANCH   5   6
HETATM    6  C   UNL     1      -8.773  10.517  68.128  1.00  0.00    -0.130 C  
BRANCH   6   7
HETATM    7  C   UNL     1      -8.870   9.220  67.248  1.00  0.00    -0.132 C  
BRANCH   7   8
HETATM    8  C   UNL     1      -8.631   9.632  65.766  1.00  0.00    -0.149 A  
HETATM    9  C   UNL     1      -7.343   9.675  65.200  1.00  0.00    -0.115 A  
HETATM   10  C   UNL     1      -7.149   9.988  63.851  1.00  0.00    -0.126 A  
HETATM   11  C   UNL     1      -9.718   9.894  64.903  1.00  0.00    -0.332 A  
HETATM   12  C   UNL     1      -8.238  10.266  63.031  1.00  0.00    -0.162 A  
HETATM   13  C   UNL     1      -9.522  10.222  63.558  1.00  0.00    -0.345 A  
ENDBRANCH   7   8
BRANCH   7  14
HETATM   14  C   UNL     1     -10.238   8.505  67.508  1.00  0.00    -0.242 C  
HETATM   15  N   UNL     1     -10.871   8.798  68.689  1.00  0.00    -0.435 N  
HETATM   16  H1  UNL     1     -11.762   8.332  68.859  1.00  0.00     0.000 HD 
HETATM   17  O   UNL     1     -10.762   7.682  66.762  1.00  0.00    -0.318 OA 
HETATM   18  H2  UNL     1     -10.471   9.450  69.364  1.00  0.00     0.000 HD 
ENDBRANCH   7  14
BRANCH   7  19
HETATM   19  C   UNL     1      -7.780   8.219  67.749  1.00  0.00    -0.103 A  
HETATM   20  C   UNL     1      -5.749   6.548  68.605  1.00  0.00    -0.017 A  
HETATM   21  N   UNL     1      -6.856   8.679  68.640  1.00  0.00    -0.062 NA 
HETATM   22  C   UNL     1      -6.704   6.064  67.722  1.00  0.00    -0.058 A  
HETATM   23  C   UNL     1      -5.869   7.851  69.039  1.00  0.00    -0.034 A  
HETATM   24  C   UNL     1      -7.739   6.900  67.291  1.00  0.00    -0.109 A  
ENDBRANCH   7  19
ENDBRANCH   6   7
ENDBRANCH   5   6
ENDBRANCH   4   5
BRANCH   4  25
HETATM   25  C   UNL     1      -9.351  14.196  68.319  1.00  0.00    -0.203 C  
HETATM   26  C   UNL     1      -8.935  14.715  66.931  1.00  0.00    -0.275 C  
HETATM   27  C   UNL     1     -10.368  15.241  68.836  1.00  0.00    -0.243 C  
ENDBRANCH   4  25
ENDBRANCH   2   4
TORSDOF 8
ENDMDL
MODEL      235
REMARK 921   NORMALIZED FREE ENERGY PREDICTED BY IDOCK:   -2.87 KCAL/MOL
REMARK 922        TOTAL FREE ENERGY PREDICTED BY IDOCK:   -5.92 KCAL/MOL
REMARK 923 INTER-LIGAND FREE ENERGY PREDICTED BY IDOCK:   -5.29 KCAL/MOL
REMARK 924 INTRA-LIGAND FREE ENERGY PREDICTED BY IDOCK:   -0.64 KCAL/MOL
REMARK 927      BINDING AFFINITY PREDICTED BY RF-SCORE:    0.00 PKD
ROOT
HETATM    1  C   UNL     1     -11.483  15.610  70.504  1.00  0.00    -0.380 C  
HETATM    2  C   UNL     1     -11.157  14.955  69.140  1.00  0.00    -0.269 C  
HETATM    3  C   UNL     1     -12.401  15.188  68.267  1.00  0.00     0.268 C  
ENDROOT
BRANCH   2   4
HETATM    4  N   UNL     1      -9.849  15.447  68.587  1.00  0.00    -0.202 NA 
BRANCH   4   5
HETATM    5  C   UNL     1      -9.013  14.299  68.091  1.00  0.00    -0.189 C  
BRANCH   5   6
HETATM    6  C   UNL     1      -9.674  13.470  66.971  1.00  0.00    -0.251 C  
BRANCH   6   7
HETATM    7  C   UNL     1      -9.515  11.909  67.011  1.00  0.00    -0.192 C  
BRANCH   7   8
HETATM    8  C   UNL     1      -9.525  11.391  65.543  1.00  0.00    -0.251 A  
HETATM    9  C   UNL     1      -8.668  10.364  65.106  1.00  0.00    -0.194 A  
HETATM   10  C   UNL     1      -8.729   9.868  63.800  1.00  0.00    -0.226 A  
HETATM   11  C   UNL     1     -10.464  11.880  64.610  1.00  0.00    -0.340 A  
HETATM   12  C   UNL     1      -9.649  10.386  62.895  1.00  0.00    -0.331 A  
HETATM   13  C   UNL     1     -10.515  11.394  63.299  1.00  0.00    -0.397 A  
ENDBRANCH   7   8
BRANCH   7  14
HETATM   14  C   UNL     1     -10.624  11.286  67.923  1.00  0.00    -0.194 C  
HETATM   15  N   UNL     1     -11.039  10.016  67.608  1.00  0.00    -0.422 N  
HETATM   16  H1  UNL     1     -11.762   9.611  68.202  1.00  0.00     0.000 HD 
HETATM   17  O   UNL     1     -11.173  11.855  68.863  1.00  0.00    -0.218 OA 
HETATM   18  H2  UNL     1     -10.645   9.504  66.820  1.00  0.00     0.000 HD 
ENDBRANCH   7  14
BRANCH   7  19
HETATM   19  C   UNL     1      -8.164  11.583  67.726  1.00  0.00    -0.135 A  
HETATM   20  C   UNL     1      -5.843  11.020  69.121  1.00  0.00    -0.041 A  
HETATM   21  N   UNL     1      -8.172  10.619  68.690  1.00  0.00    -0.127 NA 
HETATM   22  C   UNL     1      -5.820  11.980  68.119  1.00  0.00    -0.053 A  
HETATM   23  C   UNL     1      -7.031  10.365  69.365  1.00  0.00    -0.091 A  
HETATM   24  C   UNL     1      -6.988  12.265  67.404  1.00  0.00    -0.151 A  
ENDBRANCH   7  19
ENDBRANCH   6   7
ENDBRANCH   5   6
ENDBRANCH   4   5
BRANCH   4  25
HETATM   25  C   UNL     1      -9.915  16.556  67.579  1.00  0.00    -0.255 C  
HETATM   26  C   UNL     1     -10.120  17.977  68.134  1.00  0.00    -0.378 C  
HETATM   27  C   UNL     1      -8.620  16.652  66.736  1.00  0.00    -0.268 C  
ENDBRANCH   4  25
ENDBRANCH   2   4
TORSDOF 8
ENDMDL
MODEL      236
REMARK 921   NORMALIZED FREE ENERGY PREDICTED BY IDOCK:   -2.86 KCAL/MOL
REMARK 922        TOTAL FREE ENERGY PREDICTED BY IDOCK:   -5.91 KCAL/MOL
REMARK 923 INTER-LIGAND FREE ENERGY PREDICTED BY IDOCK:   -6.51 KCAL/MOL
REMARK 924 INTRA-LIGAND FREE ENERGY PREDICTED BY IDOCK:    0.59 KCAL/MOL
REMARK 927      BINDING AFFINITY PREDICTED BY RF-SCORE:    0.00 PKD
ROOT
HETATM    1  C   UNL     1     -12.988  14.177  65.553  1.00  0.00    -0.303 C  
HETATM    2  C   UNL     1     -12.025  14.423  64.365  1.00  0.00    -0.452 C  
HETATM    3  C   UNL     1     -11.649  15.912  64.446  1.00  0.00    -0.234 C  
ENDROOT
BRANCH   2   4
HETATM    4  N   UNL     1     -10.885  13.444  64.363  1.00  0.00    -0.403 NA 
BRANCH   4   5
HETATM    5  C   UNL     1     -10.057  13.585  65.612  1.00  0.00    -0.278 C  
BRANCH   5   6
HETATM    6  C   UNL     1     -10.480  12.651  66.762  1.00  0.00    -0.254 C  
BRANCH   6   7
HETATM    7  C   UNL     1     -10.031  13.018  68.221  1.00  0.00    -0.235 C  
BRANCH   7   8
HETATM    8  C   UNL     1     -10.355  11.805  69.140  1.00  0.00    -0.008 A  
HETATM    9  C   UNL     1     -11.631  11.611  69.701  1.00  0.00    -0.401 A  
HETATM   10  C   UNL     1     -11.925  10.485  70.476  1.00  0.00    -0.436 A  
HETATM   11  C   UNL     1      -9.394  10.797  69.374  1.00  0.00    -0.021 A  
HETATM   12  C   UNL     1     -10.950   9.520  70.710  1.00  0.00    -0.389 A  
HETATM   13  C   UNL     1      -9.684   9.679  70.162  1.00  0.00    -0.301 A  
ENDBRANCH   7   8
BRANCH   7  14
HETATM   14  C   UNL     1     -10.705  14.360  68.661  1.00  0.00    -0.253 C  
HETATM   15  N   UNL     1     -10.621  15.409  67.779  1.00  0.00    -0.267 N  
HETATM   16  H1  UNL     1     -11.061  16.284  68.066  1.00  0.00     0.000 HD 
HETATM   17  O   UNL     1     -11.262  14.556  69.738  1.00  0.00    -0.255 OA 
HETATM   18  H2  UNL     1     -10.144  15.319  66.883  1.00  0.00     0.000 HD 
ENDBRANCH   7  14
BRANCH   7  19
HETATM   19  C   UNL     1      -8.497  13.320  68.188  1.00  0.00    -0.173 A  
HETATM   20  C   UNL     1      -5.760  13.712  68.159  1.00  0.00    -0.116 A  
HETATM   21  N   UNL     1      -7.705  12.502  67.437  1.00  0.00    -0.161 NA 
HETATM   22  C   UNL     1      -6.563  14.567  68.900  1.00  0.00    -0.095 A  
HETATM   23  C   UNL     1      -6.371  12.705  67.443  1.00  0.00    -0.150 A  
HETATM   24  C   UNL     1      -7.949  14.380  68.913  1.00  0.00    -0.109 A  
ENDBRANCH   7  19
ENDBRANCH   6   7
ENDBRANCH   5   6
ENDBRANCH   4   5
BRANCH   4  25
HETATM   25  C   UNL     1     -11.225  12.009  64.088  1.00  0.00    -0.373 C  
HETATM   26  C   UNL     1     -12.494  11.752  63.255  1.00  0.00    -0.411 C  
HETATM   27  C   UNL     1     -10.098  11.284  63.312  1.00  0.00    -0.428 C  
ENDBRANCH   4  25
ENDBRANCH   2   4
TORSDOF 8
ENDMDL
MODEL      237
REMARK 921   NORMALIZED FREE ENERGY PREDICTED BY IDOCK:   -2.86 KCAL/MOL
REMARK 922        TOTAL FREE ENERGY PREDICTED BY IDOCK:   -5.90 KCAL/MOL
REMARK 923 INTER-LIGAND FREE ENERGY PREDICTED BY IDOCK:   -4.76 KCAL/MOL
REMARK 924 INTRA-LIGAND FREE ENERGY PREDICTED BY IDOCK:   -1.14 KCAL/MOL
REMARK 927      BINDING AFFINITY PREDICTED BY RF-SCORE:    0.00 PKD
ROOT
HETATM    1  C   UNL     1     -10.461  14.781  67.372  1.00  0.00    -0.256 C  
HETATM    2  C   UNL     1     -10.611  13.260  67.126  1.00  0.00    -0.258 C  
HETATM    3  C   UNL     1     -12.067  12.929  67.492  1.00  0.00    -0.251 C  
ENDROOT
BRANCH   2   4
HETATM    4  N   UNL     1     -10.164  12.874  65.744  1.00  0.00    -0.285 NA 
BRANCH   4   5
HETATM    5  C   UNL     1      -9.089  11.823  65.804  1.00  0.00    -0.083 C  
BRANCH   5   6
HETATM    6  C   UNL     1      -9.278  10.786  66.929  1.00  0.00    -0.172 C  
BRANCH   6   7
HETATM    7  C   UNL     1      -8.281   9.575  66.998  1.00  0.00    -0.113 C  
BRANCH   7   8
HETATM    8  C   UNL     1      -7.233   9.884  68.107  1.00  0.00    -0.078 A  
HETATM    9  C   UNL     1      -6.111   9.062  68.325  1.00  0.00    -0.053 A  
HETATM   10  C   UNL     1      -5.146   9.384  69.285  1.00  0.00    -0.036 A  
HETATM   11  C   UNL     1      -7.325  11.060  68.882  1.00  0.00    -0.111 A  
HETATM   12  C   UNL     1      -5.276  10.537  70.051  1.00  0.00    -0.040 A  
HETATM   13  C   UNL     1      -6.368  11.373  69.852  1.00  0.00    -0.141 A  
ENDBRANCH   7   8
BRANCH   7  14
HETATM   14  C   UNL     1      -7.667   9.313  65.583  1.00  0.00    -0.095 C  
HETATM   15  N   UNL     1      -8.461   8.651  64.680  1.00  0.00    -0.280 N  
HETATM   16  H1  UNL     1      -8.061   8.481  63.758  1.00  0.00     0.000 HD 
HETATM   17  O   UNL     1      -6.529   9.616  65.235  1.00  0.00    -0.074 OA 
HETATM   18  H2  UNL     1      -9.404   8.346  64.919  1.00  0.00     0.000 HD 
ENDBRANCH   7  14
BRANCH   7  19
HETATM   19  C   UNL     1      -9.109   8.292  67.331  1.00  0.00    -0.140 A  
HETATM   20  C   UNL     1     -10.682   6.109  67.970  1.00  0.00    -0.370 A  
HETATM   21  N   UNL     1     -10.399   8.237  66.894  1.00  0.00    -0.321 NA 
HETATM   22  C   UNL     1      -9.360   6.143  68.392  1.00  0.00    -0.116 A  
HETATM   23  C   UNL     1     -11.152   7.167  67.223  1.00  0.00    -0.159 A  
HETATM   24  C   UNL     1      -8.556   7.241  68.066  1.00  0.00    -0.125 A  
ENDBRANCH   7  19
ENDBRANCH   6   7
ENDBRANCH   5   6
ENDBRANCH   4   5
BRANCH   4  25
HETATM   25  C   UNL     1     -11.237  12.509  64.762  1.00  0.00    -0.306 C  
HETATM   26  C   UNL     1     -11.835  13.663  63.937  1.00  0.00    -0.419 C  
HETATM   27  C   UNL     1     -10.736  11.495  63.705  1.00  0.00    -0.474 C  
ENDBRANCH   4  25
ENDBRANCH   2   4
TORSDOF 8
ENDMDL
MODEL      238
REMARK 921   NORMALIZED FREE ENERGY PREDICTED BY IDOCK:   -2.85 KCAL/MOL
REMARK 922        TOTAL FREE ENERGY PREDICTED BY IDOCK:   -5.90 KCAL/MOL
REMARK 923 INTER-LIGAND FREE ENERGY PREDICTED BY IDOCK:   -6.03 KCAL/MOL
REMARK 924 INTRA-LIGAND FREE ENERGY PREDICTED BY IDOCK:    0.14 KCAL/MOL
REMARK 927      BINDING AFFINITY PREDICTED BY RF-SCORE:    0.00 PKD
ROOT
HETATM    1  C   UNL     1      -6.121  11.197  66.915  1.00  0.00    -0.104 C  
HETATM    2  C   UNL     1      -6.353  11.166  68.446  1.00  0.00    -0.049 C  
HETATM    3  C   UNL     1      -5.894  12.542  68.956  1.00  0.00    -0.071 C  
ENDROOT
BRANCH   2   4
HETATM    4  N   UNL     1      -7.759  10.761  68.787  1.00  0.00    -0.113 NA 
BRANCH   4   5
HETATM    5  C   UNL     1      -8.651  10.859  67.579  1.00  0.00    -0.127 C  
BRANCH   5   6
HETATM    6  C   UNL     1      -9.140  12.287  67.266  1.00  0.00    -0.184 C  
BRANCH   6   7
HETATM    7  C   UNL     1     -10.681  12.579  67.349  1.00  0.00    -0.254 C  
BRANCH   7   8
HETATM    8  C   UNL     1     -10.869  13.943  68.075  1.00  0.00    -0.259 A  
HETATM    9  C   UNL     1     -11.019  15.152  67.370  1.00  0.00    -0.314 A  
HETATM   10  C   UNL     1     -11.247  16.361  68.034  1.00  0.00    -0.235 A  
HETATM   11  C   UNL     1     -10.985  14.004  69.481  1.00  0.00    -0.138 A  
HETATM   12  C   UNL     1     -11.332  16.394  69.422  1.00  0.00    -0.213 A  
HETATM   13  C   UNL     1     -11.198  15.216  70.145  1.00  0.00    -0.299 A  
ENDBRANCH   7   8
BRANCH   7  14
HETATM   14  C   UNL     1     -11.412  11.376  68.033  1.00  0.00    -0.307 C  
HETATM   15  N   UNL     1     -11.179  10.132  67.502  1.00  0.00    -0.374 N  
HETATM   16  H1  UNL     1     -11.656   9.348  67.948  1.00  0.00     0.000 HD 
HETATM   17  O   UNL     1     -12.198  11.464  68.972  1.00  0.00    -0.405 OA 
HETATM   18  H2  UNL     1     -10.562   9.998  66.702  1.00  0.00     0.000 HD 
ENDBRANCH   7  14
BRANCH   7  19
HETATM   19  C   UNL     1     -11.238  12.623  65.889  1.00  0.00    -0.314 A  
HETATM   20  C   UNL     1     -12.333  12.611  63.350  1.00  0.00    -0.553 A  
HETATM   21  N   UNL     1     -12.566  12.886  65.725  1.00  0.00    -0.513 NA 
HETATM   22  C   UNL     1     -10.976  12.374  63.508  1.00  0.00    -0.506 A  
HETATM   23  C   UNL     1     -13.082  12.867  64.478  1.00  0.00     0.083 A  
HETATM   24  C   UNL     1     -10.412  12.386  64.788  1.00  0.00    -0.333 A  
ENDBRANCH   7  19
ENDBRANCH   6   7
ENDBRANCH   5   6
ENDBRANCH   4   5
BRANCH   4  25
HETATM   25  C   UNL     1      -7.934   9.450  69.496  1.00  0.00    -0.098 C  
HETATM   26  C   UNL     1      -6.773   8.999  70.401  1.00  0.00    -0.052 C  
HETATM   27  C   UNL     1      -9.172   9.454  70.425  1.00  0.00    -0.305 C  
ENDBRANCH   4  25
ENDBRANCH   2   4
TORSDOF 8
ENDMDL
MODEL      239
REMARK 921   NORMALIZED FREE ENERGY PREDICTED BY IDOCK:   -2.80 KCAL/MOL
REMARK 922        TOTAL FREE ENERGY PREDICTED BY IDOCK:   -5.82 KCAL/MOL
REMARK 923 INTER-LIGAND FREE ENERGY PREDICTED BY IDOCK:   -7.36 KCAL/MOL
REMARK 924 INTRA-LIGAND FREE ENERGY PREDICTED BY IDOCK:    1.55 KCAL/MOL
REMARK 927      BINDING AFFINITY PREDICTED BY RF-SCORE:    0.00 PKD
ROOT
HETATM    1  C   UNL     1      -9.573  16.458  69.041  1.00  0.00    -0.264 C  
HETATM    2  C   UNL     1      -8.534  16.758  67.932  1.00  0.00    -0.200 C  
HETATM    3  C   UNL     1      -7.239  16.065  68.388  1.00  0.00    -0.126 C  
ENDROOT
BRANCH   2   4
HETATM    4  N   UNL     1      -9.051  16.384  66.572  1.00  0.00    -0.252 NA 
BRANCH   4   5
HETATM    5  C   UNL     1      -8.917  14.904  66.338  1.00  0.00    -0.219 C  
BRANCH   5   6
HETATM    6  C   UNL     1      -9.426  14.030  67.501  1.00  0.00    -0.221 C  
BRANCH   6   7
HETATM    7  C   UNL     1     -10.679  13.117  67.252  1.00  0.00    -0.262 C  
BRANCH   7   8
HETATM    8  C   UNL     1     -10.535  12.487  65.835  1.00  0.00    -0.289 A  
HETATM    9  C   UNL     1     -11.297  12.931  64.738  1.00  0.00    -0.349 A  
HETATM   10  C   UNL     1     -11.114  12.396  63.459  1.00  0.00    -0.521 A  
HETATM   11  C   UNL     1      -9.562  11.497  65.580  1.00  0.00    -0.252 A  
HETATM   12  C   UNL     1     -10.165  11.404  63.242  1.00  0.00    -0.430 A  
HETATM   13  C   UNL     1      -9.391  10.952  64.303  1.00  0.00    -0.259 A  
ENDBRANCH   7   8
BRANCH   7  14
HETATM   14  C   UNL     1     -11.989  13.948  67.459  1.00  0.00    -0.386 C  
HETATM   15  N   UNL     1     -12.864  13.992  66.403  1.00  0.00    -0.404 N  
HETATM   16  H1  UNL     1     -13.718  14.534  66.538  1.00  0.00     0.000 HD 
HETATM   17  O   UNL     1     -12.271  14.589  68.468  1.00  0.00    -0.254 OA 
HETATM   18  H2  UNL     1     -12.671  13.507  65.527  1.00  0.00     0.000 HD 
ENDBRANCH   7  14
BRANCH   7  19
HETATM   19  C   UNL     1     -10.705  12.023  68.368  1.00  0.00    -0.229 A  
HETATM   20  C   UNL     1     -10.679   9.997  70.249  1.00  0.00    -0.367 A  
HETATM   21  N   UNL     1      -9.534  11.388  68.661  1.00  0.00    -0.187 NA 
HETATM   22  C   UNL     1     -11.867  10.660  69.978  1.00  0.00    -0.403 A  
HETATM   23  C   UNL     1      -9.545  10.397  69.577  1.00  0.00    -0.157 A  
HETATM   24  C   UNL     1     -11.887  11.691  69.033  1.00  0.00    -0.391 A  
ENDBRANCH   7  19
ENDBRANCH   6   7
ENDBRANCH   5   6
ENDBRANCH   4   5
BRANCH   4  25
HETATM   25  C   UNL     1     -10.420  16.878  66.208  1.00  0.00    -0.262 C  
HETATM   26  C   UNL     1     -10.549  18.381  65.901  1.00  0.00    -0.313 C  
HETATM   27  C   UNL     1     -10.974  16.175  64.946  1.00  0.00    -0.364 C  
ENDBRANCH   4  25
ENDBRANCH   2   4
TORSDOF 8
ENDMDL
MODEL      240
REMARK 921   NORMALIZED FREE ENERGY PREDICTED BY IDOCK:   -2.76 KCAL/MOL
REMARK 922        TOTAL FREE ENERGY PREDICTED BY IDOCK:   -5.76 KCAL/MOL
REMARK 923 INTER-LIGAND FREE ENERGY PREDICTED BY IDOCK:   -6.33 KCAL/MOL
REMARK 924 INTRA-LIGAND FREE ENERGY PREDICTED BY IDOCK:    0.57 KCAL/MOL
REMARK 927      BINDING AFFINITY PREDICTED BY RF-SCORE:    0.00 PKD
ROOT
HETATM    1  C   UNL     1      -6.884  10.662  68.329  1.00  0.00    -0.068 C  
HETATM    2  C   UNL     1      -7.684   9.580  69.095  1.00  0.00    -0.081 C  
HETATM    3  C   UNL     1      -7.387   9.830  70.583  1.00  0.00    -0.070 C  
ENDROOT
BRANCH   2   4
HETATM    4  N   UNL     1      -9.132   9.572  68.693  1.00  0.00    -0.131 NA 
BRANCH   4   5
HETATM    5  C   UNL     1      -9.917   8.611  69.543  1.00  0.00    -0.196 C  
BRANCH   5   6
HETATM    6  C   UNL     1      -9.360   8.424  70.968  1.00  0.00    -0.211 C  
BRANCH   6   7
HETATM    7  C   UNL     1     -10.120   7.454  71.941  1.00  0.00    -0.204 C  
BRANCH   7   8
HETATM    8  C   UNL     1     -11.638   7.786  71.856  1.00  0.00    -0.330 A  
HETATM    9  C   UNL     1     -12.601   6.810  71.541  1.00  0.00    -0.371 A  
HETATM   10  C   UNL     1     -13.967   7.110  71.527  1.00  0.00    -0.440 A  
HETATM   11  C   UNL     1     -12.116   9.075  72.181  1.00  0.00    -0.412 A  
HETATM   12  C   UNL     1     -14.407   8.394  71.828  1.00  0.00    -0.558 A  
HETATM   13  C   UNL     1     -13.481   9.377  72.152  1.00  0.00    -0.543 A  
ENDBRANCH   7   8
BRANCH   7  14
HETATM   14  C   UNL     1      -9.514   7.565  73.380  1.00  0.00    -0.252 C  
HETATM   15  N   UNL     1     -10.207   6.946  74.390  1.00  0.00    -0.441 N  
HETATM   16  H1  UNL     1      -9.812   7.019  75.327  1.00  0.00     0.000 HD 
HETATM   17  O   UNL     1      -8.499   8.189  73.677  1.00  0.00    -0.226 OA 
HETATM   18  H2  UNL     1     -11.074   6.439  74.212  1.00  0.00     0.000 HD 
ENDBRANCH   7  14
BRANCH   7  19
HETATM   19  C   UNL     1      -9.826   5.989  71.483  1.00  0.00    -0.168 A  
HETATM   20  C   UNL     1      -9.164   3.419  70.705  1.00  0.00    -0.209 A  
HETATM   21  N   UNL     1      -9.098   5.196  72.320  1.00  0.00    -0.131 NA 
HETATM   22  C   UNL     1      -9.932   4.210  69.862  1.00  0.00    -0.116 A  
HETATM   23  C   UNL     1      -8.779   3.948  71.917  1.00  0.00    -0.096 A  
HETATM   24  C   UNL     1     -10.277   5.508  70.252  1.00  0.00    -0.326 A  
ENDBRANCH   7  19
ENDBRANCH   6   7
ENDBRANCH   5   6
ENDBRANCH   4   5
BRANCH   4  25
HETATM   25  C   UNL     1      -9.814  10.904  68.594  1.00  0.00    -0.190 C  
HETATM   26  C   UNL     1      -9.856  11.552  67.198  1.00  0.00    -0.210 C  
HETATM   27  C   UNL     1     -11.297  10.830  69.031  1.00  0.00    -0.349 C  
ENDBRANCH   4  25
ENDBRANCH   2   4
TORSDOF 8
ENDMDL
MODEL      241
REMARK 921   NORMALIZED FREE ENERGY PREDICTED BY IDOCK:   -2.70 KCAL/MOL
REMARK 922        TOTAL FREE ENERGY PREDICTED BY IDOCK:   -5.68 KCAL/MOL
REMARK 923 INTER-LIGAND FREE ENERGY PREDICTED BY IDOCK:   -5.05 KCAL/MOL
REMARK 924 INTRA-LIGAND FREE ENERGY PREDICTED BY IDOCK:   -0.63 KCAL/MOL
REMARK 927      BINDING AFFINITY PREDICTED BY RF-SCORE:    0.00 PKD
ROOT
HETATM    1  C   UNL     1      -6.069  16.532  69.517  1.00  0.00    -0.199 C  
HETATM    2  C   UNL     1      -5.559  15.132  69.940  1.00  0.00    -0.118 C  
HETATM    3  C   UNL     1      -5.143  15.278  71.413  1.00  0.00    -0.136 C  
ENDROOT
BRANCH   2   4
HETATM    4  N   UNL     1      -6.563  14.059  69.631  1.00  0.00    -0.121 NA 
BRANCH   4   5
HETATM    5  C   UNL     1      -7.689  14.605  68.795  1.00  0.00    -0.137 C  
BRANCH   5   6
HETATM    6  C   UNL     1      -9.028  14.741  69.545  1.00  0.00     0.115 C  
BRANCH   6   7
HETATM    7  C   UNL     1     -10.334  14.955  68.701  1.00  0.00    -0.237 C  
BRANCH   7   8
HETATM    8  C   UNL     1     -11.550  14.586  69.601  1.00  0.00    -0.346 A  
HETATM    9  C   UNL     1     -11.625  13.362  70.292  1.00  0.00    -0.116 A  
HETATM   10  C   UNL     1     -12.695  13.070  71.143  1.00  0.00    -0.372 A  
HETATM   11  C   UNL     1     -12.590  15.513  69.827  1.00  0.00    -0.097 A  
HETATM   12  C   UNL     1     -13.718  13.993  71.328  1.00  0.00    -0.227 A  
HETATM   13  C   UNL     1     -13.667  15.214  70.667  1.00  0.00    -0.100 A  
ENDBRANCH   7   8
BRANCH   7  14
HETATM   14  C   UNL     1     -10.244  14.137  67.370  1.00  0.00    -0.244 C  
HETATM   15  N   UNL     1      -9.255  14.500  66.489  1.00  0.00    -0.349 N  
HETATM   16  H1  UNL     1      -9.197  13.967  65.622  1.00  0.00     0.000 HD 
HETATM   17  O   UNL     1     -11.005  13.231  67.039  1.00  0.00    -0.269 OA 
HETATM   18  H2  UNL     1      -8.612  15.264  66.693  1.00  0.00     0.000 HD 
ENDBRANCH   7  14
BRANCH   7  19
HETATM   19  C   UNL     1     -10.379  16.454  68.260  1.00  0.00    -0.279 A  
HETATM   20  C   UNL     1     -10.380  19.069  67.362  1.00  0.00    -0.504 A  
HETATM   21  N   UNL     1     -10.753  16.728  66.978  1.00  0.00    -0.223 NA 
HETATM   22  C   UNL     1     -10.028  18.800  68.677  1.00  0.00    -0.444 A  
HETATM   23  C   UNL     1     -10.739  18.010  66.557  1.00  0.00    -0.131 A  
HETATM   24  C   UNL     1     -10.033  17.481  69.141  1.00  0.00    -0.197 A  
ENDBRANCH   7  19
ENDBRANCH   6   7
ENDBRANCH   5   6
ENDBRANCH   4   5
BRANCH   4  25
HETATM   25  C   UNL     1      -6.031  12.775  69.068  1.00  0.00    -0.084 C  
HETATM   26  C   UNL     1      -7.011  11.589  69.014  1.00  0.00    -0.112 C  
HETATM   27  C   UNL     1      -5.541  12.940  67.609  1.00  0.00    -0.120 C  
ENDBRANCH   4  25
ENDBRANCH   2   4
TORSDOF 8
ENDMDL
MODEL      242
REMARK 921   NORMALIZED FREE ENERGY PREDICTED BY IDOCK:   -2.70 KCAL/MOL
REMARK 922        TOTAL FREE ENERGY PREDICTED BY IDOCK:   -5.68 KCAL/MOL
REMARK 923 INTER-LIGAND FREE ENERGY PREDICTED BY IDOCK:   -5.71 KCAL/MOL
REMARK 924 INTRA-LIGAND FREE ENERGY PREDICTED BY IDOCK:    0.04 KCAL/MOL
REMARK 927      BINDING AFFINITY PREDICTED BY RF-SCORE:    0.00 PKD
ROOT
HETATM    1  C   UNL     1      -8.477  17.348  68.718  1.00  0.00    -0.225 C  
HETATM    2  C   UNL     1      -9.508  16.203  68.870  1.00  0.00    -0.244 C  
HETATM    3  C   UNL     1     -10.833  16.892  69.237  1.00  0.00    -0.214 C  
ENDROOT
BRANCH   2   4
HETATM    4  N   UNL     1      -9.530  15.312  67.660  1.00  0.00    -0.204 NA 
BRANCH   4   5
HETATM    5  C   UNL     1      -9.326  13.873  68.052  1.00  0.00    -0.204 C  
BRANCH   5   6
HETATM    6  C   UNL     1      -8.597  13.025  66.992  1.00  0.00    -0.165 C  
BRANCH   6   7
HETATM    7  C   UNL     1      -8.700  11.461  67.093  1.00  0.00    -0.155 C  
BRANCH   7   8
HETATM    8  C   UNL     1      -9.785  11.123  68.157  1.00  0.00    -0.186 A  
HETATM    9  C   UNL     1      -9.460  10.549  69.400  1.00  0.00    -0.158 A  
HETATM   10  C   UNL     1     -10.439  10.306  70.369  1.00  0.00    -0.141 A  
HETATM   11  C   UNL     1     -11.138  11.463  67.943  1.00  0.00    -0.320 A  
HETATM   12  C   UNL     1     -11.768  10.630  70.121  1.00  0.00    -0.417 A  
HETATM   13  C   UNL     1     -12.118  11.206  68.907  1.00  0.00    -0.276 A  
ENDBRANCH   7   8
BRANCH   7  14
HETATM   14  C   UNL     1      -7.289  10.856  67.395  1.00  0.00    -0.099 C  
HETATM   15  N   UNL     1      -6.229  11.393  66.707  1.00  0.00    -0.132 N  
HETATM   16  H1  UNL     1      -5.309  10.999  66.903  1.00  0.00     0.000 HD 
HETATM   17  O   UNL     1      -7.064   9.923  68.161  1.00  0.00    -0.076 OA 
HETATM   18  H2  UNL     1      -6.355  12.148  66.034  1.00  0.00     0.000 HD 
ENDBRANCH   7  14
BRANCH   7  19
HETATM   19  C   UNL     1      -9.089  10.914  65.681  1.00  0.00    -0.204 A  
HETATM   20  C   UNL     1      -9.639   9.974  63.140  1.00  0.00    -0.107 A  
HETATM   21  N   UNL     1      -8.273   9.980  65.115  1.00  0.00    -0.140 NA 
HETATM   22  C   UNL     1     -10.491  10.901  63.722  1.00  0.00    -0.329 A  
HETATM   23  C   UNL     1      -8.554   9.540  63.871  1.00  0.00    -0.212 A  
HETATM   24  C   UNL     1     -10.224  11.376  65.011  1.00  0.00    -0.333 A  
ENDBRANCH   7  19
ENDBRANCH   6   7
ENDBRANCH   5   6
ENDBRANCH   4   5
BRANCH   4  25
HETATM   25  C   UNL     1     -10.692  15.468  66.725  1.00  0.00    -0.305 C  
HETATM   26  C   UNL     1     -10.392  15.305  65.224  1.00  0.00    -0.430 C  
HETATM   27  C   UNL     1     -11.811  14.437  67.011  1.00  0.00    -0.437 C  
ENDBRANCH   4  25
ENDBRANCH   2   4
TORSDOF 8
ENDMDL
MODEL      243
REMARK 921   NORMALIZED FREE ENERGY PREDICTED BY IDOCK:   -2.68 KCAL/MOL
REMARK 922        TOTAL FREE ENERGY PREDICTED BY IDOCK:   -5.64 KCAL/MOL
REMARK 923 INTER-LIGAND FREE ENERGY PREDICTED BY IDOCK:   -5.57 KCAL/MOL
REMARK 924 INTRA-LIGAND FREE ENERGY PREDICTED BY IDOCK:   -0.07 KCAL/MOL
REMARK 927      BINDING AFFINITY PREDICTED BY RF-SCORE:    0.00 PKD
ROOT
HETATM    1  C   UNL     1     -12.111  14.955  66.345  1.00  0.00     0.002 C  
HETATM    2  C   UNL     1     -11.382  14.783  64.989  1.00  0.00    -0.391 C  
HETATM    3  C   UNL     1     -11.411  16.173  64.331  1.00  0.00    -0.210 C  
ENDROOT
BRANCH   2   4
HETATM    4  N   UNL     1     -10.029  14.153  65.163  1.00  0.00    -0.300 NA 
BRANCH   4   5
HETATM    5  C   UNL     1      -9.103  15.073  65.911  1.00  0.00     0.011 C  
BRANCH   5   6
HETATM    6  C   UNL     1      -8.951  14.738  67.409  1.00  0.00    -0.200 C  
BRANCH   6   7
HETATM    7  C   UNL     1      -9.167  15.891  68.453  1.00  0.00    -0.197 C  
BRANCH   7   8
HETATM    8  C   UNL     1      -9.439  17.204  67.663  1.00  0.00    -0.241 A  
HETATM    9  C   UNL     1     -10.697  17.834  67.669  1.00  0.00    -0.330 A  
HETATM   10  C   UNL     1     -10.910  19.046  67.004  1.00  0.00    -0.438 A  
HETATM   11  C   UNL     1      -8.397  17.864  66.976  1.00  0.00    -0.248 A  
HETATM   12  C   UNL     1      -9.870  19.660  66.315  1.00  0.00    -0.540 A  
HETATM   13  C   UNL     1      -8.614  19.067  66.298  1.00  0.00    -0.281 A  
ENDBRANCH   7   8
BRANCH   7  14
HETATM   14  C   UNL     1      -7.943  15.962  69.424  1.00  0.00    -0.184 C  
HETATM   15  N   UNL     1      -7.350  14.769  69.757  1.00  0.00    -0.351 N  
HETATM   16  H1  UNL     1      -6.552  14.816  70.390  1.00  0.00     0.000 HD 
HETATM   17  O   UNL     1      -7.501  16.987  69.936  1.00  0.00     0.468 OA 
HETATM   18  H2  UNL     1      -7.691  13.881  69.390  1.00  0.00     0.000 HD 
ENDBRANCH   7  14
BRANCH   7  19
HETATM   19  C   UNL     1     -10.384  15.499  69.353  1.00  0.00    -0.258 A  
HETATM   20  C   UNL     1     -12.613  14.777  70.822  1.00  0.00    -0.412 A  
HETATM   21  N   UNL     1     -11.002  14.309  69.103  1.00  0.00    -0.259 NA 
HETATM   22  C   UNL     1     -11.970  15.975  71.102  1.00  0.00    -0.443 A  
HETATM   23  C   UNL     1     -12.092  13.980  69.826  1.00  0.00    -0.348 A  
HETATM   24  C   UNL     1     -10.838  16.344  70.369  1.00  0.00    -0.149 A  
ENDBRANCH   7  19
ENDBRANCH   6   7
ENDBRANCH   5   6
ENDBRANCH   4   5
BRANCH   4  25
HETATM   25  C   UNL     1      -9.997  12.762  65.725  1.00  0.00    -0.251 C  
HETATM   26  C   UNL     1     -10.645  11.660  64.868  1.00  0.00    -0.349 C  
HETATM   27  C   UNL     1      -8.550  12.267  65.965  1.00  0.00     0.330 C  
ENDBRANCH   4  25
ENDBRANCH   2   4
TORSDOF 8
ENDMDL
MODEL      244
REMARK 921   NORMALIZED FREE ENERGY PREDICTED BY IDOCK:   -2.66 KCAL/MOL
REMARK 922        TOTAL FREE ENERGY PREDICTED BY IDOCK:   -5.61 KCAL/MOL
REMARK 923 INTER-LIGAND FREE ENERGY PREDICTED BY IDOCK:   -7.10 KCAL/MOL
REMARK 924 INTRA-LIGAND FREE ENERGY PREDICTED BY IDOCK:    1.49 KCAL/MOL
REMARK 927      BINDING AFFINITY PREDICTED BY RF-SCORE:    0.00 PKD
ROOT
HETATM    1  C   UNL     1     -13.095  14.324  65.476  1.00  0.00    -0.090 C  
HETATM    2  C   UNL     1     -12.117  14.487  64.287  1.00  0.00    -0.425 C  
HETATM    3  C   UNL     1     -11.646  15.950  64.343  1.00  0.00    -0.234 C  
ENDROOT
BRANCH   2   4
HETATM    4  N   UNL     1     -11.043  13.437  64.304  1.00  0.00    -0.382 NA 
BRANCH   4   5
HETATM    5  C   UNL     1     -10.127  13.627  65.482  1.00  0.00    -0.275 C  
BRANCH   5   6
HETATM    6  C   UNL     1     -10.853  13.957  66.802  1.00  0.00    -0.286 C  
BRANCH   6   7
HETATM    7  C   UNL     1     -10.162  13.551  68.152  1.00  0.00    -0.249 C  
BRANCH   7   8
HETATM    8  C   UNL     1     -10.973  14.194  69.315  1.00  0.00    -0.252 A  
HETATM    9  C   UNL     1     -10.752  15.517  69.739  1.00  0.00    -0.301 A  
HETATM   10  C   UNL     1     -11.528  16.101  70.745  1.00  0.00    -0.408 A  
HETATM   11  C   UNL     1     -12.030  13.492  69.934  1.00  0.00    -0.416 A  
HETATM   12  C   UNL     1     -12.548  15.377  71.354  1.00  0.00    -0.471 A  
HETATM   13  C   UNL     1     -12.796  14.071  70.950  1.00  0.00    -0.389 A  
ENDBRANCH   7   8
BRANCH   7  14
HETATM   14  C   UNL     1      -8.651  13.957  68.116  1.00  0.00    -0.180 C  
HETATM   15  N   UNL     1      -7.934  13.564  67.013  1.00  0.00    -0.396 N  
HETATM   16  H1  UNL     1      -6.949  13.828  66.990  1.00  0.00     0.000 HD 
HETATM   17  O   UNL     1      -8.055  14.558  69.006  1.00  0.00    -0.143 OA 
HETATM   18  H2  UNL     1      -8.364  13.035  66.256  1.00  0.00     0.000 HD 
ENDBRANCH   7  14
BRANCH   7  19
HETATM   19  C   UNL     1     -10.167  11.990  68.241  1.00  0.00    -0.206 A  
HETATM   20  C   UNL     1     -10.321   9.235  68.423  1.00  0.00    -0.244 A  
HETATM   21  N   UNL     1     -11.088  11.315  67.497  1.00  0.00    -0.267 NA 
HETATM   22  C   UNL     1      -9.361   9.914  69.159  1.00  0.00    -0.197 A  
HETATM   23  C   UNL     1     -11.152   9.971  67.606  1.00  0.00    -0.153 A  
HETATM   24  C   UNL     1      -9.272  11.307  69.067  1.00  0.00     0.005 A  
ENDBRANCH   7  19
ENDBRANCH   6   7
ENDBRANCH   5   6
ENDBRANCH   4   5
BRANCH   4  25
HETATM   25  C   UNL     1     -11.489  12.010  64.178  1.00  0.00    -0.383 C  
HETATM   26  C   UNL     1     -12.726  11.752  63.299  1.00  0.00    -0.314 C  
HETATM   27  C   UNL     1     -10.386  11.109  63.570  1.00  0.00    -0.446 C  
ENDBRANCH   4  25
ENDBRANCH   2   4
TORSDOF 8
ENDMDL
MODEL      245
REMARK 921   NORMALIZED FREE ENERGY PREDICTED BY IDOCK:   -2.60 KCAL/MOL
REMARK 922        TOTAL FREE ENERGY PREDICTED BY IDOCK:   -5.53 KCAL/MOL
REMARK 923 INTER-LIGAND FREE ENERGY PREDICTED BY IDOCK:   -4.53 KCAL/MOL
REMARK 924 INTRA-LIGAND FREE ENERGY PREDICTED BY IDOCK:   -1.00 KCAL/MOL
REMARK 927      BINDING AFFINITY PREDICTED BY RF-SCORE:    0.00 PKD
ROOT
HETATM    1  C   UNL     1      -9.908   9.536  66.270  1.00  0.00    -0.334 C  
HETATM    2  C   UNL     1     -10.018   9.045  67.735  1.00  0.00    -0.187 C  
HETATM    3  C   UNL     1     -10.704   7.671  67.653  1.00  0.00    -0.246 C  
ENDROOT
BRANCH   2   4
HETATM    4  N   UNL     1      -8.690   9.089  68.436  1.00  0.00    -0.130 NA 
BRANCH   4   5
HETATM    5  C   UNL     1      -8.475   7.845  69.254  1.00  0.00    -0.137 C  
BRANCH   5   6
HETATM    6  C   UNL     1      -7.890   8.101  70.657  1.00  0.00    -0.091 C  
BRANCH   6   7
HETATM    7  C   UNL     1      -8.678   7.555  71.901  1.00  0.00    -0.132 C  
BRANCH   7   8
HETATM    8  C   UNL     1     -10.174   7.946  71.727  1.00  0.00    -0.247 A  
HETATM    9  C   UNL     1     -10.599   9.288  71.704  1.00  0.00    -0.360 A  
HETATM   10  C   UNL     1     -11.938   9.626  71.488  1.00  0.00    -0.485 A  
HETATM   11  C   UNL     1     -11.158   6.960  71.497  1.00  0.00    -0.276 A  
HETATM   12  C   UNL     1     -12.890   8.632  71.288  1.00  0.00    -0.220 A  
HETATM   13  C   UNL     1     -12.499   7.298  71.295  1.00  0.00    -0.402 A  
ENDBRANCH   7   8
BRANCH   7  14
HETATM   14  C   UNL     1      -8.020   8.084  73.218  1.00  0.00    -0.178 C  
HETATM   15  N   UNL     1      -6.728   8.539  73.122  1.00  0.00    -0.084 N  
HETATM   16  H1  UNL     1      -6.299   8.883  73.981  1.00  0.00     0.000 HD 
HETATM   17  O   UNL     1      -8.550   8.088  74.326  1.00  0.00    -0.247 OA 
HETATM   18  H2  UNL     1      -6.223   8.532  72.237  1.00  0.00     0.000 HD 
ENDBRANCH   7  14
BRANCH   7  19
HETATM   19  C   UNL     1      -8.490   6.003  71.942  1.00  0.00    -0.133 A  
HETATM   20  C   UNL     1      -8.160   3.267  72.162  1.00  0.00    -0.063 A  
HETATM   21  N   UNL     1      -9.327   5.284  72.744  1.00  0.00    -0.139 NA 
HETATM   22  C   UNL     1      -7.326   3.988  71.320  1.00  0.00    -0.040 A  
HETATM   23  C   UNL     1      -9.143   3.951  72.844  1.00  0.00    -0.107 A  
HETATM   24  C   UNL     1      -7.492   5.372  71.197  1.00  0.00    -0.085 A  
ENDBRANCH   7  19
ENDBRANCH   6   7
ENDBRANCH   5   6
ENDBRANCH   4   5
BRANCH   4  25
HETATM   25  C   UNL     1      -7.490   9.410  67.595  1.00  0.00    -0.087 C  
HETATM   26  C   UNL     1      -6.559  10.518  68.120  1.00  0.00    -0.063 C  
HETATM   27  C   UNL     1      -6.566   8.182  67.411  1.00  0.00    -0.058 C  
ENDBRANCH   4  25
ENDBRANCH   2   4
TORSDOF 8
ENDMDL
MODEL      246
REMARK 921   NORMALIZED FREE ENERGY PREDICTED BY IDOCK:   -2.59 KCAL/MOL
REMARK 922        TOTAL FREE ENERGY PREDICTED BY IDOCK:   -5.51 KCAL/MOL
REMARK 923 INTER-LIGAND FREE ENERGY PREDICTED BY IDOCK:   -5.47 KCAL/MOL
REMARK 924 INTRA-LIGAND FREE ENERGY PREDICTED BY IDOCK:   -0.04 KCAL/MOL
REMARK 927      BINDING AFFINITY PREDICTED BY RF-SCORE:    0.00 PKD
ROOT
HETATM    1  C   UNL     1      -6.642   9.637  65.896  1.00  0.00    -0.080 C  
HETATM    2  C   UNL     1      -6.915   8.533  66.947  1.00  0.00    -0.074 C  
HETATM    3  C   UNL     1      -5.534   7.965  67.311  1.00  0.00    -0.036 C  
ENDROOT
BRANCH   2   4
HETATM    4  N   UNL     1      -7.750   9.045  68.086  1.00  0.00    -0.095 NA 
BRANCH   4   5
HETATM    5  C   UNL     1      -8.867   9.918  67.581  1.00  0.00    -0.125 C  
BRANCH   5   6
HETATM    6  C   UNL     1      -8.691  11.417  67.892  1.00  0.00    -0.145 C  
BRANCH   6   7
HETATM    7  C   UNL     1      -9.912  12.374  67.653  1.00  0.00    -0.200 C  
BRANCH   7   8
HETATM    8  C   UNL     1      -9.487  13.808  68.085  1.00  0.00    -0.212 A  
HETATM    9  C   UNL     1     -10.384  14.701  68.700  1.00  0.00    -0.246 A  
HETATM   10  C   UNL     1      -9.973  15.964  69.137  1.00  0.00    -0.245 A  
HETATM   11  C   UNL     1      -8.148  14.235  67.953  1.00  0.00    -0.152 A  
HETATM   12  C   UNL     1      -8.652  16.367  68.972  1.00  0.00    -0.230 A  
HETATM   13  C   UNL     1      -7.741  15.504  68.377  1.00  0.00    -0.124 A  
ENDBRANCH   7   8
BRANCH   7  14
HETATM   14  C   UNL     1     -11.172  11.821  68.399  1.00  0.00    -0.251 C  
HETATM   15  N   UNL     1     -10.980  11.369  69.681  1.00  0.00    -0.441 N  
HETATM   16  H1  UNL     1     -11.800  11.009  70.167  1.00  0.00     0.000 HD 
HETATM   17  O   UNL     1     -12.298  11.725  67.917  1.00  0.00    -0.399 OA 
HETATM   18  H2  UNL     1     -10.062  11.393  70.125  1.00  0.00     0.000 HD 
ENDBRANCH   7  14
BRANCH   7  19
HETATM   19  C   UNL     1     -10.276  12.316  66.133  1.00  0.00    -0.239 A  
HETATM   20  C   UNL     1     -11.035  12.298  63.475  1.00  0.00    -0.521 A  
HETATM   21  N   UNL     1     -10.547  13.492  65.500  1.00  0.00    -0.288 NA 
HETATM   22  C   UNL     1     -10.730  11.100  64.104  1.00  0.00    -0.415 A  
HETATM   23  C   UNL     1     -10.924  13.461  64.205  1.00  0.00    -0.304 A  
HETATM   24  C   UNL     1     -10.338  11.101  65.447  1.00  0.00    -0.331 A  
ENDBRANCH   7  19
ENDBRANCH   6   7
ENDBRANCH   5   6
ENDBRANCH   4   5
BRANCH   4  25
HETATM   25  C   UNL     1      -8.247   8.030  69.072  1.00  0.00    -0.128 C  
HETATM   26  C   UNL     1      -8.580   6.635  68.512  1.00  0.00    -0.124 C  
HETATM   27  C   UNL     1      -7.218   7.761  70.197  1.00  0.00    -0.062 C  
ENDBRANCH   4  25
ENDBRANCH   2   4
TORSDOF 8
ENDMDL
MODEL      247
REMARK 921   NORMALIZED FREE ENERGY PREDICTED BY IDOCK:   -2.55 KCAL/MOL
REMARK 922        TOTAL FREE ENERGY PREDICTED BY IDOCK:   -5.44 KCAL/MOL
REMARK 923 INTER-LIGAND FREE ENERGY PREDICTED BY IDOCK:   -4.58 KCAL/MOL
REMARK 924 INTRA-LIGAND FREE ENERGY PREDICTED BY IDOCK:   -0.86 KCAL/MOL
REMARK 927      BINDING AFFINITY PREDICTED BY RF-SCORE:    0.00 PKD
ROOT
HETATM    1  C   UNL     1     -10.673  13.680  64.417  1.00  0.00    -0.369 C  
HETATM    2  C   UNL     1     -11.059  12.182  64.355  1.00  0.00    -0.333 C  
HETATM    3  C   UNL     1     -12.147  12.086  63.272  1.00  0.00    -0.509 C  
ENDROOT
BRANCH   2   4
HETATM    4  N   UNL     1      -9.853  11.305  64.172  1.00  0.00    -0.258 NA 
BRANCH   4   5
HETATM    5  C   UNL     1     -10.002  10.023  64.946  1.00  0.00    -0.216 C  
BRANCH   5   6
HETATM    6  C   UNL     1     -10.572  10.203  66.367  1.00  0.00    -0.155 C  
BRANCH   6   7
HETATM    7  C   UNL     1      -9.755   9.619  67.574  1.00  0.00    -0.195 C  
BRANCH   7   8
HETATM    8  C   UNL     1      -9.056   8.315  67.090  1.00  0.00    -0.162 A  
HETATM    9  C   UNL     1      -7.656   8.169  67.097  1.00  0.00    -0.096 A  
HETATM   10  C   UNL     1      -7.045   6.971  66.716  1.00  0.00    -0.082 A  
HETATM   11  C   UNL     1      -9.815   7.189  66.704  1.00  0.00    -0.237 A  
HETATM   12  C   UNL     1      -7.818   5.885  66.317  1.00  0.00    -0.101 A  
HETATM   13  C   UNL     1      -9.202   5.996  66.308  1.00  0.00    -0.168 A  
ENDBRANCH   7   8
BRANCH   7  14
HETATM   14  C   UNL     1     -10.698   9.427  68.808  1.00  0.00    -0.171 C  
HETATM   15  N   UNL     1     -11.871  10.140  68.804  1.00  0.00    -0.449 N  
HETATM   16  H1  UNL     1     -12.485  10.015  69.609  1.00  0.00     0.000 HD 
HETATM   17  O   UNL     1     -10.454   8.725  69.786  1.00  0.00    -0.211 OA 
HETATM   18  H2  UNL     1     -12.115  10.764  68.036  1.00  0.00     0.000 HD 
ENDBRANCH   7  14
BRANCH   7  19
HETATM   19  C   UNL     1      -8.714  10.699  68.015  1.00  0.00    -0.126 A  
HETATM   20  C   UNL     1      -6.847  12.636  68.654  1.00  0.00    -0.091 A  
HETATM   21  N   UNL     1      -8.794  11.931  67.437  1.00  0.00    -0.165 NA 
HETATM   22  C   UNL     1      -6.779  11.394  69.269  1.00  0.00    -0.113 A  
HETATM   23  C   UNL     1      -7.868  12.859  67.756  1.00  0.00    -0.158 A  
HETATM   24  C   UNL     1      -7.724  10.411  68.958  1.00  0.00    -0.116 A  
ENDBRANCH   7  19
ENDBRANCH   6   7
ENDBRANCH   5   6
ENDBRANCH   4   5
BRANCH   4  25
HETATM   25  C   UNL     1      -9.410  11.048  62.762  1.00  0.00    -0.346 C  
HETATM   26  C   UNL     1      -7.999  11.537  62.386  1.00  0.00     0.294 C  
HETATM   27  C   UNL     1      -9.401   9.538  62.422  1.00  0.00    -0.047 C  
ENDBRANCH   4  25
ENDBRANCH   2   4
TORSDOF 8
ENDMDL
MODEL      248
REMARK 921   NORMALIZED FREE ENERGY PREDICTED BY IDOCK:   -2.52 KCAL/MOL
REMARK 922        TOTAL FREE ENERGY PREDICTED BY IDOCK:   -5.41 KCAL/MOL
REMARK 923 INTER-LIGAND FREE ENERGY PREDICTED BY IDOCK:   -5.92 KCAL/MOL
REMARK 924 INTRA-LIGAND FREE ENERGY PREDICTED BY IDOCK:    0.50 KCAL/MOL
REMARK 927      BINDING AFFINITY PREDICTED BY RF-SCORE:    0.00 PKD
ROOT
HETATM    1  C   UNL     1     -10.659  10.361  66.591  1.00  0.00    -0.245 C  
HETATM    2  C   UNL     1     -10.015  11.599  65.920  1.00  0.00    -0.231 C  
HETATM    3  C   UNL     1      -9.062  11.036  64.853  1.00  0.00    -0.164 C  
ENDROOT
BRANCH   2   4
HETATM    4  N   UNL     1     -11.053  12.575  65.443  1.00  0.00    -0.293 NA 
BRANCH   4   5
HETATM    5  C   UNL     1     -10.663  13.985  65.795  1.00  0.00    -0.293 C  
BRANCH   5   6
HETATM    6  C   UNL     1      -9.288  14.110  66.482  1.00  0.00    -0.285 C  
BRANCH   6   7
HETATM    7  C   UNL     1      -9.223  14.795  67.893  1.00  0.00    -0.191 C  
BRANCH   7   8
HETATM    8  C   UNL     1      -8.030  14.170  68.673  1.00  0.00    -0.132 A  
HETATM    9  C   UNL     1      -7.741  12.794  68.620  1.00  0.00    -0.064 A  
HETATM   10  C   UNL     1      -6.630  12.255  69.277  1.00  0.00    -0.099 A  
HETATM   11  C   UNL     1      -7.133  14.985  69.398  1.00  0.00    -0.186 A  
HETATM   12  C   UNL     1      -5.778  13.079  70.004  1.00  0.00    -0.134 A  
HETATM   13  C   UNL     1      -6.031  14.443  70.067  1.00  0.00    -0.141 A  
ENDBRANCH   7   8
BRANCH   7  14
HETATM   14  C   UNL     1     -10.607  14.660  68.612  1.00  0.00    -0.252 C  
HETATM   15  N   UNL     1     -11.466  15.724  68.500  1.00  0.00    -0.374 N  
HETATM   16  H1  UNL     1     -12.368  15.636  68.969  1.00  0.00     0.000 HD 
HETATM   17  O   UNL     1     -10.963  13.702  69.294  1.00  0.00    -0.228 OA 
HETATM   18  H2  UNL     1     -11.216  16.561  67.974  1.00  0.00     0.000 HD 
ENDBRANCH   7  14
BRANCH   7  19
HETATM   19  C   UNL     1      -9.024  16.330  67.671  1.00  0.00    -0.192 A  
HETATM   20  C   UNL     1      -8.800  19.067  67.345  1.00  0.00    -0.312 A  
HETATM   21  N   UNL     1      -9.197  17.154  68.743  1.00  0.00    -0.268 NA 
HETATM   22  C   UNL     1      -8.591  18.232  66.257  1.00  0.00    -0.208 A  
HETATM   23  C   UNL     1      -9.092  18.487  68.561  1.00  0.00    -0.328 A  
HETATM   24  C   UNL     1      -8.695  16.845  66.415  1.00  0.00    -0.321 A  
ENDBRANCH   7  19
ENDBRANCH   6   7
ENDBRANCH   5   6
ENDBRANCH   4   5
BRANCH   4  25
HETATM   25  C   UNL     1     -11.479  12.463  64.009  1.00  0.00    -0.408 C  
HETATM   26  C   UNL     1     -10.641  11.532  63.114  1.00  0.00    -0.323 C  
HETATM   27  C   UNL     1     -12.927  11.933  63.873  1.00  0.00    -0.244 C  
ENDBRANCH   4  25
ENDBRANCH   2   4
TORSDOF 8
ENDMDL
MODEL      249
REMARK 921   NORMALIZED FREE ENERGY PREDICTED BY IDOCK:   -2.50 KCAL/MOL
REMARK 922        TOTAL FREE ENERGY PREDICTED BY IDOCK:   -5.37 KCAL/MOL
REMARK 923 INTER-LIGAND FREE ENERGY PREDICTED BY IDOCK:   -6.70 KCAL/MOL
REMARK 924 INTRA-LIGAND FREE ENERGY PREDICTED BY IDOCK:    1.33 KCAL/MOL
REMARK 927      BINDING AFFINITY PREDICTED BY RF-SCORE:    0.00 PKD
ROOT
HETATM    1  C   UNL     1      -7.287  16.708  68.954  1.00  0.00    -0.225 C  
HETATM    2  C   UNL     1      -6.387  15.473  69.204  1.00  0.00    -0.120 C  
HETATM    3  C   UNL     1      -5.621  15.782  70.501  1.00  0.00    -0.111 C  
ENDROOT
BRANCH   2   4
HETATM    4  N   UNL     1      -7.179  14.196  69.182  1.00  0.00    -0.111 NA 
BRANCH   4   5
HETATM    5  C   UNL     1      -8.460  14.375  68.414  1.00  0.00    -0.165 C  
BRANCH   5   6
HETATM    6  C   UNL     1      -9.265  13.075  68.213  1.00  0.00    -0.191 C  
BRANCH   6   7
HETATM    7  C   UNL     1     -10.814  13.189  67.984  1.00  0.00    -0.261 C  
BRANCH   7   8
HETATM    8  C   UNL     1     -11.430  13.888  69.230  1.00  0.00    -0.348 A  
HETATM    9  C   UNL     1     -11.995  13.160  70.294  1.00  0.00    -0.366 A  
HETATM   10  C   UNL     1     -12.491  13.799  71.434  1.00  0.00    -0.404 A  
HETATM   11  C   UNL     1     -11.364  15.291  69.379  1.00  0.00    -0.304 A  
HETATM   12  C   UNL     1     -12.434  15.185  71.543  1.00  0.00    -0.418 A  
HETATM   13  C   UNL     1     -11.873  15.930  70.513  1.00  0.00    -0.374 A  
ENDBRANCH   7   8
BRANCH   7  14
HETATM   14  C   UNL     1     -11.409  11.774  67.676  1.00  0.00    -0.302 C  
HETATM   15  N   UNL     1     -10.970  11.157  66.531  1.00  0.00    -0.249 N  
HETATM   16  H1  UNL     1     -11.358  10.236  66.331  1.00  0.00     0.000 HD 
HETATM   17  O   UNL     1     -12.258  11.198  68.352  1.00  0.00    -0.610 OA 
HETATM   18  H2  UNL     1     -10.291  11.598  65.912  1.00  0.00     0.000 HD 
ENDBRANCH   7  14
BRANCH   7  19
HETATM   19  C   UNL     1     -11.046  14.024  66.683  1.00  0.00    -0.309 A  
HETATM   20  C   UNL     1     -11.473  15.376  64.309  1.00  0.00    -0.178 A  
HETATM   21  N   UNL     1     -12.136  13.725  65.922  1.00  0.00    -0.405 NA 
HETATM   22  C   UNL     1     -10.378  15.708  65.094  1.00  0.00    -0.366 A  
HETATM   23  C   UNL     1     -12.322  14.390  64.763  1.00  0.00    -0.414 A  
HETATM   24  C   UNL     1     -10.159  15.034  66.301  1.00  0.00    -0.298 A  
ENDBRANCH   7  19
ENDBRANCH   6   7
ENDBRANCH   5   6
ENDBRANCH   4   5
BRANCH   4  25
HETATM   25  C   UNL     1      -6.451  12.955  68.757  1.00  0.00    -0.085 C  
HETATM   26  C   UNL     1      -7.183  11.619  68.980  1.00  0.00    -0.094 C  
HETATM   27  C   UNL     1      -6.116  12.967  67.246  1.00  0.00     0.008 C  
ENDBRANCH   4  25
ENDBRANCH   2   4
TORSDOF 8
ENDMDL
MODEL      250
REMARK 921   NORMALIZED FREE ENERGY PREDICTED BY IDOCK:   -2.49 KCAL/MOL
REMARK 922        TOTAL FREE ENERGY PREDICTED BY IDOCK:   -5.37 KCAL/MOL
REMARK 923 INTER-LIGAND FREE ENERGY PREDICTED BY IDOCK:   -4.14 KCAL/MOL
REMARK 924 INTRA-LIGAND FREE ENERGY PREDICTED BY IDOCK:   -1.23 KCAL/MOL
REMARK 927      BINDING AFFINITY PREDICTED BY RF-SCORE:    0.00 PKD
ROOT
HETATM    1  C   UNL     1      -8.344   7.821  72.849  1.00  0.00    -0.188 C  
HETATM    2  C   UNL     1      -7.171   8.058  71.866  1.00  0.00    -0.080 C  
HETATM    3  C   UNL     1      -5.909   7.607  72.620  1.00  0.00    -0.040 C  
ENDROOT
BRANCH   2   4
HETATM    4  N   UNL     1      -7.424   7.408  70.535  1.00  0.00    -0.080 NA 
BRANCH   4   5
HETATM    5  C   UNL     1      -6.890   8.259  69.415  1.00  0.00    -0.043 C  
BRANCH   5   6
HETATM    6  C   UNL     1      -7.912   9.257  68.835  1.00  0.00    -0.098 C  
BRANCH   6   7
HETATM    7  C   UNL     1      -9.084   8.693  67.955  1.00  0.00    -0.144 C  
BRANCH   7   8
HETATM    8  C   UNL     1     -10.099   7.994  68.906  1.00  0.00    -0.209 A  
HETATM    9  C   UNL     1     -10.756   8.688  69.939  1.00  0.00    -0.227 A  
HETATM   10  C   UNL     1     -11.710   8.062  70.748  1.00  0.00    -0.215 A  
HETATM   11  C   UNL     1     -10.466   6.645  68.708  1.00  0.00    -0.241 A  
HETATM   12  C   UNL     1     -12.034   6.725  70.544  1.00  0.00    -0.385 A  
HETATM   13  C   UNL     1     -11.409   6.016  69.526  1.00  0.00    -0.306 A  
ENDBRANCH   7   8
BRANCH   7  14
HETATM   14  C   UNL     1      -8.506   7.766  66.834  1.00  0.00    -0.125 C  
HETATM   15  N   UNL     1      -7.714   8.367  65.887  1.00  0.00    -0.084 N  
HETATM   16  H1  UNL     1      -7.339   7.763  65.156  1.00  0.00     0.000 HD 
HETATM   17  O   UNL     1      -8.736   6.566  66.715  1.00  0.00    -0.117 OA 
HETATM   18  H2  UNL     1      -7.513   9.366  65.913  1.00  0.00     0.000 HD 
ENDBRANCH   7  14
BRANCH   7  19
HETATM   19  C   UNL     1      -9.737   9.895  67.200  1.00  0.00    -0.178 A  
HETATM   20  C   UNL     1     -10.800  11.998  65.753  1.00  0.00    -0.329 A  
HETATM   21  N   UNL     1     -10.119   9.700  65.906  1.00  0.00    -0.273 NA 
HETATM   22  C   UNL     1     -10.443  12.195  67.079  1.00  0.00    -0.244 A  
HETATM   23  C   UNL     1     -10.627  10.741  65.214  1.00  0.00    -0.160 A  
HETATM   24  C   UNL     1      -9.912  11.134  67.821  1.00  0.00    -0.193 A  
ENDBRANCH   7  19
ENDBRANCH   6   7
ENDBRANCH   5   6
ENDBRANCH   4   5
BRANCH   4  25
HETATM   25  C   UNL     1      -7.000   5.976  70.389  1.00  0.00    -0.059 C  
HETATM   26  C   UNL     1      -8.116   4.919  70.462  1.00  0.00    -0.084 C  
HETATM   27  C   UNL     1      -6.304   5.712  69.032  1.00  0.00    -0.037 C  
ENDBRANCH   4  25
ENDBRANCH   2   4
TORSDOF 8
ENDMDL
MODEL      251
REMARK 921   NORMALIZED FREE ENERGY PREDICTED BY IDOCK:   -2.42 KCAL/MOL
REMARK 922        TOTAL FREE ENERGY PREDICTED BY IDOCK:   -5.27 KCAL/MOL
REMARK 923 INTER-LIGAND FREE ENERGY PREDICTED BY IDOCK:   -4.05 KCAL/MOL
REMARK 924 INTRA-LIGAND FREE ENERGY PREDICTED BY IDOCK:   -1.22 KCAL/MOL
REMARK 927      BINDING AFFINITY PREDICTED BY RF-SCORE:    0.00 PKD
ROOT
HETATM    1  C   UNL     1      -8.958   9.366  69.985  1.00  0.00    -0.234 C  
HETATM    2  C   UNL     1      -8.517   7.888  70.126  1.00  0.00    -0.129 C  
HETATM    3  C   UNL     1      -7.810   7.802  71.489  1.00  0.00    -0.090 C  
ENDROOT
BRANCH   2   4
HETATM    4  N   UNL     1      -9.663   6.943  69.905  1.00  0.00    -0.162 NA 
BRANCH   4   5
HETATM    5  C   UNL     1      -9.323   5.927  68.849  1.00  0.00    -0.126 C  
BRANCH   5   6
HETATM    6  C   UNL     1      -9.812   6.295  67.434  1.00  0.00    -0.154 C  
BRANCH   6   7
HETATM    7  C   UNL     1      -8.739   6.491  66.305  1.00  0.00    -0.148 C  
BRANCH   7   8
HETATM    8  C   UNL     1      -8.967   5.387  65.233  1.00  0.00    -0.104 A  
HETATM    9  C   UNL     1      -7.973   5.029  64.303  1.00  0.00    -0.104 A  
HETATM   10  C   UNL     1      -8.171   3.994  63.385  1.00  0.00    -0.091 A  
HETATM   11  C   UNL     1     -10.163   4.636  65.211  1.00  0.00    -0.121 A  
HETATM   12  C   UNL     1      -9.369   3.287  63.371  1.00  0.00    -0.096 A  
HETATM   13  C   UNL     1     -10.366   3.611  64.282  1.00  0.00    -0.231 A  
ENDBRANCH   7   8
BRANCH   7  14
HETATM   14  C   UNL     1      -7.305   6.497  66.933  1.00  0.00    -0.079 C  
HETATM   15  N   UNL     1      -6.722   7.724  67.127  1.00  0.00    -0.066 N  
HETATM   16  H1  UNL     1      -5.788   7.728  67.535  1.00  0.00     0.000 HD 
HETATM   17  O   UNL     1      -6.654   5.497  67.225  1.00  0.00    -0.050 OA 
HETATM   18  H2  UNL     1      -7.200   8.589  66.875  1.00  0.00     0.000 HD 
ENDBRANCH   7  14
BRANCH   7  19
HETATM   19  C   UNL     1      -8.931   7.923  65.706  1.00  0.00    -0.080 A  
HETATM   20  C   UNL     1      -9.417  10.436  64.661  1.00  0.00    -0.336 A  
HETATM   21  N   UNL     1      -9.744   8.788  66.377  1.00  0.00    -0.247 NA 
HETATM   22  C   UNL     1      -8.564   9.572  63.989  1.00  0.00    -0.222 A  
HETATM   23  C   UNL     1      -9.974  10.007  65.846  1.00  0.00    -0.269 A  
HETATM   24  C   UNL     1      -8.307   8.301  64.515  1.00  0.00    -0.097 A  
ENDBRANCH   7  19
ENDBRANCH   6   7
ENDBRANCH   5   6
ENDBRANCH   4   5
BRANCH   4  25
HETATM   25  C   UNL     1     -10.251   6.295  71.124  1.00  0.00    -0.198 C  
HETATM   26  C   UNL     1     -11.720   6.631  71.439  1.00  0.00    -0.374 C  
HETATM   27  C   UNL     1     -10.218   4.750  71.033  1.00  0.00    -0.239 C  
ENDBRANCH   4  25
ENDBRANCH   2   4
TORSDOF 8
ENDMDL
MODEL      252
REMARK 921   NORMALIZED FREE ENERGY PREDICTED BY IDOCK:   -2.41 KCAL/MOL
REMARK 922        TOTAL FREE ENERGY PREDICTED BY IDOCK:   -5.25 KCAL/MOL
REMARK 923 INTER-LIGAND FREE ENERGY PREDICTED BY IDOCK:   -4.78 KCAL/MOL
REMARK 924 INTRA-LIGAND FREE ENERGY PREDICTED BY IDOCK:   -0.47 KCAL/MOL
REMARK 927      BINDING AFFINITY PREDICTED BY RF-SCORE:    0.00 PKD
ROOT
HETATM    1  C   UNL     1     -12.912   7.001  71.425  1.00  0.00    -0.395 C  
HETATM    2  C   UNL     1     -11.709   7.934  71.712  1.00  0.00    -0.287 C  
HETATM    3  C   UNL     1     -11.221   7.548  73.118  1.00  0.00    -0.318 C  
ENDROOT
BRANCH   2   4
HETATM    4  N   UNL     1     -10.689   7.879  70.610  1.00  0.00    -0.224 NA 
BRANCH   4   5
HETATM    5  C   UNL     1     -11.055   6.831  69.595  1.00  0.00    -0.292 C  
BRANCH   5   6
HETATM    6  C   UNL     1     -10.656   5.396  69.993  1.00  0.00    -0.354 C  
BRANCH   6   7
HETATM    7  C   UNL     1      -9.302   4.822  69.443  1.00  0.00    -0.197 C  
BRANCH   7   8
HETATM    8  C   UNL     1      -9.512   4.459  67.944  1.00  0.00    -0.209 A  
HETATM    9  C   UNL     1     -10.305   5.246  67.088  1.00  0.00    -0.268 A  
HETATM   10  C   UNL     1     -10.436   4.941  65.729  1.00  0.00    -0.227 A  
HETATM   11  C   UNL     1      -8.836   3.364  67.364  1.00  0.00    -0.150 A  
HETATM   12  C   UNL     1      -9.778   3.841  65.190  1.00  0.00    -0.176 A  
HETATM   13  C   UNL     1      -8.980   3.050  66.008  1.00  0.00    -0.147 A  
ENDBRANCH   7   8
BRANCH   7  14
HETATM   14  C   UNL     1      -8.831   3.627  70.337  1.00  0.00    -0.084 C  
HETATM   15  N   UNL     1      -9.770   3.075  71.173  1.00  0.00    -0.156 N  
HETATM   16  H1  UNL     1      -9.463   2.297  71.756  1.00  0.00     0.000 HD 
HETATM   17  O   UNL     1      -7.689   3.177  70.377  1.00  0.00    -0.043 OA 
HETATM   18  H2  UNL     1     -10.727   3.426  71.209  1.00  0.00     0.000 HD 
ENDBRANCH   7  14
BRANCH   7  19
HETATM   19  C   UNL     1      -8.208   5.925  69.620  1.00  0.00    -0.110 A  
HETATM   20  C   UNL     1      -6.188   7.801  69.836  1.00  0.00    -0.027 A  
HETATM   21  N   UNL     1      -7.667   6.468  68.492  1.00  0.00    -0.103 NA 
HETATM   22  C   UNL     1      -6.756   7.275  70.988  1.00  0.00    -0.048 A  
HETATM   23  C   UNL     1      -6.677   7.376  68.620  1.00  0.00    -0.057 A  
HETATM   24  C   UNL     1      -7.784   6.331  70.887  1.00  0.00    -0.098 A  
ENDBRANCH   7  19
ENDBRANCH   6   7
ENDBRANCH   5   6
ENDBRANCH   4   5
BRANCH   4  25
HETATM   25  C   UNL     1     -10.330   9.179  69.954  1.00  0.00    -0.212 C  
HETATM   26  C   UNL     1     -10.044   9.130  68.443  1.00  0.00    -0.220 C  
HETATM   27  C   UNL     1     -11.454  10.234  70.102  1.00  0.00    -0.383 C  
ENDBRANCH   4  25
ENDBRANCH   2   4
TORSDOF 8
ENDMDL
MODEL      253
REMARK 921   NORMALIZED FREE ENERGY PREDICTED BY IDOCK:   -2.41 KCAL/MOL
REMARK 922        TOTAL FREE ENERGY PREDICTED BY IDOCK:   -5.24 KCAL/MOL
REMARK 923 INTER-LIGAND FREE ENERGY PREDICTED BY IDOCK:   -4.70 KCAL/MOL
REMARK 924 INTRA-LIGAND FREE ENERGY PREDICTED BY IDOCK:   -0.54 KCAL/MOL
REMARK 927      BINDING AFFINITY PREDICTED BY RF-SCORE:    0.00 PKD
ROOT
HETATM    1  C   UNL     1      -8.223   5.598  66.094  1.00  0.00    -0.110 C  
HETATM    2  C   UNL     1      -8.005   6.685  65.013  1.00  0.00    -0.124 C  
HETATM    3  C   UNL     1      -8.530   6.071  63.705  1.00  0.00     0.146 C  
ENDROOT
BRANCH   2   4
HETATM    4  N   UNL     1      -8.602   8.002  65.422  1.00  0.00    -0.145 NA 
BRANCH   4   5
HETATM    5  C   UNL     1      -8.697   8.103  66.920  1.00  0.00    -0.129 C  
BRANCH   5   6
HETATM    6  C   UNL     1     -10.007   8.736  67.430  1.00  0.00    -0.267 C  
BRANCH   6   7
HETATM    7  C   UNL     1     -10.064   9.225  68.921  1.00  0.00    -0.207 C  
BRANCH   7   8
HETATM    8  C   UNL     1     -10.309   7.979  69.822  1.00  0.00    -0.219 A  
HETATM    9  C   UNL     1      -9.383   6.922  69.905  1.00  0.00    -0.150 A  
HETATM   10  C   UNL     1      -9.588   5.838  70.763  1.00  0.00    -0.210 A  
HETATM   11  C   UNL     1     -11.440   7.905  70.663  1.00  0.00    -0.247 A  
HETATM   12  C   UNL     1     -10.724   5.780  71.563  1.00  0.00    -0.319 A  
HETATM   13  C   UNL     1     -11.652   6.813  71.510  1.00  0.00    -0.344 A  
ENDBRANCH   7   8
BRANCH   7  14
HETATM   14  C   UNL     1     -11.141  10.350  69.069  1.00  0.00    -0.248 C  
HETATM   15  N   UNL     1     -11.115  11.079  70.232  1.00  0.00    -0.466 N  
HETATM   16  H1  UNL     1     -11.817  11.812  70.328  1.00  0.00     0.000 HD 
HETATM   17  O   UNL     1     -12.023  10.602  68.251  1.00  0.00    -0.462 OA 
HETATM   18  H2  UNL     1     -10.428  10.897  70.962  1.00  0.00     0.000 HD 
ENDBRANCH   7  14
BRANCH   7  19
HETATM   19  C   UNL     1      -8.701   9.914  69.252  1.00  0.00    -0.169 A  
HETATM   20  C   UNL     1      -6.334  11.147  69.976  1.00  0.00    -0.147 A  
HETATM   21  N   UNL     1      -8.004   9.458  70.332  1.00  0.00    -0.158 NA 
HETATM   22  C   UNL     1      -7.022  11.596  68.857  1.00  0.00    -0.109 A  
HETATM   23  C   UNL     1      -6.856  10.079  70.673  1.00  0.00    -0.047 A  
HETATM   24  C   UNL     1      -8.216  10.972  68.480  1.00  0.00    -0.146 A  
ENDBRANCH   7  19
ENDBRANCH   6   7
ENDBRANCH   5   6
ENDBRANCH   4   5
BRANCH   4  25
HETATM   25  C   UNL     1      -7.994   9.236  64.824  1.00  0.00    -0.123 C  
HETATM   26  C   UNL     1      -8.895  10.483  64.758  1.00  0.00    -0.211 C  
HETATM   27  C   UNL     1      -6.742   9.703  65.605  1.00  0.00    -0.086 C  
ENDBRANCH   4  25
ENDBRANCH   2   4
TORSDOF 8
ENDMDL
MODEL      254
REMARK 921   NORMALIZED FREE ENERGY PREDICTED BY IDOCK:   -2.38 KCAL/MOL
REMARK 922        TOTAL FREE ENERGY PREDICTED BY IDOCK:   -5.20 KCAL/MOL
REMARK 923 INTER-LIGAND FREE ENERGY PREDICTED BY IDOCK:   -5.47 KCAL/MOL
REMARK 924 INTRA-LIGAND FREE ENERGY PREDICTED BY IDOCK:    0.27 KCAL/MOL
REMARK 927      BINDING AFFINITY PREDICTED BY RF-SCORE:    0.00 PKD
ROOT
HETATM    1  C   UNL     1     -13.066  14.300  65.319  1.00  0.00    -0.042 C  
HETATM    2  C   UNL     1     -11.901  14.475  64.314  1.00  0.00    -0.348 C  
HETATM    3  C   UNL     1     -11.549  15.971  64.354  1.00  0.00    -0.212 C  
ENDROOT
BRANCH   2   4
HETATM    4  N   UNL     1     -10.779  13.515  64.592  1.00  0.00    -0.396 NA 
BRANCH   4   5
HETATM    5  C   UNL     1      -9.895  14.031  65.694  1.00  0.00    -0.228 C  
BRANCH   5   6
HETATM    6  C   UNL     1     -10.658  14.553  66.927  1.00  0.00    -0.279 C  
BRANCH   6   7
HETATM    7  C   UNL     1      -9.913  14.569  68.309  1.00  0.00    -0.229 C  
BRANCH   7   8
HETATM    8  C   UNL     1      -9.134  13.228  68.447  1.00  0.00    -0.137 A  
HETATM    9  C   UNL     1      -7.728  13.176  68.441  1.00  0.00    -0.138 A  
HETATM   10  C   UNL     1      -7.042  11.971  68.625  1.00  0.00    -0.103 A  
HETATM   11  C   UNL     1      -9.819  12.014  68.672  1.00  0.00    -0.126 A  
HETATM   12  C   UNL     1      -7.744  10.786  68.821  1.00  0.00    -0.121 A  
HETATM   13  C   UNL     1      -9.132  10.808  68.841  1.00  0.00    -0.170 A  
ENDBRANCH   7   8
BRANCH   7  14
HETATM   14  C   UNL     1     -10.937  14.842  69.460  1.00  0.00    -0.273 C  
HETATM   15  N   UNL     1     -12.267  14.715  69.144  1.00  0.00    -0.549 N  
HETATM   16  H1  UNL     1     -12.935  14.893  69.894  1.00  0.00     0.000 HD 
HETATM   17  O   UNL     1     -10.648  15.197  70.600  1.00  0.00    -0.203 OA 
HETATM   18  H2  UNL     1     -12.572  14.455  68.207  1.00  0.00     0.000 HD 
ENDBRANCH   7  14
BRANCH   7  19
HETATM   19  C   UNL     1      -8.947  15.798  68.318  1.00  0.00    -0.182 A  
HETATM   20  C   UNL     1      -7.241  17.969  68.480  1.00  0.00    -0.265 A  
HETATM   21  N   UNL     1      -7.840  15.730  69.111  1.00  0.00    -0.213 NA 
HETATM   22  C   UNL     1      -8.348  18.033  67.647  1.00  0.00    -0.238 A  
HETATM   23  C   UNL     1      -7.025  16.803  69.183  1.00  0.00    -0.231 A  
HETATM   24  C   UNL     1      -9.212  16.936  67.553  1.00  0.00    -0.223 A  
ENDBRANCH   7  19
ENDBRANCH   6   7
ENDBRANCH   5   6
ENDBRANCH   4   5
BRANCH   4  25
HETATM   25  C   UNL     1     -11.156  12.080  64.815  1.00  0.00    -0.317 C  
HETATM   26  C   UNL     1     -11.659  11.303  63.585  1.00  0.00     0.053 C  
HETATM   27  C   UNL     1      -9.965  11.243  65.341  1.00  0.00    -0.297 C  
ENDBRANCH   4  25
ENDBRANCH   2   4
TORSDOF 8
ENDMDL
MODEL      255
REMARK 921   NORMALIZED FREE ENERGY PREDICTED BY IDOCK:   -2.34 KCAL/MOL
REMARK 922        TOTAL FREE ENERGY PREDICTED BY IDOCK:   -5.15 KCAL/MOL
REMARK 923 INTER-LIGAND FREE ENERGY PREDICTED BY IDOCK:   -4.70 KCAL/MOL
REMARK 924 INTRA-LIGAND FREE ENERGY PREDICTED BY IDOCK:   -0.45 KCAL/MOL
REMARK 927      BINDING AFFINITY PREDICTED BY RF-SCORE:    0.00 PKD
ROOT
HETATM    1  C   UNL     1     -12.526   8.027  71.305  1.00  0.00    -0.270 C  
HETATM    2  C   UNL     1     -11.375   8.563  70.419  1.00  0.00    -0.182 C  
HETATM    3  C   UNL     1     -10.617   9.569  71.301  1.00  0.00    -0.358 C  
ENDROOT
BRANCH   2   4
HETATM    4  N   UNL     1     -10.563   7.446  69.827  1.00  0.00    -0.233 NA 
BRANCH   4   5
HETATM    5  C   UNL     1     -11.198   6.113  70.116  1.00  0.00    -0.382 C  
BRANCH   5   6
HETATM    6  C   UNL     1     -10.873   5.546  71.513  1.00  0.00    -0.263 C  
BRANCH   6   7
HETATM    7  C   UNL     1      -9.506   4.800  71.712  1.00  0.00    -0.201 C  
BRANCH   7   8
HETATM    8  C   UNL     1      -8.921   4.494  70.302  1.00  0.00    -0.141 A  
HETATM    9  C   UNL     1      -9.453   3.489  69.473  1.00  0.00    -0.236 A  
HETATM   10  C   UNL     1      -8.956   3.265  68.185  1.00  0.00    -0.187 A  
HETATM   11  C   UNL     1      -7.879   5.280  69.765  1.00  0.00    -0.073 A  
HETATM   12  C   UNL     1      -7.912   4.040  67.692  1.00  0.00    -0.090 A  
HETATM   13  C   UNL     1      -7.372   5.046  68.483  1.00  0.00    -0.063 A  
ENDBRANCH   7   8
BRANCH   7  14
HETATM   14  C   UNL     1      -9.717   3.538  72.612  1.00  0.00    -0.142 C  
HETATM   15  N   UNL     1      -8.714   2.601  72.605  1.00  0.00    -0.074 N  
HETATM   16  H1  UNL     1      -8.852   1.778  73.192  1.00  0.00     0.000 HD 
HETATM   17  O   UNL     1     -10.718   3.304  73.285  1.00  0.00    -0.171 OA 
HETATM   18  H2  UNL     1      -7.872   2.722  72.042  1.00  0.00     0.000 HD 
ENDBRANCH   7  14
BRANCH   7  19
HETATM   19  C   UNL     1      -8.564   5.738  72.534  1.00  0.00    -0.120 A  
HETATM   20  C   UNL     1      -6.946   7.511  73.907  1.00  0.00    -0.100 A  
HETATM   21  N   UNL     1      -9.101   6.877  73.056  1.00  0.00    -0.126 NA 
HETATM   22  C   UNL     1      -6.400   6.339  73.405  1.00  0.00    -0.065 A  
HETATM   23  C   UNL     1      -8.293   7.733  73.716  1.00  0.00    -0.220 A  
HETATM   24  C   UNL     1      -7.213   5.433  72.715  1.00  0.00    -0.090 A  
ENDBRANCH   7  19
ENDBRANCH   6   7
ENDBRANCH   5   6
ENDBRANCH   4   5
BRANCH   4  25
HETATM   25  C   UNL     1     -10.186   7.575  68.381  1.00  0.00    -0.185 C  
HETATM   26  C   UNL     1     -10.898   6.627  67.399  1.00  0.00    -0.434 C  
HETATM   27  C   UNL     1     -10.474   8.993  67.830  1.00  0.00    -0.291 C  
ENDBRANCH   4  25
ENDBRANCH   2   4
TORSDOF 8
ENDMDL
MODEL      256
REMARK 921   NORMALIZED FREE ENERGY PREDICTED BY IDOCK:   -2.32 KCAL/MOL
REMARK 922        TOTAL FREE ENERGY PREDICTED BY IDOCK:   -5.11 KCAL/MOL
REMARK 923 INTER-LIGAND FREE ENERGY PREDICTED BY IDOCK:   -4.03 KCAL/MOL
REMARK 924 INTRA-LIGAND FREE ENERGY PREDICTED BY IDOCK:   -1.08 KCAL/MOL
REMARK 927      BINDING AFFINITY PREDICTED BY RF-SCORE:    0.00 PKD
ROOT
HETATM    1  C   UNL     1      -8.981   9.886  70.094  1.00  0.00    -0.159 C  
HETATM    2  C   UNL     1     -10.378   9.502  69.546  1.00  0.00    -0.217 C  
HETATM    3  C   UNL     1     -10.414  10.039  68.106  1.00  0.00    -0.250 C  
ENDROOT
BRANCH   2   4
HETATM    4  N   UNL     1     -10.659   8.036  69.721  1.00  0.00    -0.238 NA 
BRANCH   4   5
HETATM    5  C   UNL     1      -9.384   7.238  69.675  1.00  0.00    -0.153 C  
BRANCH   5   6
HETATM    6  C   UNL     1      -9.556   5.799  69.150  1.00  0.00    -0.171 C  
BRANCH   6   7
HETATM    7  C   UNL     1      -9.161   5.499  67.661  1.00  0.00    -0.107 C  
BRANCH   7   8
HETATM    8  C   UNL     1      -8.106   6.558  67.226  1.00  0.00    -0.113 A  
HETATM    9  C   UNL     1      -8.444   7.667  66.427  1.00  0.00    -0.137 A  
HETATM   10  C   UNL     1      -7.499   8.642  66.094  1.00  0.00    -0.086 A  
HETATM   11  C   UNL     1      -6.776   6.490  67.695  1.00  0.00    -0.067 A  
HETATM   12  C   UNL     1      -6.190   8.536  66.551  1.00  0.00    -0.057 A  
HETATM   13  C   UNL     1      -5.828   7.458  67.349  1.00  0.00    -0.034 A  
ENDBRANCH   7   8
BRANCH   7  14
HETATM   14  C   UNL     1     -10.446   5.462  66.769  1.00  0.00    -0.289 C  
HETATM   15  N   UNL     1     -11.446   6.344  67.093  1.00  0.00    -0.708 N  
HETATM   16  H1  UNL     1     -12.284   6.320  66.512  1.00  0.00     0.000 HD 
HETATM   17  O   UNL     1     -10.641   4.688  65.836  1.00  0.00    -0.304 OA 
HETATM   18  H2  UNL     1     -11.356   6.991  67.876  1.00  0.00     0.000 HD 
ENDBRANCH   7  14
BRANCH   7  19
HETATM   19  C   UNL     1      -8.577   4.050  67.602  1.00  0.00    -0.100 A  
HETATM   20  C   UNL     1      -7.614   1.468  67.370  1.00  0.00    -0.058 A  
HETATM   21  N   UNL     1      -7.954   3.662  66.453  1.00  0.00    -0.089 NA 
HETATM   22  C   UNL     1      -8.219   1.866  68.554  1.00  0.00    -0.072 A  
HETATM   23  C   UNL     1      -7.499   2.396  66.357  1.00  0.00    -0.070 A  
HETATM   24  C   UNL     1      -8.702   3.173  68.682  1.00  0.00    -0.145 A  
ENDBRANCH   7  19
ENDBRANCH   6   7
ENDBRANCH   5   6
ENDBRANCH   4   5
BRANCH   4  25
HETATM   25  C   UNL     1     -11.512   7.645  70.892  1.00  0.00    -0.282 C  
HETATM   26  C   UNL     1     -12.281   6.318  70.769  1.00  0.00     0.146 C  
HETATM   27  C   UNL     1     -10.681   7.493  72.190  1.00  0.00    -0.275 C  
ENDBRANCH   4  25
ENDBRANCH   2   4
TORSDOF 8
ENDMDL
MODEL      257
REMARK 921   NORMALIZED FREE ENERGY PREDICTED BY IDOCK:   -2.31 KCAL/MOL
REMARK 922        TOTAL FREE ENERGY PREDICTED BY IDOCK:   -5.10 KCAL/MOL
REMARK 923 INTER-LIGAND FREE ENERGY PREDICTED BY IDOCK:   -3.50 KCAL/MOL
REMARK 924 INTRA-LIGAND FREE ENERGY PREDICTED BY IDOCK:   -1.60 KCAL/MOL
REMARK 927      BINDING AFFINITY PREDICTED BY RF-SCORE:    0.00 PKD
ROOT
HETATM    1  C   UNL     1      -7.194   9.019  70.459  1.00  0.00    -0.081 C  
HETATM    2  C   UNL     1      -7.405   8.221  71.770  1.00  0.00    -0.094 C  
HETATM    3  C   UNL     1      -8.872   8.464  72.164  1.00  0.00    -0.285 C  
ENDROOT
BRANCH   2   4
HETATM    4  N   UNL     1      -6.981   6.788  71.622  1.00  0.00    -0.069 NA 
BRANCH   4   5
HETATM    5  C   UNL     1      -6.705   6.458  70.180  1.00  0.00    -0.050 C  
BRANCH   5   6
HETATM    6  C   UNL     1      -6.907   4.973  69.819  1.00  0.00    -0.052 C  
BRANCH   6   7
HETATM    7  C   UNL     1      -8.255   4.552  69.135  1.00  0.00    -0.082 C  
BRANCH   7   8
HETATM    8  C   UNL     1      -9.423   5.118  69.994  1.00  0.00    -0.221 A  
HETATM    9  C   UNL     1     -10.390   5.991  69.461  1.00  0.00    -0.295 A  
HETATM   10  C   UNL     1     -11.467   6.444  70.229  1.00  0.00    -0.468 A  
HETATM   11  C   UNL     1      -9.605   4.701  71.331  1.00  0.00    -0.230 A  
HETATM   12  C   UNL     1     -11.607   6.035  71.551  1.00  0.00    -0.238 A  
HETATM   13  C   UNL     1     -10.674   5.167  72.103  1.00  0.00    -0.252 A  
ENDBRANCH   7   8
BRANCH   7  14
HETATM   14  C   UNL     1      -8.289   2.999  68.942  1.00  0.00    -0.060 C  
HETATM   15  N   UNL     1      -9.517   2.434  68.705  1.00  0.00    -0.162 N  
HETATM   16  H1  UNL     1      -9.539   1.422  68.580  1.00  0.00     0.000 HD 
HETATM   17  O   UNL     1      -7.317   2.252  69.023  1.00  0.00    -0.043 OA 
HETATM   18  H2  UNL     1     -10.365   2.997  68.658  1.00  0.00     0.000 HD 
ENDBRANCH   7  14
BRANCH   7  19
HETATM   19  C   UNL     1      -8.265   5.146  67.689  1.00  0.00    -0.099 A  
HETATM   20  C   UNL     1      -8.248   6.065  65.081  1.00  0.00    -0.142 A  
HETATM   21  N   UNL     1      -8.976   4.482  66.734  1.00  0.00    -0.112 NA 
HETATM   22  C   UNL     1      -7.548   6.763  66.054  1.00  0.00    -0.086 A  
HETATM   23  C   UNL     1      -8.948   4.942  65.466  1.00  0.00    -0.149 A  
HETATM   24  C   UNL     1      -7.558   6.309  67.377  1.00  0.00    -0.093 A  
ENDBRANCH   7  19
ENDBRANCH   6   7
ENDBRANCH   5   6
ENDBRANCH   4   5
BRANCH   4  25
HETATM   25  C   UNL     1      -5.874   6.313  72.516  1.00  0.00    -0.038 C  
HETATM   26  C   UNL     1      -5.168   7.387  73.364  1.00  0.00    -0.041 C  
HETATM   27  C   UNL     1      -6.368   5.268  73.546  1.00  0.00    -0.061 C  
ENDBRANCH   4  25
ENDBRANCH   2   4
TORSDOF 8
ENDMDL
MODEL      258
REMARK 921   NORMALIZED FREE ENERGY PREDICTED BY IDOCK:   -2.25 KCAL/MOL
REMARK 922        TOTAL FREE ENERGY PREDICTED BY IDOCK:   -5.01 KCAL/MOL
REMARK 923 INTER-LIGAND FREE ENERGY PREDICTED BY IDOCK:   -4.32 KCAL/MOL
REMARK 924 INTRA-LIGAND FREE ENERGY PREDICTED BY IDOCK:   -0.69 KCAL/MOL
REMARK 927      BINDING AFFINITY PREDICTED BY RF-SCORE:    0.00 PKD
ROOT
HETATM    1  C   UNL     1     -10.285  17.656  67.372  1.00  0.00    -0.345 C  
HETATM    2  C   UNL     1      -9.968  16.372  68.178  1.00  0.00    -0.242 C  
HETATM    3  C   UNL     1      -9.113  16.838  69.368  1.00  0.00     0.113 C  
ENDROOT
BRANCH   2   4
HETATM    4  N   UNL     1     -11.216  15.603  68.510  1.00  0.00    -0.323 NA 
BRANCH   4   5
HETATM    5  C   UNL     1     -11.439  14.493  67.519  1.00  0.00    -0.356 C  
BRANCH   5   6
HETATM    6  C   UNL     1     -10.180  14.088  66.727  1.00  0.00    -0.264 C  
BRANCH   6   7
HETATM    7  C   UNL     1      -9.707  12.592  66.798  1.00  0.00    -0.240 C  
BRANCH   7   8
HETATM    8  C   UNL     1      -8.181  12.589  67.109  1.00  0.00    -0.168 A  
HETATM    9  C   UNL     1      -7.599  13.503  68.007  1.00  0.00    -0.143 A  
HETATM   10  C   UNL     1      -6.238  13.450  68.322  1.00  0.00    -0.102 A  
HETATM   11  C   UNL     1      -7.334  11.601  66.562  1.00  0.00     0.044 A  
HETATM   12  C   UNL     1      -5.422  12.480  67.749  1.00  0.00    -0.103 A  
HETATM   13  C   UNL     1      -5.970  11.558  66.866  1.00  0.00    -0.136 A  
ENDBRANCH   7   8
BRANCH   7  14
HETATM   14  C   UNL     1     -10.098  11.850  65.477  1.00  0.00    -0.245 C  
HETATM   15  N   UNL     1     -10.846  12.559  64.570  1.00  0.00    -0.308 N  
HETATM   16  H1  UNL     1     -11.102  12.075  63.710  1.00  0.00     0.000 HD 
HETATM   17  O   UNL     1      -9.825  10.683  65.210  1.00  0.00    -0.235 OA 
HETATM   18  H2  UNL     1     -11.132  13.521  64.749  1.00  0.00     0.000 HD 
ENDBRANCH   7  14
BRANCH   7  19
HETATM   19  C   UNL     1     -10.525  11.884  67.926  1.00  0.00    -0.204 A  
HETATM   20  C   UNL     1     -12.085  10.722  69.891  1.00  0.00    -0.410 A  
HETATM   21  N   UNL     1     -11.786  11.461  67.625  1.00  0.00    -0.594 NA 
HETATM   22  C   UNL     1     -10.792  11.122  70.196  1.00  0.00     0.159 A  
HETATM   23  C   UNL     1     -12.534  10.904  68.601  1.00  0.00     0.723 A  
HETATM   24  C   UNL     1      -9.994  11.704  69.205  1.00  0.00     0.098 A  
ENDBRANCH   7  19
ENDBRANCH   6   7
ENDBRANCH   5   6
ENDBRANCH   4   5
BRANCH   4  25
HETATM   25  C   UNL     1     -11.356  15.117  69.922  1.00  0.00    -0.284 C  
HETATM   26  C   UNL     1     -11.508  16.198  71.008  1.00  0.00    -0.424 C  
HETATM   27  C   UNL     1     -12.596  14.208  70.103  1.00  0.00    -0.325 C  
ENDBRANCH   4  25
ENDBRANCH   2   4
TORSDOF 8
ENDMDL
MODEL      259
REMARK 921   NORMALIZED FREE ENERGY PREDICTED BY IDOCK:   -2.22 KCAL/MOL
REMARK 922        TOTAL FREE ENERGY PREDICTED BY IDOCK:   -4.96 KCAL/MOL
REMARK 923 INTER-LIGAND FREE ENERGY PREDICTED BY IDOCK:   -4.93 KCAL/MOL
REMARK 924 INTRA-LIGAND FREE ENERGY PREDICTED BY IDOCK:   -0.03 KCAL/MOL
REMARK 927      BINDING AFFINITY PREDICTED BY RF-SCORE:    0.00 PKD
ROOT
HETATM    1  C   UNL     1      -8.987   8.395  72.671  1.00  0.00    -0.304 C  
HETATM    2  C   UNL     1      -8.478   7.970  71.272  1.00  0.00    -0.122 C  
HETATM    3  C   UNL     1      -7.479   6.829  71.530  1.00  0.00    -0.087 C  
ENDROOT
BRANCH   2   4
HETATM    4  N   UNL     1      -9.614   7.667  70.336  1.00  0.00    -0.168 NA 
BRANCH   4   5
HETATM    5  C   UNL     1      -9.296   8.133  68.941  1.00  0.00    -0.147 C  
BRANCH   5   6
HETATM    6  C   UNL     1      -8.506   9.455  68.879  1.00  0.00    -0.122 C  
BRANCH   6   7
HETATM    7  C   UNL     1      -9.190  10.698  68.205  1.00  0.00    -0.153 C  
BRANCH   7   8
HETATM    8  C   UNL     1      -8.332  11.953  68.539  1.00  0.00    -0.118 A  
HETATM    9  C   UNL     1      -7.011  11.852  69.013  1.00  0.00    -0.098 A  
HETATM   10  C   UNL     1      -6.232  12.988  69.252  1.00  0.00    -0.103 A  
HETATM   11  C   UNL     1      -8.825  13.253  68.291  1.00  0.00    -0.168 A  
HETATM   12  C   UNL     1      -6.752  14.257  69.022  1.00  0.00    -0.106 A  
HETATM   13  C   UNL     1      -8.050  14.389  68.545  1.00  0.00    -0.146 A  
ENDBRANCH   7   8
BRANCH   7  14
HETATM   14  C   UNL     1     -10.682  10.795  68.664  1.00  0.00    -0.208 C  
HETATM   15  N   UNL     1     -11.430   9.647  68.575  1.00  0.00    -0.415 N  
HETATM   16  H1  UNL     1     -12.403   9.710  68.874  1.00  0.00     0.000 HD 
HETATM   17  O   UNL     1     -11.240  11.816  69.057  1.00  0.00    -0.230 OA 
HETATM   18  H2  UNL     1     -11.033   8.775  68.227  1.00  0.00     0.000 HD 
ENDBRANCH   7  14
BRANCH   7  19
HETATM   19  C   UNL     1      -9.249  10.435  66.665  1.00  0.00    -0.156 A  
HETATM   20  C   UNL     1      -9.207   9.957  63.942  1.00  0.00    -0.295 A  
HETATM   21  N   UNL     1      -8.572   9.355  66.179  1.00  0.00    -0.132 NA 
HETATM   22  C   UNL     1      -9.923  11.039  64.433  1.00  0.00    -0.368 A  
HETATM   23  C   UNL     1      -8.558   9.145  64.847  1.00  0.00    -0.184 A  
HETATM   24  C   UNL     1      -9.956  11.283  65.810  1.00  0.00    -0.281 A  
ENDBRANCH   7  19
ENDBRANCH   6   7
ENDBRANCH   5   6
ENDBRANCH   4   5
BRANCH   4  25
HETATM   25  C   UNL     1     -10.138   6.261  70.341  1.00  0.00    -0.185 C  
HETATM   26  C   UNL     1     -11.324   5.974  71.280  1.00  0.00    -0.296 C  
HETATM   27  C   UNL     1     -10.636   5.823  68.943  1.00  0.00    -0.337 C  
ENDBRANCH   4  25
ENDBRANCH   2   4
TORSDOF 8
ENDMDL
MODEL      260
REMARK 921   NORMALIZED FREE ENERGY PREDICTED BY IDOCK:   -2.16 KCAL/MOL
REMARK 922        TOTAL FREE ENERGY PREDICTED BY IDOCK:   -4.88 KCAL/MOL
REMARK 923 INTER-LIGAND FREE ENERGY PREDICTED BY IDOCK:   -5.22 KCAL/MOL
REMARK 924 INTRA-LIGAND FREE ENERGY PREDICTED BY IDOCK:    0.34 KCAL/MOL
REMARK 927      BINDING AFFINITY PREDICTED BY RF-SCORE:    0.00 PKD
ROOT
HETATM    1  C   UNL     1      -8.942   8.764  65.742  1.00  0.00    -0.253 C  
HETATM    2  C   UNL     1      -7.493   9.304  65.825  1.00  0.00    -0.098 C  
HETATM    3  C   UNL     1      -7.118   9.692  64.385  1.00  0.00    -0.118 C  
ENDROOT
BRANCH   2   4
HETATM    4  N   UNL     1      -7.361  10.382  66.864  1.00  0.00    -0.103 NA 
BRANCH   4   5
HETATM    5  C   UNL     1      -8.700  10.712  67.465  1.00  0.00    -0.125 C  
BRANCH   5   6
HETATM    6  C   UNL     1      -9.082  12.203  67.383  1.00  0.00    -0.181 C  
BRANCH   6   7
HETATM    7  C   UNL     1     -10.594  12.593  67.550  1.00  0.00    -0.236 C  
BRANCH   7   8
HETATM    8  C   UNL     1     -10.653  13.983  68.248  1.00  0.00    -0.253 A  
HETATM    9  C   UNL     1      -9.512  14.793  68.400  1.00  0.00    -0.213 A  
HETATM   10  C   UNL     1      -9.592  16.065  68.976  1.00  0.00    -0.247 A  
HETATM   11  C   UNL     1     -11.884  14.524  68.680  1.00  0.00    -0.355 A  
HETATM   12  C   UNL     1     -10.815  16.562  69.414  1.00  0.00    -0.311 A  
HETATM   13  C   UNL     1     -11.960  15.789  69.269  1.00  0.00    -0.305 A  
ENDBRANCH   7   8
BRANCH   7  14
HETATM   14  C   UNL     1     -11.353  11.455  68.310  1.00  0.00    -0.286 C  
HETATM   15  N   UNL     1     -10.753  10.221  68.330  1.00  0.00    -0.212 N  
HETATM   16  H1  UNL     1     -11.248   9.479  68.825  1.00  0.00     0.000 HD 
HETATM   17  O   UNL     1     -12.451  11.571  68.849  1.00  0.00    -0.331 OA 
HETATM   18  H2  UNL     1      -9.857  10.054  67.874  1.00  0.00     0.000 HD 
ENDBRANCH   7  14
BRANCH   7  19
HETATM   19  C   UNL     1     -11.237  12.637  66.126  1.00  0.00    -0.309 A  
HETATM   20  C   UNL     1     -12.278  12.612  63.564  1.00  0.00    -0.638 A  
HETATM   21  N   UNL     1     -11.585  11.452  65.549  1.00  0.00    -0.047 NA 
HETATM   22  C   UNL     1     -11.956  13.825  64.157  1.00  0.00    -0.473 A  
HETATM   23  C   UNL     1     -12.084  11.461  64.295  1.00  0.00     0.329 A  
HETATM   24  C   UNL     1     -11.435  13.846  65.456  1.00  0.00    -0.319 A  
ENDBRANCH   7  19
ENDBRANCH   6   7
ENDBRANCH   5   6
ENDBRANCH   4   5
BRANCH   4  25
HETATM   25  C   UNL     1      -6.318  10.178  67.923  1.00  0.00    -0.061 C  
HETATM   26  C   UNL     1      -5.248   9.109  67.636  1.00  0.00    -0.034 C  
HETATM   27  C   UNL     1      -5.511  11.470  68.199  1.00  0.00    -0.042 C  
ENDBRANCH   4  25
ENDBRANCH   2   4
TORSDOF 8
ENDMDL
MODEL      261
REMARK 921   NORMALIZED FREE ENERGY PREDICTED BY IDOCK:   -2.15 KCAL/MOL
REMARK 922        TOTAL FREE ENERGY PREDICTED BY IDOCK:   -4.87 KCAL/MOL
REMARK 923 INTER-LIGAND FREE ENERGY PREDICTED BY IDOCK:   -5.88 KCAL/MOL
REMARK 924 INTRA-LIGAND FREE ENERGY PREDICTED BY IDOCK:    1.02 KCAL/MOL
REMARK 927      BINDING AFFINITY PREDICTED BY RF-SCORE:    0.00 PKD
ROOT
HETATM    1  C   UNL     1      -7.590  10.343  66.845  1.00  0.00    -0.107 C  
HETATM    2  C   UNL     1      -6.467  10.717  67.843  1.00  0.00    -0.059 C  
HETATM    3  C   UNL     1      -5.154  10.318  67.149  1.00  0.00    -0.040 C  
ENDROOT
BRANCH   2   4
HETATM    4  N   UNL     1      -6.578  12.146  68.294  1.00  0.00    -0.053 NA 
BRANCH   4   5
HETATM    5  C   UNL     1      -7.988  12.467  68.710  1.00  0.00     0.048 C  
BRANCH   5   6
HETATM    6  C   UNL     1      -9.006  12.463  67.553  1.00  0.00    -0.183 C  
BRANCH   6   7
HETATM    7  C   UNL     1      -9.825  13.774  67.280  1.00  0.00    -0.241 C  
BRANCH   7   8
HETATM    8  C   UNL     1     -10.649  13.559  65.977  1.00  0.00    -0.285 A  
HETATM    9  C   UNL     1     -10.172  12.774  64.911  1.00  0.00    -0.294 A  
HETATM   10  C   UNL     1     -10.949  12.540  63.772  1.00  0.00    -0.496 A  
HETATM   11  C   UNL     1     -11.956  14.079  65.854  1.00  0.00    -0.424 A  
HETATM   12  C   UNL     1     -12.224  13.085  63.668  1.00  0.00    -0.568 A  
HETATM   13  C   UNL     1     -12.726  13.857  64.708  1.00  0.00    -0.248 A  
ENDBRANCH   7   8
BRANCH   7  14
HETATM   14  C   UNL     1      -8.858  15.003  67.237  1.00  0.00    -0.201 C  
HETATM   15  N   UNL     1      -7.523  14.731  67.063  1.00  0.00    -0.266 N  
HETATM   16  H1  UNL     1      -6.893  15.532  67.035  1.00  0.00     0.000 HD 
HETATM   17  O   UNL     1      -9.192  16.176  67.384  1.00  0.00    -0.205 OA 
HETATM   18  H2  UNL     1      -7.180  13.776  66.966  1.00  0.00     0.000 HD 
ENDBRANCH   7  14
BRANCH   7  19
HETATM   19  C   UNL     1     -10.754  14.024  68.512  1.00  0.00    -0.256 A  
HETATM   20  C   UNL     1     -12.489  14.366  70.638  1.00  0.00    -0.419 A  
HETATM   21  N   UNL     1     -11.199  12.936  69.202  1.00  0.00    -0.254 NA 
HETATM   22  C   UNL     1     -12.014  15.480  69.960  1.00  0.00    -0.385 A  
HETATM   23  C   UNL     1     -12.052  13.124  70.231  1.00  0.00    -0.328 A  
HETATM   24  C   UNL     1     -11.130  15.316  68.888  1.00  0.00    -0.269 A  
ENDBRANCH   7  19
ENDBRANCH   6   7
ENDBRANCH   5   6
ENDBRANCH   4   5
BRANCH   4  25
HETATM   25  C   UNL     1      -5.582  12.613  69.315  1.00  0.00    -0.076 C  
HETATM   26  C   UNL     1      -5.868  13.971  69.981  1.00  0.00    -0.133 C  
HETATM   27  C   UNL     1      -5.453  11.621  70.496  1.00  0.00    -0.144 C  
ENDBRANCH   4  25
ENDBRANCH   2   4
TORSDOF 8
ENDMDL
MODEL      262
REMARK 921   NORMALIZED FREE ENERGY PREDICTED BY IDOCK:   -1.88 KCAL/MOL
REMARK 922        TOTAL FREE ENERGY PREDICTED BY IDOCK:   -4.47 KCAL/MOL
REMARK 923 INTER-LIGAND FREE ENERGY PREDICTED BY IDOCK:   -3.88 KCAL/MOL
REMARK 924 INTRA-LIGAND FREE ENERGY PREDICTED BY IDOCK:   -0.59 KCAL/MOL
REMARK 927      BINDING AFFINITY PREDICTED BY RF-SCORE:    0.00 PKD
ROOT
HETATM    1  C   UNL     1     -13.263   7.080  71.038  1.00  0.00    -0.124 C  
HETATM    2  C   UNL     1     -12.132   8.108  71.289  1.00  0.00    -0.288 C  
HETATM    3  C   UNL     1     -12.015   8.220  72.818  1.00  0.00    -0.243 C  
ENDROOT
BRANCH   2   4
HETATM    4  N   UNL     1     -10.877   7.746  70.546  1.00  0.00    -0.238 NA 
BRANCH   4   5
HETATM    5  C   UNL     1     -10.851   6.275  70.228  1.00  0.00    -0.304 C  
BRANCH   5   6
HETATM    6  C   UNL     1     -10.515   5.372  71.431  1.00  0.00    -0.294 C  
BRANCH   6   7
HETATM    7  C   UNL     1      -9.113   4.666  71.461  1.00  0.00    -0.175 C  
BRANCH   7   8
HETATM    8  C   UNL     1      -9.035   3.708  70.237  1.00  0.00    -0.170 A  
HETATM    9  C   UNL     1      -9.436   4.108  68.948  1.00  0.00    -0.238 A  
HETATM   10  C   UNL     1      -9.305   3.256  67.846  1.00  0.00    -0.246 A  
HETATM   11  C   UNL     1      -8.472   2.419  70.361  1.00  0.00    -0.086 A  
HETATM   12  C   UNL     1      -8.769   1.983  68.003  1.00  0.00    -0.122 A  
HETATM   13  C   UNL     1      -8.355   1.563  69.261  1.00  0.00    -0.068 A  
ENDBRANCH   7   8
BRANCH   7  14
HETATM   14  C   UNL     1      -8.902   3.965  72.844  1.00  0.00    -0.098 C  
HETATM   15  N   UNL     1     -10.029   3.728  73.593  1.00  0.00    -0.112 N  
HETATM   16  H1  UNL     1      -9.891   3.272  74.494  1.00  0.00     0.000 HD 
HETATM   17  O   UNL     1      -7.816   3.649  73.323  1.00  0.00    -0.072 OA 
HETATM   18  H2  UNL     1     -10.956   3.996  73.264  1.00  0.00     0.000 HD 
ENDBRANCH   7  14
BRANCH   7  19
HETATM   19  C   UNL     1      -8.016   5.777  71.392  1.00  0.00    -0.113 A  
HETATM   20  C   UNL     1      -5.973   7.638  71.282  1.00  0.00    -0.035 A  
HETATM   21  N   UNL     1      -6.988   5.601  70.513  1.00  0.00    -0.055 NA 
HETATM   22  C   UNL     1      -7.031   7.839  72.155  1.00  0.00    -0.069 A  
HETATM   23  C   UNL     1      -5.997   6.516  70.481  1.00  0.00    -0.023 A  
HETATM   24  C   UNL     1      -8.073   6.907  72.212  1.00  0.00    -0.093 A  
ENDBRANCH   7  19
ENDBRANCH   6   7
ENDBRANCH   5   6
ENDBRANCH   4   5
BRANCH   4  25
HETATM   25  C   UNL     1     -10.538   8.576  69.344  1.00  0.00    -0.195 C  
HETATM   26  C   UNL     1     -10.624  10.103  69.518  1.00  0.00    -0.269 C  
HETATM   27  C   UNL     1      -9.093   8.322  68.852  1.00  0.00    -0.147 C  
ENDBRANCH   4  25
ENDBRANCH   2   4
TORSDOF 8
ENDMDL
MODEL      263
REMARK 921   NORMALIZED FREE ENERGY PREDICTED BY IDOCK:   -1.85 KCAL/MOL
REMARK 922        TOTAL FREE ENERGY PREDICTED BY IDOCK:   -4.43 KCAL/MOL
REMARK 923 INTER-LIGAND FREE ENERGY PREDICTED BY IDOCK:   -3.36 KCAL/MOL
REMARK 924 INTRA-LIGAND FREE ENERGY PREDICTED BY IDOCK:   -1.06 KCAL/MOL
REMARK 927      BINDING AFFINITY PREDICTED BY RF-SCORE:    0.00 PKD
ROOT
HETATM    1  C   UNL     1      -7.702   4.799  65.608  1.00  0.00    -0.090 C  
HETATM    2  C   UNL     1      -7.599   6.321  65.343  1.00  0.00    -0.088 C  
HETATM    3  C   UNL     1      -8.066   6.515  63.891  1.00  0.00    -0.025 C  
ENDROOT
BRANCH   2   4
HETATM    4  N   UNL     1      -8.324   7.117  66.392  1.00  0.00    -0.119 NA 
BRANCH   4   5
HETATM    5  C   UNL     1      -8.210   6.456  67.738  1.00  0.00    -0.118 C  
BRANCH   5   6
HETATM    6  C   UNL     1      -9.544   6.341  68.503  1.00  0.00    -0.128 C  
BRANCH   6   7
HETATM    7  C   UNL     1      -9.510   5.816  69.982  1.00  0.00    -0.193 C  
BRANCH   7   8
HETATM    8  C   UNL     1      -8.987   4.350  69.955  1.00  0.00    -0.147 A  
HETATM    9  C   UNL     1      -8.353   3.762  71.065  1.00  0.00    -0.086 A  
HETATM   10  C   UNL     1      -7.942   2.425  71.047  1.00  0.00    -0.054 A  
HETATM   11  C   UNL     1      -9.210   3.523  68.833  1.00  0.00    -0.227 A  
HETATM   12  C   UNL     1      -8.154   1.641  69.918  1.00  0.00    -0.055 A  
HETATM   13  C   UNL     1      -8.785   2.191  68.810  1.00  0.00    -0.126 A  
ENDBRANCH   7   8
BRANCH   7  14
HETATM   14  C   UNL     1     -10.921   5.987  70.637  1.00  0.00    -0.307 C  
HETATM   15  N   UNL     1     -11.069   5.504  71.914  1.00  0.00    -0.209 N  
HETATM   16  H1  UNL     1     -11.989   5.615  72.341  1.00  0.00     0.000 HD 
HETATM   17  O   UNL     1     -11.904   6.478  70.089  1.00  0.00    -0.416 OA 
HETATM   18  H2  UNL     1     -10.299   5.057  72.410  1.00  0.00     0.000 HD 
ENDBRANCH   7  14
BRANCH   7  19
HETATM   19  C   UNL     1      -8.560   6.750  70.800  1.00  0.00    -0.141 A  
HETATM   20  C   UNL     1      -6.954   8.519  72.192  1.00  0.00    -0.096 A  
HETATM   21  N   UNL     1      -9.132   7.724  71.564  1.00  0.00    -0.131 NA 
HETATM   22  C   UNL     1      -6.366   7.510  71.442  1.00  0.00    -0.035 A  
HETATM   23  C   UNL     1      -8.330   8.582  72.229  1.00  0.00    -0.117 A  
HETATM   24  C   UNL     1      -7.172   6.607  70.740  1.00  0.00    -0.070 A  
ENDBRANCH   7  19
ENDBRANCH   6   7
ENDBRANCH   5   6
ENDBRANCH   4   5
BRANCH   4  25
HETATM   25  C   UNL     1      -8.008   8.582  66.469  1.00  0.00    -0.099 C  
HETATM   26  C   UNL     1      -9.209   9.545  66.457  1.00  0.00    -0.201 C  
HETATM   27  C   UNL     1      -7.234   8.941  67.761  1.00  0.00    -0.084 C  
ENDBRANCH   4  25
ENDBRANCH   2   4
TORSDOF 8
ENDMDL
MODEL      264
REMARK 921   NORMALIZED FREE ENERGY PREDICTED BY IDOCK:   -1.83 KCAL/MOL
REMARK 922        TOTAL FREE ENERGY PREDICTED BY IDOCK:   -4.39 KCAL/MOL
REMARK 923 INTER-LIGAND FREE ENERGY PREDICTED BY IDOCK:   -4.37 KCAL/MOL
REMARK 924 INTRA-LIGAND FREE ENERGY PREDICTED BY IDOCK:   -0.02 KCAL/MOL
REMARK 927      BINDING AFFINITY PREDICTED BY RF-SCORE:    0.00 PKD
ROOT
HETATM    1  C   UNL     1     -12.530  13.710  67.050  1.00  0.00    -0.131 C  
HETATM    2  C   UNL     1     -11.306  14.263  67.821  1.00  0.00    -0.307 C  
HETATM    3  C   UNL     1     -11.722  14.261  69.302  1.00  0.00    -0.363 C  
ENDROOT
BRANCH   2   4
HETATM    4  N   UNL     1     -10.049  13.515  67.478  1.00  0.00    -0.231 NA 
BRANCH   4   5
HETATM    5  C   UNL     1     -10.370  12.142  66.955  1.00  0.00    -0.212 C  
BRANCH   5   6
HETATM    6  C   UNL     1      -9.164  11.395  66.351  1.00  0.00    -0.209 C  
BRANCH   6   7
HETATM    7  C   UNL     1      -8.385  10.382  67.263  1.00  0.00    -0.122 C  
BRANCH   7   8
HETATM    8  C   UNL     1      -7.201  11.148  67.923  1.00  0.00    -0.090 A  
HETATM    9  C   UNL     1      -6.336  11.972  67.179  1.00  0.00    -0.149 A  
HETATM   10  C   UNL     1      -5.313  12.700  67.794  1.00  0.00    -0.112 A  
HETATM   11  C   UNL     1      -7.005  11.112  69.321  1.00  0.00    -0.118 A  
HETATM   12  C   UNL     1      -5.128  12.626  69.170  1.00  0.00    -0.068 A  
HETATM   13  C   UNL     1      -5.973  11.829  69.933  1.00  0.00    -0.146 A  
ENDBRANCH   7   8
BRANCH   7  14
HETATM   14  C   UNL     1      -7.959   9.133  66.424  1.00  0.00    -0.100 C  
HETATM   15  N   UNL     1      -7.120   8.236  67.036  1.00  0.00    -0.078 N  
HETATM   16  H1  UNL     1      -6.841   7.422  66.489  1.00  0.00     0.000 HD 
HETATM   17  O   UNL     1      -8.282   8.915  65.259  1.00  0.00    -0.121 OA 
HETATM   18  H2  UNL     1      -6.791   8.377  67.991  1.00  0.00     0.000 HD 
ENDBRANCH   7  14
BRANCH   7  19
HETATM   19  C   UNL     1      -9.384   9.837  68.335  1.00  0.00    -0.133 A  
HETATM   20  C   UNL     1     -11.088   8.961  70.329  1.00  0.00    -0.251 A  
HETATM   21  N   UNL     1     -10.060  10.746  69.094  1.00  0.00    -0.217 NA 
HETATM   22  C   UNL     1     -10.429   8.030  69.539  1.00  0.00    -0.226 A  
HETATM   23  C   UNL     1     -10.880  10.298  70.067  1.00  0.00    -0.307 A  
HETATM   24  C   UNL     1      -9.570   8.465  68.523  1.00  0.00    -0.155 A  
ENDBRANCH   7  19
ENDBRANCH   6   7
ENDBRANCH   5   6
ENDBRANCH   4   5
BRANCH   4  25
HETATM   25  C   UNL     1      -9.060  14.222  66.599  1.00  0.00    -0.226 C  
HETATM   26  C   UNL     1      -9.631  14.948  65.367  1.00  0.00    -0.085 C  
HETATM   27  C   UNL     1      -8.279  15.316  67.367  1.00  0.00    -0.207 C  
ENDBRANCH   4  25
ENDBRANCH   2   4
TORSDOF 8
ENDMDL
MODEL      265
REMARK 921   NORMALIZED FREE ENERGY PREDICTED BY IDOCK:   -1.70 KCAL/MOL
REMARK 922        TOTAL FREE ENERGY PREDICTED BY IDOCK:   -4.20 KCAL/MOL
REMARK 923 INTER-LIGAND FREE ENERGY PREDICTED BY IDOCK:   -5.04 KCAL/MOL
REMARK 924 INTRA-LIGAND FREE ENERGY PREDICTED BY IDOCK:    0.84 KCAL/MOL
REMARK 927      BINDING AFFINITY PREDICTED BY RF-SCORE:    0.00 PKD
ROOT
HETATM    1  C   UNL     1      -9.049  15.898  68.727  1.00  0.00    -0.219 C  
HETATM    2  C   UNL     1      -9.835  14.567  68.632  1.00  0.00    -0.232 C  
HETATM    3  C   UNL     1     -11.256  14.897  69.119  1.00  0.00    -0.293 C  
ENDROOT
BRANCH   2   4
HETATM    4  N   UNL     1      -9.721  13.951  67.267  1.00  0.00    -0.239 NA 
BRANCH   4   5
HETATM    5  C   UNL     1      -9.536  12.461  67.366  1.00  0.00    -0.184 C  
BRANCH   5   6
HETATM    6  C   UNL     1      -8.136  11.968  66.952  1.00  0.00    -0.127 C  
BRANCH   6   7
HETATM    7  C   UNL     1      -7.976  10.469  66.513  1.00  0.00    -0.132 C  
BRANCH   7   8
HETATM    8  C   UNL     1      -8.781   9.591  67.516  1.00  0.00    -0.126 A  
HETATM    9  C   UNL     1     -10.094   9.162  67.248  1.00  0.00    -0.295 A  
HETATM   10  C   UNL     1     -10.783   8.325  68.131  1.00  0.00    -0.093 A  
HETATM   11  C   UNL     1      -8.182   9.116  68.703  1.00  0.00    -0.114 A  
HETATM   12  C   UNL     1     -10.176   7.892  69.306  1.00  0.00    -0.216 A  
HETATM   13  C   UNL     1      -8.877   8.291  69.593  1.00  0.00    -0.139 A  
ENDBRANCH   7   8
BRANCH   7  14
HETATM   14  C   UNL     1      -6.458  10.106  66.410  1.00  0.00    -0.082 C  
HETATM   15  N   UNL     1      -6.140   8.771  66.445  1.00  0.00    -0.058 N  
HETATM   16  H1  UNL     1      -5.150   8.534  66.378  1.00  0.00     0.000 HD 
HETATM   17  O   UNL     1      -5.536  10.915  66.341  1.00  0.00    -0.078 OA 
HETATM   18  H2  UNL     1      -6.857   8.052  66.533  1.00  0.00     0.000 HD 
ENDBRANCH   7  14
BRANCH   7  19
HETATM   19  C   UNL     1      -8.531  10.334  65.058  1.00  0.00    -0.172 A  
HETATM   20  C   UNL     1      -9.386  10.154  62.434  1.00  0.00    -0.297 A  
HETATM   21  N   UNL     1      -7.728   9.748  64.124  1.00  0.00    -0.128 NA 
HETATM   22  C   UNL     1     -10.221  10.723  63.386  1.00  0.00    -0.287 A  
HETATM   23  C   UNL     1      -8.161   9.678  62.848  1.00  0.00    -0.153 A  
HETATM   24  C   UNL     1      -9.799  10.811  64.717  1.00  0.00    -0.358 A  
ENDBRANCH   7  19
ENDBRANCH   6   7
ENDBRANCH   5   6
ENDBRANCH   4   5
BRANCH   4  25
HETATM   25  C   UNL     1     -10.786  14.309  66.272  1.00  0.00    -0.297 C  
HETATM   26  C   UNL     1     -12.225  13.893  66.626  1.00  0.00    -0.465 C  
HETATM   27  C   UNL     1     -10.870  15.836  66.036  1.00  0.00    -0.256 C  
ENDBRANCH   4  25
ENDBRANCH   2   4
TORSDOF 8
ENDMDL
MODEL      266
REMARK 921   NORMALIZED FREE ENERGY PREDICTED BY IDOCK:   -1.61 KCAL/MOL
REMARK 922        TOTAL FREE ENERGY PREDICTED BY IDOCK:   -4.06 KCAL/MOL
REMARK 923 INTER-LIGAND FREE ENERGY PREDICTED BY IDOCK:   -5.27 KCAL/MOL
REMARK 924 INTRA-LIGAND FREE ENERGY PREDICTED BY IDOCK:    1.20 KCAL/MOL
REMARK 927      BINDING AFFINITY PREDICTED BY RF-SCORE:    0.00 PKD
ROOT
HETATM    1  C   UNL     1     -11.755  16.682  72.438  1.00  0.00    -0.204 C  
HETATM    2  C   UNL     1     -11.752  15.180  72.060  1.00  0.00    -0.422 C  
HETATM    3  C   UNL     1     -12.157  14.436  73.343  1.00  0.00     0.040 C  
ENDROOT
BRANCH   2   4
HETATM    4  N   UNL     1     -12.586  14.913  70.839  1.00  0.00    -0.316 NA 
BRANCH   4   5
HETATM    5  C   UNL     1     -11.806  15.203  69.585  1.00  0.00    -0.334 C  
BRANCH   5   6
HETATM    6  C   UNL     1     -11.075  13.980  68.997  1.00  0.00    -0.296 C  
BRANCH   6   7
HETATM    7  C   UNL     1     -10.354  14.141  67.612  1.00  0.00    -0.241 C  
BRANCH   7   8
HETATM    8  C   UNL     1      -9.249  15.225  67.772  1.00  0.00    -0.187 A  
HETATM    9  C   UNL     1      -9.542  16.601  67.749  1.00  0.00    -0.236 A  
HETATM   10  C   UNL     1      -8.547  17.563  67.955  1.00  0.00    -0.239 A  
HETATM   11  C   UNL     1      -7.911  14.860  68.037  1.00  0.00    -0.132 A  
HETATM   12  C   UNL     1      -7.233  17.174  68.190  1.00  0.00    -0.193 A  
HETATM   13  C   UNL     1      -6.915  15.822  68.228  1.00  0.00    -0.120 A  
ENDBRANCH   7   8
BRANCH   7  14
HETATM   14  C   UNL     1     -11.410  14.454  66.499  1.00  0.00    -0.350 C  
HETATM   15  N   UNL     1     -10.948  15.088  65.373  1.00  0.00    -0.352 N  
HETATM   16  H1  UNL     1     -11.636  15.292  64.648  1.00  0.00     0.000 HD 
HETATM   17  O   UNL     1     -12.612  14.214  66.573  1.00  0.00    -0.394 OA 
HETATM   18  H2  UNL     1      -9.966  15.341  65.266  1.00  0.00     0.000 HD 
ENDBRANCH   7  14
BRANCH   7  19
HETATM   19  C   UNL     1      -9.747  12.754  67.224  1.00  0.00    -0.206 A  
HETATM   20  C   UNL     1      -8.808  10.255  66.502  1.00  0.00    -0.150 A  
HETATM   21  N   UNL     1     -10.085  12.229  66.011  1.00  0.00    -0.243 NA 
HETATM   22  C   UNL     1      -8.434  10.796  67.723  1.00  0.00    -0.120 A  
HETATM   23  C   UNL     1      -9.623  11.005  65.682  1.00  0.00    -0.226 A  
HETATM   24  C   UNL     1      -8.899  12.063  68.093  1.00  0.00    -0.182 A  
ENDBRANCH   7  19
ENDBRANCH   6   7
ENDBRANCH   5   6
ENDBRANCH   4   5
BRANCH   4  25
HETATM   25  C   UNL     1     -13.273  13.581  70.766  1.00  0.00     0.095 C  
HETATM   26  C   UNL     1     -12.383  12.339  70.952  1.00  0.00    -0.363 C  
HETATM   27  C   UNL     1     -14.373  13.436  71.845  1.00  0.00     0.103 C  
ENDBRANCH   4  25
ENDBRANCH   2   4
TORSDOF 8
ENDMDL
MODEL      267
REMARK 921   NORMALIZED FREE ENERGY PREDICTED BY IDOCK:   -1.56 KCAL/MOL
REMARK 922        TOTAL FREE ENERGY PREDICTED BY IDOCK:   -4.00 KCAL/MOL
REMARK 923 INTER-LIGAND FREE ENERGY PREDICTED BY IDOCK:   -4.00 KCAL/MOL
REMARK 924 INTRA-LIGAND FREE ENERGY PREDICTED BY IDOCK:   -0.00 KCAL/MOL
REMARK 927      BINDING AFFINITY PREDICTED BY RF-SCORE:    0.00 PKD
ROOT
HETATM    1  C   UNL     1      -7.184   4.536  65.125  1.00  0.00    -0.068 C  
HETATM    2  C   UNL     1      -6.450   5.750  65.745  1.00  0.00    -0.043 C  
HETATM    3  C   UNL     1      -6.134   6.682  64.564  1.00  0.00    -0.035 C  
ENDROOT
BRANCH   2   4
HETATM    4  N   UNL     1      -7.229   6.349  66.881  1.00  0.00    -0.073 NA 
BRANCH   4   5
HETATM    5  C   UNL     1      -7.069   7.845  66.909  1.00  0.00    -0.078 C  
BRANCH   5   6
HETATM    6  C   UNL     1      -7.146   8.465  68.319  1.00  0.00    -0.085 C  
BRANCH   6   7
HETATM    7  C   UNL     1      -7.977   9.783  68.506  1.00  0.00    -0.089 C  
BRANCH   7   8
HETATM    8  C   UNL     1      -8.652  10.119  67.143  1.00  0.00    -0.125 A  
HETATM    9  C   UNL     1     -10.042  10.297  67.021  1.00  0.00    -0.268 A  
HETATM   10  C   UNL     1     -10.627  10.657  65.803  1.00  0.00    -0.168 A  
HETATM   11  C   UNL     1      -7.873  10.345  65.987  1.00  0.00    -0.142 A  
HETATM   12  C   UNL     1      -9.838  10.849  64.674  1.00  0.00    -0.350 A  
HETATM   13  C   UNL     1      -8.461  10.690  64.766  1.00  0.00    -0.102 A  
ENDBRANCH   7   8
BRANCH   7  14
HETATM   14  C   UNL     1      -7.054  10.916  69.066  1.00  0.00    -0.095 C  
HETATM   15  N   UNL     1      -7.544  12.197  69.004  1.00  0.00    -0.323 N  
HETATM   16  H1  UNL     1      -6.943  12.935  69.369  1.00  0.00     0.000 HD 
HETATM   17  O   UNL     1      -5.923  10.753  69.516  1.00  0.00    -0.043 OA 
HETATM   18  H2  UNL     1      -8.463  12.400  68.612  1.00  0.00     0.000 HD 
ENDBRANCH   7  14
BRANCH   7  19
HETATM   19  C   UNL     1      -9.038   9.525  69.624  1.00  0.00    -0.196 A  
HETATM   20  C   UNL     1     -10.912   8.926  71.568  1.00  0.00    -0.398 A  
HETATM   21  N   UNL     1      -8.791   8.523  70.515  1.00  0.00    -0.145 NA 
HETATM   22  C   UNL     1     -11.156   9.968  70.684  1.00  0.00    -0.408 A  
HETATM   23  C   UNL     1      -9.722   8.242  71.451  1.00  0.00    -0.183 A  
HETATM   24  C   UNL     1     -10.210  10.282  69.703  1.00  0.00    -0.268 A  
ENDBRANCH   7  19
ENDBRANCH   6   7
ENDBRANCH   5   6
ENDBRANCH   4   5
BRANCH   4  25
HETATM   25  C   UNL     1      -8.670   5.948  67.000  1.00  0.00    -0.109 C  
HETATM   26  C   UNL     1      -9.256   5.908  68.423  1.00  0.00    -0.118 C  
HETATM   27  C   UNL     1      -9.605   6.904  66.222  1.00  0.00    -0.089 C  
ENDBRANCH   4  25
ENDBRANCH   2   4
TORSDOF 8
ENDMDL
MODEL      268
REMARK 921   NORMALIZED FREE ENERGY PREDICTED BY IDOCK:   -1.31 KCAL/MOL
REMARK 922        TOTAL FREE ENERGY PREDICTED BY IDOCK:   -3.62 KCAL/MOL
REMARK 923 INTER-LIGAND FREE ENERGY PREDICTED BY IDOCK:   -2.66 KCAL/MOL
REMARK 924 INTRA-LIGAND FREE ENERGY PREDICTED BY IDOCK:   -0.96 KCAL/MOL
REMARK 927      BINDING AFFINITY PREDICTED BY RF-SCORE:    0.00 PKD
ROOT
HETATM    1  C   UNL     1      -8.184   8.595  69.381  1.00  0.00    -0.113 C  
HETATM    2  C   UNL     1      -6.876   7.778  69.522  1.00  0.00    -0.047 C  
HETATM    3  C   UNL     1      -6.132   8.402  70.714  1.00  0.00    -0.033 C  
ENDROOT
BRANCH   2   4
HETATM    4  N   UNL     1      -7.149   6.302  69.602  1.00  0.00    -0.070 NA 
BRANCH   4   5
HETATM    5  C   UNL     1      -6.417   5.564  68.514  1.00  0.00    -0.043 C  
BRANCH   5   6
HETATM    6  C   UNL     1      -7.335   4.936  67.446  1.00  0.00    -0.078 C  
BRANCH   6   7
HETATM    7  C   UNL     1      -7.432   5.638  66.045  1.00  0.00    -0.082 C  
BRANCH   7   8
HETATM    8  C   UNL     1      -7.868   4.566  65.004  1.00  0.00    -0.090 A  
HETATM    9  C   UNL     1      -7.549   3.204  65.155  1.00  0.00    -0.080 A  
HETATM   10  C   UNL     1      -7.999   2.244  64.243  1.00  0.00    -0.077 A  
HETATM   11  C   UNL     1      -8.682   4.915  63.904  1.00  0.00    -0.111 A  
HETATM   12  C   UNL     1      -8.779   2.620  63.155  1.00  0.00    -0.085 A  
HETATM   13  C   UNL     1      -9.117   3.956  62.984  1.00  0.00    -0.110 A  
ENDBRANCH   7   8
BRANCH   7  14
HETATM   14  C   UNL     1      -6.078   6.349  65.713  1.00  0.00    -0.030 C  
HETATM   15  N   UNL     1      -5.262   5.725  64.803  1.00  0.00    -0.010 N  
HETATM   16  H1  UNL     1      -4.379   6.187  64.587  1.00  0.00     0.000 HD 
HETATM   17  O   UNL     1      -5.677   7.389  66.228  1.00  0.00    -0.030 OA 
HETATM   18  H2  UNL     1      -5.525   4.843  64.365  1.00  0.00     0.000 HD 
ENDBRANCH   7  14
BRANCH   7  19
HETATM   19  C   UNL     1      -8.484   6.789  66.159  1.00  0.00    -0.135 A  
HETATM   20  C   UNL     1     -10.235   8.916  66.399  1.00  0.00    -0.273 A  
HETATM   21  N   UNL     1      -8.205   7.968  65.533  1.00  0.00    -0.131 NA 
HETATM   22  C   UNL     1     -10.540   7.710  67.012  1.00  0.00    -0.406 A  
HETATM   23  C   UNL     1      -9.068   8.996  65.670  1.00  0.00    -0.223 A  
HETATM   24  C   UNL     1      -9.663   6.626  66.889  1.00  0.00    -0.209 A  
ENDBRANCH   7  19
ENDBRANCH   6   7
ENDBRANCH   5   6
ENDBRANCH   4   5
BRANCH   4  25
HETATM   25  C   UNL     1      -6.954   5.648  70.938  1.00  0.00    -0.061 C  
HETATM   26  C   UNL     1      -8.228   5.357  71.751  1.00  0.00    -0.119 C  
HETATM   27  C   UNL     1      -6.250   4.276  70.815  1.00  0.00    -0.018 C  
ENDBRANCH   4  25
ENDBRANCH   2   4
TORSDOF 8
ENDMDL
MODEL      269
REMARK 921   NORMALIZED FREE ENERGY PREDICTED BY IDOCK:   -1.16 KCAL/MOL
REMARK 922        TOTAL FREE ENERGY PREDICTED BY IDOCK:   -3.41 KCAL/MOL
REMARK 923 INTER-LIGAND FREE ENERGY PREDICTED BY IDOCK:   -3.75 KCAL/MOL
REMARK 924 INTRA-LIGAND FREE ENERGY PREDICTED BY IDOCK:    0.34 KCAL/MOL
REMARK 927      BINDING AFFINITY PREDICTED BY RF-SCORE:    0.00 PKD
ROOT
HETATM    1  C   UNL     1      -6.779  19.887  69.475  1.00  0.00    -0.347 C  
HETATM    2  C   UNL     1      -7.365  18.770  68.576  1.00  0.00    -0.297 C  
HETATM    3  C   UNL     1      -7.620  19.436  67.214  1.00  0.00    -0.268 C  
ENDROOT
BRANCH   2   4
HETATM    4  N   UNL     1      -6.493  17.547  68.571  1.00  0.00    -0.180 NA 
BRANCH   4   5
HETATM    5  C   UNL     1      -7.190  16.391  69.235  1.00  0.00    -0.221 C  
BRANCH   5   6
HETATM    6  C   UNL     1      -8.655  16.673  69.625  1.00  0.00     0.583 C  
BRANCH   6   7
HETATM    7  C   UNL     1      -9.788  15.887  68.874  1.00  0.00    -0.226 C  
BRANCH   7   8
HETATM    8  C   UNL     1      -9.174  14.561  68.339  1.00  0.00    -0.196 A  
HETATM    9  C   UNL     1      -9.635  13.945  67.160  1.00  0.00    -0.247 A  
HETATM   10  C   UNL     1      -9.034  12.786  66.659  1.00  0.00    -0.152 A  
HETATM   11  C   UNL     1      -8.062  13.969  68.977  1.00  0.00     0.087 A  
HETATM   12  C   UNL     1      -7.955  12.211  67.323  1.00  0.00    -0.176 A  
HETATM   13  C   UNL     1      -7.471  12.802  68.484  1.00  0.00    -0.120 A  
ENDBRANCH   7   8
BRANCH   7  14
HETATM   14  C   UNL     1     -10.422  16.798  67.770  1.00  0.00    -0.335 C  
HETATM   15  N   UNL     1     -11.545  17.502  68.123  1.00  0.00     0.509 N  
HETATM   16  H1  UNL     1     -11.959  18.095  67.403  1.00  0.00     0.000 HD 
HETATM   17  O   UNL     1     -10.018  16.898  66.614  1.00  0.00    -0.271 OA 
HETATM   18  H2  UNL     1     -11.947  17.436  69.058  1.00  0.00     0.000 HD 
ENDBRANCH   7  14
BRANCH   7  19
HETATM   19  C   UNL     1     -10.940  15.616  69.895  1.00  0.00    -0.318 A  
HETATM   20  C   UNL     1     -13.074  15.176  71.597  1.00  0.00    -0.471 A  
HETATM   21  N   UNL     1     -11.982  14.838  69.485  1.00  0.00    -0.308 NA 
HETATM   22  C   UNL     1     -12.003  15.942  72.032  1.00  0.00    -0.602 A  
HETATM   23  C   UNL     1     -13.018  14.643  70.328  1.00  0.00    -0.120 A  
HETATM   24  C   UNL     1     -10.916  16.163  71.180  1.00  0.00     0.055 A  
ENDBRANCH   7  19
ENDBRANCH   6   7
ENDBRANCH   5   6
ENDBRANCH   4   5
BRANCH   4  25
HETATM   25  C   UNL     1      -5.894  17.147  67.255  1.00  0.00    -0.149 C  
HETATM   26  C   UNL     1      -5.187  15.781  67.209  1.00  0.00     0.122 C  
HETATM   27  C   UNL     1      -6.958  17.072  66.133  1.00  0.00    -0.103 C  
ENDBRANCH   4  25
ENDBRANCH   2   4
TORSDOF 8
ENDMDL
MODEL      270
REMARK 921   NORMALIZED FREE ENERGY PREDICTED BY IDOCK:    6.14 KCAL/MOL
REMARK 922        TOTAL FREE ENERGY PREDICTED BY IDOCK:    7.30 KCAL/MOL
REMARK 923 INTER-LIGAND FREE ENERGY PREDICTED BY IDOCK:    2.64 KCAL/MOL
REMARK 924 INTRA-LIGAND FREE ENERGY PREDICTED BY IDOCK:    4.66 KCAL/MOL
REMARK 927      BINDING AFFINITY PREDICTED BY RF-SCORE:    0.00 PKD
ROOT
HETATM    1  C   UNL     1      -6.091  11.638  66.207  1.00  0.00     0.192 C  
HETATM    2  C   UNL     1      -6.622  10.216  66.514  1.00  0.00    -0.077 C  
HETATM    3  C   UNL     1      -5.387   9.300  66.464  1.00  0.00    -0.045 C  
ENDROOT
BRANCH   2   4
HETATM    4  N   UNL     1      -7.426  10.186  67.783  1.00  0.00    -0.089 NA 
BRANCH   4   5
HETATM    5  C   UNL     1      -8.290   8.955  67.839  1.00  0.00    -0.118 C  
BRANCH   5   6
HETATM    6  C   UNL     1      -9.803   9.240  67.760  1.00  0.00    -0.210 C  
BRANCH   6   7
HETATM    7  C   UNL     1     -10.476  10.014  68.948  1.00  0.00    -0.229 C  
BRANCH   7   8
HETATM    8  C   UNL     1      -9.979   9.374  70.277  1.00  0.00    -0.284 A  
HETATM    9  C   UNL     1     -10.822   9.213  71.392  1.00  0.00    -0.419 A  
HETATM   10  C   UNL     1     -10.378   8.582  72.558  1.00  0.00    -0.315 A  
HETATM   11  C   UNL     1      -8.673   8.847  70.382  1.00  0.00    -0.200 A  
HETATM   12  C   UNL     1      -9.078   8.094  72.641  1.00  0.00    -0.317 A  
HETATM   13  C   UNL     1      -8.225   8.230  71.554  1.00  0.00    -0.164 A  
ENDBRANCH   7   8
BRANCH   7  14
HETATM   14  C   UNL     1     -12.031  10.009  68.771  1.00  0.00     0.654 C  
HETATM   15  N   UNL     1     -12.766  10.608  69.764  1.00  0.00    -0.456 N  
HETATM   16  H1  UNL     1     -13.779  10.604  69.649  1.00  0.00     0.000 HD 
HETATM   17  O   UNL     1     -12.639   9.483  67.843  1.00  0.00     4.312 OA 
HETATM   18  H2  UNL     1     -12.321  11.034  70.576  1.00  0.00     0.000 HD 
ENDBRANCH   7  14
BRANCH   7  19
HETATM   19  C   UNL     1     -10.055  11.516  68.841  1.00  0.00    -0.127 A  
HETATM   20  C   UNL     1      -9.452  14.209  68.661  1.00  0.00    -0.163 A  
HETATM   21  N   UNL     1     -10.552  12.383  69.768  1.00  0.00     0.581 NA 
HETATM   22  C   UNL     1      -8.917  13.327  67.733  1.00  0.00    -0.196 A  
HETATM   23  C   UNL     1     -10.252  13.694  69.658  1.00  0.00     0.712 A  
HETATM   24  C   UNL     1      -9.211  11.962  67.821  1.00  0.00    -0.184 A  
ENDBRANCH   7  19
ENDBRANCH   6   7
ENDBRANCH   5   6
ENDBRANCH   4   5
BRANCH   4  25
HETATM   25  C   UNL     1      -6.676  10.391  69.066  1.00  0.00    -0.061 C  
HETATM   26  C   UNL     1      -5.268   9.773  69.144  1.00  0.00    -0.036 C  
HETATM   27  C   UNL     1      -6.459  11.891  69.378  1.00  0.00    -0.119 C  
ENDBRANCH   4  25
ENDBRANCH   2   4
TORSDOF 8
ENDMDL
MODEL      271
REMARK 921   NORMALIZED FREE ENERGY PREDICTED BY IDOCK:   13.52 KCAL/MOL
REMARK 922        TOTAL FREE ENERGY PREDICTED BY IDOCK:   18.14 KCAL/MOL
REMARK 923 INTER-LIGAND FREE ENERGY PREDICTED BY IDOCK:    5.13 KCAL/MOL
REMARK 924 INTRA-LIGAND FREE ENERGY PREDICTED BY IDOCK:   13.00 KCAL/MOL
REMARK 927      BINDING AFFINITY PREDICTED BY RF-SCORE:    0.00 PKD
ROOT
HETATM    1  C   UNL     1      -7.737  10.428  67.503  1.00  0.00    -0.094 C  
HETATM    2  C   UNL     1      -6.754  10.776  68.649  1.00  0.00    -0.058 C  
HETATM    3  C   UNL     1      -5.357  10.439  68.104  1.00  0.00    -0.034 C  
ENDROOT
BRANCH   2   4
HETATM    4  N   UNL     1      -6.959  12.178  69.148  1.00  0.00    -0.085 NA 
BRANCH   4   5
HETATM    5  C   UNL     1      -8.323  12.333  69.764  1.00  0.00     2.079 C  
BRANCH   5   6
HETATM    6  C   UNL     1      -9.468  12.467  68.741  1.00  0.00     0.087 C  
BRANCH   6   7
HETATM    7  C   UNL     1      -9.336  13.554  67.617  1.00  0.00    -0.216 C  
BRANCH   7   8
HETATM    8  C   UNL     1     -10.639  14.407  67.623  1.00  0.00    -0.260 A  
HETATM    9  C   UNL     1     -11.851  13.924  67.095  1.00  0.00    -0.445 A  
HETATM   10  C   UNL     1     -13.027  14.677  67.162  1.00  0.00     1.782 A  
HETATM   11  C   UNL     1     -10.671  15.674  68.243  1.00  0.00    -0.283 A  
HETATM   12  C   UNL     1     -13.023  15.934  67.758  1.00  0.00     3.150 A  
HETATM   13  C   UNL     1     -11.844  16.434  68.295  1.00  0.00     0.284 A  
ENDBRANCH   7   8
BRANCH   7  14
HETATM   14  C   UNL     1      -9.022  12.865  66.247  1.00  0.00     0.083 C  
HETATM   15  N   UNL     1      -9.889  13.121  65.215  1.00  0.00    -0.502 N  
HETATM   16  H1  UNL     1      -9.684  12.671  64.323  1.00  0.00     0.000 HD 
HETATM   17  O   UNL     1      -8.091  12.090  66.039  1.00  0.00     0.256 OA 
HETATM   18  H2  UNL     1     -10.697  13.730  65.334  1.00  0.00     0.000 HD 
ENDBRANCH   7  14
BRANCH   7  19
HETATM   19  C   UNL     1      -8.078  14.425  67.938  1.00  0.00    -0.151 A  
HETATM   20  C   UNL     1      -5.933  16.036  68.607  1.00  0.00    -0.104 A  
HETATM   21  N   UNL     1      -7.718  14.562  69.246  1.00  0.00    -0.088 NA 
HETATM   22  C   UNL     1      -6.275  15.876  67.272  1.00  0.00    -0.117 A  
HETATM   23  C   UNL     1      -6.674  15.359  69.551  1.00  0.00    -0.174 A  
HETATM   24  C   UNL     1      -7.354  15.056  66.924  1.00  0.00     0.259 A  
ENDBRANCH   7  19
ENDBRANCH   6   7
ENDBRANCH   5   6
ENDBRANCH   4   5
BRANCH   4  25
HETATM   25  C   UNL     1      -5.887  12.745  70.032  1.00  0.00    -0.149 C  
HETATM   26  C   UNL     1      -6.228  14.049  70.774  1.00  0.00    -0.075 C  
HETATM   27  C   UNL     1      -5.477  11.758  71.152  1.00  0.00    -0.013 C  
ENDBRANCH   4  25
ENDBRANCH   2   4
TORSDOF 8
ENDMDL
MODEL      272
REMARK 921   NORMALIZED FREE ENERGY PREDICTED BY IDOCK:   15.42 KCAL/MOL
REMARK 922        TOTAL FREE ENERGY PREDICTED BY IDOCK:   20.92 KCAL/MOL
REMARK 923 INTER-LIGAND FREE ENERGY PREDICTED BY IDOCK:   17.31 KCAL/MOL
REMARK 924 INTRA-LIGAND FREE ENERGY PREDICTED BY IDOCK:    3.62 KCAL/MOL
REMARK 927      BINDING AFFINITY PREDICTED BY RF-SCORE:    0.00 PKD
ROOT
HETATM    1  C   UNL     1      -5.529  19.144  68.714  1.00  0.00    -0.206 C  
HETATM    2  C   UNL     1      -6.475  18.014  68.237  1.00  0.00    -0.194 C  
HETATM    3  C   UNL     1      -7.309  18.631  67.102  1.00  0.00    -0.218 C  
ENDROOT
BRANCH   2   4
HETATM    4  N   UNL     1      -5.718  16.759  67.905  1.00  0.00    -0.112 NA 
BRANCH   4   5
HETATM    5  C   UNL     1      -5.752  15.793  69.059  1.00  0.00    -0.105 C  
BRANCH   5   6
HETATM    6  C   UNL     1      -7.171  15.448  69.554  1.00  0.00    -0.202 C  
BRANCH   6   7
HETATM    7  C   UNL     1      -7.601  13.939  69.583  1.00  0.00     0.479 C  
BRANCH   7   8
HETATM    8  C   UNL     1      -6.957  13.284  70.840  1.00  0.00     2.313 A  
HETATM    9  C   UNL     1      -6.505  11.951  70.841  1.00  0.00     1.321 A  
HETATM   10  C   UNL     1      -5.874  11.395  71.959  1.00  0.00     1.287 A  
HETATM   11  C   UNL     1      -6.723  14.040  72.009  1.00  0.00     2.243 A  
HETATM   12  C   UNL     1      -5.679  12.157  73.106  1.00  0.00     1.826 A  
HETATM   13  C   UNL     1      -6.106  13.479  73.132  1.00  0.00     1.246 A  
ENDBRANCH   7   8
BRANCH   7  14
HETATM   14  C   UNL     1      -7.218  13.253  68.230  1.00  0.00    -0.108 C  
HETATM   15  N   UNL     1      -5.939  12.765  68.127  1.00  0.00    -0.076 N  
HETATM   16  H1  UNL     1      -5.689  12.318  67.245  1.00  0.00     0.000 HD 
HETATM   17  O   UNL     1      -7.953  13.154  67.250  1.00  0.00    -0.173 OA 
HETATM   18  H2  UNL     1      -5.272  12.845  68.894  1.00  0.00     0.000 HD 
ENDBRANCH   7  14
BRANCH   7  19
HETATM   19  C   UNL     1      -9.162  13.886  69.644  1.00  0.00     1.159 A  
HETATM   20  C   UNL     1     -11.922  13.721  69.623  1.00  0.00    -0.399 A  
HETATM   21  N   UNL     1      -9.765  12.680  69.442  1.00  0.00     0.792 NA 
HETATM   22  C   UNL     1     -11.315  14.946  69.860  1.00  0.00    -0.311 A  
HETATM   23  C   UNL     1     -11.113  12.623  69.427  1.00  0.00    -0.065 A  
HETATM   24  C   UNL     1      -9.919  15.036  69.880  1.00  0.00    -0.026 A  
ENDBRANCH   7  19
ENDBRANCH   6   7
ENDBRANCH   5   6
ENDBRANCH   4   5
BRANCH   4  25
HETATM   25  C   UNL     1      -6.060  16.083  66.610  1.00  0.00     0.735 C  
HETATM   26  C   UNL     1      -5.313  16.579  65.359  1.00  0.00     3.370 C  
HETATM   27  C   UNL     1      -5.775  14.563  66.656  1.00  0.00     2.730 C  
ENDBRANCH   4  25
ENDBRANCH   2   4
TORSDOF 8
ENDMDL
MODEL      273
REMARK 921   NORMALIZED FREE ENERGY PREDICTED BY IDOCK:   15.44 KCAL/MOL
REMARK 922        TOTAL FREE ENERGY PREDICTED BY IDOCK:   20.95 KCAL/MOL
REMARK 923 INTER-LIGAND FREE ENERGY PREDICTED BY IDOCK:    6.54 KCAL/MOL
REMARK 924 INTRA-LIGAND FREE ENERGY PREDICTED BY IDOCK:   14.41 KCAL/MOL
REMARK 927      BINDING AFFINITY PREDICTED BY RF-SCORE:    0.00 PKD
ROOT
HETATM    1  C   UNL     1      -5.531  19.134  68.700  1.00  0.00    -0.205 C  
HETATM    2  C   UNL     1      -6.476  18.018  68.191  1.00  0.00    -0.191 C  
HETATM    3  C   UNL     1      -7.295  18.661  67.061  1.00  0.00    -0.221 C  
ENDROOT
BRANCH   2   4
HETATM    4  N   UNL     1      -5.720  16.767  67.841  1.00  0.00    -0.112 NA 
BRANCH   4   5
HETATM    5  C   UNL     1      -5.779  15.773  68.970  1.00  0.00    -0.105 C  
BRANCH   5   6
HETATM    6  C   UNL     1      -7.209  15.385  69.397  1.00  0.00    -0.203 C  
BRANCH   6   7
HETATM    7  C   UNL     1      -8.107  14.612  68.367  1.00  0.00    -0.147 C  
BRANCH   7   8
HETATM    8  C   UNL     1      -7.676  13.116  68.386  1.00  0.00    -0.138 A  
HETATM    9  C   UNL     1      -7.681  12.321  67.225  1.00  0.00    -0.161 A  
HETATM   10  C   UNL     1      -7.234  10.996  67.246  1.00  0.00    -0.102 A  
HETATM   11  C   UNL     1      -7.177  12.523  69.566  1.00  0.00     0.359 A  
HETATM   12  C   UNL     1      -6.770  10.431  68.428  1.00  0.00    -0.060 A  
HETATM   13  C   UNL     1      -6.745  11.193  69.589  1.00  0.00    -0.134 A  
ENDBRANCH   7   8
BRANCH   7  14
HETATM   14  C   UNL     1      -8.009  15.295  66.962  1.00  0.00    -0.208 C  
HETATM   15  N   UNL     1      -6.960  14.913  66.164  1.00  0.00     2.643 N  
HETATM   16  H1  UNL     1      -6.896  15.358  65.248  1.00  0.00     0.000 HD 
HETATM   17  O   UNL     1      -8.767  16.164  66.540  1.00  0.00    -0.240 OA 
HETATM   18  H2  UNL     1      -6.279  14.219  66.470  1.00  0.00     0.000 HD 
ENDBRANCH   7  14
BRANCH   7  19
HETATM   19  C   UNL     1      -9.598  14.787  68.806  1.00  0.00    -0.215 A  
HETATM   20  C   UNL     1     -12.260  15.161  69.453  1.00  0.00    -0.237 A  
HETATM   21  N   UNL     1     -10.567  14.399  67.929  1.00  0.00    -0.238 NA 
HETATM   22  C   UNL     1     -11.279  15.529  70.363  1.00  0.00    -0.356 A  
HETATM   23  C   UNL     1     -11.860  14.598  68.261  1.00  0.00    -0.298 A  
HETATM   24  C   UNL     1      -9.930  15.336  70.046  1.00  0.00    -0.125 A  
ENDBRANCH   7  19
ENDBRANCH   6   7
ENDBRANCH   5   6
ENDBRANCH   4   5
BRANCH   4  25
HETATM   25  C   UNL     1      -6.044  16.126  66.525  1.00  0.00     0.847 C  
HETATM   26  C   UNL     1      -5.545  16.855  65.264  1.00  0.00     2.453 C  
HETATM   27  C   UNL     1      -5.447  14.702  66.410  1.00  0.00     3.936 C  
ENDBRANCH   4  25
ENDBRANCH   2   4
TORSDOF 8
ENDMDL
