MODEL        1
REMARK 921   NORMALIZED FREE ENERGY PREDICTED BY IDOCK:   -6.57 KCAL/MOL
REMARK 922        TOTAL FREE ENERGY PREDICTED BY IDOCK:   -9.89 KCAL/MOL
REMARK 923 INTER-LIGAND FREE ENERGY PREDICTED BY IDOCK:   -9.26 KCAL/MOL
REMARK 924 INTRA-LIGAND FREE ENERGY PREDICTED BY IDOCK:   -0.63 KCAL/MOL
REMARK 927      BINDING AFFINITY PREDICTED BY RF-SCORE:    0.00 PKD
ROOT
HETATM    1  C   UNL     1     -10.154   5.212  70.500  1.00  0.00    -0.326 C  
HETATM    2  C   UNL     1      -9.335   6.415  70.942  1.00  0.00    -0.161 C  
ENDROOT
BRANCH   2   3
HETATM    3  N   UNL     1     -10.188   7.497  71.451  1.00  0.00    -0.187 NA 
BRANCH   3   4
HETATM    4  C   UNL     1     -10.391   7.611  72.903  1.00  0.00    -0.322 C  
BRANCH   4   5
HETATM    5  C   UNL     1      -9.049   7.563  73.655  1.00  0.00    -0.255 C  
HETATM    6  H   UNL     1      -7.384   8.634  73.767  1.00  0.00     0.000 HD 
HETATM    7  O   UNL     1      -8.213   8.663  73.303  1.00  0.00    -0.411 OA 
ENDBRANCH   4   5
ENDBRANCH   3   4
BRANCH   3   8
HETATM    8  C   UNL     1     -10.623   8.497  70.592  1.00  0.00    -0.209 A  
HETATM    9  C   UNL     1     -12.449  11.820  70.924  1.00  0.00    -0.416 C  
HETATM   10  C   UNL     1     -10.341   8.496  69.221  1.00  0.00    -0.227 A  
HETATM   11  C   UNL     1     -10.754   9.543  68.382  1.00  0.00    -0.230 A  
HETATM   12  C   UNL     1     -11.348   9.590  71.083  1.00  0.00    -0.440 A  
HETATM   13  C   UNL     1     -11.440  10.652  68.894  1.00  0.00    -0.265 A  
HETATM   14  C   UNL     1     -11.732  10.672  70.267  1.00  0.00    -0.433 A  
BRANCH  13  15
HETATM   15  N   UNL     1     -11.908  11.700  68.076  1.00  0.00    -0.573 NA 
HETATM   16  H   UNL     1     -12.327  12.553  68.447  1.00  0.00     0.000 HD 
BRANCH  15  17
HETATM   17  N   UNL     1     -11.760  11.486  66.855  1.00  0.00    -0.513 NA 
HETATM   18  H   UNL     1     -11.606  10.555  66.466  1.00  0.00     0.000 HD 
BRANCH  17  19
HETATM   19  C   UNL     1     -11.823  12.615  66.090  1.00  0.00    -0.418 A  
HETATM   20  N   UNL     1     -12.673  12.892  65.112  1.00  0.00    -0.722 NA 
HETATM   21  C   UNL     1     -12.434  14.150  64.592  1.00  0.00    -0.350 A  
HETATM   22  C   UNL     1     -11.394  14.820  65.182  1.00  0.00    -0.379 A  
HETATM   23  N   UNL     1     -10.928  16.126  64.851  1.00  0.00    -0.417 N  
HETATM   24  S   UNL     1     -10.685  13.889  66.410  1.00  0.00    -0.283 SA 
HETATM   25  O   UNL     1     -11.532  16.714  63.943  1.00  0.00    -1.186 OA 
HETATM   26  O   UNL     1      -9.970  16.584  65.488  1.00  0.00    -0.541 OA 
ENDBRANCH  17  19
ENDBRANCH  15  17
ENDBRANCH  13  15
ENDBRANCH   3   8
ENDBRANCH   2   3
TORSDOF 7
ENDMDL
MODEL        2
REMARK 921   NORMALIZED FREE ENERGY PREDICTED BY IDOCK:   -6.37 KCAL/MOL
REMARK 922        TOTAL FREE ENERGY PREDICTED BY IDOCK:   -9.60 KCAL/MOL
REMARK 923 INTER-LIGAND FREE ENERGY PREDICTED BY IDOCK:   -8.93 KCAL/MOL
REMARK 924 INTRA-LIGAND FREE ENERGY PREDICTED BY IDOCK:   -0.67 KCAL/MOL
REMARK 927      BINDING AFFINITY PREDICTED BY RF-SCORE:    0.00 PKD
ROOT
HETATM    1  C   UNL     1      -8.520   8.124  72.692  1.00  0.00    -0.251 C  
HETATM    2  C   UNL     1      -9.958   7.772  73.040  1.00  0.00    -0.293 C  
ENDROOT
BRANCH   2   3
HETATM    3  N   UNL     1     -10.751   7.475  71.840  1.00  0.00    -0.214 NA 
BRANCH   3   4
HETATM    4  C   UNL     1     -11.380   6.150  71.722  1.00  0.00    -0.291 C  
BRANCH   4   5
HETATM    5  C   UNL     1     -11.268   5.364  73.040  1.00  0.00    -0.311 C  
HETATM    6  H   UNL     1     -10.314   3.767  73.726  1.00  0.00     0.000 HD 
HETATM    7  O   UNL     1     -10.383   4.252  72.912  1.00  0.00    -0.163 OA 
ENDBRANCH   4   5
ENDBRANCH   3   4
BRANCH   3   8
HETATM    8  C   UNL     1     -11.056   8.489  70.943  1.00  0.00    -0.255 A  
HETATM    9  C   UNL     1     -12.792  11.873  71.089  1.00  0.00    -0.346 C  
HETATM   10  C   UNL     1     -10.627   8.479  69.611  1.00  0.00    -0.221 A  
HETATM   11  C   UNL     1     -10.910   9.540  68.737  1.00  0.00    -0.173 A  
HETATM   12  C   UNL     1     -11.792   9.606  71.357  1.00  0.00    -0.484 A  
HETATM   13  C   UNL     1     -11.609  10.672  69.176  1.00  0.00    -0.271 A  
HETATM   14  C   UNL     1     -12.048  10.701  70.509  1.00  0.00    -0.448 A  
BRANCH  13  15
HETATM   15  N   UNL     1     -11.949  11.736  68.316  1.00  0.00    -0.528 NA 
HETATM   16  H   UNL     1     -12.428  12.578  68.633  1.00  0.00     0.000 HD 
BRANCH  15  17
HETATM   17  N   UNL     1     -11.606  11.549  67.129  1.00  0.00    -0.557 NA 
HETATM   18  H   UNL     1     -11.281  10.648  66.777  1.00  0.00     0.000 HD 
BRANCH  17  19
HETATM   19  C   UNL     1     -11.709  12.664  66.349  1.00  0.00    -0.405 A  
HETATM   20  N   UNL     1     -12.641  12.950  65.451  1.00  0.00    -0.597 NA 
HETATM   21  C   UNL     1     -12.415  14.189  64.882  1.00  0.00    -0.401 A  
HETATM   22  C   UNL     1     -11.304  14.836  65.354  1.00  0.00    -0.356 A  
HETATM   23  N   UNL     1     -10.832  16.120  64.950  1.00  0.00    -0.413 N  
HETATM   24  S   UNL     1     -10.507  13.907  66.529  1.00  0.00    -0.285 SA 
HETATM   25  O   UNL     1     -11.503  16.708  64.091  1.00  0.00    -1.131 OA 
HETATM   26  O   UNL     1      -9.803  16.559  65.481  1.00  0.00    -0.537 OA 
ENDBRANCH  17  19
ENDBRANCH  15  17
ENDBRANCH  13  15
ENDBRANCH   3   8
ENDBRANCH   2   3
TORSDOF 7
ENDMDL
MODEL        3
REMARK 921   NORMALIZED FREE ENERGY PREDICTED BY IDOCK:   -6.34 KCAL/MOL
REMARK 922        TOTAL FREE ENERGY PREDICTED BY IDOCK:   -9.56 KCAL/MOL
REMARK 923 INTER-LIGAND FREE ENERGY PREDICTED BY IDOCK:   -8.89 KCAL/MOL
REMARK 924 INTRA-LIGAND FREE ENERGY PREDICTED BY IDOCK:   -0.67 KCAL/MOL
REMARK 927      BINDING AFFINITY PREDICTED BY RF-SCORE:    0.00 PKD
ROOT
HETATM    1  C   UNL     1     -14.265   7.676  71.485  1.00  0.00    -0.564 C  
HETATM    2  C   UNL     1     -13.788   8.958  72.152  1.00  0.00    -0.473 C  
ENDROOT
BRANCH   2   3
HETATM    3  N   UNL     1     -12.569   9.479  71.520  1.00  0.00    -0.348 NA 
BRANCH   3   4
HETATM    4  C   UNL     1     -11.491   8.536  71.183  1.00  0.00    -0.276 C  
BRANCH   4   5
HETATM    5  C   UNL     1     -10.401   8.531  72.269  1.00  0.00    -0.332 C  
HETATM    6  H   UNL     1      -8.478   8.988  72.427  1.00  0.00     0.000 HD 
HETATM    7  O   UNL     1      -9.151   8.991  71.757  1.00  0.00    -0.340 OA 
ENDBRANCH   4   5
ENDBRANCH   3   4
BRANCH   3   8
HETATM    8  C   UNL     1     -12.527  10.794  71.077  1.00  0.00    -0.420 A  
HETATM    9  C   UNL     1     -13.655  14.186  72.386  1.00  0.00    -0.632 C  
HETATM   10  C   UNL     1     -11.870  11.179  69.902  1.00  0.00    -0.439 A  
HETATM   11  C   UNL     1     -11.803  12.522  69.501  1.00  0.00    -0.375 A  
HETATM   12  C   UNL     1     -13.124  11.816  71.825  1.00  0.00    -0.480 A  
HETATM   13  C   UNL     1     -12.366  13.539  70.282  1.00  0.00    -0.300 A  
HETATM   14  C   UNL     1     -13.029  13.174  71.464  1.00  0.00    -0.412 A  
BRANCH  13  15
HETATM   15  N   UNL     1     -12.356  14.893  69.890  1.00  0.00    -0.475 NA 
HETATM   16  H   UNL     1     -12.568  15.660  70.526  1.00  0.00     0.000 HD 
BRANCH  15  17
HETATM   17  N   UNL     1     -12.061  15.063  68.688  1.00  0.00    -0.583 NA 
HETATM   18  H   UNL     1     -12.465  14.512  67.930  1.00  0.00     0.000 HD 
BRANCH  17  19
HETATM   19  C   UNL     1     -11.147  16.056  68.484  1.00  0.00    -0.347 A  
HETATM   20  N   UNL     1     -10.824  17.049  69.300  1.00  0.00    -0.221 NA 
HETATM   21  C   UNL     1      -9.834  17.839  68.748  1.00  0.00    -0.343 A  
HETATM   22  C   UNL     1      -9.413  17.438  67.508  1.00  0.00    -0.250 A  
HETATM   23  N   UNL     1      -8.409  18.061  66.708  1.00  0.00    -0.244 N  
HETATM   24  S   UNL     1     -10.249  16.054  66.996  1.00  0.00    -0.287 SA 
HETATM   25  O   UNL     1      -7.861  19.061  67.192  1.00  0.00    -0.242 OA 
HETATM   26  O   UNL     1      -8.151  17.566  65.603  1.00  0.00    -0.508 OA 
ENDBRANCH  17  19
ENDBRANCH  15  17
ENDBRANCH  13  15
ENDBRANCH   3   8
ENDBRANCH   2   3
TORSDOF 7
ENDMDL
MODEL        4
REMARK 921   NORMALIZED FREE ENERGY PREDICTED BY IDOCK:   -6.25 KCAL/MOL
REMARK 922        TOTAL FREE ENERGY PREDICTED BY IDOCK:   -9.44 KCAL/MOL
REMARK 923 INTER-LIGAND FREE ENERGY PREDICTED BY IDOCK:   -8.92 KCAL/MOL
REMARK 924 INTRA-LIGAND FREE ENERGY PREDICTED BY IDOCK:   -0.51 KCAL/MOL
REMARK 927      BINDING AFFINITY PREDICTED BY RF-SCORE:    0.00 PKD
ROOT
HETATM    1  C   UNL     1     -12.453  11.869  63.340  1.00  0.00    -0.582 C  
HETATM    2  C   UNL     1     -11.278  12.276  64.216  1.00  0.00    -0.350 C  
ENDROOT
BRANCH   2   3
HETATM    3  N   UNL     1     -11.683  13.219  65.266  1.00  0.00    -0.318 NA 
BRANCH   3   4
HETATM    4  C   UNL     1     -12.285  14.501  64.868  1.00  0.00    -0.402 C  
BRANCH   4   5
HETATM    5  C   UNL     1     -11.208  15.582  64.674  1.00  0.00    -0.371 C  
HETATM    6  H   UNL     1     -11.011  17.312  63.725  1.00  0.00     0.000 HD 
HETATM    7  O   UNL     1     -11.676  16.644  63.845  1.00  0.00    -1.153 OA 
ENDBRANCH   4   5
ENDBRANCH   3   4
BRANCH   3   8
HETATM    8  C   UNL     1     -11.676  12.820  66.596  1.00  0.00    -0.393 A  
HETATM    9  C   UNL     1     -12.274  14.465  69.976  1.00  0.00    -0.408 C  
HETATM   10  C   UNL     1     -11.501  11.487  66.987  1.00  0.00    -0.290 A  
HETATM   11  C   UNL     1     -11.544  11.103  68.337  1.00  0.00    -0.376 A  
HETATM   12  C   UNL     1     -11.886  13.752  67.619  1.00  0.00    -0.413 A  
HETATM   13  C   UNL     1     -11.799  12.040  69.347  1.00  0.00    -0.324 A  
HETATM   14  C   UNL     1     -11.979  13.381  68.975  1.00  0.00    -0.357 A  
BRANCH  13  15
HETATM   15  N   UNL     1     -11.807  11.698  70.715  1.00  0.00    -0.417 NA 
HETATM   16  H   UNL     1     -11.002  11.826  71.327  1.00  0.00     0.000 HD 
BRANCH  15  17
HETATM   17  N   UNL     1     -12.895  11.225  71.105  1.00  0.00    -0.374 NA 
HETATM   18  H   UNL     1     -13.751  11.776  71.176  1.00  0.00     0.000 HD 
BRANCH  17  19
HETATM   19  C   UNL     1     -12.830   9.900  71.428  1.00  0.00    -0.405 A  
HETATM   20  N   UNL     1     -13.832   9.044  71.571  1.00  0.00    -0.362 NA 
HETATM   21  C   UNL     1     -13.362   7.781  71.878  1.00  0.00    -0.266 A  
HETATM   22  C   UNL     1     -11.998   7.690  71.970  1.00  0.00    -0.302 A  
HETATM   23  N   UNL     1     -11.243   6.518  72.271  1.00  0.00    -0.261 N  
HETATM   24  S   UNL     1     -11.263   9.190  71.673  1.00  0.00    -0.381 SA 
HETATM   25  O   UNL     1     -11.889   5.479  72.459  1.00  0.00    -0.252 OA 
HETATM   26  O   UNL     1     -10.009   6.613  72.316  1.00  0.00    -0.167 OA 
ENDBRANCH  17  19
ENDBRANCH  15  17
ENDBRANCH  13  15
ENDBRANCH   3   8
ENDBRANCH   2   3
TORSDOF 7
ENDMDL
MODEL        5
REMARK 921   NORMALIZED FREE ENERGY PREDICTED BY IDOCK:   -6.20 KCAL/MOL
REMARK 922        TOTAL FREE ENERGY PREDICTED BY IDOCK:   -9.36 KCAL/MOL
REMARK 923 INTER-LIGAND FREE ENERGY PREDICTED BY IDOCK:   -8.70 KCAL/MOL
REMARK 924 INTRA-LIGAND FREE ENERGY PREDICTED BY IDOCK:   -0.66 KCAL/MOL
REMARK 927      BINDING AFFINITY PREDICTED BY RF-SCORE:    0.00 PKD
ROOT
HETATM    1  C   UNL     1     -12.431  12.253  63.500  1.00  0.00    -0.642 C  
HETATM    2  C   UNL     1     -11.171  12.527  64.306  1.00  0.00    -0.355 C  
ENDROOT
BRANCH   2   3
HETATM    3  N   UNL     1     -11.458  13.306  65.518  1.00  0.00    -0.306 NA 
BRANCH   3   4
HETATM    4  C   UNL     1     -11.959  14.681  65.370  1.00  0.00    -0.275 C  
BRANCH   4   5
HETATM    5  C   UNL     1     -10.820  15.649  65.007  1.00  0.00    -0.450 C  
HETATM    6  H   UNL     1     -10.592  17.349  64.013  1.00  0.00     0.000 HD 
HETATM    7  O   UNL     1     -11.295  16.752  64.237  1.00  0.00    -1.170 OA 
ENDBRANCH   4   5
ENDBRANCH   3   4
BRANCH   3   8
HETATM    8  C   UNL     1     -11.443  12.685  66.759  1.00  0.00    -0.351 A  
HETATM    9  C   UNL     1     -12.165  13.692  70.358  1.00  0.00    -0.434 C  
HETATM   10  C   UNL     1     -11.200  11.316  66.920  1.00  0.00    -0.300 A  
HETATM   11  C   UNL     1     -11.237  10.704  68.184  1.00  0.00    -0.366 A  
HETATM   12  C   UNL     1     -11.714  13.415  67.923  1.00  0.00    -0.396 A  
HETATM   13  C   UNL     1     -11.552  11.438  69.334  1.00  0.00    -0.323 A  
HETATM   14  C   UNL     1     -11.801  12.813  69.193  1.00  0.00    -0.352 A  
BRANCH  13  15
HETATM   15  N   UNL     1     -11.556  10.867  70.622  1.00  0.00    -0.408 NA 
HETATM   16  H   UNL     1     -12.270  11.071  71.321  1.00  0.00     0.000 HD 
BRANCH  15  17
HETATM   17  N   UNL     1     -10.601  10.088  70.827  1.00  0.00    -0.378 NA 
HETATM   18  H   UNL     1      -9.630  10.332  70.634  1.00  0.00     0.000 HD 
BRANCH  17  19
HETATM   19  C   UNL     1     -10.982   8.879  71.334  1.00  0.00    -0.310 A  
HETATM   20  N   UNL     1     -12.070   8.179  71.047  1.00  0.00    -0.256 NA 
HETATM   21  C   UNL     1     -12.089   6.988  71.748  1.00  0.00    -0.336 A  
HETATM   22  C   UNL     1     -11.010   6.795  72.569  1.00  0.00    -0.247 A  
HETATM   23  N   UNL     1     -10.768   5.663  73.404  1.00  0.00    -0.262 N  
HETATM   24  S   UNL     1      -9.935   8.105  72.486  1.00  0.00    -0.313 SA 
HETATM   25  O   UNL     1     -11.620   4.764  73.373  1.00  0.00    -0.323 OA 
HETATM   26  O   UNL     1      -9.736   5.651  74.087  1.00  0.00    -0.152 OA 
ENDBRANCH  17  19
ENDBRANCH  15  17
ENDBRANCH  13  15
ENDBRANCH   3   8
ENDBRANCH   2   3
TORSDOF 7
ENDMDL
MODEL        6
REMARK 921   NORMALIZED FREE ENERGY PREDICTED BY IDOCK:   -6.20 KCAL/MOL
REMARK 922        TOTAL FREE ENERGY PREDICTED BY IDOCK:   -9.36 KCAL/MOL
REMARK 923 INTER-LIGAND FREE ENERGY PREDICTED BY IDOCK:   -8.62 KCAL/MOL
REMARK 924 INTRA-LIGAND FREE ENERGY PREDICTED BY IDOCK:   -0.74 KCAL/MOL
REMARK 927      BINDING AFFINITY PREDICTED BY RF-SCORE:    0.00 PKD
ROOT
HETATM    1  C   UNL     1     -10.401   8.389  72.360  1.00  0.00    -0.399 C  
HETATM    2  C   UNL     1     -10.770   8.908  70.979  1.00  0.00    -0.247 C  
ENDROOT
BRANCH   2   3
HETATM    3  N   UNL     1     -11.945   9.788  71.023  1.00  0.00    -0.327 NA 
BRANCH   3   4
HETATM    4  C   UNL     1     -12.963   9.551  72.058  1.00  0.00    -0.426 C  
BRANCH   4   5
HETATM    5  C   UNL     1     -14.151   8.753  71.493  1.00  0.00    -0.318 C  
HETATM    6  H   UNL     1     -14.656   6.854  71.228  1.00  0.00     0.000 HD 
HETATM    7  O   UNL     1     -13.923   7.347  71.576  1.00  0.00    -0.410 OA 
ENDBRANCH   4   5
ENDBRANCH   3   4
BRANCH   3   8
HETATM    8  C   UNL     1     -11.986  10.929  70.234  1.00  0.00    -0.361 A  
HETATM    9  C   UNL     1     -12.596  14.645  70.782  1.00  0.00    -0.415 C  
HETATM   10  C   UNL     1     -11.670  10.920  68.870  1.00  0.00    -0.376 A  
HETATM   11  C   UNL     1     -11.674  12.096  68.104  1.00  0.00    -0.402 A  
HETATM   12  C   UNL     1     -12.318  12.169  70.793  1.00  0.00    -0.391 A  
HETATM   13  C   UNL     1     -11.965  13.336  68.686  1.00  0.00    -0.310 A  
HETATM   14  C   UNL     1     -12.284  13.367  70.053  1.00  0.00    -0.367 A  
BRANCH  13  15
HETATM   15  N   UNL     1     -12.021  14.531  67.940  1.00  0.00    -0.533 NA 
HETATM   16  H   UNL     1     -12.809  15.177  67.979  1.00  0.00     0.000 HD 
BRANCH  15  17
HETATM   17  N   UNL     1     -11.013  14.723  67.227  1.00  0.00    -0.309 NA 
HETATM   18  H   UNL     1     -10.461  13.965  66.824  1.00  0.00     0.000 HD 
BRANCH  17  19
HETATM   19  C   UNL     1     -10.722  16.043  67.036  1.00  0.00    -0.277 A  
HETATM   20  N   UNL     1     -10.504  16.675  65.892  1.00  0.00    -0.340 NA 
HETATM   21  C   UNL     1     -10.264  18.018  66.108  1.00  0.00    -0.363 A  
HETATM   22  C   UNL     1     -10.298  18.396  67.424  1.00  0.00    -0.391 A  
HETATM   23  N   UNL     1     -10.088  19.711  67.936  1.00  0.00    -0.396 N  
HETATM   24  S   UNL     1     -10.633  17.074  68.433  1.00  0.00    -0.371 SA 
HETATM   25  O   UNL     1      -9.861  20.598  67.102  1.00  0.00    -0.469 OA 
HETATM   26  O   UNL     1     -10.154  19.879  69.161  1.00  0.00    -0.418 OA 
ENDBRANCH  17  19
ENDBRANCH  15  17
ENDBRANCH  13  15
ENDBRANCH   3   8
ENDBRANCH   2   3
TORSDOF 7
ENDMDL
MODEL        7
REMARK 921   NORMALIZED FREE ENERGY PREDICTED BY IDOCK:   -6.16 KCAL/MOL
REMARK 922        TOTAL FREE ENERGY PREDICTED BY IDOCK:   -9.31 KCAL/MOL
REMARK 923 INTER-LIGAND FREE ENERGY PREDICTED BY IDOCK:   -8.69 KCAL/MOL
REMARK 924 INTRA-LIGAND FREE ENERGY PREDICTED BY IDOCK:   -0.62 KCAL/MOL
REMARK 927      BINDING AFFINITY PREDICTED BY RF-SCORE:    0.00 PKD
ROOT
HETATM    1  C   UNL     1     -14.122   7.094  71.893  1.00  0.00    -0.379 C  
HETATM    2  C   UNL     1     -12.637   6.848  71.673  1.00  0.00    -0.367 C  
ENDROOT
BRANCH   2   3
HETATM    3  N   UNL     1     -11.829   8.006  72.073  1.00  0.00    -0.307 NA 
BRANCH   3   4
HETATM    4  C   UNL     1     -10.826   7.833  73.136  1.00  0.00    -0.339 C  
BRANCH   4   5
HETATM    5  C   UNL     1     -10.245   6.408  73.122  1.00  0.00    -0.205 C  
HETATM    6  H   UNL     1     -10.229   4.813  74.299  1.00  0.00     0.000 HD 
HETATM    7  O   UNL     1     -10.588   5.692  74.307  1.00  0.00    -0.262 OA 
ENDBRANCH   4   5
ENDBRANCH   3   4
BRANCH   3   8
HETATM    8  C   UNL     1     -11.878   9.176  71.328  1.00  0.00    -0.327 A  
HETATM    9  C   UNL     1     -13.267  12.689  71.792  1.00  0.00    -0.457 C  
HETATM   10  C   UNL     1     -11.238   9.316  70.091  1.00  0.00    -0.237 A  
HETATM   11  C   UNL     1     -11.265  10.525  69.379  1.00  0.00    -0.327 A  
HETATM   12  C   UNL     1     -12.557  10.300  71.813  1.00  0.00    -0.488 A  
HETATM   13  C   UNL     1     -11.911  11.655  69.897  1.00  0.00    -0.358 A  
HETATM   14  C   UNL     1     -12.558  11.535  71.137  1.00  0.00    -0.463 A  
BRANCH  13  15
HETATM   15  N   UNL     1     -11.995  12.872  69.191  1.00  0.00    -0.287 NA 
HETATM   16  H   UNL     1     -12.879  13.285  68.894  1.00  0.00     0.000 HD 
BRANCH  15  17
HETATM   17  N   UNL     1     -10.884  13.397  68.965  1.00  0.00    -0.380 NA 
HETATM   18  H   UNL     1     -10.053  13.208  69.525  1.00  0.00     0.000 HD 
BRANCH  17  19
HETATM   19  C   UNL     1     -10.889  14.248  67.898  1.00  0.00    -0.253 A  
HETATM   20  N   UNL     1     -10.273  15.415  67.780  1.00  0.00    -0.238 NA 
HETATM   21  C   UNL     1     -10.499  15.970  66.535  1.00  0.00    -0.302 A  
HETATM   22  C   UNL     1     -11.294  15.215  65.713  1.00  0.00    -0.238 A  
HETATM   23  N   UNL     1     -11.689  15.539  64.381  1.00  0.00    -0.332 N  
HETATM   24  S   UNL     1     -11.782  13.783  66.480  1.00  0.00    -0.408 SA 
HETATM   25  O   UNL     1     -11.262  16.607  63.924  1.00  0.00    -0.955 OA 
HETATM   26  O   UNL     1     -12.416  14.739  63.777  1.00  0.00    -0.782 OA 
ENDBRANCH  17  19
ENDBRANCH  15  17
ENDBRANCH  13  15
ENDBRANCH   3   8
ENDBRANCH   2   3
TORSDOF 7
ENDMDL
MODEL        8
REMARK 921   NORMALIZED FREE ENERGY PREDICTED BY IDOCK:   -6.11 KCAL/MOL
REMARK 922        TOTAL FREE ENERGY PREDICTED BY IDOCK:   -9.24 KCAL/MOL
REMARK 923 INTER-LIGAND FREE ENERGY PREDICTED BY IDOCK:   -8.60 KCAL/MOL
REMARK 924 INTRA-LIGAND FREE ENERGY PREDICTED BY IDOCK:   -0.63 KCAL/MOL
REMARK 927      BINDING AFFINITY PREDICTED BY RF-SCORE:    0.00 PKD
ROOT
HETATM    1  C   UNL     1      -9.365   7.094  73.959  1.00  0.00    -0.291 C  
HETATM    2  C   UNL     1      -9.289   8.133  72.851  1.00  0.00    -0.273 C  
ENDROOT
BRANCH   2   3
HETATM    3  N   UNL     1     -10.545   8.216  72.096  1.00  0.00    -0.266 NA 
BRANCH   3   4
HETATM    4  C   UNL     1     -11.762   7.636  72.685  1.00  0.00    -0.270 C  
BRANCH   4   5
HETATM    5  C   UNL     1     -12.541   6.811  71.646  1.00  0.00    -0.333 C  
HETATM    6  H   UNL     1     -14.366   6.762  70.872  1.00  0.00     0.000 HD 
HETATM    7  O   UNL     1     -13.885   7.271  71.514  1.00  0.00    -0.393 OA 
ENDBRANCH   4   5
ENDBRANCH   3   4
BRANCH   3   8
HETATM    8  C   UNL     1     -10.614   8.996  70.949  1.00  0.00    -0.250 A  
HETATM    9  C   UNL     1      -9.272   8.799  67.393  1.00  0.00    -0.158 C  
HETATM   10  C   UNL     1     -11.398  10.152  70.863  1.00  0.00    -0.420 A  
HETATM   11  C   UNL     1     -11.486  10.897  69.676  1.00  0.00    -0.377 A  
HETATM   12  C   UNL     1      -9.912   8.626  69.795  1.00  0.00    -0.190 A  
HETATM   13  C   UNL     1     -10.813  10.491  68.516  1.00  0.00    -0.234 A  
HETATM   14  C   UNL     1     -10.022   9.333  68.582  1.00  0.00    -0.193 A  
BRANCH  13  15
HETATM   15  N   UNL     1     -10.844  11.236  67.320  1.00  0.00    -0.251 NA 
HETATM   16  H   UNL     1     -10.008  11.459  66.780  1.00  0.00     0.000 HD 
BRANCH  15  17
HETATM   17  N   UNL     1     -11.992  11.598  66.985  1.00  0.00    -0.539 NA 
HETATM   18  H   UNL     1     -12.841  11.138  67.314  1.00  0.00     0.000 HD 
BRANCH  17  19
HETATM   19  C   UNL     1     -12.002  12.669  66.138  1.00  0.00    -0.395 A  
HETATM   20  N   UNL     1     -12.782  12.871  65.086  1.00  0.00    -0.722 NA 
HETATM   21  C   UNL     1     -12.507  14.089  64.495  1.00  0.00    -0.308 A  
HETATM   22  C   UNL     1     -11.511  14.805  65.106  1.00  0.00    -0.371 A  
HETATM   23  N   UNL     1     -11.023  16.086  64.714  1.00  0.00    -0.443 N  
HETATM   24  S   UNL     1     -10.888  13.968  66.444  1.00  0.00    -0.302 SA 
HETATM   25  O   UNL     1     -11.562  16.603  63.726  1.00  0.00    -1.045 OA 
HETATM   26  O   UNL     1     -10.111  16.594  65.380  1.00  0.00    -0.578 OA 
ENDBRANCH  17  19
ENDBRANCH  15  17
ENDBRANCH  13  15
ENDBRANCH   3   8
ENDBRANCH   2   3
TORSDOF 7
ENDMDL
MODEL        9
REMARK 921   NORMALIZED FREE ENERGY PREDICTED BY IDOCK:   -6.09 KCAL/MOL
REMARK 922        TOTAL FREE ENERGY PREDICTED BY IDOCK:   -9.21 KCAL/MOL
REMARK 923 INTER-LIGAND FREE ENERGY PREDICTED BY IDOCK:   -8.51 KCAL/MOL
REMARK 924 INTRA-LIGAND FREE ENERGY PREDICTED BY IDOCK:   -0.70 KCAL/MOL
REMARK 927      BINDING AFFINITY PREDICTED BY RF-SCORE:    0.00 PKD
ROOT
HETATM    1  C   UNL     1     -14.133   7.814  71.848  1.00  0.00    -0.462 C  
HETATM    2  C   UNL     1     -12.981   8.619  72.430  1.00  0.00    -0.351 C  
ENDROOT
BRANCH   2   3
HETATM    3  N   UNL     1     -11.731   8.391  71.693  1.00  0.00    -0.281 NA 
BRANCH   3   4
HETATM    4  C   UNL     1     -10.878   7.259  72.086  1.00  0.00    -0.229 C  
BRANCH   4   5
HETATM    5  C   UNL     1     -10.539   7.315  73.586  1.00  0.00    -0.307 C  
HETATM    6  H   UNL     1      -9.041   7.916  74.736  1.00  0.00     0.000 HD 
HETATM    7  O   UNL     1      -9.250   7.882  73.811  1.00  0.00    -0.281 OA 
ENDBRANCH   4   5
ENDBRANCH   3   4
BRANCH   3   8
HETATM    8  C   UNL     1     -11.469   9.110  70.535  1.00  0.00    -0.229 A  
HETATM    9  C   UNL     1      -9.975   8.379  67.111  1.00  0.00    -0.304 C  
HETATM   10  C   UNL     1     -11.857  10.444  70.365  1.00  0.00    -0.418 A  
HETATM   11  C   UNL     1     -11.622  11.134  69.165  1.00  0.00    -0.393 A  
HETATM   12  C   UNL     1     -10.824   8.501  69.451  1.00  0.00    -0.103 A  
HETATM   13  C   UNL     1     -11.015  10.499  68.074  1.00  0.00    -0.290 A  
HETATM   14  C   UNL     1     -10.619   9.161  68.224  1.00  0.00    -0.223 A  
BRANCH  13  15
HETATM   15  N   UNL     1     -10.724  11.172  66.870  1.00  0.00    -0.262 NA 
HETATM   16  H   UNL     1      -9.783  11.466  66.608  1.00  0.00     0.000 HD 
BRANCH  15  17
HETATM   17  N   UNL     1     -11.727  11.373  66.154  1.00  0.00    -0.182 NA 
HETATM   18  H   UNL     1     -12.464  10.680  66.018  1.00  0.00     0.000 HD 
BRANCH  17  19
HETATM   19  C   UNL     1     -11.745  12.607  65.571  1.00  0.00    -0.402 A  
HETATM   20  N   UNL     1     -12.571  13.059  64.639  1.00  0.00    -0.659 NA 
HETATM   21  C   UNL     1     -12.286  14.373  64.321  1.00  0.00    -0.423 A  
HETATM   22  C   UNL     1     -11.235  14.910  65.017  1.00  0.00    -0.404 A  
HETATM   23  N   UNL     1     -10.723  16.236  64.895  1.00  0.00    -0.336 N  
HETATM   24  S   UNL     1     -10.572  13.779  66.094  1.00  0.00    -0.296 SA 
HETATM   25  O   UNL     1     -11.295  16.975  64.082  1.00  0.00    -1.164 OA 
HETATM   26  O   UNL     1      -9.761  16.559  65.603  1.00  0.00    -0.513 OA 
ENDBRANCH  17  19
ENDBRANCH  15  17
ENDBRANCH  13  15
ENDBRANCH   3   8
ENDBRANCH   2   3
TORSDOF 7
ENDMDL
MODEL       10
REMARK 921   NORMALIZED FREE ENERGY PREDICTED BY IDOCK:   -6.01 KCAL/MOL
REMARK 922        TOTAL FREE ENERGY PREDICTED BY IDOCK:   -9.10 KCAL/MOL
REMARK 923 INTER-LIGAND FREE ENERGY PREDICTED BY IDOCK:   -8.44 KCAL/MOL
REMARK 924 INTRA-LIGAND FREE ENERGY PREDICTED BY IDOCK:   -0.66 KCAL/MOL
REMARK 927      BINDING AFFINITY PREDICTED BY RF-SCORE:    0.00 PKD
ROOT
HETATM    1  C   UNL     1      -9.995   8.952  71.713  1.00  0.00    -0.397 C  
HETATM    2  C   UNL     1     -11.214   8.793  70.816  1.00  0.00    -0.266 C  
ENDROOT
BRANCH   2   3
HETATM    3  N   UNL     1     -12.324   9.651  71.250  1.00  0.00    -0.337 NA 
BRANCH   3   4
HETATM    4  C   UNL     1     -13.238   9.150  72.289  1.00  0.00    -0.461 C  
BRANCH   4   5
HETATM    5  C   UNL     1     -14.358   8.293  71.673  1.00  0.00    -0.467 C  
HETATM    6  H   UNL     1     -14.665   6.394  71.193  1.00  0.00     0.000 HD 
HETATM    7  O   UNL     1     -13.974   6.923  71.573  1.00  0.00    -0.277 OA 
ENDBRANCH   4   5
ENDBRANCH   3   4
BRANCH   3   8
HETATM    8  C   UNL     1     -12.383  10.973  70.830  1.00  0.00    -0.398 A  
HETATM    9  C   UNL     1     -13.298  14.326  72.382  1.00  0.00    -0.568 C  
HETATM   10  C   UNL     1     -11.959  11.385  69.561  1.00  0.00    -0.409 A  
HETATM   11  C   UNL     1     -11.986  12.736  69.178  1.00  0.00    -0.296 A  
HETATM   12  C   UNL     1     -12.846  11.973  71.693  1.00  0.00    -0.399 A  
HETATM   13  C   UNL     1     -12.410  13.731  70.067  1.00  0.00    -0.300 A  
HETATM   14  C   UNL     1     -12.838  13.338  71.344  1.00  0.00    -0.411 A  
BRANCH  13  15
HETATM   15  N   UNL     1     -12.491  15.091  69.702  1.00  0.00    -0.570 NA 
HETATM   16  H   UNL     1     -12.785  15.825  70.346  1.00  0.00     0.000 HD 
BRANCH  15  17
HETATM   17  N   UNL     1     -12.169  15.310  68.515  1.00  0.00    -0.560 NA 
HETATM   18  H   UNL     1     -12.623  14.859  67.721  1.00  0.00     0.000 HD 
BRANCH  17  19
HETATM   19  C   UNL     1     -11.153  16.212  68.383  1.00  0.00    -0.359 A  
HETATM   20  N   UNL     1     -10.814  17.189  69.212  1.00  0.00    -0.154 NA 
HETATM   21  C   UNL     1      -9.710  17.875  68.742  1.00  0.00    -0.323 A  
HETATM   22  C   UNL     1      -9.220  17.411  67.549  1.00  0.00    -0.233 A  
HETATM   23  N   UNL     1      -8.096  17.925  66.836  1.00  0.00    -0.221 N  
HETATM   24  S   UNL     1     -10.131  16.098  66.982  1.00  0.00    -0.276 SA 
HETATM   25  O   UNL     1      -7.503  18.880  67.355  1.00  0.00    -0.228 OA 
HETATM   26  O   UNL     1      -7.788  17.385  65.765  1.00  0.00    -0.526 OA 
ENDBRANCH  17  19
ENDBRANCH  15  17
ENDBRANCH  13  15
ENDBRANCH   3   8
ENDBRANCH   2   3
TORSDOF 7
ENDMDL
MODEL       11
REMARK 921   NORMALIZED FREE ENERGY PREDICTED BY IDOCK:   -5.99 KCAL/MOL
REMARK 922        TOTAL FREE ENERGY PREDICTED BY IDOCK:   -9.07 KCAL/MOL
REMARK 923 INTER-LIGAND FREE ENERGY PREDICTED BY IDOCK:   -8.31 KCAL/MOL
REMARK 924 INTRA-LIGAND FREE ENERGY PREDICTED BY IDOCK:   -0.75 KCAL/MOL
REMARK 927      BINDING AFFINITY PREDICTED BY RF-SCORE:    0.00 PKD
ROOT
HETATM    1  C   UNL     1     -13.947   8.373  71.834  1.00  0.00    -0.483 C  
HETATM    2  C   UNL     1     -13.345   9.755  72.039  1.00  0.00    -0.451 C  
ENDROOT
BRANCH   2   3
HETATM    3  N   UNL     1     -12.247  10.015  71.099  1.00  0.00    -0.349 NA 
BRANCH   3   4
HETATM    4  C   UNL     1     -11.361   8.902  70.724  1.00  0.00    -0.278 C  
BRANCH   4   5
HETATM    5  C   UNL     1     -10.123   8.848  71.637  1.00  0.00    -0.341 C  
HETATM    6  H   UNL     1      -9.624   8.085  73.397  1.00  0.00     0.000 HD 
HETATM    7  O   UNL     1     -10.388   8.119  72.834  1.00  0.00    -0.318 OA 
ENDBRANCH   4   5
ENDBRANCH   3   4
BRANCH   3   8
HETATM    8  C   UNL     1     -12.177  11.233  70.437  1.00  0.00    -0.365 A  
HETATM    9  C   UNL     1     -11.594  12.402  66.862  1.00  0.00    -0.437 C  
HETATM   10  C   UNL     1     -12.439  12.456  71.066  1.00  0.00    -0.353 A  
HETATM   11  C   UNL     1     -12.407  13.670  70.362  1.00  0.00    -0.415 A  
HETATM   12  C   UNL     1     -11.869  11.284  69.072  1.00  0.00    -0.421 A  
HETATM   13  C   UNL     1     -12.141  13.701  68.987  1.00  0.00    -0.309 A  
HETATM   14  C   UNL     1     -11.876  12.485  68.338  1.00  0.00    -0.353 A  
BRANCH  13  15
HETATM   15  N   UNL     1     -12.057  14.904  68.257  1.00  0.00    -0.573 NA 
HETATM   16  H   UNL     1     -12.548  15.057  67.376  1.00  0.00     0.000 HD 
BRANCH  15  17
HETATM   17  N   UNL     1     -11.325  15.764  68.790  1.00  0.00    -0.340 NA 
HETATM   18  H   UNL     1     -11.391  16.021  69.775  1.00  0.00     0.000 HD 
BRANCH  17  19
HETATM   19  C   UNL     1     -10.427  16.326  67.930  1.00  0.00    -0.295 A  
HETATM   20  N   UNL     1      -9.861  15.777  66.865  1.00  0.00    -0.231 NA 
HETATM   21  C   UNL     1      -9.023  16.675  66.233  1.00  0.00    -0.305 A  
HETATM   22  C   UNL     1      -8.956  17.906  66.830  1.00  0.00    -0.257 A  
HETATM   23  N   UNL     1      -8.177  19.020  66.397  1.00  0.00    -0.299 N  
HETATM   24  S   UNL     1      -9.946  17.973  68.206  1.00  0.00    -0.391 SA 
HETATM   25  O   UNL     1      -7.500  18.855  65.373  1.00  0.00    -0.452 OA 
HETATM   26  O   UNL     1      -8.232  20.065  67.059  1.00  0.00    -0.297 OA 
ENDBRANCH  17  19
ENDBRANCH  15  17
ENDBRANCH  13  15
ENDBRANCH   3   8
ENDBRANCH   2   3
TORSDOF 7
ENDMDL
MODEL       12
REMARK 921   NORMALIZED FREE ENERGY PREDICTED BY IDOCK:   -5.98 KCAL/MOL
REMARK 922        TOTAL FREE ENERGY PREDICTED BY IDOCK:   -9.05 KCAL/MOL
REMARK 923 INTER-LIGAND FREE ENERGY PREDICTED BY IDOCK:   -8.35 KCAL/MOL
REMARK 924 INTRA-LIGAND FREE ENERGY PREDICTED BY IDOCK:   -0.70 KCAL/MOL
REMARK 927      BINDING AFFINITY PREDICTED BY RF-SCORE:    0.00 PKD
ROOT
HETATM    1  C   UNL     1     -14.329   7.443  71.719  1.00  0.00    -0.586 C  
HETATM    2  C   UNL     1     -13.835   8.746  72.329  1.00  0.00    -0.447 C  
ENDROOT
BRANCH   2   3
HETATM    3  N   UNL     1     -12.612   9.225  71.672  1.00  0.00    -0.342 NA 
BRANCH   3   4
HETATM    4  C   UNL     1     -11.554   8.252  71.357  1.00  0.00    -0.280 C  
BRANCH   4   5
HETATM    5  C   UNL     1     -10.781   7.845  72.624  1.00  0.00    -0.347 C  
HETATM    6  H   UNL     1     -10.437   6.199  73.674  1.00  0.00     0.000 HD 
HETATM    7  O   UNL     1     -10.913   6.451  72.892  1.00  0.00    -0.244 OA 
ENDBRANCH   4   5
ENDBRANCH   3   4
BRANCH   3   8
HETATM    8  C   UNL     1     -12.549  10.524  71.187  1.00  0.00    -0.417 A  
HETATM    9  C   UNL     1     -11.456  12.217  67.958  1.00  0.00    -0.378 C  
HETATM   10  C   UNL     1     -13.046  11.623  71.897  1.00  0.00    -0.490 A  
HETATM   11  C   UNL     1     -13.012  12.922  71.364  1.00  0.00    -0.362 A  
HETATM   12  C   UNL     1     -12.007  10.786  69.923  1.00  0.00    -0.418 A  
HETATM   13  C   UNL     1     -12.507  13.163  70.080  1.00  0.00    -0.122 A  
HETATM   14  C   UNL     1     -12.006  12.073  69.352  1.00  0.00    -0.334 A  
BRANCH  13  15
HETATM   15  N   UNL     1     -12.418  14.458  69.530  1.00  0.00    -0.540 NA 
HETATM   16  H   UNL     1     -13.028  14.790  68.783  1.00  0.00     0.000 HD 
BRANCH  15  17
HETATM   17  N   UNL     1     -11.522  15.160  70.044  1.00  0.00    -0.266 NA 
HETATM   18  H   UNL     1     -11.170  15.011  70.991  1.00  0.00     0.000 HD 
BRANCH  17  19
HETATM   19  C   UNL     1     -11.057  16.143  69.220  1.00  0.00    -0.327 A  
HETATM   20  N   UNL     1     -10.427  17.260  69.554  1.00  0.00    -0.192 NA 
HETATM   21  C   UNL     1     -10.092  17.993  68.432  1.00  0.00    -0.387 A  
HETATM   22  C   UNL     1     -10.478  17.425  67.247  1.00  0.00    -0.321 A  
HETATM   23  N   UNL     1     -10.265  17.956  65.940  1.00  0.00    -0.279 N  
HETATM   24  S   UNL     1     -11.273  15.949  67.506  1.00  0.00    -0.095 SA 
HETATM   25  O   UNL     1      -9.663  19.037  65.876  1.00  0.00    -0.467 OA 
HETATM   26  O   UNL     1     -10.682  17.309  64.971  1.00  0.00    -0.708 OA 
ENDBRANCH  17  19
ENDBRANCH  15  17
ENDBRANCH  13  15
ENDBRANCH   3   8
ENDBRANCH   2   3
TORSDOF 7
ENDMDL
MODEL       13
REMARK 921   NORMALIZED FREE ENERGY PREDICTED BY IDOCK:   -5.95 KCAL/MOL
REMARK 922        TOTAL FREE ENERGY PREDICTED BY IDOCK:   -9.01 KCAL/MOL
REMARK 923 INTER-LIGAND FREE ENERGY PREDICTED BY IDOCK:   -8.36 KCAL/MOL
REMARK 924 INTRA-LIGAND FREE ENERGY PREDICTED BY IDOCK:   -0.65 KCAL/MOL
REMARK 927      BINDING AFFINITY PREDICTED BY RF-SCORE:    0.00 PKD
ROOT
HETATM    1  C   UNL     1     -10.353  16.144  65.676  1.00  0.00    -0.405 C  
HETATM    2  C   UNL     1     -10.174  14.633  65.698  1.00  0.00    -0.359 C  
ENDROOT
BRANCH   2   3
HETATM    3  N   UNL     1     -11.431  13.940  66.006  1.00  0.00    -0.331 NA 
BRANCH   3   4
HETATM    4  C   UNL     1     -12.522  13.987  65.020  1.00  0.00    -0.425 C  
BRANCH   4   5
HETATM    5  C   UNL     1     -12.141  13.227  63.737  1.00  0.00    -0.482 C  
HETATM    6  H   UNL     1     -12.790  11.665  62.703  1.00  0.00     0.000 HD 
HETATM    7  O   UNL     1     -13.025  12.134  63.495  1.00  0.00    -0.794 OA 
ENDBRANCH   4   5
ENDBRANCH   3   4
BRANCH   3   8
HETATM    8  C   UNL     1     -11.507  13.103  67.111  1.00  0.00    -0.334 A  
HETATM    9  C   UNL     1     -12.417  13.463  70.789  1.00  0.00    -0.418 C  
HETATM   10  C   UNL     1     -11.309  11.720  67.030  1.00  0.00    -0.387 A  
HETATM   11  C   UNL     1     -11.438  10.890  68.155  1.00  0.00    -0.368 A  
HETATM   12  C   UNL     1     -11.828  13.619  68.373  1.00  0.00    -0.407 A  
HETATM   13  C   UNL     1     -11.803  11.413  69.402  1.00  0.00    -0.351 A  
HETATM   14  C   UNL     1     -12.006  12.798  69.503  1.00  0.00    -0.338 A  
BRANCH  13  15
HETATM   15  N   UNL     1     -11.899  10.617  70.561  1.00  0.00    -0.329 NA 
HETATM   16  H   UNL     1     -11.366  10.800  71.411  1.00  0.00     0.000 HD 
BRANCH  15  17
HETATM   17  N   UNL     1     -12.700   9.665  70.449  1.00  0.00    -0.492 NA 
HETATM   18  H   UNL     1     -13.514   9.689  69.834  1.00  0.00     0.000 HD 
BRANCH  17  19
HETATM   19  C   UNL     1     -12.383   8.589  71.227  1.00  0.00    -0.271 A  
HETATM   20  N   UNL     1     -13.014   7.427  71.311  1.00  0.00    -0.338 NA 
HETATM   21  C   UNL     1     -12.372   6.579  72.194  1.00  0.00    -0.198 A  
HETATM   22  C   UNL     1     -11.254   7.111  72.780  1.00  0.00    -0.275 A  
HETATM   23  N   UNL     1     -10.401   6.466  73.724  1.00  0.00    -0.283 N  
HETATM   24  S   UNL     1     -10.974   8.694  72.239  1.00  0.00    -0.250 SA 
HETATM   25  O   UNL     1     -10.702   5.306  74.036  1.00  0.00    -0.282 OA 
HETATM   26  O   UNL     1      -9.427   7.096  74.157  1.00  0.00    -0.243 OA 
ENDBRANCH  17  19
ENDBRANCH  15  17
ENDBRANCH  13  15
ENDBRANCH   3   8
ENDBRANCH   2   3
TORSDOF 7
ENDMDL
MODEL       14
REMARK 921   NORMALIZED FREE ENERGY PREDICTED BY IDOCK:   -5.89 KCAL/MOL
REMARK 922        TOTAL FREE ENERGY PREDICTED BY IDOCK:   -8.93 KCAL/MOL
REMARK 923 INTER-LIGAND FREE ENERGY PREDICTED BY IDOCK:   -8.37 KCAL/MOL
REMARK 924 INTRA-LIGAND FREE ENERGY PREDICTED BY IDOCK:   -0.56 KCAL/MOL
REMARK 927      BINDING AFFINITY PREDICTED BY RF-SCORE:    0.00 PKD
ROOT
HETATM    1  C   UNL     1     -10.226  16.194  65.883  1.00  0.00    -0.381 C  
HETATM    2  C   UNL     1     -10.053  14.691  65.718  1.00  0.00    -0.340 C  
ENDROOT
BRANCH   2   3
HETATM    3  N   UNL     1     -11.312  13.970  65.947  1.00  0.00    -0.312 NA 
BRANCH   3   4
HETATM    4  C   UNL     1     -12.290  13.894  64.851  1.00  0.00    -0.420 C  
BRANCH   4   5
HETATM    5  C   UNL     1     -11.843  12.882  63.780  1.00  0.00    -0.504 C  
HETATM    6  H   UNL     1     -12.628  11.373  62.762  1.00  0.00     0.000 HD 
HETATM    7  O   UNL     1     -12.903  11.997  63.423  1.00  0.00    -0.760 OA 
ENDBRANCH   4   5
ENDBRANCH   3   4
BRANCH   3   8
HETATM    8  C   UNL     1     -11.478  13.218  67.102  1.00  0.00    -0.341 A  
HETATM    9  C   UNL     1     -12.381  13.900  70.736  1.00  0.00    -0.449 C  
HETATM   10  C   UNL     1     -11.415  11.819  67.112  1.00  0.00    -0.366 A  
HETATM   11  C   UNL     1     -11.634  11.080  68.285  1.00  0.00    -0.354 A  
HETATM   12  C   UNL     1     -11.759  13.842  68.323  1.00  0.00    -0.396 A  
HETATM   13  C   UNL     1     -11.957  11.716  69.491  1.00  0.00    -0.317 A  
HETATM   14  C   UNL     1     -12.026  13.117  69.501  1.00  0.00    -0.354 A  
BRANCH  13  15
HETATM   15  N   UNL     1     -12.140  11.009  70.697  1.00  0.00    -0.350 NA 
HETATM   16  H   UNL     1     -12.000  11.428  71.616  1.00  0.00     0.000 HD 
BRANCH  15  17
HETATM   17  N   UNL     1     -12.491   9.821  70.532  1.00  0.00    -0.495 NA 
HETATM   18  H   UNL     1     -13.240   9.543  69.898  1.00  0.00     0.000 HD 
BRANCH  17  19
HETATM   19  C   UNL     1     -11.777   8.932  71.282  1.00  0.00    -0.306 A  
HETATM   20  N   UNL     1     -10.580   9.097  71.825  1.00  0.00    -0.358 NA 
HETATM   21  C   UNL     1     -10.200   7.974  72.535  1.00  0.00    -0.294 A  
HETATM   22  C   UNL     1     -11.118   6.956  72.520  1.00  0.00    -0.266 A  
HETATM   23  N   UNL     1     -10.992   5.690  73.164  1.00  0.00    -0.277 N  
HETATM   24  S   UNL     1     -12.488   7.381  71.614  1.00  0.00    -0.360 SA 
HETATM   25  O   UNL     1      -9.950   5.498  73.805  1.00  0.00    -0.165 OA 
HETATM   26  O   UNL     1     -11.922   4.880  73.047  1.00  0.00    -0.209 OA 
ENDBRANCH  17  19
ENDBRANCH  15  17
ENDBRANCH  13  15
ENDBRANCH   3   8
ENDBRANCH   2   3
TORSDOF 7
ENDMDL
MODEL       15
REMARK 921   NORMALIZED FREE ENERGY PREDICTED BY IDOCK:   -5.89 KCAL/MOL
REMARK 922        TOTAL FREE ENERGY PREDICTED BY IDOCK:   -8.93 KCAL/MOL
REMARK 923 INTER-LIGAND FREE ENERGY PREDICTED BY IDOCK:   -8.29 KCAL/MOL
REMARK 924 INTRA-LIGAND FREE ENERGY PREDICTED BY IDOCK:   -0.64 KCAL/MOL
REMARK 927      BINDING AFFINITY PREDICTED BY RF-SCORE:    0.00 PKD
ROOT
HETATM    1  C   UNL     1      -9.992   7.717  73.092  1.00  0.00    -0.363 C  
HETATM    2  C   UNL     1     -11.493   7.919  72.952  1.00  0.00    -0.297 C  
ENDROOT
BRANCH   2   3
HETATM    3  N   UNL     1     -11.885   8.137  71.554  1.00  0.00    -0.283 NA 
BRANCH   3   4
HETATM    4  C   UNL     1     -12.415   7.000  70.785  1.00  0.00    -0.203 C  
BRANCH   4   5
HETATM    5  C   UNL     1     -11.278   6.194  70.134  1.00  0.00    -0.382 C  
HETATM    6  H   UNL     1     -10.642   5.755  68.308  1.00  0.00     0.000 HD 
HETATM    7  O   UNL     1     -11.344   6.253  68.710  1.00  0.00    -0.356 OA 
ENDBRANCH   4   5
ENDBRANCH   3   4
BRANCH   3   8
HETATM    8  C   UNL     1     -11.935   9.426  71.041  1.00  0.00    -0.315 A  
HETATM    9  C   UNL     1     -13.455  12.755  72.088  1.00  0.00    -0.591 C  
HETATM   10  C   UNL     1     -11.240   9.813  69.890  1.00  0.00    -0.271 A  
HETATM   11  C   UNL     1     -11.271  11.136  69.419  1.00  0.00    -0.334 A  
HETATM   12  C   UNL     1     -12.672  10.422  71.694  1.00  0.00    -0.560 A  
HETATM   13  C   UNL     1     -11.976  12.131  70.107  1.00  0.00    -0.314 A  
HETATM   14  C   UNL     1     -12.679  11.763  71.265  1.00  0.00    -0.420 A  
BRANCH  13  15
HETATM   15  N   UNL     1     -12.065  13.459  69.641  1.00  0.00    -0.310 NA 
HETATM   16  H   UNL     1     -12.931  13.874  69.300  1.00  0.00     0.000 HD 
BRANCH  15  17
HETATM   17  N   UNL     1     -10.981  14.078  69.685  1.00  0.00    -0.447 NA 
HETATM   18  H   UNL     1     -10.286  13.935  70.419  1.00  0.00     0.000 HD 
BRANCH  17  19
HETATM   19  C   UNL     1     -10.815  14.964  68.660  1.00  0.00    -0.251 A  
HETATM   20  N   UNL     1     -10.723  14.705  67.364  1.00  0.00    -0.276 NA 
HETATM   21  C   UNL     1     -10.585  15.872  66.636  1.00  0.00    -0.305 A  
HETATM   22  C   UNL     1     -10.569  17.014  67.393  1.00  0.00    -0.289 A  
HETATM   23  N   UNL     1     -10.441  18.351  66.911  1.00  0.00    -0.392 N  
HETATM   24  S   UNL     1     -10.728  16.657  69.043  1.00  0.00    -0.334 SA 
HETATM   25  O   UNL     1     -10.341  18.487  65.684  1.00  0.00    -0.594 OA 
HETATM   26  O   UNL     1     -10.444  19.273  67.738  1.00  0.00    -0.404 OA 
ENDBRANCH  17  19
ENDBRANCH  15  17
ENDBRANCH  13  15
ENDBRANCH   3   8
ENDBRANCH   2   3
TORSDOF 7
ENDMDL
MODEL       16
REMARK 921   NORMALIZED FREE ENERGY PREDICTED BY IDOCK:   -5.88 KCAL/MOL
REMARK 922        TOTAL FREE ENERGY PREDICTED BY IDOCK:   -8.91 KCAL/MOL
REMARK 923 INTER-LIGAND FREE ENERGY PREDICTED BY IDOCK:   -8.23 KCAL/MOL
REMARK 924 INTRA-LIGAND FREE ENERGY PREDICTED BY IDOCK:   -0.68 KCAL/MOL
REMARK 927      BINDING AFFINITY PREDICTED BY RF-SCORE:    0.00 PKD
ROOT
HETATM    1  C   UNL     1      -8.450   7.681  73.422  1.00  0.00    -0.220 C  
HETATM    2  C   UNL     1      -9.942   7.418  73.563  1.00  0.00    -0.326 C  
ENDROOT
BRANCH   2   3
HETATM    3  N   UNL     1     -10.597   7.286  72.255  1.00  0.00    -0.216 NA 
BRANCH   3   4
HETATM    4  C   UNL     1     -11.213   5.997  71.902  1.00  0.00    -0.282 C  
BRANCH   4   5
HETATM    5  C   UNL     1     -10.203   5.076  71.196  1.00  0.00    -0.211 C  
HETATM    6  H   UNL     1      -9.685   4.606  69.340  1.00  0.00     0.000 HD 
HETATM    7  O   UNL     1     -10.308   5.175  69.777  1.00  0.00    -0.271 OA 
ENDBRANCH   4   5
ENDBRANCH   3   4
BRANCH   3   8
HETATM    8  C   UNL     1     -10.796   8.409  71.464  1.00  0.00    -0.258 A  
HETATM    9  C   UNL     1     -13.014  11.500  71.567  1.00  0.00    -0.485 C  
HETATM   10  C   UNL     1     -10.017   8.691  70.336  1.00  0.00    -0.212 A  
HETATM   11  C   UNL     1     -10.208   9.858  69.580  1.00  0.00    -0.243 A  
HETATM   12  C   UNL     1     -11.785   9.344  71.793  1.00  0.00    -0.444 A  
HETATM   13  C   UNL     1     -11.172  10.807  69.946  1.00  0.00    -0.300 A  
HETATM   14  C   UNL     1     -11.963  10.543  71.075  1.00  0.00    -0.466 A  
BRANCH  13  15
HETATM   15  N   UNL     1     -11.421  11.968  69.188  1.00  0.00    -0.277 NA 
HETATM   16  H   UNL     1     -11.314  12.912  69.559  1.00  0.00     0.000 HD 
BRANCH  15  17
HETATM   17  N   UNL     1     -11.787  11.732  68.017  1.00  0.00    -0.546 NA 
HETATM   18  H   UNL     1     -12.013  10.795  67.680  1.00  0.00     0.000 HD 
BRANCH  17  19
HETATM   19  C   UNL     1     -11.854  12.845  67.230  1.00  0.00    -0.356 A  
HETATM   20  N   UNL     1     -11.629  14.104  67.575  1.00  0.00    -0.346 NA 
HETATM   21  C   UNL     1     -11.773  14.947  66.489  1.00  0.00    -0.199 A  
HETATM   22  C   UNL     1     -12.112  14.316  65.322  1.00  0.00    -0.400 A  
HETATM   23  N   UNL     1     -12.324  14.932  64.053  1.00  0.00    -0.270 N  
HETATM   24  S   UNL     1     -12.261  12.642  65.552  1.00  0.00    -0.363 SA 
HETATM   25  O   UNL     1     -12.177  16.161  64.006  1.00  0.00    -0.855 OA 
HETATM   26  O   UNL     1     -12.628  14.209  63.095  1.00  0.00    -0.686 OA 
ENDBRANCH  17  19
ENDBRANCH  15  17
ENDBRANCH  13  15
ENDBRANCH   3   8
ENDBRANCH   2   3
TORSDOF 7
ENDMDL
MODEL       17
REMARK 921   NORMALIZED FREE ENERGY PREDICTED BY IDOCK:   -5.85 KCAL/MOL
REMARK 922        TOTAL FREE ENERGY PREDICTED BY IDOCK:   -8.88 KCAL/MOL
REMARK 923 INTER-LIGAND FREE ENERGY PREDICTED BY IDOCK:   -8.31 KCAL/MOL
REMARK 924 INTRA-LIGAND FREE ENERGY PREDICTED BY IDOCK:   -0.56 KCAL/MOL
REMARK 927      BINDING AFFINITY PREDICTED BY RF-SCORE:    0.00 PKD
ROOT
HETATM    1  C   UNL     1     -12.279  12.306  63.474  1.00  0.00    -0.669 C  
HETATM    2  C   UNL     1     -11.031  12.867  64.139  1.00  0.00    -0.408 C  
ENDROOT
BRANCH   2   3
HETATM    3  N   UNL     1     -11.307  13.345  65.499  1.00  0.00    -0.291 NA 
BRANCH   3   4
HETATM    4  C   UNL     1     -11.737  14.740  65.683  1.00  0.00    -0.257 C  
BRANCH   4   5
HETATM    5  C   UNL     1     -10.929  15.691  64.782  1.00  0.00    -0.400 C  
HETATM    6  H   UNL     1     -11.285  17.061  63.394  1.00  0.00     0.000 HD 
HETATM    7  O   UNL     1     -11.783  16.474  63.950  1.00  0.00    -1.148 OA 
ENDBRANCH   4   5
ENDBRANCH   3   4
BRANCH   3   8
HETATM    8  C   UNL     1     -11.350  12.444  66.554  1.00  0.00    -0.340 A  
HETATM    9  C   UNL     1     -10.165   8.884  67.194  1.00  0.00    -0.339 C  
HETATM   10  C   UNL     1     -11.849  12.778  67.818  1.00  0.00    -0.387 A  
HETATM   11  C   UNL     1     -11.838  11.862  68.882  1.00  0.00    -0.366 A  
HETATM   12  C   UNL     1     -10.849  11.145  66.401  1.00  0.00    -0.284 A  
HETATM   13  C   UNL     1     -11.294  10.581  68.727  1.00  0.00    -0.249 A  
HETATM   14  C   UNL     1     -10.787  10.227  67.466  1.00  0.00    -0.355 A  
BRANCH  13  15
HETATM   15  N   UNL     1     -11.305   9.620  69.759  1.00  0.00    -0.403 NA 
HETATM   16  H   UNL     1     -11.812   8.738  69.695  1.00  0.00     0.000 HD 
BRANCH  15  17
HETATM   17  N   UNL     1     -10.633   9.953  70.758  1.00  0.00    -0.344 NA 
HETATM   18  H   UNL     1     -10.290  10.902  70.910  1.00  0.00     0.000 HD 
BRANCH  17  19
HETATM   19  C   UNL     1     -10.403   8.926  71.628  1.00  0.00    -0.345 A  
HETATM   20  N   UNL     1      -9.390   8.780  72.469  1.00  0.00    -0.322 NA 
HETATM   21  C   UNL     1      -9.522   7.617  73.204  1.00  0.00    -0.243 A  
HETATM   22  C   UNL     1     -10.641   6.883  72.908  1.00  0.00    -0.261 A  
HETATM   23  N   UNL     1     -11.030   5.648  73.507  1.00  0.00    -0.259 N  
HETATM   24  S   UNL     1     -11.562   7.633  71.698  1.00  0.00    -0.278 SA 
HETATM   25  O   UNL     1     -10.281   5.203  74.388  1.00  0.00    -0.226 OA 
HETATM   26  O   UNL     1     -12.077   5.115  73.119  1.00  0.00    -0.136 OA 
ENDBRANCH  17  19
ENDBRANCH  15  17
ENDBRANCH  13  15
ENDBRANCH   3   8
ENDBRANCH   2   3
TORSDOF 7
ENDMDL
MODEL       18
REMARK 921   NORMALIZED FREE ENERGY PREDICTED BY IDOCK:   -5.85 KCAL/MOL
REMARK 922        TOTAL FREE ENERGY PREDICTED BY IDOCK:   -8.87 KCAL/MOL
REMARK 923 INTER-LIGAND FREE ENERGY PREDICTED BY IDOCK:   -8.25 KCAL/MOL
REMARK 924 INTRA-LIGAND FREE ENERGY PREDICTED BY IDOCK:   -0.62 KCAL/MOL
REMARK 927      BINDING AFFINITY PREDICTED BY RF-SCORE:    0.00 PKD
ROOT
HETATM    1  C   UNL     1     -10.656  19.491  65.815  1.00  0.00    -0.522 C  
HETATM    2  C   UNL     1     -10.387  18.053  66.234  1.00  0.00    -0.382 C  
ENDROOT
BRANCH   2   3
HETATM    3  N   UNL     1     -10.202  17.935  67.686  1.00  0.00    -0.348 NA 
BRANCH   3   4
HETATM    4  C   UNL     1      -9.806  19.132  68.445  1.00  0.00    -0.404 C  
BRANCH   4   5
HETATM    5  C   UNL     1      -8.285  19.164  68.674  1.00  0.00    -0.369 C  
HETATM    6  H   UNL     1      -6.674  19.885  67.770  1.00  0.00     0.000 HD 
HETATM    7  O   UNL     1      -7.613  19.865  67.629  1.00  0.00    -0.272 OA 
ENDBRANCH   4   5
ENDBRANCH   3   4
BRANCH   3   8
HETATM    8  C   UNL     1     -10.584  16.772  68.341  1.00  0.00    -0.354 A  
HETATM    9  C   UNL     1     -11.744  15.828  71.841  1.00  0.00    -0.572 C  
HETATM   10  C   UNL     1     -10.713  15.541  67.687  1.00  0.00    -0.302 A  
HETATM   11  C   UNL     1     -11.147  14.390  68.363  1.00  0.00    -0.272 A  
HETATM   12  C   UNL     1     -10.897  16.795  69.705  1.00  0.00    -0.156 A  
HETATM   13  C   UNL     1     -11.499  14.436  69.718  1.00  0.00    -0.276 A  
HETATM   14  C   UNL     1     -11.377  15.662  70.391  1.00  0.00    -0.373 A  
BRANCH  13  15
HETATM   15  N   UNL     1     -11.897  13.292  70.439  1.00  0.00    -0.536 NA 
HETATM   16  H   UNL     1     -12.553  13.324  71.220  1.00  0.00     0.000 HD 
BRANCH  15  17
HETATM   17  N   UNL     1     -11.369  12.236  70.032  1.00  0.00    -0.513 NA 
HETATM   18  H   UNL     1     -10.590  12.218  69.374  1.00  0.00     0.000 HD 
BRANCH  17  19
HETATM   19  C   UNL     1     -11.934  11.107  70.552  1.00  0.00    -0.380 A  
HETATM   20  N   UNL     1     -13.009  11.011  71.321  1.00  0.00    -0.395 NA 
HETATM   21  C   UNL     1     -13.283   9.691  71.624  1.00  0.00    -0.411 A  
HETATM   22  C   UNL     1     -12.406   8.790  71.080  1.00  0.00    -0.219 A  
HETATM   23  N   UNL     1     -12.446   7.372  71.225  1.00  0.00    -0.349 N  
HETATM   24  S   UNL     1     -11.208   9.575  70.171  1.00  0.00    -0.210 SA 
HETATM   25  O   UNL     1     -13.374   6.913  71.905  1.00  0.00    -0.294 OA 
HETATM   26  O   UNL     1     -11.568   6.702  70.664  1.00  0.00    -0.338 OA 
ENDBRANCH  17  19
ENDBRANCH  15  17
ENDBRANCH  13  15
ENDBRANCH   3   8
ENDBRANCH   2   3
TORSDOF 7
ENDMDL
MODEL       19
REMARK 921   NORMALIZED FREE ENERGY PREDICTED BY IDOCK:   -5.82 KCAL/MOL
REMARK 922        TOTAL FREE ENERGY PREDICTED BY IDOCK:   -8.83 KCAL/MOL
REMARK 923 INTER-LIGAND FREE ENERGY PREDICTED BY IDOCK:   -8.23 KCAL/MOL
REMARK 924 INTRA-LIGAND FREE ENERGY PREDICTED BY IDOCK:   -0.59 KCAL/MOL
REMARK 927      BINDING AFFINITY PREDICTED BY RF-SCORE:    0.00 PKD
ROOT
HETATM    1  C   UNL     1      -9.221   7.861  73.421  1.00  0.00    -0.351 C  
HETATM    2  C   UNL     1     -10.721   7.688  73.236  1.00  0.00    -0.350 C  
ENDROOT
BRANCH   2   3
HETATM    3  N   UNL     1     -11.079   7.524  71.821  1.00  0.00    -0.237 NA 
BRANCH   3   4
HETATM    4  C   UNL     1     -11.429   6.180  71.335  1.00  0.00    -0.254 C  
BRANCH   4   5
HETATM    5  C   UNL     1     -10.166   5.367  71.000  1.00  0.00    -0.229 C  
HETATM    6  H   UNL     1      -9.437   4.344  69.466  1.00  0.00     0.000 HD 
HETATM    7  O   UNL     1     -10.216   4.846  69.673  1.00  0.00    -0.243 OA 
ENDBRANCH   4   5
ENDBRANCH   3   4
BRANCH   3   8
HETATM    8  C   UNL     1     -11.272   8.642  71.021  1.00  0.00    -0.271 A  
HETATM    9  C   UNL     1     -10.497   9.632  67.429  1.00  0.00    -0.319 C  
HETATM   10  C   UNL     1     -11.988   9.766  71.448  1.00  0.00    -0.493 A  
HETATM   11  C   UNL     1     -12.208  10.865  70.602  1.00  0.00    -0.472 A  
HETATM   12  C   UNL     1     -10.777   8.673  69.712  1.00  0.00    -0.215 A  
HETATM   13  C   UNL     1     -11.744  10.864  69.280  1.00  0.00    -0.324 A  
HETATM   14  C   UNL     1     -11.025   9.744  68.833  1.00  0.00    -0.183 A  
BRANCH  13  15
HETATM   15  N   UNL     1     -11.909  11.966  68.417  1.00  0.00    -0.416 NA 
HETATM   16  H   UNL     1     -12.668  12.035  67.738  1.00  0.00     0.000 HD 
BRANCH  15  17
HETATM   17  N   UNL     1     -11.038  12.849  68.561  1.00  0.00    -0.252 NA 
HETATM   18  H   UNL     1     -10.352  12.839  69.316  1.00  0.00     0.000 HD 
BRANCH  17  19
HETATM   19  C   UNL     1     -11.091  13.830  67.613  1.00  0.00    -0.273 A  
HETATM   20  N   UNL     1     -10.493  15.012  67.625  1.00  0.00    -0.244 NA 
HETATM   21  C   UNL     1     -10.770  15.718  66.470  1.00  0.00    -0.283 A  
HETATM   22  C   UNL     1     -11.585  15.061  65.586  1.00  0.00    -0.188 A  
HETATM   23  N   UNL     1     -12.032  15.547  64.321  1.00  0.00    -0.293 N  
HETATM   24  S   UNL     1     -12.029  13.536  66.179  1.00  0.00    -0.430 SA 
HETATM   25  O   UNL     1     -11.634  16.672  63.990  1.00  0.00    -1.197 OA 
HETATM   26  O   UNL     1     -12.771  14.820  63.644  1.00  0.00    -0.713 OA 
ENDBRANCH  17  19
ENDBRANCH  15  17
ENDBRANCH  13  15
ENDBRANCH   3   8
ENDBRANCH   2   3
TORSDOF 7
ENDMDL
MODEL       20
REMARK 921   NORMALIZED FREE ENERGY PREDICTED BY IDOCK:   -5.80 KCAL/MOL
REMARK 922        TOTAL FREE ENERGY PREDICTED BY IDOCK:   -8.80 KCAL/MOL
REMARK 923 INTER-LIGAND FREE ENERGY PREDICTED BY IDOCK:   -8.22 KCAL/MOL
REMARK 924 INTRA-LIGAND FREE ENERGY PREDICTED BY IDOCK:   -0.57 KCAL/MOL
REMARK 927      BINDING AFFINITY PREDICTED BY RF-SCORE:    0.00 PKD
ROOT
HETATM    1  C   UNL     1     -10.430  19.683  65.983  1.00  0.00    -0.622 C  
HETATM    2  C   UNL     1     -10.778  18.989  67.292  1.00  0.00    -0.470 C  
ENDROOT
BRANCH   2   3
HETATM    3  N   UNL     1      -9.898  17.841  67.549  1.00  0.00    -0.295 NA 
BRANCH   3   4
HETATM    4  C   UNL     1      -8.442  18.050  67.522  1.00  0.00    -0.237 C  
BRANCH   4   5
HETATM    5  C   UNL     1      -7.785  17.225  66.402  1.00  0.00    -0.311 C  
HETATM    6  H   UNL     1      -6.743  17.554  64.748  1.00  0.00     0.000 HD 
HETATM    7  O   UNL     1      -7.148  18.063  65.440  1.00  0.00    -0.496 OA 
ENDBRANCH   4   5
ENDBRANCH   3   4
BRANCH   3   8
HETATM    8  C   UNL     1     -10.436  16.644  68.000  1.00  0.00    -0.320 A  
HETATM    9  C   UNL     1     -11.894  13.504  66.417  1.00  0.00    -0.435 C  
HETATM   10  C   UNL     1     -10.461  16.284  69.352  1.00  0.00    -0.292 A  
HETATM   11  C   UNL     1     -10.969  15.046  69.777  1.00  0.00    -0.291 A  
HETATM   12  C   UNL     1     -10.953  15.711  67.092  1.00  0.00    -0.270 A  
HETATM   13  C   UNL     1     -11.443  14.104  68.854  1.00  0.00    -0.293 A  
HETATM   14  C   UNL     1     -11.425  14.446  67.493  1.00  0.00    -0.370 A  
BRANCH  13  15
HETATM   15  N   UNL     1     -11.999  12.870  69.247  1.00  0.00    -0.287 NA 
HETATM   16  H   UNL     1     -12.316  12.164  68.582  1.00  0.00     0.000 HD 
BRANCH  15  17
HETATM   17  N   UNL     1     -12.067  12.723  70.485  1.00  0.00    -0.508 NA 
HETATM   18  H   UNL     1     -11.937  13.489  71.147  1.00  0.00     0.000 HD 
BRANCH  17  19
HETATM   19  C   UNL     1     -12.330  11.440  70.870  1.00  0.00    -0.381 A  
HETATM   20  N   UNL     1     -13.251  11.015  71.722  1.00  0.00    -0.437 NA 
HETATM   21  C   UNL     1     -13.225   9.638  71.832  1.00  0.00    -0.446 A  
HETATM   22  C   UNL     1     -12.274   9.025  71.059  1.00  0.00    -0.223 A  
HETATM   23  N   UNL     1     -12.023   7.623  70.973  1.00  0.00    -0.294 N  
HETATM   24  S   UNL     1     -11.383  10.161  70.169  1.00  0.00    -0.320 SA 
HETATM   25  O   UNL     1     -12.745   6.891  71.662  1.00  0.00    -0.365 OA 
HETATM   26  O   UNL     1     -11.119   7.237  70.220  1.00  0.00    -0.259 OA 
ENDBRANCH  17  19
ENDBRANCH  15  17
ENDBRANCH  13  15
ENDBRANCH   3   8
ENDBRANCH   2   3
TORSDOF 7
ENDMDL
MODEL       21
REMARK 921   NORMALIZED FREE ENERGY PREDICTED BY IDOCK:   -5.80 KCAL/MOL
REMARK 922        TOTAL FREE ENERGY PREDICTED BY IDOCK:   -8.80 KCAL/MOL
REMARK 923 INTER-LIGAND FREE ENERGY PREDICTED BY IDOCK:   -8.30 KCAL/MOL
REMARK 924 INTRA-LIGAND FREE ENERGY PREDICTED BY IDOCK:   -0.49 KCAL/MOL
REMARK 927      BINDING AFFINITY PREDICTED BY RF-SCORE:    0.00 PKD
ROOT
HETATM    1  C   UNL     1     -11.247  16.093  70.561  1.00  0.00    -0.381 C  
HETATM    2  C   UNL     1     -12.650  15.525  70.413  1.00  0.00    -0.378 C  
ENDROOT
BRANCH   2   3
HETATM    3  N   UNL     1     -12.952  14.540  71.460  1.00  0.00    -0.318 NA 
BRANCH   3   4
HETATM    4  C   UNL     1     -13.630  14.996  72.683  1.00  0.00    -0.463 C  
BRANCH   4   5
HETATM    5  C   UNL     1     -12.614  15.307  73.796  1.00  0.00    -0.600 C  
HETATM    6  H   UNL     1     -12.189  16.803  75.026  1.00  0.00     0.000 HD 
HETATM    7  O   UNL     1     -12.816  16.610  74.339  1.00  0.00    -0.643 OA 
ENDBRANCH   4   5
ENDBRANCH   3   4
BRANCH   3   8
HETATM    8  C   UNL     1     -12.776  13.186  71.207  1.00  0.00    -0.306 A  
HETATM    9  C   UNL     1     -11.069  11.073  68.541  1.00  0.00    -0.297 C  
HETATM   10  C   UNL     1     -13.198  12.188  72.093  1.00  0.00    -0.438 A  
HETATM   11  C   UNL     1     -12.966  10.827  71.836  1.00  0.00    -0.524 A  
HETATM   12  C   UNL     1     -12.121  12.758  70.046  1.00  0.00    -0.355 A  
HETATM   13  C   UNL     1     -12.270  10.416  70.692  1.00  0.00    -0.347 A  
HETATM   14  C   UNL     1     -11.838  11.403  69.791  1.00  0.00    -0.435 A  
BRANCH  13  15
HETATM   15  N   UNL     1     -12.057   9.058  70.379  1.00  0.00    -0.465 NA 
HETATM   16  H   UNL     1     -11.537   8.749  69.559  1.00  0.00     0.000 HD 
BRANCH  15  17
HETATM   17  N   UNL     1     -12.566   8.269  71.204  1.00  0.00    -0.477 NA 
HETATM   18  H   UNL     1     -13.453   8.449  71.674  1.00  0.00     0.000 HD 
BRANCH  17  19
HETATM   19  C   UNL     1     -11.822   7.145  71.415  1.00  0.00    -0.308 A  
HETATM   20  N   UNL     1     -11.490   6.590  72.571  1.00  0.00    -0.262 NA 
HETATM   21  C   UNL     1     -10.747   5.441  72.373  1.00  0.00    -0.231 A  
HETATM   22  C   UNL     1     -10.517   5.135  71.058  1.00  0.00    -0.171 A  
HETATM   23  N   UNL     1      -9.786   4.015  70.562  1.00  0.00    -0.191 N  
HETATM   24  S   UNL     1     -11.227   6.281  70.029  1.00  0.00    -0.411 SA 
HETATM   25  O   UNL     1      -9.321   3.240  71.410  1.00  0.00    -0.111 OA 
HETATM   26  O   UNL     1      -9.671   3.888  69.336  1.00  0.00    -0.192 OA 
ENDBRANCH  17  19
ENDBRANCH  15  17
ENDBRANCH  13  15
ENDBRANCH   3   8
ENDBRANCH   2   3
TORSDOF 7
ENDMDL
MODEL       22
REMARK 921   NORMALIZED FREE ENERGY PREDICTED BY IDOCK:   -5.77 KCAL/MOL
REMARK 922        TOTAL FREE ENERGY PREDICTED BY IDOCK:   -8.76 KCAL/MOL
REMARK 923 INTER-LIGAND FREE ENERGY PREDICTED BY IDOCK:   -7.99 KCAL/MOL
REMARK 924 INTRA-LIGAND FREE ENERGY PREDICTED BY IDOCK:   -0.76 KCAL/MOL
REMARK 927      BINDING AFFINITY PREDICTED BY RF-SCORE:    0.00 PKD
ROOT
HETATM    1  C   UNL     1     -10.654  19.761  66.045  1.00  0.00    -0.573 C  
HETATM    2  C   UNL     1      -9.459  19.442  66.931  1.00  0.00    -0.333 C  
ENDROOT
BRANCH   2   3
HETATM    3  N   UNL     1      -9.164  18.004  66.949  1.00  0.00    -0.262 NA 
BRANCH   3   4
HETATM    4  C   UNL     1      -7.863  17.545  66.439  1.00  0.00    -0.294 C  
BRANCH   4   5
HETATM    5  C   UNL     1      -6.992  18.733  65.993  1.00  0.00    -0.267 C  
HETATM    6  H   UNL     1      -5.814  19.206  64.471  1.00  0.00     0.000 HD 
HETATM    7  O   UNL     1      -6.351  18.473  64.746  1.00  0.00    -0.431 OA 
ENDBRANCH   4   5
ENDBRANCH   3   4
BRANCH   3   8
HETATM    8  C   UNL     1     -10.015  17.131  67.614  1.00  0.00    -0.283 A  
HETATM    9  C   UNL     1     -11.922  13.949  66.763  1.00  0.00    -0.472 C  
HETATM   10  C   UNL     1     -10.301  17.243  68.980  1.00  0.00    -0.330 A  
HETATM   11  C   UNL     1     -11.128  16.320  69.639  1.00  0.00    -0.333 A  
HETATM   12  C   UNL     1     -10.604  16.058  66.936  1.00  0.00    -0.300 A  
HETATM   13  C   UNL     1     -11.675  15.225  68.957  1.00  0.00    -0.347 A  
HETATM   14  C   UNL     1     -11.399  15.095  67.587  1.00  0.00    -0.327 A  
BRANCH  13  15
HETATM   15  N   UNL     1     -12.544  14.303  69.575  1.00  0.00    -0.501 NA 
HETATM   16  H   UNL     1     -13.456  14.053  69.193  1.00  0.00     0.000 HD 
BRANCH  15  17
HETATM   17  N   UNL     1     -12.090  13.821  70.634  1.00  0.00    -0.420 NA 
HETATM   18  H   UNL     1     -11.753  14.394  71.409  1.00  0.00     0.000 HD 
BRANCH  17  19
HETATM   19  C   UNL     1     -12.089  12.456  70.657  1.00  0.00    -0.225 A  
HETATM   20  N   UNL     1     -11.419  11.626  69.872  1.00  0.00    -0.262 NA 
HETATM   21  C   UNL     1     -11.659  10.312  70.223  1.00  0.00    -0.316 A  
HETATM   22  C   UNL     1     -12.519  10.154  71.278  1.00  0.00    -0.406 A  
HETATM   23  N   UNL     1     -12.943   8.918  71.850  1.00  0.00    -0.356 N  
HETATM   24  S   UNL     1     -13.052  11.654  71.862  1.00  0.00    -0.235 SA 
HETATM   25  O   UNL     1     -12.478   7.888  71.345  1.00  0.00    -0.313 OA 
HETATM   26  O   UNL     1     -13.730   8.957  72.805  1.00  0.00    -0.407 OA 
ENDBRANCH  17  19
ENDBRANCH  15  17
ENDBRANCH  13  15
ENDBRANCH   3   8
ENDBRANCH   2   3
TORSDOF 7
ENDMDL
MODEL       23
REMARK 921   NORMALIZED FREE ENERGY PREDICTED BY IDOCK:   -5.77 KCAL/MOL
REMARK 922        TOTAL FREE ENERGY PREDICTED BY IDOCK:   -8.75 KCAL/MOL
REMARK 923 INTER-LIGAND FREE ENERGY PREDICTED BY IDOCK:   -8.14 KCAL/MOL
REMARK 924 INTRA-LIGAND FREE ENERGY PREDICTED BY IDOCK:   -0.61 KCAL/MOL
REMARK 927      BINDING AFFINITY PREDICTED BY RF-SCORE:    0.00 PKD
ROOT
HETATM    1  C   UNL     1     -10.754   5.973  70.254  1.00  0.00    -0.367 C  
HETATM    2  C   UNL     1     -11.984   6.740  70.716  1.00  0.00    -0.378 C  
ENDROOT
BRANCH   2   3
HETATM    3  N   UNL     1     -11.624   7.886  71.561  1.00  0.00    -0.263 NA 
BRANCH   3   4
HETATM    4  C   UNL     1     -10.959   7.632  72.848  1.00  0.00    -0.400 C  
BRANCH   4   5
HETATM    5  C   UNL     1      -9.542   8.232  72.867  1.00  0.00    -0.249 C  
HETATM    6  H   UNL     1      -7.993   8.313  74.103  1.00  0.00     0.000 HD 
HETATM    7  O   UNL     1      -8.868   7.943  74.091  1.00  0.00    -0.258 OA 
ENDBRANCH   4   5
ENDBRANCH   3   4
BRANCH   3   8
HETATM    8  C   UNL     1     -11.733   9.176  71.060  1.00  0.00    -0.301 A  
HETATM    9  C   UNL     1     -10.567  11.040  67.953  1.00  0.00    -0.244 C  
HETATM   10  C   UNL     1     -12.500  10.169  71.681  1.00  0.00    -0.506 A  
HETATM   11  C   UNL     1     -12.632  11.453  71.128  1.00  0.00    -0.490 A  
HETATM   12  C   UNL     1     -11.094   9.532  69.866  1.00  0.00    -0.244 A  
HETATM   13  C   UNL     1     -12.023  11.781  69.911  1.00  0.00    -0.332 A  
HETATM   14  C   UNL     1     -11.250  10.799  69.272  1.00  0.00    -0.333 A  
BRANCH  13  15
HETATM   15  N   UNL     1     -12.097  13.072  69.348  1.00  0.00    -0.255 NA 
HETATM   16  H   UNL     1     -12.721  13.310  68.577  1.00  0.00     0.000 HD 
BRANCH  15  17
HETATM   17  N   UNL     1     -11.326  13.896  69.883  1.00  0.00    -0.456 NA 
HETATM   18  H   UNL     1     -10.947  13.778  70.823  1.00  0.00     0.000 HD 
BRANCH  17  19
HETATM   19  C   UNL     1     -11.039  14.970  69.091  1.00  0.00    -0.270 A  
HETATM   20  N   UNL     1     -10.692  16.193  69.466  1.00  0.00    -0.289 NA 
HETATM   21  C   UNL     1     -10.457  16.998  68.368  1.00  0.00    -0.370 A  
HETATM   22  C   UNL     1     -10.632  16.376  67.160  1.00  0.00    -0.276 A  
HETATM   23  N   UNL     1     -10.459  16.960  65.870  1.00  0.00    -0.332 N  
HETATM   24  S   UNL     1     -11.097  14.758  67.367  1.00  0.00    -0.334 SA 
HETATM   25  O   UNL     1     -10.107  18.147  65.845  1.00  0.00    -0.546 OA 
HETATM   26  O   UNL     1     -10.661  16.251  64.875  1.00  0.00    -0.650 OA 
ENDBRANCH  17  19
ENDBRANCH  15  17
ENDBRANCH  13  15
ENDBRANCH   3   8
ENDBRANCH   2   3
TORSDOF 7
ENDMDL
MODEL       24
REMARK 921   NORMALIZED FREE ENERGY PREDICTED BY IDOCK:   -5.74 KCAL/MOL
REMARK 922        TOTAL FREE ENERGY PREDICTED BY IDOCK:   -8.72 KCAL/MOL
REMARK 923 INTER-LIGAND FREE ENERGY PREDICTED BY IDOCK:   -8.09 KCAL/MOL
REMARK 924 INTRA-LIGAND FREE ENERGY PREDICTED BY IDOCK:   -0.63 KCAL/MOL
REMARK 927      BINDING AFFINITY PREDICTED BY RF-SCORE:    0.00 PKD
ROOT
HETATM    1  C   UNL     1     -10.566  16.412  65.453  1.00  0.00    -0.338 C  
HETATM    2  C   UNL     1     -10.348  14.907  65.495  1.00  0.00    -0.365 C  
ENDROOT
BRANCH   2   3
HETATM    3  N   UNL     1     -11.574  14.190  65.871  1.00  0.00    -0.339 NA 
BRANCH   3   4
HETATM    4  C   UNL     1     -12.656  14.078  64.881  1.00  0.00    -0.342 C  
BRANCH   4   5
HETATM    5  C   UNL     1     -12.217  13.229  63.674  1.00  0.00    -0.451 C  
HETATM    6  H   UNL     1     -12.888  11.674  62.645  1.00  0.00     0.000 HD 
HETATM    7  O   UNL     1     -13.159  12.198  63.389  1.00  0.00    -0.752 OA 
ENDBRANCH   4   5
ENDBRANCH   3   4
BRANCH   3   8
HETATM    8  C   UNL     1     -11.620  13.473  67.059  1.00  0.00    -0.359 A  
HETATM    9  C   UNL     1     -10.939   9.891  68.149  1.00  0.00    -0.261 C  
HETATM   10  C   UNL     1     -11.890  14.070  68.295  1.00  0.00    -0.406 A  
HETATM   11  C   UNL     1     -11.885  13.330  69.489  1.00  0.00    -0.388 A  
HETATM   12  C   UNL     1     -11.355  12.098  67.070  1.00  0.00    -0.398 A  
HETATM   13  C   UNL     1     -11.575  11.964  69.490  1.00  0.00    -0.327 A  
HETATM   14  C   UNL     1     -11.300  11.347  68.260  1.00  0.00    -0.354 A  
BRANCH  13  15
HETATM   15  N   UNL     1     -11.602  11.181  70.662  1.00  0.00    -0.421 NA 
HETATM   16  H   UNL     1     -10.779  11.015  71.241  1.00  0.00     0.000 HD 
BRANCH  15  17
HETATM   17  N   UNL     1     -12.729  10.709  70.922  1.00  0.00    -0.383 NA 
HETATM   18  H   UNL     1     -13.594  11.241  70.821  1.00  0.00     0.000 HD 
BRANCH  17  19
HETATM   19  C   UNL     1     -12.693   9.415  71.355  1.00  0.00    -0.345 A  
HETATM   20  N   UNL     1     -13.699   8.558  71.454  1.00  0.00    -0.288 NA 
HETATM   21  C   UNL     1     -13.259   7.330  71.910  1.00  0.00    -0.233 A  
HETATM   22  C   UNL     1     -11.913   7.266  72.158  1.00  0.00    -0.269 A  
HETATM   23  N   UNL     1     -11.190   6.132  72.633  1.00  0.00    -0.272 N  
HETATM   24  S   UNL     1     -11.158   8.748  71.826  1.00  0.00    -0.369 SA 
HETATM   25  O   UNL     1     -11.848   5.102  72.831  1.00  0.00    -0.256 OA 
HETATM   26  O   UNL     1      -9.969   6.248  72.806  1.00  0.00    -0.170 OA 
ENDBRANCH  17  19
ENDBRANCH  15  17
ENDBRANCH  13  15
ENDBRANCH   3   8
ENDBRANCH   2   3
TORSDOF 7
ENDMDL
MODEL       25
REMARK 921   NORMALIZED FREE ENERGY PREDICTED BY IDOCK:   -5.66 KCAL/MOL
REMARK 922        TOTAL FREE ENERGY PREDICTED BY IDOCK:   -8.61 KCAL/MOL
REMARK 923 INTER-LIGAND FREE ENERGY PREDICTED BY IDOCK:   -7.96 KCAL/MOL
REMARK 924 INTRA-LIGAND FREE ENERGY PREDICTED BY IDOCK:   -0.65 KCAL/MOL
REMARK 927      BINDING AFFINITY PREDICTED BY RF-SCORE:    0.00 PKD
ROOT
HETATM    1  C   UNL     1      -9.269  14.681  67.474  1.00  0.00    -0.192 C  
HETATM    2  C   UNL     1     -10.640  15.294  67.228  1.00  0.00    -0.290 C  
ENDROOT
BRANCH   2   3
HETATM    3  N   UNL     1     -11.690  14.268  67.159  1.00  0.00    -0.386 NA 
BRANCH   3   4
HETATM    4  C   UNL     1     -12.482  14.153  65.924  1.00  0.00    -0.453 C  
BRANCH   4   5
HETATM    5  C   UNL     1     -11.696  14.682  64.711  1.00  0.00    -0.428 C  
HETATM    6  H   UNL     1     -12.011  15.878  63.161  1.00  0.00     0.000 HD 
HETATM    7  O   UNL     1     -12.495  15.551  63.910  1.00  0.00    -0.656 OA 
ENDBRANCH   4   5
ENDBRANCH   3   4
BRANCH   3   8
HETATM    8  C   UNL     1     -11.790  13.312  68.159  1.00  0.00    -0.353 A  
HETATM    9  C   UNL     1     -12.916  13.226  71.794  1.00  0.00    -0.430 C  
HETATM   10  C   UNL     1     -11.528  11.954  67.940  1.00  0.00    -0.385 A  
HETATM   11  C   UNL     1     -11.683  11.000  68.958  1.00  0.00    -0.402 A  
HETATM   12  C   UNL     1     -12.202  13.671  69.448  1.00  0.00    -0.307 A  
HETATM   13  C   UNL     1     -12.138  11.367  70.231  1.00  0.00    -0.374 A  
HETATM   14  C   UNL     1     -12.407  12.724  70.470  1.00  0.00    -0.355 A  
BRANCH  13  15
HETATM   15  N   UNL     1     -12.264  10.444  71.289  1.00  0.00    -0.380 NA 
HETATM   16  H   UNL     1     -12.039  10.671  72.257  1.00  0.00     0.000 HD 
BRANCH  15  17
HETATM   17  N   UNL     1     -12.676   9.322  70.927  1.00  0.00    -0.508 NA 
HETATM   18  H   UNL     1     -13.472   9.194  70.300  1.00  0.00     0.000 HD 
BRANCH  17  19
HETATM   19  C   UNL     1     -11.962   8.282  71.449  1.00  0.00    -0.299 A  
HETATM   20  N   UNL     1     -11.621   8.079  72.713  1.00  0.00    -0.392 NA 
HETATM   21  C   UNL     1     -10.918   6.897  72.851  1.00  0.00    -0.281 A  
HETATM   22  C   UNL     1     -10.728   6.211  71.681  1.00  0.00    -0.245 A  
HETATM   23  N   UNL     1     -10.043   4.969  71.526  1.00  0.00    -0.190 N  
HETATM   24  S   UNL     1     -11.426   7.030  70.370  1.00  0.00    -0.293 SA 
HETATM   25  O   UNL     1      -9.583   4.461  72.558  1.00  0.00    -0.136 OA 
HETATM   26  O   UNL     1      -9.960   4.484  70.390  1.00  0.00    -0.222 OA 
ENDBRANCH  17  19
ENDBRANCH  15  17
ENDBRANCH  13  15
ENDBRANCH   3   8
ENDBRANCH   2   3
TORSDOF 7
ENDMDL
MODEL       26
REMARK 921   NORMALIZED FREE ENERGY PREDICTED BY IDOCK:   -5.64 KCAL/MOL
REMARK 922        TOTAL FREE ENERGY PREDICTED BY IDOCK:   -8.57 KCAL/MOL
REMARK 923 INTER-LIGAND FREE ENERGY PREDICTED BY IDOCK:   -8.01 KCAL/MOL
REMARK 924 INTRA-LIGAND FREE ENERGY PREDICTED BY IDOCK:   -0.56 KCAL/MOL
REMARK 927      BINDING AFFINITY PREDICTED BY RF-SCORE:    0.00 PKD
ROOT
HETATM    1  C   UNL     1     -14.372  14.000  71.981  1.00  0.00    -0.548 C  
HETATM    2  C   UNL     1     -13.041  13.333  72.293  1.00  0.00    -0.371 C  
ENDROOT
BRANCH   2   3
HETATM    3  N   UNL     1     -12.348  12.904  71.071  1.00  0.00    -0.312 NA 
BRANCH   3   4
HETATM    4  C   UNL     1     -12.309  11.468  70.751  1.00  0.00    -0.375 C  
BRANCH   4   5
HETATM    5  C   UNL     1     -13.090  10.647  71.793  1.00  0.00    -0.466 C  
HETATM    6  H   UNL     1     -14.289   9.069  71.826  1.00  0.00     0.000 HD 
HETATM    7  O   UNL     1     -13.807   9.576  71.183  1.00  0.00    -0.266 OA 
ENDBRANCH   4   5
ENDBRANCH   3   4
BRANCH   3   8
HETATM    8  C   UNL     1     -11.918  13.849  70.151  1.00  0.00    -0.332 A  
HETATM    9  C   UNL     1     -11.682  14.104  66.360  1.00  0.00    -0.404 C  
HETATM   10  C   UNL     1     -11.502  15.133  70.520  1.00  0.00    -0.342 A  
HETATM   11  C   UNL     1     -11.115  16.087  69.564  1.00  0.00    -0.333 A  
HETATM   12  C   UNL     1     -11.918  13.559  68.781  1.00  0.00    -0.374 A  
HETATM   13  C   UNL     1     -11.163  15.797  68.195  1.00  0.00    -0.344 A  
HETATM   14  C   UNL     1     -11.579  14.515  67.804  1.00  0.00    -0.390 A  
BRANCH  13  15
HETATM   15  N   UNL     1     -10.742  16.714  67.210  1.00  0.00    -0.275 NA 
HETATM   16  H   UNL     1     -10.367  16.429  66.305  1.00  0.00     0.000 HD 
BRANCH  15  17
HETATM   17  N   UNL     1     -10.872  17.909  67.550  1.00  0.00    -0.313 NA 
HETATM   18  H   UNL     1     -11.719  18.277  67.985  1.00  0.00     0.000 HD 
BRANCH  17  19
HETATM   19  C   UNL     1      -9.775  18.676  67.284  1.00  0.00    -0.302 A  
HETATM   20  N   UNL     1      -9.419  19.220  66.130  1.00  0.00    -0.415 NA 
HETATM   21  C   UNL     1      -8.253  19.950  66.267  1.00  0.00    -0.329 A  
HETATM   22  C   UNL     1      -7.729  19.949  67.533  1.00  0.00    -0.287 A  
HETATM   23  N   UNL     1      -6.542  20.615  67.961  1.00  0.00    -0.303 N  
HETATM   24  S   UNL     1      -8.685  19.032  68.591  1.00  0.00    -0.328 SA 
HETATM   25  O   UNL     1      -5.932  21.263  67.100  1.00  0.00    -0.279 OA 
HETATM   26  O   UNL     1      -6.208  20.508  69.149  1.00  0.00    -0.325 OA 
ENDBRANCH  17  19
ENDBRANCH  15  17
ENDBRANCH  13  15
ENDBRANCH   3   8
ENDBRANCH   2   3
TORSDOF 7
ENDMDL
MODEL       27
REMARK 921   NORMALIZED FREE ENERGY PREDICTED BY IDOCK:   -5.63 KCAL/MOL
REMARK 922        TOTAL FREE ENERGY PREDICTED BY IDOCK:   -8.56 KCAL/MOL
REMARK 923 INTER-LIGAND FREE ENERGY PREDICTED BY IDOCK:   -7.84 KCAL/MOL
REMARK 924 INTRA-LIGAND FREE ENERGY PREDICTED BY IDOCK:   -0.72 KCAL/MOL
REMARK 927      BINDING AFFINITY PREDICTED BY RF-SCORE:    0.00 PKD
ROOT
HETATM    1  C   UNL     1      -9.239   7.813  72.948  1.00  0.00    -0.266 C  
HETATM    2  C   UNL     1     -10.756   7.856  73.064  1.00  0.00    -0.342 C  
ENDROOT
BRANCH   2   3
HETATM    3  N   UNL     1     -11.398   7.999  71.750  1.00  0.00    -0.258 NA 
BRANCH   3   4
HETATM    4  C   UNL     1     -12.071   6.830  71.164  1.00  0.00    -0.370 C  
BRANCH   4   5
HETATM    5  C   UNL     1     -11.055   5.872  70.517  1.00  0.00    -0.277 C  
HETATM    6  H   UNL     1     -10.183   5.621  68.755  1.00  0.00     0.000 HD 
HETATM    7  O   UNL     1     -10.810   6.212  69.154  1.00  0.00    -0.278 OA 
ENDBRANCH   4   5
ENDBRANCH   3   4
BRANCH   3   8
HETATM    8  C   UNL     1     -11.530   9.257  71.178  1.00  0.00    -0.333 A  
HETATM    9  C   UNL     1      -9.976  11.139  68.258  1.00  0.00    -0.196 C  
HETATM   10  C   UNL     1     -12.490  10.185  71.599  1.00  0.00    -0.506 A  
HETATM   11  C   UNL     1     -12.634  11.433  70.972  1.00  0.00    -0.487 A  
HETATM   12  C   UNL     1     -10.713   9.641  70.108  1.00  0.00    -0.321 A  
HETATM   13  C   UNL     1     -11.839  11.786  69.874  1.00  0.00    -0.348 A  
HETATM   14  C   UNL     1     -10.871  10.869  69.437  1.00  0.00    -0.286 A  
BRANCH  13  15
HETATM   15  N   UNL     1     -11.926  13.046  69.248  1.00  0.00    -0.302 NA 
HETATM   16  H   UNL     1     -12.374  13.190  68.343  1.00  0.00     0.000 HD 
BRANCH  15  17
HETATM   17  N   UNL     1     -11.402  13.969  69.906  1.00  0.00    -0.444 NA 
HETATM   18  H   UNL     1     -11.413  14.005  70.926  1.00  0.00     0.000 HD 
BRANCH  17  19
HETATM   19  C   UNL     1     -10.812  14.926  69.131  1.00  0.00    -0.250 A  
HETATM   20  N   UNL     1      -9.847  15.769  69.468  1.00  0.00    -0.275 NA 
HETATM   21  C   UNL     1      -9.497  16.572  68.399  1.00  0.00    -0.223 A  
HETATM   22  C   UNL     1     -10.208  16.331  67.252  1.00  0.00    -0.279 A  
HETATM   23  N   UNL     1     -10.059  17.004  66.003  1.00  0.00    -0.321 N  
HETATM   24  S   UNL     1     -11.338  15.087  67.483  1.00  0.00    -0.315 SA 
HETATM   25  O   UNL     1      -9.194  17.888  65.953  1.00  0.00    -0.519 OA 
HETATM   26  O   UNL     1     -10.788  16.660  65.064  1.00  0.00    -0.641 OA 
ENDBRANCH  17  19
ENDBRANCH  15  17
ENDBRANCH  13  15
ENDBRANCH   3   8
ENDBRANCH   2   3
TORSDOF 7
ENDMDL
MODEL       28
REMARK 921   NORMALIZED FREE ENERGY PREDICTED BY IDOCK:   -5.62 KCAL/MOL
REMARK 922        TOTAL FREE ENERGY PREDICTED BY IDOCK:   -8.55 KCAL/MOL
REMARK 923 INTER-LIGAND FREE ENERGY PREDICTED BY IDOCK:   -7.84 KCAL/MOL
REMARK 924 INTRA-LIGAND FREE ENERGY PREDICTED BY IDOCK:   -0.71 KCAL/MOL
REMARK 927      BINDING AFFINITY PREDICTED BY RF-SCORE:    0.00 PKD
ROOT
HETATM    1  C   UNL     1      -6.272  16.880  67.183  1.00  0.00    -0.215 C  
HETATM    2  C   UNL     1      -7.047  17.608  66.094  1.00  0.00    -0.312 C  
ENDROOT
BRANCH   2   3
HETATM    3  N   UNL     1      -8.279  18.213  66.615  1.00  0.00    -0.253 NA 
BRANCH   3   4
HETATM    4  C   UNL     1      -8.518  19.644  66.374  1.00  0.00    -0.356 C  
BRANCH   4   5
HETATM    5  C   UNL     1      -7.191  20.419  66.281  1.00  0.00    -0.224 C  
HETATM    6  H   UNL     1      -6.186  21.753  67.349  1.00  0.00     0.000 HD 
HETATM    7  O   UNL     1      -7.005  21.275  67.406  1.00  0.00    -0.509 OA 
ENDBRANCH   4   5
ENDBRANCH   3   4
BRANCH   3   8
HETATM    8  C   UNL     1      -9.276  17.405  67.145  1.00  0.00    -0.237 A  
HETATM    9  C   UNL     1     -11.237  14.343  66.022  1.00  0.00    -0.333 C  
HETATM   10  C   UNL     1      -9.758  17.553  68.451  1.00  0.00    -0.316 A  
HETATM   11  C   UNL     1     -10.735  16.693  68.978  1.00  0.00    -0.343 A  
HETATM   12  C   UNL     1      -9.825  16.364  66.387  1.00  0.00    -0.312 A  
HETATM   13  C   UNL     1     -11.243  15.628  68.224  1.00  0.00    -0.353 A  
HETATM   14  C   UNL     1     -10.772  15.463  66.912  1.00  0.00    -0.314 A  
BRANCH  13  15
HETATM   15  N   UNL     1     -12.254  14.771  68.705  1.00  0.00    -0.584 NA 
HETATM   16  H   UNL     1     -12.707  14.063  68.128  1.00  0.00     0.000 HD 
BRANCH  15  17
HETATM   17  N   UNL     1     -12.543  14.962  69.905  1.00  0.00    -0.567 NA 
HETATM   18  H   UNL     1     -12.611  15.891  70.322  1.00  0.00     0.000 HD 
BRANCH  17  19
HETATM   19  C   UNL     1     -12.758  13.811  70.605  1.00  0.00    -0.260 A  
HETATM   20  N   UNL     1     -13.521  13.635  71.675  1.00  0.00    -0.344 NA 
HETATM   21  C   UNL     1     -13.503  12.315  72.083  1.00  0.00    -0.327 A  
HETATM   22  C   UNL     1     -12.718  11.495  71.316  1.00  0.00    -0.364 A  
HETATM   23  N   UNL     1     -12.514  10.096  71.504  1.00  0.00    -0.399 N  
HETATM   24  S   UNL     1     -11.978  12.358  70.057  1.00  0.00    -0.229 SA 
HETATM   25  O   UNL     1     -13.115   9.573  72.452  1.00  0.00    -0.413 OA 
HETATM   26  O   UNL     1     -11.767   9.503  70.715  1.00  0.00    -0.278 OA 
ENDBRANCH  17  19
ENDBRANCH  15  17
ENDBRANCH  13  15
ENDBRANCH   3   8
ENDBRANCH   2   3
TORSDOF 7
ENDMDL
MODEL       29
REMARK 921   NORMALIZED FREE ENERGY PREDICTED BY IDOCK:   -5.61 KCAL/MOL
REMARK 922        TOTAL FREE ENERGY PREDICTED BY IDOCK:   -8.53 KCAL/MOL
REMARK 923 INTER-LIGAND FREE ENERGY PREDICTED BY IDOCK:   -7.84 KCAL/MOL
REMARK 924 INTRA-LIGAND FREE ENERGY PREDICTED BY IDOCK:   -0.69 KCAL/MOL
REMARK 927      BINDING AFFINITY PREDICTED BY RF-SCORE:    0.00 PKD
ROOT
HETATM    1  C   UNL     1      -9.926   4.863  70.424  1.00  0.00    -0.316 C  
HETATM    2  C   UNL     1      -9.119   5.480  71.556  1.00  0.00    -0.139 C  
ENDROOT
BRANCH   2   3
HETATM    3  N   UNL     1      -9.912   6.448  72.326  1.00  0.00    -0.165 NA 
BRANCH   3   4
HETATM    4  C   UNL     1     -10.127   6.201  73.760  1.00  0.00    -0.238 C  
BRANCH   4   5
HETATM    5  C   UNL     1     -10.783   4.828  73.993  1.00  0.00    -0.296 C  
HETATM    6  H   UNL     1     -12.353   3.815  73.330  1.00  0.00     0.000 HD 
HETATM    7  O   UNL     1     -11.947   4.662  73.187  1.00  0.00    -0.176 OA 
ENDBRANCH   4   5
ENDBRANCH   3   4
BRANCH   3   8
HETATM    8  C   UNL     1     -10.277   7.657  71.751  1.00  0.00    -0.188 A  
HETATM    9  C   UNL     1     -13.239  10.037  71.971  1.00  0.00    -0.545 C  
HETATM   10  C   UNL     1      -9.429   8.382  70.905  1.00  0.00    -0.205 A  
HETATM   11  C   UNL     1      -9.804   9.626  70.374  1.00  0.00    -0.315 A  
HETATM   12  C   UNL     1     -11.523   8.231  72.031  1.00  0.00    -0.399 A  
HETATM   13  C   UNL     1     -11.036  10.208  70.698  1.00  0.00    -0.322 A  
HETATM   14  C   UNL     1     -11.900   9.498  71.546  1.00  0.00    -0.478 A  
BRANCH  13  15
HETATM   15  N   UNL     1     -11.464  11.434  70.150  1.00  0.00    -0.483 NA 
HETATM   16  H   UNL     1     -12.423  11.774  70.223  1.00  0.00     0.000 HD 
BRANCH  15  17
HETATM   17  N   UNL     1     -10.558  12.066  69.567  1.00  0.00    -0.414 NA 
HETATM   18  H   UNL     1      -9.583  12.050  69.869  1.00  0.00     0.000 HD 
BRANCH  17  19
HETATM   19  C   UNL     1     -10.995  12.778  68.487  1.00  0.00    -0.258 A  
HETATM   20  N   UNL     1     -10.960  14.090  68.306  1.00  0.00    -0.247 NA 
HETATM   21  C   UNL     1     -11.475  14.431  67.069  1.00  0.00    -0.361 A  
HETATM   22  C   UNL     1     -11.902  13.367  66.319  1.00  0.00    -0.394 A  
HETATM   23  N   UNL     1     -12.472  13.422  65.013  1.00  0.00    -0.430 N  
HETATM   24  S   UNL     1     -11.669  11.903  67.145  1.00  0.00    -0.145 SA 
HETATM   25  O   UNL     1     -12.583  14.547  64.507  1.00  0.00    -0.644 OA 
HETATM   26  O   UNL     1     -12.807  12.358  64.476  1.00  0.00    -0.680 OA 
ENDBRANCH  17  19
ENDBRANCH  15  17
ENDBRANCH  13  15
ENDBRANCH   3   8
ENDBRANCH   2   3
TORSDOF 7
ENDMDL
MODEL       30
REMARK 921   NORMALIZED FREE ENERGY PREDICTED BY IDOCK:   -5.55 KCAL/MOL
REMARK 922        TOTAL FREE ENERGY PREDICTED BY IDOCK:   -8.45 KCAL/MOL
REMARK 923 INTER-LIGAND FREE ENERGY PREDICTED BY IDOCK:   -7.83 KCAL/MOL
REMARK 924 INTRA-LIGAND FREE ENERGY PREDICTED BY IDOCK:   -0.62 KCAL/MOL
REMARK 927      BINDING AFFINITY PREDICTED BY RF-SCORE:    0.00 PKD
ROOT
HETATM    1  C   UNL     1     -10.542  17.069  68.858  1.00  0.00    -0.328 C  
HETATM    2  C   UNL     1      -9.959  15.719  68.465  1.00  0.00    -0.208 C  
ENDROOT
BRANCH   2   3
HETATM    3  N   UNL     1     -11.007  14.769  68.070  1.00  0.00    -0.263 NA 
BRANCH   3   4
HETATM    4  C   UNL     1     -11.492  14.792  66.681  1.00  0.00    -0.335 C  
BRANCH   4   5
HETATM    5  C   UNL     1     -10.370  15.200  65.710  1.00  0.00    -0.339 C  
HETATM    6  H   UNL     1     -10.035  16.609  64.355  1.00  0.00     0.000 HD 
HETATM    7  O   UNL     1     -10.727  16.356  64.954  1.00  0.00    -0.675 OA 
ENDBRANCH   4   5
ENDBRANCH   3   4
BRANCH   3   8
HETATM    8  C   UNL     1     -11.381  13.751  68.936  1.00  0.00    -0.288 A  
HETATM    9  C   UNL     1     -13.393  13.463  72.154  1.00  0.00    -0.613 C  
HETATM   10  C   UNL     1     -11.105  12.402  68.685  1.00  0.00    -0.297 A  
HETATM   11  C   UNL     1     -11.536  11.387  69.555  1.00  0.00    -0.381 A  
HETATM   12  C   UNL     1     -12.097  14.038  70.104  1.00  0.00    -0.419 A  
HETATM   13  C   UNL     1     -12.290  11.685  70.697  1.00  0.00    -0.344 A  
HETATM   14  C   UNL     1     -12.577  13.033  70.965  1.00  0.00    -0.386 A  
BRANCH  13  15
HETATM   15  N   UNL     1     -12.702  10.698  71.614  1.00  0.00    -0.427 NA 
HETATM   16  H   UNL     1     -12.578  10.786  72.623  1.00  0.00     0.000 HD 
BRANCH  15  17
HETATM   17  N   UNL     1     -13.232   9.704  71.075  1.00  0.00    -0.554 NA 
HETATM   18  H   UNL     1     -13.962   9.776  70.365  1.00  0.00     0.000 HD 
BRANCH  17  19
HETATM   19  C   UNL     1     -12.743   8.511  71.525  1.00  0.00    -0.313 A  
HETATM   20  N   UNL     1     -13.346   7.332  71.534  1.00  0.00    -0.389 NA 
HETATM   21  C   UNL     1     -12.514   6.355  72.048  1.00  0.00    -0.160 A  
HETATM   22  C   UNL     1     -11.278   6.807  72.430  1.00  0.00    -0.264 A  
HETATM   23  N   UNL     1     -10.224   6.025  72.989  1.00  0.00    -0.186 N  
HETATM   24  S   UNL     1     -11.124   8.473  72.156  1.00  0.00    -0.361 SA 
HETATM   25  O   UNL     1     -10.450   4.816  73.133  1.00  0.00    -0.173 OA 
HETATM   26  O   UNL     1      -9.165   6.596  73.281  1.00  0.00    -0.127 OA 
ENDBRANCH  17  19
ENDBRANCH  15  17
ENDBRANCH  13  15
ENDBRANCH   3   8
ENDBRANCH   2   3
TORSDOF 7
ENDMDL
MODEL       31
REMARK 921   NORMALIZED FREE ENERGY PREDICTED BY IDOCK:   -5.55 KCAL/MOL
REMARK 922        TOTAL FREE ENERGY PREDICTED BY IDOCK:   -8.45 KCAL/MOL
REMARK 923 INTER-LIGAND FREE ENERGY PREDICTED BY IDOCK:   -7.76 KCAL/MOL
REMARK 924 INTRA-LIGAND FREE ENERGY PREDICTED BY IDOCK:   -0.70 KCAL/MOL
REMARK 927      BINDING AFFINITY PREDICTED BY RF-SCORE:    0.00 PKD
ROOT
HETATM    1  C   UNL     1      -9.396  16.429  67.591  1.00  0.00    -0.212 C  
HETATM    2  C   UNL     1     -10.881  16.154  67.409  1.00  0.00    -0.265 C  
ENDROOT
BRANCH   2   3
HETATM    3  N   UNL     1     -11.120  14.842  66.794  1.00  0.00    -0.331 NA 
BRANCH   3   4
HETATM    4  C   UNL     1     -10.857  14.679  65.356  1.00  0.00    -0.356 C  
BRANCH   4   5
HETATM    5  C   UNL     1     -11.986  15.298  64.513  1.00  0.00    -0.271 C  
HETATM    6  H   UNL     1     -12.293  16.935  63.438  1.00  0.00     0.000 HD 
HETATM    7  O   UNL     1     -11.596  16.553  63.958  1.00  0.00    -1.154 OA 
ENDBRANCH   4   5
ENDBRANCH   3   4
BRANCH   3   8
HETATM    8  C   UNL     1     -11.397  13.742  67.595  1.00  0.00    -0.304 A  
HETATM    9  C   UNL     1     -10.876   9.978  67.391  1.00  0.00    -0.313 C  
HETATM   10  C   UNL     1     -11.933  13.857  68.883  1.00  0.00    -0.393 A  
HETATM   11  C   UNL     1     -12.160  12.731  69.690  1.00  0.00    -0.286 A  
HETATM   12  C   UNL     1     -11.108  12.447  67.148  1.00  0.00    -0.328 A  
HETATM   13  C   UNL     1     -11.826  11.445  69.247  1.00  0.00    -0.349 A  
HETATM   14  C   UNL     1     -11.285  11.309  67.959  1.00  0.00    -0.351 A  
BRANCH  13  15
HETATM   15  N   UNL     1     -12.079  10.289  70.013  1.00  0.00    -0.455 NA 
HETATM   16  H   UNL     1     -12.541   9.461  69.637  1.00  0.00     0.000 HD 
BRANCH  15  17
HETATM   17  N   UNL     1     -11.683  10.374  71.194  1.00  0.00    -0.338 NA 
HETATM   18  H   UNL     1     -11.857  11.189  71.784  1.00  0.00     0.000 HD 
BRANCH  17  19
HETATM   19  C   UNL     1     -10.995   9.275  71.621  1.00  0.00    -0.363 A  
HETATM   20  N   UNL     1      -9.685   9.135  71.761  1.00  0.00    -0.289 NA 
HETATM   21  C   UNL     1      -9.372   7.878  72.244  1.00  0.00    -0.180 A  
HETATM   22  C   UNL     1     -10.455   7.069  72.465  1.00  0.00    -0.216 A  
HETATM   23  N   UNL     1     -10.429   5.731  72.958  1.00  0.00    -0.207 N  
HETATM   24  S   UNL     1     -11.902   7.863  72.073  1.00  0.00    -0.337 SA 
HETATM   25  O   UNL     1      -9.313   5.261  73.219  1.00  0.00    -0.138 OA 
HETATM   26  O   UNL     1     -11.507   5.139  73.099  1.00  0.00    -0.323 OA 
ENDBRANCH  17  19
ENDBRANCH  15  17
ENDBRANCH  13  15
ENDBRANCH   3   8
ENDBRANCH   2   3
TORSDOF 7
ENDMDL
MODEL       32
REMARK 921   NORMALIZED FREE ENERGY PREDICTED BY IDOCK:   -5.55 KCAL/MOL
REMARK 922        TOTAL FREE ENERGY PREDICTED BY IDOCK:   -8.44 KCAL/MOL
REMARK 923 INTER-LIGAND FREE ENERGY PREDICTED BY IDOCK:   -7.66 KCAL/MOL
REMARK 924 INTRA-LIGAND FREE ENERGY PREDICTED BY IDOCK:   -0.78 KCAL/MOL
REMARK 927      BINDING AFFINITY PREDICTED BY RF-SCORE:    0.00 PKD
ROOT
HETATM    1  C   UNL     1      -8.058   6.852  71.815  1.00  0.00    -0.101 C  
HETATM    2  C   UNL     1      -8.622   8.254  71.990  1.00  0.00    -0.178 C  
ENDROOT
BRANCH   2   3
HETATM    3  N   UNL     1     -10.035   8.326  71.596  1.00  0.00    -0.194 NA 
BRANCH   3   4
HETATM    4  C   UNL     1     -11.061   7.945  72.580  1.00  0.00    -0.362 C  
BRANCH   4   5
HETATM    5  C   UNL     1     -11.911   6.771  72.066  1.00  0.00    -0.317 C  
HETATM    6  H   UNL     1     -13.690   6.494  71.235  1.00  0.00     0.000 HD 
HETATM    7  O   UNL     1     -13.165   7.218  71.553  1.00  0.00    -0.376 OA 
ENDBRANCH   4   5
ENDBRANCH   3   4
BRANCH   3   8
HETATM    8  C   UNL     1     -10.389   8.926  70.396  1.00  0.00    -0.204 A  
HETATM    9  C   UNL     1     -11.775  12.295  69.296  1.00  0.00    -0.388 C  
HETATM   10  C   UNL     1     -10.180   8.317  69.153  1.00  0.00    -0.223 A  
HETATM   11  C   UNL     1     -10.505   8.965  67.950  1.00  0.00    -0.281 A  
HETATM   12  C   UNL     1     -10.948  10.209  70.380  1.00  0.00    -0.386 A  
HETATM   13  C   UNL     1     -11.023  10.266  67.947  1.00  0.00    -0.292 A  
HETATM   14  C   UNL     1     -11.239  10.894  69.184  1.00  0.00    -0.318 A  
BRANCH  13  15
HETATM   15  N   UNL     1     -11.401  10.931  66.763  1.00  0.00    -0.265 NA 
HETATM   16  H   UNL     1     -12.372  11.084  66.494  1.00  0.00     0.000 HD 
BRANCH  15  17
HETATM   17  N   UNL     1     -10.432  11.314  66.074  1.00  0.00    -0.251 NA 
HETATM   18  H   UNL     1      -9.680  10.693  65.773  1.00  0.00     0.000 HD 
BRANCH  17  19
HETATM   19  C   UNL     1     -10.475  12.642  65.761  1.00  0.00    -0.277 A  
HETATM   20  N   UNL     1      -9.596  13.583  66.072  1.00  0.00    -0.213 NA 
HETATM   21  C   UNL     1      -9.977  14.806  65.554  1.00  0.00    -0.356 A  
HETATM   22  C   UNL     1     -11.154  14.782  64.851  1.00  0.00    -0.407 A  
HETATM   23  N   UNL     1     -11.783  15.890  64.210  1.00  0.00    -0.295 N  
HETATM   24  S   UNL     1     -11.817  13.221  64.821  1.00  0.00    -0.395 SA 
HETATM   25  O   UNL     1     -11.199  16.979  64.292  1.00  0.00    -1.186 OA 
HETATM   26  O   UNL     1     -12.851  15.692  63.616  1.00  0.00    -0.397 OA 
ENDBRANCH  17  19
ENDBRANCH  15  17
ENDBRANCH  13  15
ENDBRANCH   3   8
ENDBRANCH   2   3
TORSDOF 7
ENDMDL
MODEL       33
REMARK 921   NORMALIZED FREE ENERGY PREDICTED BY IDOCK:   -5.52 KCAL/MOL
REMARK 922        TOTAL FREE ENERGY PREDICTED BY IDOCK:   -8.41 KCAL/MOL
REMARK 923 INTER-LIGAND FREE ENERGY PREDICTED BY IDOCK:   -7.78 KCAL/MOL
REMARK 924 INTRA-LIGAND FREE ENERGY PREDICTED BY IDOCK:   -0.63 KCAL/MOL
REMARK 927      BINDING AFFINITY PREDICTED BY RF-SCORE:    0.00 PKD
ROOT
HETATM    1  C   UNL     1      -9.253  15.448  66.289  1.00  0.00    -0.354 C  
HETATM    2  C   UNL     1     -10.666  14.914  66.477  1.00  0.00    -0.309 C  
ENDROOT
BRANCH   2   3
HETATM    3  N   UNL     1     -10.830  13.586  65.872  1.00  0.00    -0.274 NA 
BRANCH   3   4
HETATM    4  C   UNL     1     -10.631  13.442  64.421  1.00  0.00    -0.407 C  
BRANCH   4   5
HETATM    5  C   UNL     1     -11.975  13.258  63.694  1.00  0.00    -0.486 C  
HETATM    6  H   UNL     1     -13.511  14.378  63.133  1.00  0.00     0.000 HD 
HETATM    7  O   UNL     1     -12.682  14.492  63.582  1.00  0.00    -0.754 OA 
ENDBRANCH   4   5
ENDBRANCH   3   4
BRANCH   3   8
HETATM    8  C   UNL     1     -10.975  12.469  66.683  1.00  0.00    -0.266 A  
HETATM    9  C   UNL     1      -9.805   8.847  66.628  1.00  0.00    -0.332 C  
HETATM   10  C   UNL     1     -11.618  12.511  67.926  1.00  0.00    -0.403 A  
HETATM   11  C   UNL     1     -11.709  11.377  68.748  1.00  0.00    -0.404 A  
HETATM   12  C   UNL     1     -10.437  11.235  66.297  1.00  0.00    -0.308 A  
HETATM   13  C   UNL     1     -11.128  10.160  68.368  1.00  0.00    -0.218 A  
HETATM   14  C   UNL     1     -10.478  10.098  67.126  1.00  0.00    -0.305 A  
BRANCH  13  15
HETATM   15  N   UNL     1     -11.237   8.991  69.148  1.00  0.00    -0.430 NA 
HETATM   16  H   UNL     1     -10.826   8.098  68.875  1.00  0.00     0.000 HD 
BRANCH  15  17
HETATM   17  N   UNL     1     -11.885   9.152  70.204  1.00  0.00    -0.460 NA 
HETATM   18  H   UNL     1     -12.604   9.867  70.314  1.00  0.00     0.000 HD 
BRANCH  17  19
HETATM   19  C   UNL     1     -11.539   8.280  71.195  1.00  0.00    -0.279 A  
HETATM   20  N   UNL     1     -11.520   8.495  72.503  1.00  0.00    -0.352 NA 
HETATM   21  C   UNL     1     -11.136   7.356  73.185  1.00  0.00    -0.309 A  
HETATM   22  C   UNL     1     -10.862   6.280  72.383  1.00  0.00    -0.243 A  
HETATM   23  N   UNL     1     -10.448   4.984  72.813  1.00  0.00    -0.201 N  
HETATM   24  S   UNL     1     -11.078   6.665  70.746  1.00  0.00    -0.307 SA 
HETATM   25  O   UNL     1     -10.334   4.819  74.035  1.00  0.00    -0.202 OA 
HETATM   26  O   UNL     1     -10.240   4.121  71.950  1.00  0.00    -0.175 OA 
ENDBRANCH  17  19
ENDBRANCH  15  17
ENDBRANCH  13  15
ENDBRANCH   3   8
ENDBRANCH   2   3
TORSDOF 7
ENDMDL
MODEL       34
REMARK 921   NORMALIZED FREE ENERGY PREDICTED BY IDOCK:   -5.48 KCAL/MOL
REMARK 922        TOTAL FREE ENERGY PREDICTED BY IDOCK:   -8.35 KCAL/MOL
REMARK 923 INTER-LIGAND FREE ENERGY PREDICTED BY IDOCK:   -7.69 KCAL/MOL
REMARK 924 INTRA-LIGAND FREE ENERGY PREDICTED BY IDOCK:   -0.66 KCAL/MOL
REMARK 927      BINDING AFFINITY PREDICTED BY RF-SCORE:    0.00 PKD
ROOT
HETATM    1  C   UNL     1      -9.538   8.082  73.044  1.00  0.00    -0.347 C  
HETATM    2  C   UNL     1      -9.681   8.350  71.553  1.00  0.00    -0.210 C  
ENDROOT
BRANCH   2   3
HETATM    3  N   UNL     1     -11.032   8.815  71.212  1.00  0.00    -0.254 NA 
BRANCH   3   4
HETATM    4  C   UNL     1     -12.150   8.440  72.092  1.00  0.00    -0.373 C  
BRANCH   4   5
HETATM    5  C   UNL     1     -12.942   7.257  71.507  1.00  0.00    -0.389 C  
HETATM    6  H   UNL     1     -14.832   6.671  71.376  1.00  0.00     0.000 HD 
HETATM    7  O   UNL     1     -14.342   7.401  71.737  1.00  0.00    -0.426 OA 
ENDBRANCH   4   5
ENDBRANCH   3   4
BRANCH   3   8
HETATM    8  C   UNL     1     -11.208   9.745  70.196  1.00  0.00    -0.272 A  
HETATM    9  C   UNL     1     -10.402   9.964  66.483  1.00  0.00    -0.259 C  
HETATM   10  C   UNL     1     -11.915  10.940  70.376  1.00  0.00    -0.453 A  
HETATM   11  C   UNL     1     -12.118  11.842  69.319  1.00  0.00    -0.292 A  
HETATM   12  C   UNL     1     -10.705   9.500  68.913  1.00  0.00    -0.220 A  
HETATM   13  C   UNL     1     -11.647  11.563  68.030  1.00  0.00    -0.300 A  
HETATM   14  C   UNL     1     -10.937  10.369  67.830  1.00  0.00    -0.369 A  
BRANCH  13  15
HETATM   15  N   UNL     1     -11.796  12.464  66.956  1.00  0.00    -0.546 NA 
HETATM   16  H   UNL     1     -11.480  12.260  66.008  1.00  0.00     0.000 HD 
BRANCH  15  17
HETATM   17  N   UNL     1     -12.350  13.537  67.276  1.00  0.00    -0.304 NA 
HETATM   18  H   UNL     1     -13.286  13.583  67.680  1.00  0.00     0.000 HD 
BRANCH  17  19
HETATM   19  C   UNL     1     -11.586  14.641  67.033  1.00  0.00    -0.371 A  
HETATM   20  N   UNL     1     -11.024  15.011  65.891  1.00  0.00    -0.337 NA 
HETATM   21  C   UNL     1     -10.347  16.206  66.038  1.00  0.00    -0.358 A  
HETATM   22  C   UNL     1     -10.398  16.736  67.301  1.00  0.00    -0.304 A  
HETATM   23  N   UNL     1      -9.794  17.952  67.737  1.00  0.00    -0.289 N  
HETATM   24  S   UNL     1     -11.300  15.747  68.343  1.00  0.00    -0.361 SA 
HETATM   25  O   UNL     1      -9.168  18.595  66.883  1.00  0.00    -0.286 OA 
HETATM   26  O   UNL     1      -9.939  18.285  68.920  1.00  0.00    -0.375 OA 
ENDBRANCH  17  19
ENDBRANCH  15  17
ENDBRANCH  13  15
ENDBRANCH   3   8
ENDBRANCH   2   3
TORSDOF 7
ENDMDL
MODEL       35
REMARK 921   NORMALIZED FREE ENERGY PREDICTED BY IDOCK:   -5.46 KCAL/MOL
REMARK 922        TOTAL FREE ENERGY PREDICTED BY IDOCK:   -8.33 KCAL/MOL
REMARK 923 INTER-LIGAND FREE ENERGY PREDICTED BY IDOCK:   -7.66 KCAL/MOL
REMARK 924 INTRA-LIGAND FREE ENERGY PREDICTED BY IDOCK:   -0.67 KCAL/MOL
REMARK 927      BINDING AFFINITY PREDICTED BY RF-SCORE:    0.00 PKD
ROOT
HETATM    1  C   UNL     1      -9.818  20.474  67.082  1.00  0.00    -0.567 C  
HETATM    2  C   UNL     1     -10.274  19.425  66.078  1.00  0.00    -0.457 C  
ENDROOT
BRANCH   2   3
HETATM    3  N   UNL     1      -9.505  18.181  66.205  1.00  0.00    -0.504 NA 
BRANCH   3   4
HETATM    4  C   UNL     1      -8.039  18.243  66.089  1.00  0.00    -0.161 C  
BRANCH   4   5
HETATM    5  C   UNL     1      -7.360  17.563  67.290  1.00  0.00    -0.181 C  
HETATM    6  H   UNL     1      -6.913  18.000  69.172  1.00  0.00     0.000 HD 
HETATM    7  O   UNL     1      -7.332  18.420  68.430  1.00  0.00    -0.257 OA 
ENDBRANCH   4   5
ENDBRANCH   3   4
BRANCH   3   8
HETATM    8  C   UNL     1     -10.136  17.016  66.618  1.00  0.00    -0.306 A  
HETATM    9  C   UNL     1     -11.804  15.760  69.801  1.00  0.00    -0.352 C  
HETATM   10  C   UNL     1     -10.388  15.942  65.756  1.00  0.00    -0.396 A  
HETATM   11  C   UNL     1     -11.070  14.794  66.189  1.00  0.00    -0.339 A  
HETATM   12  C   UNL     1     -10.588  16.882  67.937  1.00  0.00    -0.361 A  
HETATM   13  C   UNL     1     -11.556  14.692  67.499  1.00  0.00    -0.375 A  
HETATM   14  C   UNL     1     -11.313  15.758  68.378  1.00  0.00    -0.372 A  
BRANCH  13  15
HETATM   15  N   UNL     1     -12.206  13.537  67.980  1.00  0.00    -0.315 NA 
HETATM   16  H   UNL     1     -13.208  13.498  68.166  1.00  0.00     0.000 HD 
BRANCH  15  17
HETATM   17  N   UNL     1     -11.439  12.568  68.157  1.00  0.00    -0.295 NA 
HETATM   18  H   UNL     1     -10.657  12.354  67.537  1.00  0.00     0.000 HD 
BRANCH  17  19
HETATM   19  C   UNL     1     -11.746  11.821  69.258  1.00  0.00    -0.335 A  
HETATM   20  N   UNL     1     -12.386  12.206  70.353  1.00  0.00    -0.276 NA 
HETATM   21  C   UNL     1     -12.528  11.153  71.237  1.00  0.00    -0.360 A  
HETATM   22  C   UNL     1     -11.987   9.971  70.804  1.00  0.00    -0.335 A  
HETATM   23  N   UNL     1     -11.986   8.729  71.505  1.00  0.00    -0.305 N  
HETATM   24  S   UNL     1     -11.282  10.146  69.271  1.00  0.00    -0.161 SA 
HETATM   25  O   UNL     1     -12.540   8.722  72.613  1.00  0.00    -0.371 OA 
HETATM   26  O   UNL     1     -11.448   7.753  70.966  1.00  0.00    -0.275 OA 
ENDBRANCH  17  19
ENDBRANCH  15  17
ENDBRANCH  13  15
ENDBRANCH   3   8
ENDBRANCH   2   3
TORSDOF 7
ENDMDL
MODEL       36
REMARK 921   NORMALIZED FREE ENERGY PREDICTED BY IDOCK:   -5.44 KCAL/MOL
REMARK 922        TOTAL FREE ENERGY PREDICTED BY IDOCK:   -8.29 KCAL/MOL
REMARK 923 INTER-LIGAND FREE ENERGY PREDICTED BY IDOCK:   -7.72 KCAL/MOL
REMARK 924 INTRA-LIGAND FREE ENERGY PREDICTED BY IDOCK:   -0.56 KCAL/MOL
REMARK 927      BINDING AFFINITY PREDICTED BY RF-SCORE:    0.00 PKD
ROOT
HETATM    1  C   UNL     1     -10.644  18.377  67.174  1.00  0.00    -0.416 C  
HETATM    2  C   UNL     1     -10.682  17.105  68.007  1.00  0.00    -0.372 C  
ENDROOT
BRANCH   2   3
HETATM    3  N   UNL     1     -10.281  15.929  67.223  1.00  0.00    -0.272 NA 
BRANCH   3   4
HETATM    4  C   UNL     1      -9.219  16.082  66.216  1.00  0.00    -0.333 C  
BRANCH   4   5
HETATM    5  C   UNL     1      -7.834  16.164  66.881  1.00  0.00    -0.248 C  
HETATM    6  H   UNL     1      -6.382  14.924  67.418  1.00  0.00     0.000 HD 
HETATM    7  O   UNL     1      -7.237  14.874  67.007  1.00  0.00    -0.148 OA 
ENDBRANCH   4   5
ENDBRANCH   3   4
BRANCH   3   8
HETATM    8  C   UNL     1     -10.758  14.672  67.567  1.00  0.00    -0.268 A  
HETATM    9  C   UNL     1     -10.634  11.170  66.080  1.00  0.00    -0.305 C  
HETATM   10  C   UNL     1     -11.409  14.413  68.778  1.00  0.00    -0.299 A  
HETATM   11  C   UNL     1     -11.840  13.122  69.122  1.00  0.00    -0.364 A  
HETATM   12  C   UNL     1     -10.568  13.581  66.710  1.00  0.00    -0.272 A  
HETATM   13  C   UNL     1     -11.605  12.031  68.275  1.00  0.00    -0.334 A  
HETATM   14  C   UNL     1     -10.952  12.271  67.056  1.00  0.00    -0.314 A  
BRANCH  13  15
HETATM   15  N   UNL     1     -12.061  10.730  68.568  1.00  0.00    -0.826 NA 
HETATM   16  H   UNL     1     -11.735   9.900  68.073  1.00  0.00     0.000 HD 
BRANCH  15  17
HETATM   17  N   UNL     1     -12.901  10.690  69.491  1.00  0.00    -0.560 NA 
HETATM   18  H   UNL     1     -13.788  11.193  69.461  1.00  0.00     0.000 HD 
BRANCH  17  19
HETATM   19  C   UNL     1     -12.519   9.910  70.544  1.00  0.00    -0.117 A  
HETATM   20  N   UNL     1     -13.287   9.358  71.473  1.00  0.00    -0.378 NA 
HETATM   21  C   UNL     1     -12.531   8.615  72.361  1.00  0.00    -0.362 A  
HETATM   22  C   UNL     1     -11.186   8.614  72.098  1.00  0.00    -0.367 A  
HETATM   23  N   UNL     1     -10.176   7.937  72.844  1.00  0.00    -0.309 N  
HETATM   24  S   UNL     1     -10.829   9.546  70.727  1.00  0.00    -0.343 SA 
HETATM   25  O   UNL     1     -10.560   7.279  73.821  1.00  0.00    -0.364 OA 
HETATM   26  O   UNL     1      -9.002   8.043  72.467  1.00  0.00    -0.154 OA 
ENDBRANCH  17  19
ENDBRANCH  15  17
ENDBRANCH  13  15
ENDBRANCH   3   8
ENDBRANCH   2   3
TORSDOF 7
ENDMDL
MODEL       37
REMARK 921   NORMALIZED FREE ENERGY PREDICTED BY IDOCK:   -5.43 KCAL/MOL
REMARK 922        TOTAL FREE ENERGY PREDICTED BY IDOCK:   -8.28 KCAL/MOL
REMARK 923 INTER-LIGAND FREE ENERGY PREDICTED BY IDOCK:   -7.53 KCAL/MOL
REMARK 924 INTRA-LIGAND FREE ENERGY PREDICTED BY IDOCK:   -0.75 KCAL/MOL
REMARK 927      BINDING AFFINITY PREDICTED BY RF-SCORE:    0.00 PKD
ROOT
HETATM    1  C   UNL     1     -11.864   7.925  71.753  1.00  0.00    -0.333 C  
HETATM    2  C   UNL     1     -11.241   9.289  71.493  1.00  0.00    -0.386 C  
ENDROOT
BRANCH   2   3
HETATM    3  N   UNL     1     -10.939   9.486  70.069  1.00  0.00    -0.242 NA 
BRANCH   3   4
HETATM    4  C   UNL     1     -10.464   8.336  69.284  1.00  0.00    -0.210 C  
BRANCH   4   5
HETATM    5  C   UNL     1      -8.959   8.101  69.502  1.00  0.00    -0.151 C  
HETATM    6  H   UNL     1      -7.780   6.675  70.216  1.00  0.00     0.000 HD 
HETATM    7  O   UNL     1      -8.709   6.821  70.081  1.00  0.00    -0.139 OA 
ENDBRANCH   4   5
ENDBRANCH   3   4
BRANCH   3   8
HETATM    8  C   UNL     1     -11.285  10.678  69.447  1.00  0.00    -0.270 A  
HETATM    9  C   UNL     1     -12.421  14.139  70.549  1.00  0.00    -0.431 C  
HETATM   10  C   UNL     1     -11.173  10.873  68.066  1.00  0.00    -0.378 A  
HETATM   11  C   UNL     1     -11.486  12.104  67.467  1.00  0.00    -0.410 A  
HETATM   12  C   UNL     1     -11.735  11.769  70.201  1.00  0.00    -0.354 A  
HETATM   13  C   UNL     1     -11.892  13.200  68.238  1.00  0.00    -0.349 A  
HETATM   14  C   UNL     1     -12.009  13.025  69.626  1.00  0.00    -0.367 A  
BRANCH  13  15
HETATM   15  N   UNL     1     -12.255  14.437  67.668  1.00  0.00    -0.623 NA 
HETATM   16  H   UNL     1     -13.125  14.920  67.889  1.00  0.00     0.000 HD 
BRANCH  15  17
HETATM   17  N   UNL     1     -11.409  14.885  66.866  1.00  0.00    -0.349 NA 
HETATM   18  H   UNL     1     -11.127  14.393  66.018  1.00  0.00     0.000 HD 
BRANCH  17  19
HETATM   19  C   UNL     1     -10.897  16.097  67.231  1.00  0.00    -0.235 A  
HETATM   20  N   UNL     1     -10.794  16.606  68.450  1.00  0.00    -0.351 NA 
HETATM   21  C   UNL     1     -10.197  17.852  68.416  1.00  0.00    -0.394 A  
HETATM   22  C   UNL     1      -9.853  18.282  67.161  1.00  0.00    -0.324 A  
HETATM   23  N   UNL     1      -9.226  19.520  66.830  1.00  0.00    -0.330 N  
HETATM   24  S   UNL     1     -10.269  17.133  65.985  1.00  0.00    -0.268 SA 
HETATM   25  O   UNL     1      -8.960  20.274  67.775  1.00  0.00    -0.311 OA 
HETATM   26  O   UNL     1      -8.985  19.752  65.638  1.00  0.00    -0.325 OA 
ENDBRANCH  17  19
ENDBRANCH  15  17
ENDBRANCH  13  15
ENDBRANCH   3   8
ENDBRANCH   2   3
TORSDOF 7
ENDMDL
MODEL       38
REMARK 921   NORMALIZED FREE ENERGY PREDICTED BY IDOCK:   -5.42 KCAL/MOL
REMARK 922        TOTAL FREE ENERGY PREDICTED BY IDOCK:   -8.27 KCAL/MOL
REMARK 923 INTER-LIGAND FREE ENERGY PREDICTED BY IDOCK:   -7.57 KCAL/MOL
REMARK 924 INTRA-LIGAND FREE ENERGY PREDICTED BY IDOCK:   -0.69 KCAL/MOL
REMARK 927      BINDING AFFINITY PREDICTED BY RF-SCORE:    0.00 PKD
ROOT
HETATM    1  C   UNL     1     -13.060  11.414  71.734  1.00  0.00    -0.523 C  
HETATM    2  C   UNL     1     -12.825  10.435  70.593  1.00  0.00    -0.313 C  
ENDROOT
BRANCH   2   3
HETATM    3  N   UNL     1     -11.403  10.340  70.241  1.00  0.00    -0.301 NA 
BRANCH   3   4
HETATM    4  C   UNL     1     -10.586   9.297  70.882  1.00  0.00    -0.296 C  
BRANCH   4   5
HETATM    5  C   UNL     1     -10.968   7.900  70.363  1.00  0.00    -0.249 C  
HETATM    6  H   UNL     1     -12.330   6.510  70.742  1.00  0.00     0.000 HD 
HETATM    7  O   UNL     1     -12.095   7.373  71.061  1.00  0.00    -0.312 OA 
ENDBRANCH   4   5
ENDBRANCH   3   4
BRANCH   3   8
HETATM    8  C   UNL     1     -10.899  11.090  69.187  1.00  0.00    -0.237 A  
HETATM    9  C   UNL     1     -12.314  13.436  66.545  1.00  0.00    -0.354 C  
HETATM   10  C   UNL     1      -9.530  11.199  68.919  1.00  0.00    -0.136 A  
HETATM   11  C   UNL     1      -9.044  12.001  67.874  1.00  0.00    -0.183 A  
HETATM   12  C   UNL     1     -11.761  11.813  68.353  1.00  0.00    -0.389 A  
HETATM   13  C   UNL     1      -9.915  12.754  67.076  1.00  0.00    -0.231 A  
HETATM   14  C   UNL     1     -11.292  12.659  67.330  1.00  0.00    -0.372 A  
BRANCH  13  15
HETATM   15  N   UNL     1      -9.467  13.536  65.992  1.00  0.00    -0.488 NA 
HETATM   16  H   UNL     1      -9.768  13.381  65.030  1.00  0.00     0.000 HD 
BRANCH  15  17
HETATM   17  N   UNL     1      -8.667  14.436  66.322  1.00  0.00    -0.420 NA 
HETATM   18  H   UNL     1      -7.680  14.263  66.515  1.00  0.00     0.000 HD 
BRANCH  17  19
HETATM   19  C   UNL     1      -9.238  15.674  66.401  1.00  0.00    -0.311 A  
HETATM   20  N   UNL     1     -10.100  16.230  65.562  1.00  0.00    -0.536 NA 
HETATM   21  C   UNL     1     -10.469  17.489  65.997  1.00  0.00    -0.274 A  
HETATM   22  C   UNL     1      -9.877  17.881  67.168  1.00  0.00    -0.308 A  
HETATM   23  N   UNL     1     -10.071  19.121  67.845  1.00  0.00    -0.363 N  
HETATM   24  S   UNL     1      -8.836  16.679  67.760  1.00  0.00    -0.208 SA 
HETATM   25  O   UNL     1     -10.863  19.917  67.321  1.00  0.00    -0.386 OA 
HETATM   26  O   UNL     1      -9.452  19.316  68.899  1.00  0.00    -0.384 OA 
ENDBRANCH  17  19
ENDBRANCH  15  17
ENDBRANCH  13  15
ENDBRANCH   3   8
ENDBRANCH   2   3
TORSDOF 7
ENDMDL
MODEL       39
REMARK 921   NORMALIZED FREE ENERGY PREDICTED BY IDOCK:   -5.42 KCAL/MOL
REMARK 922        TOTAL FREE ENERGY PREDICTED BY IDOCK:   -8.26 KCAL/MOL
REMARK 923 INTER-LIGAND FREE ENERGY PREDICTED BY IDOCK:   -7.61 KCAL/MOL
REMARK 924 INTRA-LIGAND FREE ENERGY PREDICTED BY IDOCK:   -0.66 KCAL/MOL
REMARK 927      BINDING AFFINITY PREDICTED BY RF-SCORE:    0.00 PKD
ROOT
HETATM    1  C   UNL     1     -10.512  11.402  63.876  1.00  0.00    -0.444 C  
HETATM    2  C   UNL     1     -10.148  12.243  65.090  1.00  0.00    -0.261 C  
ENDROOT
BRANCH   2   3
HETATM    3  N   UNL     1     -11.290  12.408  65.999  1.00  0.00    -0.335 NA 
BRANCH   3   4
HETATM    4  C   UNL     1     -12.487  13.108  65.507  1.00  0.00    -0.458 C  
BRANCH   4   5
HETATM    5  C   UNL     1     -12.170  14.575  65.168  1.00  0.00    -0.346 C  
HETATM    6  H   UNL     1     -12.465  15.837  63.668  1.00  0.00     0.000 HD 
HETATM    7  O   UNL     1     -12.660  14.932  63.877  1.00  0.00    -0.831 OA 
ENDBRANCH   4   5
ENDBRANCH   3   4
BRANCH   3   8
HETATM    8  C   UNL     1     -11.305  11.746  67.219  1.00  0.00    -0.315 A  
HETATM    9  C   UNL     1     -12.436  12.524  70.768  1.00  0.00    -0.357 C  
HETATM   10  C   UNL     1     -10.916  10.409  67.361  1.00  0.00    -0.335 A  
HETATM   11  C   UNL     1     -10.985   9.749  68.598  1.00  0.00    -0.189 A  
HETATM   12  C   UNL     1     -11.755  12.395  68.374  1.00  0.00    -0.386 A  
HETATM   13  C   UNL     1     -11.480  10.397  69.737  1.00  0.00    -0.280 A  
HETATM   14  C   UNL     1     -11.876  11.738  69.614  1.00  0.00    -0.407 A  
BRANCH  13  15
HETATM   15  N   UNL     1     -11.523   9.780  71.004  1.00  0.00    -0.352 NA 
HETATM   16  H   UNL     1     -10.999  10.121  71.809  1.00  0.00     0.000 HD 
BRANCH  15  17
HETATM   17  N   UNL     1     -12.266   8.776  71.046  1.00  0.00    -0.436 NA 
HETATM   18  H   UNL     1     -13.173   8.733  70.582  1.00  0.00     0.000 HD 
BRANCH  17  19
HETATM   19  C   UNL     1     -11.746   7.743  71.771  1.00  0.00    -0.284 A  
HETATM   20  N   UNL     1     -12.178   6.492  71.836  1.00  0.00    -0.348 NA 
HETATM   21  C   UNL     1     -11.371   5.733  72.662  1.00  0.00    -0.300 A  
HETATM   22  C   UNL     1     -10.328   6.421  73.224  1.00  0.00    -0.233 A  
HETATM   23  N   UNL     1      -9.343   5.894  74.110  1.00  0.00    -0.133 N  
HETATM   24  S   UNL     1     -10.329   8.044  72.731  1.00  0.00    -0.324 SA 
HETATM   25  O   UNL     1      -9.439   4.691  74.390  1.00  0.00    -0.116 OA 
HETATM   26  O   UNL     1      -8.464   6.659  74.529  1.00  0.00    -0.136 OA 
ENDBRANCH  17  19
ENDBRANCH  15  17
ENDBRANCH  13  15
ENDBRANCH   3   8
ENDBRANCH   2   3
TORSDOF 7
ENDMDL
MODEL       40
REMARK 921   NORMALIZED FREE ENERGY PREDICTED BY IDOCK:   -5.41 KCAL/MOL
REMARK 922        TOTAL FREE ENERGY PREDICTED BY IDOCK:   -8.24 KCAL/MOL
REMARK 923 INTER-LIGAND FREE ENERGY PREDICTED BY IDOCK:   -7.53 KCAL/MOL
REMARK 924 INTRA-LIGAND FREE ENERGY PREDICTED BY IDOCK:   -0.71 KCAL/MOL
REMARK 927      BINDING AFFINITY PREDICTED BY RF-SCORE:    0.00 PKD
ROOT
HETATM    1  C   UNL     1     -11.301   6.374  69.522  1.00  0.00    -0.460 C  
HETATM    2  C   UNL     1     -10.469   7.648  69.521  1.00  0.00    -0.227 C  
ENDROOT
BRANCH   2   3
HETATM    3  N   UNL     1     -11.055   8.681  70.386  1.00  0.00    -0.240 NA 
BRANCH   3   4
HETATM    4  C   UNL     1     -11.152   8.419  71.830  1.00  0.00    -0.308 C  
BRANCH   4   5
HETATM    5  C   UNL     1      -9.790   7.996  72.408  1.00  0.00    -0.247 C  
HETATM    6  H   UNL     1      -7.952   8.728  72.533  1.00  0.00     0.000 HD 
HETATM    7  O   UNL     1      -8.793   8.989  72.176  1.00  0.00    -0.376 OA 
ENDBRANCH   4   5
ENDBRANCH   3   4
BRANCH   3   8
HETATM    8  C   UNL     1     -11.325   9.942  69.873  1.00  0.00    -0.222 A  
HETATM    9  C   UNL     1     -11.263  11.600  66.447  1.00  0.00    -0.349 C  
HETATM   10  C   UNL     1     -11.840  10.985  70.652  1.00  0.00    -0.434 A  
HETATM   11  C   UNL     1     -12.147  12.237  70.098  1.00  0.00    -0.364 A  
HETATM   12  C   UNL     1     -11.122  10.215  68.514  1.00  0.00    -0.266 A  
HETATM   13  C   UNL     1     -11.981  12.483  68.729  1.00  0.00    -0.238 A  
HETATM   14  C   UNL     1     -11.466  11.450  67.930  1.00  0.00    -0.361 A  
BRANCH  13  15
HETATM   15  N   UNL     1     -12.238  13.740  68.146  1.00  0.00    -0.444 NA 
HETATM   16  H   UNL     1     -12.737  13.855  67.264  1.00  0.00     0.000 HD 
BRANCH  15  17
HETATM   17  N   UNL     1     -11.796  14.700  68.812  1.00  0.00    -0.412 NA 
HETATM   18  H   UNL     1     -11.930  14.790  69.819  1.00  0.00     0.000 HD 
BRANCH  17  19
HETATM   19  C   UNL     1     -11.117  15.618  68.063  1.00  0.00    -0.335 A  
HETATM   20  N   UNL     1     -10.824  15.563  66.772  1.00  0.00    -0.310 NA 
HETATM   21  C   UNL     1     -10.145  16.698  66.371  1.00  0.00    -0.315 A  
HETATM   22  C   UNL     1      -9.923  17.609  67.370  1.00  0.00    -0.321 A  
HETATM   23  N   UNL     1      -9.252  18.861  67.244  1.00  0.00    -0.281 N  
HETATM   24  S   UNL     1     -10.562  17.068  68.845  1.00  0.00    -0.298 SA 
HETATM   25  O   UNL     1      -8.837  19.153  66.115  1.00  0.00    -0.399 OA 
HETATM   26  O   UNL     1      -9.137  19.567  68.255  1.00  0.00    -0.326 OA 
ENDBRANCH  17  19
ENDBRANCH  15  17
ENDBRANCH  13  15
ENDBRANCH   3   8
ENDBRANCH   2   3
TORSDOF 7
ENDMDL
MODEL       41
REMARK 921   NORMALIZED FREE ENERGY PREDICTED BY IDOCK:   -5.40 KCAL/MOL
REMARK 922        TOTAL FREE ENERGY PREDICTED BY IDOCK:   -8.24 KCAL/MOL
REMARK 923 INTER-LIGAND FREE ENERGY PREDICTED BY IDOCK:   -7.64 KCAL/MOL
REMARK 924 INTRA-LIGAND FREE ENERGY PREDICTED BY IDOCK:   -0.61 KCAL/MOL
REMARK 927      BINDING AFFINITY PREDICTED BY RF-SCORE:    0.00 PKD
ROOT
HETATM    1  C   UNL     1     -10.470  15.840  67.655  1.00  0.00    -0.282 C  
HETATM    2  C   UNL     1     -10.321  14.724  66.631  1.00  0.00    -0.273 C  
ENDROOT
BRANCH   2   3
HETATM    3  N   UNL     1     -11.471  13.811  66.651  1.00  0.00    -0.331 NA 
BRANCH   3   4
HETATM    4  C   UNL     1     -12.607  14.088  65.758  1.00  0.00    -0.479 C  
BRANCH   4   5
HETATM    5  C   UNL     1     -12.121  14.512  64.361  1.00  0.00    -0.472 C  
HETATM    6  H   UNL     1     -12.300  13.889  62.487  1.00  0.00     0.000 HD 
HETATM    7  O   UNL     1     -12.600  13.628  63.350  1.00  0.00    -0.799 OA 
ENDBRANCH   4   5
ENDBRANCH   3   4
BRANCH   3   8
HETATM    8  C   UNL     1     -11.393  12.615  67.352  1.00  0.00    -0.313 A  
HETATM    9  C   UNL     1     -12.373  11.374  70.814  1.00  0.00    -0.483 C  
HETATM   10  C   UNL     1     -10.938  11.425  66.773  1.00  0.00    -0.347 A  
HETATM   11  C   UNL     1     -10.913  10.218  67.490  1.00  0.00    -0.344 A  
HETATM   12  C   UNL     1     -11.812  12.544  68.686  1.00  0.00    -0.340 A  
HETATM   13  C   UNL     1     -11.376  10.152  68.810  1.00  0.00    -0.115 A  
HETATM   14  C   UNL     1     -11.838  11.335  69.408  1.00  0.00    -0.424 A  
BRANCH  13  15
HETATM   15  N   UNL     1     -11.326   8.969  69.575  1.00  0.00    -0.432 NA 
HETATM   16  H   UNL     1     -11.477   8.949  70.583  1.00  0.00     0.000 HD 
BRANCH  15  17
HETATM   17  N   UNL     1     -11.080   7.947  68.899  1.00  0.00    -0.404 NA 
HETATM   18  H   UNL     1     -11.116   7.929  67.880  1.00  0.00     0.000 HD 
BRANCH  17  19
HETATM   19  C   UNL     1     -10.757   6.857  69.655  1.00  0.00    -0.245 A  
HETATM   20  N   UNL     1      -9.919   5.875  69.357  1.00  0.00    -0.166 NA 
HETATM   21  C   UNL     1      -9.839   4.963  70.392  1.00  0.00    -0.232 A  
HETATM   22  C   UNL     1     -10.626   5.261  71.473  1.00  0.00    -0.184 A  
HETATM   23  N   UNL     1     -10.741   4.502  72.675  1.00  0.00    -0.186 N  
HETATM   24  S   UNL     1     -11.491   6.698  71.223  1.00  0.00    -0.327 SA 
HETATM   25  O   UNL     1     -10.052   3.475  72.747  1.00  0.00    -0.146 OA 
HETATM   26  O   UNL     1     -11.505   4.916  73.557  1.00  0.00    -0.311 OA 
ENDBRANCH  17  19
ENDBRANCH  15  17
ENDBRANCH  13  15
ENDBRANCH   3   8
ENDBRANCH   2   3
TORSDOF 7
ENDMDL
MODEL       42
REMARK 921   NORMALIZED FREE ENERGY PREDICTED BY IDOCK:   -5.36 KCAL/MOL
REMARK 922        TOTAL FREE ENERGY PREDICTED BY IDOCK:   -8.18 KCAL/MOL
REMARK 923 INTER-LIGAND FREE ENERGY PREDICTED BY IDOCK:   -7.74 KCAL/MOL
REMARK 924 INTRA-LIGAND FREE ENERGY PREDICTED BY IDOCK:   -0.44 KCAL/MOL
REMARK 927      BINDING AFFINITY PREDICTED BY RF-SCORE:    0.00 PKD
ROOT
HETATM    1  C   UNL     1     -10.021   4.916  71.793  1.00  0.00    -0.252 C  
HETATM    2  C   UNL     1     -11.232   5.790  72.084  1.00  0.00    -0.269 C  
ENDROOT
BRANCH   2   3
HETATM    3  N   UNL     1     -10.846   7.179  72.363  1.00  0.00    -0.234 NA 
BRANCH   3   4
HETATM    4  C   UNL     1      -9.998   7.452  73.534  1.00  0.00    -0.326 C  
BRANCH   4   5
HETATM    5  C   UNL     1      -8.524   7.617  73.124  1.00  0.00    -0.146 C  
HETATM    6  H   UNL     1      -7.155   9.050  73.094  1.00  0.00     0.000 HD 
HETATM    7  O   UNL     1      -8.064   8.948  73.347  1.00  0.00    -0.353 OA 
ENDBRANCH   4   5
ENDBRANCH   3   4
BRANCH   3   8
HETATM    8  C   UNL     1     -11.114   8.172  71.432  1.00  0.00    -0.247 A  
HETATM    9  C   UNL     1     -10.423   8.748  67.733  1.00  0.00    -0.292 C  
HETATM   10  C   UNL     1     -11.898   9.295  71.723  1.00  0.00    -0.454 A  
HETATM   11  C   UNL     1     -12.192  10.262  70.749  1.00  0.00    -0.447 A  
HETATM   12  C   UNL     1     -10.629   8.069  70.122  1.00  0.00    -0.237 A  
HETATM   13  C   UNL     1     -11.737  10.123  69.432  1.00  0.00    -0.028 A  
HETATM   14  C   UNL     1     -10.950   9.004  69.119  1.00  0.00    -0.025 A  
BRANCH  13  15
HETATM   15  N   UNL     1     -11.976  11.095  68.439  1.00  0.00    -0.667 NA 
HETATM   16  H   UNL     1     -12.740  11.030  67.767  1.00  0.00     0.000 HD 
BRANCH  15  17
HETATM   17  N   UNL     1     -11.164  12.044  68.462  1.00  0.00    -0.233 NA 
HETATM   18  H   UNL     1     -10.387  12.098  69.121  1.00  0.00     0.000 HD 
BRANCH  17  19
HETATM   19  C   UNL     1     -11.414  13.000  67.520  1.00  0.00    -0.328 A  
HETATM   20  N   UNL     1     -11.336  14.316  67.652  1.00  0.00    -0.308 NA 
HETATM   21  C   UNL     1     -11.643  14.951  66.463  1.00  0.00    -0.252 A  
HETATM   22  C   UNL     1     -11.957  14.104  65.433  1.00  0.00    -0.381 A  
HETATM   23  N   UNL     1     -12.311  14.479  64.103  1.00  0.00    -0.413 N  
HETATM   24  S   UNL     1     -11.877  12.483  65.927  1.00  0.00    -0.404 SA 
HETATM   25  O   UNL     1     -12.327  15.693  63.858  1.00  0.00    -0.673 OA 
HETATM   26  O   UNL     1     -12.569  13.580  63.291  1.00  0.00    -0.773 OA 
ENDBRANCH  17  19
ENDBRANCH  15  17
ENDBRANCH  13  15
ENDBRANCH   3   8
ENDBRANCH   2   3
TORSDOF 7
ENDMDL
MODEL       43
REMARK 921   NORMALIZED FREE ENERGY PREDICTED BY IDOCK:   -5.34 KCAL/MOL
REMARK 922        TOTAL FREE ENERGY PREDICTED BY IDOCK:   -8.16 KCAL/MOL
REMARK 923 INTER-LIGAND FREE ENERGY PREDICTED BY IDOCK:   -7.55 KCAL/MOL
REMARK 924 INTRA-LIGAND FREE ENERGY PREDICTED BY IDOCK:   -0.61 KCAL/MOL
REMARK 927      BINDING AFFINITY PREDICTED BY RF-SCORE:    0.00 PKD
ROOT
HETATM    1  C   UNL     1     -13.535  15.822  73.046  1.00  0.00    -0.672 C  
HETATM    2  C   UNL     1     -12.260  15.231  72.463  1.00  0.00    -0.390 C  
ENDROOT
BRANCH   2   3
HETATM    3  N   UNL     1     -12.473  14.707  71.108  1.00  0.00    -0.309 NA 
BRANCH   3   4
HETATM    4  C   UNL     1     -12.515  15.656  69.984  1.00  0.00    -0.217 C  
BRANCH   4   5
HETATM    5  C   UNL     1     -11.125  16.260  69.718  1.00  0.00    -0.337 C  
HETATM    6  H   UNL     1     -10.142  17.082  68.205  1.00  0.00     0.000 HD 
HETATM    7  O   UNL     1     -11.000  16.709  68.370  1.00  0.00    -0.346 OA 
ENDBRANCH   4   5
ENDBRANCH   3   4
BRANCH   3   8
HETATM    8  C   UNL     1     -12.436  13.338  70.880  1.00  0.00    -0.342 A  
HETATM    9  C   UNL     1     -11.269  11.034  68.085  1.00  0.00    -0.364 C  
HETATM   10  C   UNL     1     -12.810  12.398  71.848  1.00  0.00    -0.315 A  
HETATM   11  C   UNL     1     -12.719  11.018  71.609  1.00  0.00    -0.483 A  
HETATM   12  C   UNL     1     -11.978  12.833  69.658  1.00  0.00    -0.354 A  
HETATM   13  C   UNL     1     -12.217  10.526  70.397  1.00  0.00    -0.328 A  
HETATM   14  C   UNL     1     -11.836  11.453  69.414  1.00  0.00    -0.419 A  
BRANCH  13  15
HETATM   15  N   UNL     1     -12.151   9.148  70.105  1.00  0.00    -0.358 NA 
HETATM   16  H   UNL     1     -11.724   8.777  69.257  1.00  0.00     0.000 HD 
BRANCH  15  17
HETATM   17  N   UNL     1     -12.667   8.426  70.985  1.00  0.00    -0.502 NA 
HETATM   18  H   UNL     1     -13.621   8.552  71.323  1.00  0.00     0.000 HD 
BRANCH  17  19
HETATM   19  C   UNL     1     -11.832   7.451  71.450  1.00  0.00    -0.300 A  
HETATM   20  N   UNL     1     -11.654   6.229  70.970  1.00  0.00    -0.313 NA 
HETATM   21  C   UNL     1     -10.702   5.545  71.701  1.00  0.00    -0.231 A  
HETATM   22  C   UNL     1     -10.163   6.258  72.739  1.00  0.00    -0.185 A  
HETATM   23  N   UNL     1      -9.166   5.805  73.653  1.00  0.00    -0.131 N  
HETATM   24  S   UNL     1     -10.837   7.812  72.830  1.00  0.00    -0.398 SA 
HETATM   25  O   UNL     1      -8.742   4.655  73.481  1.00  0.00    -0.104 OA 
HETATM   26  O   UNL     1      -8.790   6.583  74.540  1.00  0.00    -0.149 OA 
ENDBRANCH  17  19
ENDBRANCH  15  17
ENDBRANCH  13  15
ENDBRANCH   3   8
ENDBRANCH   2   3
TORSDOF 7
ENDMDL
MODEL       44
REMARK 921   NORMALIZED FREE ENERGY PREDICTED BY IDOCK:   -5.32 KCAL/MOL
REMARK 922        TOTAL FREE ENERGY PREDICTED BY IDOCK:   -8.12 KCAL/MOL
REMARK 923 INTER-LIGAND FREE ENERGY PREDICTED BY IDOCK:   -7.58 KCAL/MOL
REMARK 924 INTRA-LIGAND FREE ENERGY PREDICTED BY IDOCK:   -0.54 KCAL/MOL
REMARK 927      BINDING AFFINITY PREDICTED BY RF-SCORE:    0.00 PKD
ROOT
HETATM    1  C   UNL     1     -10.418  19.558  65.869  1.00  0.00    -0.585 C  
HETATM    2  C   UNL     1     -10.426  18.040  65.963  1.00  0.00    -0.313 C  
ENDROOT
BRANCH   2   3
HETATM    3  N   UNL     1     -10.151  17.578  67.329  1.00  0.00    -0.316 NA 
BRANCH   3   4
HETATM    4  C   UNL     1      -9.570  18.528  68.291  1.00  0.00    -0.343 C  
BRANCH   4   5
HETATM    5  C   UNL     1      -8.039  18.387  68.352  1.00  0.00    -0.308 C  
HETATM    6  H   UNL     1      -6.507  19.320  69.197  1.00  0.00     0.000 HD 
HETATM    7  O   UNL     1      -7.452  19.407  69.159  1.00  0.00    -0.358 OA 
ENDBRANCH   4   5
ENDBRANCH   3   4
BRANCH   3   8
HETATM    8  C   UNL     1     -10.612  16.337  67.747  1.00  0.00    -0.314 A  
HETATM    9  C   UNL     1     -11.545  13.038  66.094  1.00  0.00    -0.412 C  
HETATM   10  C   UNL     1     -10.759  15.997  69.097  1.00  0.00    -0.272 A  
HETATM   11  C   UNL     1     -11.184  14.719  69.494  1.00  0.00    -0.305 A  
HETATM   12  C   UNL     1     -10.921  15.342  66.812  1.00  0.00    -0.306 A  
HETATM   13  C   UNL     1     -11.447  13.719  68.549  1.00  0.00    -0.307 A  
HETATM   14  C   UNL     1     -11.304  14.040  67.190  1.00  0.00    -0.348 A  
BRANCH  13  15
HETATM   15  N   UNL     1     -11.916  12.439  68.908  1.00  0.00    -0.285 NA 
HETATM   16  H   UNL     1     -12.485  11.860  68.291  1.00  0.00     0.000 HD 
BRANCH  15  17
HETATM   17  N   UNL     1     -11.569  12.083  70.054  1.00  0.00    -0.510 NA 
HETATM   18  H   UNL     1     -11.462  12.733  70.833  1.00  0.00     0.000 HD 
BRANCH  17  19
HETATM   19  C   UNL     1     -11.347  10.741  70.165  1.00  0.00    -0.309 A  
HETATM   20  N   UNL     1     -10.306  10.046  69.728  1.00  0.00    -0.240 NA 
HETATM   21  C   UNL     1     -10.433   8.709  70.054  1.00  0.00    -0.223 A  
HETATM   22  C   UNL     1     -11.579   8.398  70.737  1.00  0.00    -0.232 A  
HETATM   23  N   UNL     1     -11.969   7.106  71.198  1.00  0.00    -0.326 N  
HETATM   24  S   UNL     1     -12.534   9.777  70.991  1.00  0.00    -0.311 SA 
HETATM   25  O   UNL     1     -11.185   6.176  70.962  1.00  0.00    -0.296 OA 
HETATM   26  O   UNL     1     -13.045   7.000  71.802  1.00  0.00    -0.361 OA 
ENDBRANCH  17  19
ENDBRANCH  15  17
ENDBRANCH  13  15
ENDBRANCH   3   8
ENDBRANCH   2   3
TORSDOF 7
ENDMDL
MODEL       45
REMARK 921   NORMALIZED FREE ENERGY PREDICTED BY IDOCK:   -5.31 KCAL/MOL
REMARK 922        TOTAL FREE ENERGY PREDICTED BY IDOCK:   -8.12 KCAL/MOL
REMARK 923 INTER-LIGAND FREE ENERGY PREDICTED BY IDOCK:   -7.57 KCAL/MOL
REMARK 924 INTRA-LIGAND FREE ENERGY PREDICTED BY IDOCK:   -0.55 KCAL/MOL
REMARK 927      BINDING AFFINITY PREDICTED BY RF-SCORE:    0.00 PKD
ROOT
HETATM    1  C   UNL     1     -11.064  15.558  70.811  1.00  0.00    -0.383 C  
HETATM    2  C   UNL     1     -12.456  15.159  70.344  1.00  0.00    -0.368 C  
ENDROOT
BRANCH   2   3
HETATM    3  N   UNL     1     -13.047  14.133  71.212  1.00  0.00    -0.347 NA 
BRANCH   3   4
HETATM    4  C   UNL     1     -14.094  14.533  72.166  1.00  0.00    -0.524 C  
BRANCH   4   5
HETATM    5  C   UNL     1     -13.639  15.734  73.014  1.00  0.00    -0.555 C  
HETATM    6  H   UNL     1     -12.338  16.104  74.464  1.00  0.00     0.000 HD 
HETATM    7  O   UNL     1     -12.619  15.363  73.940  1.00  0.00    -0.528 OA 
ENDBRANCH   4   5
ENDBRANCH   3   4
BRANCH   3   8
HETATM    8  C   UNL     1     -12.762  12.792  70.992  1.00  0.00    -0.243 A  
HETATM    9  C   UNL     1     -13.751   9.466  72.557  1.00  0.00    -0.419 C  
HETATM   10  C   UNL     1     -11.991  12.348  69.912  1.00  0.00    -0.369 A  
HETATM   11  C   UNL     1     -11.756  10.982  69.686  1.00  0.00    -0.401 A  
HETATM   12  C   UNL     1     -13.277  11.807  71.843  1.00  0.00    -0.468 A  
HETATM   13  C   UNL     1     -12.314  10.005  70.520  1.00  0.00    -0.200 A  
HETATM   14  C   UNL     1     -13.091  10.431  71.609  1.00  0.00    -0.553 A  
BRANCH  13  15
HETATM   15  N   UNL     1     -12.064   8.628  70.350  1.00  0.00    -0.454 NA 
HETATM   16  H   UNL     1     -12.741   7.904  70.590  1.00  0.00     0.000 HD 
BRANCH  15  17
HETATM   17  N   UNL     1     -10.936   8.379  69.876  1.00  0.00    -0.373 NA 
HETATM   18  H   UNL     1     -10.537   8.887  69.086  1.00  0.00     0.000 HD 
BRANCH  17  19
HETATM   19  C   UNL     1     -10.286   7.363  70.517  1.00  0.00    -0.214 A  
HETATM   20  N   UNL     1      -9.021   6.992  70.386  1.00  0.00    -0.155 NA 
HETATM   21  C   UNL     1      -8.729   5.933  71.225  1.00  0.00    -0.132 A  
HETATM   22  C   UNL     1      -9.783   5.504  71.987  1.00  0.00    -0.160 A  
HETATM   23  N   UNL     1      -9.769   4.438  72.934  1.00  0.00    -0.135 N  
HETATM   24  S   UNL     1     -11.177   6.420  71.674  1.00  0.00    -0.290 SA 
HETATM   25  O   UNL     1      -8.691   3.848  73.084  1.00  0.00    -0.093 OA 
HETATM   26  O   UNL     1     -10.818   4.180  73.540  1.00  0.00    -0.205 OA 
ENDBRANCH  17  19
ENDBRANCH  15  17
ENDBRANCH  13  15
ENDBRANCH   3   8
ENDBRANCH   2   3
TORSDOF 7
ENDMDL
MODEL       46
REMARK 921   NORMALIZED FREE ENERGY PREDICTED BY IDOCK:   -5.31 KCAL/MOL
REMARK 922        TOTAL FREE ENERGY PREDICTED BY IDOCK:   -8.11 KCAL/MOL
REMARK 923 INTER-LIGAND FREE ENERGY PREDICTED BY IDOCK:   -7.56 KCAL/MOL
REMARK 924 INTRA-LIGAND FREE ENERGY PREDICTED BY IDOCK:   -0.55 KCAL/MOL
REMARK 927      BINDING AFFINITY PREDICTED BY RF-SCORE:    0.00 PKD
ROOT
HETATM    1  C   UNL     1      -7.236  16.693  69.036  1.00  0.00    -0.222 C  
HETATM    2  C   UNL     1      -7.788  17.963  68.407  1.00  0.00    -0.286 C  
ENDROOT
BRANCH   2   3
HETATM    3  N   UNL     1      -9.251  18.028  68.507  1.00  0.00    -0.289 NA 
BRANCH   3   4
HETATM    4  C   UNL     1      -9.882  19.328  68.786  1.00  0.00    -0.447 C  
BRANCH   4   5
HETATM    5  C   UNL     1      -9.763  20.271  67.577  1.00  0.00    -0.435 C  
HETATM    6  H   UNL     1     -10.621  20.509  65.805  1.00  0.00     0.000 HD 
HETATM    7  O   UNL     1     -10.694  19.927  66.552  1.00  0.00    -0.463 OA 
ENDBRANCH   4   5
ENDBRANCH   3   4
BRANCH   3   8
HETATM    8  C   UNL     1     -10.019  16.928  68.150  1.00  0.00    -0.285 A  
HETATM    9  C   UNL     1     -12.510  14.623  69.875  1.00  0.00    -0.290 C  
HETATM   10  C   UNL     1     -10.087  16.442  66.839  1.00  0.00    -0.281 A  
HETATM   11  C   UNL     1     -10.908  15.356  66.496  1.00  0.00    -0.298 A  
HETATM   12  C   UNL     1     -10.803  16.268  69.105  1.00  0.00    -0.314 A  
HETATM   13  C   UNL     1     -11.720  14.734  67.453  1.00  0.00    -0.350 A  
HETATM   14  C   UNL     1     -11.667  15.207  68.773  1.00  0.00    -0.366 A  
BRANCH  13  15
HETATM   15  N   UNL     1     -12.524  13.615  67.155  1.00  0.00    -0.346 NA 
HETATM   16  H   UNL     1     -13.491  13.690  66.841  1.00  0.00     0.000 HD 
BRANCH  15  17
HETATM   17  N   UNL     1     -11.939  12.523  67.312  1.00  0.00    -0.505 NA 
HETATM   18  H   UNL     1     -11.832  12.071  68.220  1.00  0.00     0.000 HD 
BRANCH  17  19
HETATM   19  C   UNL     1     -11.455  11.990  66.152  1.00  0.00    -0.339 A  
HETATM   20  N   UNL     1     -11.837  12.253  64.910  1.00  0.00    -0.370 NA 
HETATM   21  C   UNL     1     -11.089  11.530  64.000  1.00  0.00    -0.365 A  
HETATM   22  C   UNL     1     -10.141  10.716  64.563  1.00  0.00    -0.353 A  
HETATM   23  N   UNL     1      -9.233   9.864  63.869  1.00  0.00    -0.263 N  
HETATM   24  S   UNL     1     -10.160  10.835  66.255  1.00  0.00    -0.239 SA 
HETATM   25  O   UNL     1      -9.307   9.869  62.633  1.00  0.00    -0.287 OA 
HETATM   26  O   UNL     1      -8.437   9.190  64.537  1.00  0.00    -0.163 OA 
ENDBRANCH  17  19
ENDBRANCH  15  17
ENDBRANCH  13  15
ENDBRANCH   3   8
ENDBRANCH   2   3
TORSDOF 7
ENDMDL
MODEL       47
REMARK 921   NORMALIZED FREE ENERGY PREDICTED BY IDOCK:   -5.31 KCAL/MOL
REMARK 922        TOTAL FREE ENERGY PREDICTED BY IDOCK:   -8.10 KCAL/MOL
REMARK 923 INTER-LIGAND FREE ENERGY PREDICTED BY IDOCK:   -7.46 KCAL/MOL
REMARK 924 INTRA-LIGAND FREE ENERGY PREDICTED BY IDOCK:   -0.65 KCAL/MOL
REMARK 927      BINDING AFFINITY PREDICTED BY RF-SCORE:    0.00 PKD
ROOT
HETATM    1  C   UNL     1      -7.610   7.134  74.113  1.00  0.00    -0.126 C  
HETATM    2  C   UNL     1      -9.130   7.154  74.186  1.00  0.00    -0.225 C  
ENDROOT
BRANCH   2   3
HETATM    3  N   UNL     1      -9.741   6.779  72.905  1.00  0.00    -0.152 NA 
BRANCH   3   4
HETATM    4  C   UNL     1      -9.889   5.350  72.586  1.00  0.00    -0.159 C  
BRANCH   4   5
HETATM    5  C   UNL     1     -10.996   4.705  73.439  1.00  0.00    -0.318 C  
HETATM    6  H   UNL     1     -11.135   3.441  74.960  1.00  0.00     0.000 HD 
HETATM    7  O   UNL     1     -10.452   3.839  74.434  1.00  0.00    -0.191 OA 
ENDBRANCH   4   5
ENDBRANCH   3   4
BRANCH   3   8
HETATM    8  C   UNL     1     -10.339   7.749  72.112  1.00  0.00    -0.224 A  
HETATM    9  C   UNL     1     -13.764   9.390  71.869  1.00  0.00    -0.440 C  
HETATM   10  C   UNL     1      -9.635   8.482  71.150  1.00  0.00    -0.248 A  
HETATM   11  C   UNL     1     -10.253   9.491  70.394  1.00  0.00    -0.337 A  
HETATM   12  C   UNL     1     -11.693   8.064  72.274  1.00  0.00    -0.428 A  
HETATM   13  C   UNL     1     -11.598   9.826  70.597  1.00  0.00    -0.313 A  
HETATM   14  C   UNL     1     -12.321   9.102  71.558  1.00  0.00    -0.421 A  
BRANCH  13  15
HETATM   15  N   UNL     1     -12.262  10.802  69.827  1.00  0.00    -0.448 NA 
HETATM   16  H   UNL     1     -12.792  11.570  70.238  1.00  0.00     0.000 HD 
BRANCH  15  17
HETATM   17  N   UNL     1     -12.140  10.636  68.595  1.00  0.00    -0.812 NA 
HETATM   18  H   UNL     1     -12.248   9.729  68.140  1.00  0.00     0.000 HD 
BRANCH  17  19
HETATM   19  C   UNL     1     -11.848  11.783  67.916  1.00  0.00    -0.219 A  
HETATM   20  N   UNL     1     -11.615  11.928  66.619  1.00  0.00    -0.528 NA 
HETATM   21  C   UNL     1     -11.381  13.253  66.305  1.00  0.00    -0.309 A  
HETATM   22  C   UNL     1     -11.436  14.108  67.374  1.00  0.00    -0.345 A  
HETATM   23  N   UNL     1     -11.236  15.520  67.343  1.00  0.00    -0.291 N  
HETATM   24  S   UNL     1     -11.783  13.273  68.809  1.00  0.00    -0.342 SA 
HETATM   25  O   UNL     1     -10.998  16.020  66.235  1.00  0.00    -0.218 OA 
HETATM   26  O   UNL     1     -11.321  16.146  68.408  1.00  0.00    -0.366 OA 
ENDBRANCH  17  19
ENDBRANCH  15  17
ENDBRANCH  13  15
ENDBRANCH   3   8
ENDBRANCH   2   3
TORSDOF 7
ENDMDL
MODEL       48
REMARK 921   NORMALIZED FREE ENERGY PREDICTED BY IDOCK:   -5.27 KCAL/MOL
REMARK 922        TOTAL FREE ENERGY PREDICTED BY IDOCK:   -8.06 KCAL/MOL
REMARK 923 INTER-LIGAND FREE ENERGY PREDICTED BY IDOCK:   -7.54 KCAL/MOL
REMARK 924 INTRA-LIGAND FREE ENERGY PREDICTED BY IDOCK:   -0.52 KCAL/MOL
REMARK 927      BINDING AFFINITY PREDICTED BY RF-SCORE:    0.00 PKD
ROOT
HETATM    1  C   UNL     1     -11.073  16.028  70.407  1.00  0.00    -0.376 C  
HETATM    2  C   UNL     1     -12.424  15.437  70.030  1.00  0.00    -0.283 C  
ENDROOT
BRANCH   2   3
HETATM    3  N   UNL     1     -12.790  14.315  70.904  1.00  0.00    -0.343 NA 
BRANCH   3   4
HETATM    4  C   UNL     1     -13.737  14.559  72.003  1.00  0.00    -0.436 C  
BRANCH   4   5
HETATM    5  C   UNL     1     -12.999  14.978  73.287  1.00  0.00    -0.525 C  
HETATM    6  H   UNL     1     -12.870  16.573  74.457  1.00  0.00     0.000 HD 
HETATM    7  O   UNL     1     -13.326  16.314  73.665  1.00  0.00    -0.670 OA 
ENDBRANCH   4   5
ENDBRANCH   3   4
BRANCH   3   8
HETATM    8  C   UNL     1     -12.403  13.024  70.573  1.00  0.00    -0.287 A  
HETATM    9  C   UNL     1     -12.778   9.554  72.091  1.00  0.00    -0.442 C  
HETATM   10  C   UNL     1     -11.768  12.708  69.366  1.00  0.00    -0.387 A  
HETATM   11  C   UNL     1     -11.428  11.387  69.035  1.00  0.00    -0.366 A  
HETATM   12  C   UNL     1     -12.671  11.957  71.438  1.00  0.00    -0.395 A  
HETATM   13  C   UNL     1     -11.743  10.324  69.891  1.00  0.00    -0.225 A  
HETATM   14  C   UNL     1     -12.381  10.620  71.106  1.00  0.00    -0.505 A  
BRANCH  13  15
HETATM   15  N   UNL     1     -11.379   8.991  69.612  1.00  0.00    -0.438 NA 
HETATM   16  H   UNL     1     -11.726   8.194  70.146  1.00  0.00     0.000 HD 
BRANCH  15  17
HETATM   17  N   UNL     1     -10.592   8.878  68.649  1.00  0.00    -0.347 NA 
HETATM   18  H   UNL     1     -10.083   9.666  68.248  1.00  0.00     0.000 HD 
BRANCH  17  19
HETATM   19  C   UNL     1     -10.477   7.600  68.183  1.00  0.00    -0.181 A  
HETATM   20  N   UNL     1     -11.029   7.072  67.100  1.00  0.00    -0.359 NA 
HETATM   21  C   UNL     1     -10.655   5.750  66.950  1.00  0.00    -0.308 A  
HETATM   22  C   UNL     1      -9.820   5.282  67.930  1.00  0.00    -0.149 A  
HETATM   23  N   UNL     1      -9.278   3.966  68.027  1.00  0.00    -0.150 N  
HETATM   24  S   UNL     1      -9.477   6.489  69.071  1.00  0.00    -0.129 SA 
HETATM   25  O   UNL     1      -9.591   3.173  67.129  1.00  0.00    -0.163 OA 
HETATM   26  O   UNL     1      -8.536   3.708  68.985  1.00  0.00    -0.077 OA 
ENDBRANCH  17  19
ENDBRANCH  15  17
ENDBRANCH  13  15
ENDBRANCH   3   8
ENDBRANCH   2   3
TORSDOF 7
ENDMDL
MODEL       49
REMARK 921   NORMALIZED FREE ENERGY PREDICTED BY IDOCK:   -5.27 KCAL/MOL
REMARK 922        TOTAL FREE ENERGY PREDICTED BY IDOCK:   -8.05 KCAL/MOL
REMARK 923 INTER-LIGAND FREE ENERGY PREDICTED BY IDOCK:   -7.32 KCAL/MOL
REMARK 924 INTRA-LIGAND FREE ENERGY PREDICTED BY IDOCK:   -0.73 KCAL/MOL
REMARK 927      BINDING AFFINITY PREDICTED BY RF-SCORE:    0.00 PKD
ROOT
HETATM    1  C   UNL     1      -9.744  19.935  66.264  1.00  0.00    -0.551 C  
HETATM    2  C   UNL     1     -10.506  18.644  66.004  1.00  0.00    -0.414 C  
ENDROOT
BRANCH   2   3
HETATM    3  N   UNL     1      -9.787  17.473  66.523  1.00  0.00    -0.296 NA 
BRANCH   3   4
HETATM    4  C   UNL     1      -8.493  17.681  67.192  1.00  0.00    -0.226 C  
BRANCH   4   5
HETATM    5  C   UNL     1      -7.343  17.061  66.379  1.00  0.00    -0.293 C  
HETATM    6  H   UNL     1      -6.204  17.548  64.832  1.00  0.00     0.000 HD 
HETATM    7  O   UNL     1      -6.914  17.930  65.334  1.00  0.00    -0.434 OA 
ENDBRANCH   4   5
ENDBRANCH   3   4
BRANCH   3   8
HETATM    8  C   UNL     1     -10.411  16.234  66.551  1.00  0.00    -0.307 A  
HETATM    9  C   UNL     1     -10.646  13.208  64.254  1.00  0.00    -0.432 C  
HETATM   10  C   UNL     1     -11.117  15.765  67.665  1.00  0.00    -0.283 A  
HETATM   11  C   UNL     1     -11.699  14.487  67.685  1.00  0.00    -0.410 A  
HETATM   12  C   UNL     1     -10.324  15.369  65.453  1.00  0.00    -0.422 A  
HETATM   13  C   UNL     1     -11.567  13.616  66.596  1.00  0.00    -0.364 A  
HETATM   14  C   UNL     1     -10.862  14.067  65.470  1.00  0.00    -0.311 A  
BRANCH  13  15
HETATM   15  N   UNL     1     -12.174  12.344  66.564  1.00  0.00    -0.528 NA 
HETATM   16  H   UNL     1     -12.656  11.976  65.744  1.00  0.00     0.000 HD 
BRANCH  15  17
HETATM   17  N   UNL     1     -12.066  11.710  67.635  1.00  0.00    -0.573 NA 
HETATM   18  H   UNL     1     -12.653  11.887  68.450  1.00  0.00     0.000 HD 
BRANCH  17  19
HETATM   19  C   UNL     1     -11.087  10.760  67.611  1.00  0.00    -0.319 A  
HETATM   20  N   UNL     1     -10.364  10.357  66.575  1.00  0.00    -0.237 NA 
HETATM   21  C   UNL     1      -9.452   9.391  66.956  1.00  0.00    -0.155 A  
HETATM   22  C   UNL     1      -9.494   9.063  68.285  1.00  0.00    -0.146 A  
HETATM   23  N   UNL     1      -8.673   8.105  68.950  1.00  0.00    -0.137 N  
HETATM   24  S   UNL     1     -10.681   9.960  69.100  1.00  0.00    -0.225 SA 
HETATM   25  O   UNL     1      -7.834   7.519  68.253  1.00  0.00    -0.117 OA 
HETATM   26  O   UNL     1      -8.845   7.930  70.164  1.00  0.00    -0.141 OA 
ENDBRANCH  17  19
ENDBRANCH  15  17
ENDBRANCH  13  15
ENDBRANCH   3   8
ENDBRANCH   2   3
TORSDOF 7
ENDMDL
MODEL       50
REMARK 921   NORMALIZED FREE ENERGY PREDICTED BY IDOCK:   -5.26 KCAL/MOL
REMARK 922        TOTAL FREE ENERGY PREDICTED BY IDOCK:   -8.05 KCAL/MOL
REMARK 923 INTER-LIGAND FREE ENERGY PREDICTED BY IDOCK:   -7.34 KCAL/MOL
REMARK 924 INTRA-LIGAND FREE ENERGY PREDICTED BY IDOCK:   -0.70 KCAL/MOL
REMARK 927      BINDING AFFINITY PREDICTED BY RF-SCORE:    0.00 PKD
ROOT
HETATM    1  C   UNL     1      -5.965  21.053  66.590  1.00  0.00    -0.324 C  
HETATM    2  C   UNL     1      -6.419  20.916  68.035  1.00  0.00    -0.307 C  
ENDROOT
BRANCH   2   3
HETATM    3  N   UNL     1      -6.299  19.533  68.514  1.00  0.00    -0.244 NA 
BRANCH   3   4
HETATM    4  C   UNL     1      -5.207  19.202  69.443  1.00  0.00    -0.190 C  
BRANCH   4   5
HETATM    5  C   UNL     1      -5.420  19.874  70.810  1.00  0.00    -0.265 C  
HETATM    6  H   UNL     1      -5.260  19.395  72.728  1.00  0.00     0.000 HD 
HETATM    7  O   UNL     1      -5.128  18.981  71.883  1.00  0.00    -0.657 OA 
ENDBRANCH   4   5
ENDBRANCH   3   4
BRANCH   3   8
HETATM    8  C   UNL     1      -7.308  18.618  68.249  1.00  0.00    -0.274 A  
HETATM    9  C   UNL     1      -7.538  14.877  67.584  1.00  0.00    -0.201 C  
HETATM   10  C   UNL     1      -8.665  18.958  68.268  1.00  0.00    -0.367 A  
HETATM   11  C   UNL     1      -9.669  18.002  68.042  1.00  0.00    -0.309 A  
HETATM   12  C   UNL     1      -7.000  17.278  67.981  1.00  0.00    -0.179 A  
HETATM   13  C   UNL     1      -9.348  16.657  67.819  1.00  0.00    -0.222 A  
HETATM   14  C   UNL     1      -7.992  16.296  67.797  1.00  0.00    -0.154 A  
BRANCH  13  15
HETATM   15  N   UNL     1     -10.326  15.679  67.546  1.00  0.00    -0.271 NA 
HETATM   16  H   UNL     1     -10.171  14.898  66.909  1.00  0.00     0.000 HD 
BRANCH  15  17
HETATM   17  N   UNL     1     -11.399  15.859  68.158  1.00  0.00    -0.338 NA 
HETATM   18  H   UNL     1     -11.940  16.723  68.096  1.00  0.00     0.000 HD 
BRANCH  17  19
HETATM   19  C   UNL     1     -11.781  14.792  68.919  1.00  0.00    -0.309 A  
HETATM   20  N   UNL     1     -11.585  13.504  68.676  1.00  0.00    -0.305 NA 
HETATM   21  C   UNL     1     -12.097  12.726  69.697  1.00  0.00    -0.222 A  
HETATM   22  C   UNL     1     -12.685  13.435  70.711  1.00  0.00    -0.228 A  
HETATM   23  N   UNL     1     -13.292  12.897  71.884  1.00  0.00    -0.469 N  
HETATM   24  S   UNL     1     -12.612  15.104  70.413  1.00  0.00    -0.340 SA 
HETATM   25  O   UNL     1     -13.276  11.663  71.996  1.00  0.00    -0.501 OA 
HETATM   26  O   UNL     1     -13.780  13.685  72.705  1.00  0.00    -0.668 OA 
ENDBRANCH  17  19
ENDBRANCH  15  17
ENDBRANCH  13  15
ENDBRANCH   3   8
ENDBRANCH   2   3
TORSDOF 7
ENDMDL
MODEL       51
REMARK 921   NORMALIZED FREE ENERGY PREDICTED BY IDOCK:   -5.26 KCAL/MOL
REMARK 922        TOTAL FREE ENERGY PREDICTED BY IDOCK:   -8.04 KCAL/MOL
REMARK 923 INTER-LIGAND FREE ENERGY PREDICTED BY IDOCK:   -7.40 KCAL/MOL
REMARK 924 INTRA-LIGAND FREE ENERGY PREDICTED BY IDOCK:   -0.64 KCAL/MOL
REMARK 927      BINDING AFFINITY PREDICTED BY RF-SCORE:    0.00 PKD
ROOT
HETATM    1  C   UNL     1      -7.375  20.030  65.710  1.00  0.00    -0.321 C  
HETATM    2  C   UNL     1      -8.771  19.837  66.284  1.00  0.00    -0.363 C  
ENDROOT
BRANCH   2   3
HETATM    3  N   UNL     1      -8.759  18.955  67.459  1.00  0.00    -0.273 NA 
BRANCH   3   4
HETATM    4  C   UNL     1      -7.977  19.362  68.637  1.00  0.00    -0.368 C  
BRANCH   4   5
HETATM    5  C   UNL     1      -6.822  18.380  68.902  1.00  0.00    -0.265 C  
HETATM    6  H   UNL     1      -5.188  18.296  70.021  1.00  0.00     0.000 HD 
HETATM    7  O   UNL     1      -5.901  18.902  69.858  1.00  0.00    -0.239 OA 
ENDBRANCH   4   5
ENDBRANCH   3   4
BRANCH   3   8
HETATM    8  C   UNL     1      -9.622  17.870  67.519  1.00  0.00    -0.269 A  
HETATM    9  C   UNL     1     -10.494  14.910  65.290  1.00  0.00    -0.427 C  
HETATM   10  C   UNL     1     -10.395  17.577  68.648  1.00  0.00    -0.369 A  
HETATM   11  C   UNL     1     -11.225  16.445  68.700  1.00  0.00    -0.332 A  
HETATM   12  C   UNL     1      -9.725  16.984  66.439  1.00  0.00    -0.310 A  
HETATM   13  C   UNL     1     -11.286  15.544  67.629  1.00  0.00    -0.260 A  
HETATM   14  C   UNL     1     -10.516  15.820  66.488  1.00  0.00    -0.304 A  
BRANCH  13  15
HETATM   15  N   UNL     1     -12.140  14.422  67.629  1.00  0.00    -0.590 NA 
HETATM   16  H   UNL     1     -12.576  14.053  66.784  1.00  0.00     0.000 HD 
BRANCH  15  17
HETATM   17  N   UNL     1     -12.312  13.924  68.761  1.00  0.00    -0.453 NA 
HETATM   18  H   UNL     1     -12.633  14.463  69.566  1.00  0.00     0.000 HD 
BRANCH  17  19
HETATM   19  C   UNL     1     -12.028  12.590  68.820  1.00  0.00    -0.238 A  
HETATM   20  N   UNL     1     -11.775  11.763  67.816  1.00  0.00    -0.536 NA 
HETATM   21  C   UNL     1     -11.508  10.489  68.280  1.00  0.00    -0.199 A  
HETATM   22  C   UNL     1     -11.566  10.358  69.643  1.00  0.00    -0.239 A  
HETATM   23  N   UNL     1     -11.337   9.166  70.392  1.00  0.00    -0.248 N  
HETATM   24  S   UNL     1     -11.957  11.833  70.383  1.00  0.00    -0.255 SA 
HETATM   25  O   UNL     1     -11.048   8.153  69.741  1.00  0.00    -0.183 OA 
HETATM   26  O   UNL     1     -11.432   9.224  71.625  1.00  0.00    -0.355 OA 
ENDBRANCH  17  19
ENDBRANCH  15  17
ENDBRANCH  13  15
ENDBRANCH   3   8
ENDBRANCH   2   3
TORSDOF 7
ENDMDL
MODEL       52
REMARK 921   NORMALIZED FREE ENERGY PREDICTED BY IDOCK:   -5.24 KCAL/MOL
REMARK 922        TOTAL FREE ENERGY PREDICTED BY IDOCK:   -8.01 KCAL/MOL
REMARK 923 INTER-LIGAND FREE ENERGY PREDICTED BY IDOCK:   -7.54 KCAL/MOL
REMARK 924 INTRA-LIGAND FREE ENERGY PREDICTED BY IDOCK:   -0.48 KCAL/MOL
REMARK 927      BINDING AFFINITY PREDICTED BY RF-SCORE:    0.00 PKD
ROOT
HETATM    1  C   UNL     1      -8.202   5.376  68.174  1.00  0.00    -0.099 C  
HETATM    2  C   UNL     1      -7.924   6.634  68.984  1.00  0.00    -0.112 C  
ENDROOT
BRANCH   2   3
HETATM    3  N   UNL     1      -9.115   7.082  69.718  1.00  0.00    -0.145 NA 
BRANCH   3   4
HETATM    4  C   UNL     1      -9.365   6.529  71.059  1.00  0.00    -0.160 C  
BRANCH   4   5
HETATM    5  C   UNL     1     -10.470   5.459  71.019  1.00  0.00    -0.232 C  
HETATM    6  H   UNL     1     -11.429   4.284  72.295  1.00  0.00     0.000 HD 
HETATM    7  O   UNL     1     -10.747   4.944  72.320  1.00  0.00    -0.207 OA 
ENDBRANCH   4   5
ENDBRANCH   3   4
BRANCH   3   8
HETATM    8  C   UNL     1      -9.867   8.144  69.236  1.00  0.00    -0.182 A  
HETATM    9  C   UNL     1     -12.082  10.859  70.723  1.00  0.00    -0.469 C  
HETATM   10  C   UNL     1      -9.875   8.518  67.887  1.00  0.00    -0.208 A  
HETATM   11  C   UNL     1     -10.608   9.625  67.432  1.00  0.00    -0.333 A  
HETATM   12  C   UNL     1     -10.638   8.923  70.107  1.00  0.00    -0.243 A  
HETATM   13  C   UNL     1     -11.340  10.422  68.322  1.00  0.00    -0.224 A  
HETATM   14  C   UNL     1     -11.344  10.064  69.680  1.00  0.00    -0.253 A  
BRANCH  13  15
HETATM   15  N   UNL     1     -12.122  11.514  67.897  1.00  0.00    -0.605 NA 
HETATM   16  H   UNL     1     -12.808  11.976  68.493  1.00  0.00     0.000 HD 
BRANCH  15  17
HETATM   17  N   UNL     1     -11.896  11.863  66.719  1.00  0.00    -0.607 NA 
HETATM   18  H   UNL     1     -12.167  11.305  65.909  1.00  0.00     0.000 HD 
BRANCH  17  19
HETATM   19  C   UNL     1     -11.250  13.061  66.618  1.00  0.00    -0.307 A  
HETATM   20  N   UNL     1     -10.209  13.490  67.317  1.00  0.00    -0.240 NA 
HETATM   21  C   UNL     1      -9.824  14.752  66.906  1.00  0.00    -0.243 A  
HETATM   22  C   UNL     1     -10.583  15.275  65.893  1.00  0.00    -0.335 A  
HETATM   23  N   UNL     1     -10.414  16.550  65.276  1.00  0.00    -0.280 N  
HETATM   24  S   UNL     1     -11.807  14.197  65.426  1.00  0.00    -0.378 SA 
HETATM   25  O   UNL     1      -9.480  17.246  65.695  1.00  0.00    -0.515 OA 
HETATM   26  O   UNL     1     -11.195  16.868  64.369  1.00  0.00    -1.159 OA 
ENDBRANCH  17  19
ENDBRANCH  15  17
ENDBRANCH  13  15
ENDBRANCH   3   8
ENDBRANCH   2   3
TORSDOF 7
ENDMDL
MODEL       53
REMARK 921   NORMALIZED FREE ENERGY PREDICTED BY IDOCK:   -5.23 KCAL/MOL
REMARK 922        TOTAL FREE ENERGY PREDICTED BY IDOCK:   -8.00 KCAL/MOL
REMARK 923 INTER-LIGAND FREE ENERGY PREDICTED BY IDOCK:   -7.26 KCAL/MOL
REMARK 924 INTRA-LIGAND FREE ENERGY PREDICTED BY IDOCK:   -0.73 KCAL/MOL
REMARK 927      BINDING AFFINITY PREDICTED BY RF-SCORE:    0.00 PKD
ROOT
HETATM    1  C   UNL     1      -7.247   9.033  67.156  1.00  0.00    -0.083 C  
HETATM    2  C   UNL     1      -8.080   8.382  66.062  1.00  0.00    -0.104 C  
ENDROOT
BRANCH   2   3
HETATM    3  N   UNL     1      -9.518   8.574  66.285  1.00  0.00    -0.224 NA 
BRANCH   3   4
HETATM    4  C   UNL     1     -10.259   7.545  67.032  1.00  0.00    -0.298 C  
BRANCH   4   5
HETATM    5  C   UNL     1      -9.744   6.135  66.690  1.00  0.00    -0.160 C  
HETATM    6  H   UNL     1     -10.503   4.362  66.230  1.00  0.00     0.000 HD 
HETATM    7  O   UNL     1     -10.820   5.232  66.441  1.00  0.00    -0.292 OA 
ENDBRANCH   4   5
ENDBRANCH   3   4
BRANCH   3   8
HETATM    8  C   UNL     1     -10.112   9.788  65.970  1.00  0.00    -0.251 A  
HETATM    9  C   UNL     1     -11.787  12.622  67.882  1.00  0.00    -0.388 C  
HETATM   10  C   UNL     1     -10.123  10.314  64.673  1.00  0.00    -0.317 A  
HETATM   11  C   UNL     1     -10.689  11.567  64.389  1.00  0.00    -0.404 A  
HETATM   12  C   UNL     1     -10.705  10.570  66.969  1.00  0.00    -0.310 A  
HETATM   13  C   UNL     1     -11.239  12.358  65.406  1.00  0.00    -0.318 A  
HETATM   14  C   UNL     1     -11.237  11.849  66.714  1.00  0.00    -0.384 A  
BRANCH  13  15
HETATM   15  N   UNL     1     -11.855  13.601  65.152  1.00  0.00    -0.333 NA 
HETATM   16  H   UNL     1     -12.756  13.868  65.546  1.00  0.00     0.000 HD 
BRANCH  15  17
HETATM   17  N   UNL     1     -11.190  14.343  64.399  1.00  0.00    -0.606 NA 
HETATM   18  H   UNL     1     -10.901  14.071  63.459  1.00  0.00     0.000 HD 
BRANCH  17  19
HETATM   19  C   UNL     1     -10.887  15.553  64.953  1.00  0.00    -0.427 A  
HETATM   20  N   UNL     1     -11.268  16.756  64.548  1.00  0.00    -1.039 NA 
HETATM   21  C   UNL     1     -10.776  17.738  65.387  1.00  0.00     0.086 A  
HETATM   22  C   UNL     1     -10.017  17.269  66.426  1.00  0.00    -0.311 A  
HETATM   23  N   UNL     1      -9.387  18.051  67.440  1.00  0.00    -0.252 N  
HETATM   24  S   UNL     1      -9.898  15.577  66.382  1.00  0.00    -0.301 SA 
HETATM   25  O   UNL     1      -9.554  19.277  67.373  1.00  0.00    -0.303 OA 
HETATM   26  O   UNL     1      -8.733  17.462  68.310  1.00  0.00    -0.245 OA 
ENDBRANCH  17  19
ENDBRANCH  15  17
ENDBRANCH  13  15
ENDBRANCH   3   8
ENDBRANCH   2   3
TORSDOF 7
ENDMDL
MODEL       54
REMARK 921   NORMALIZED FREE ENERGY PREDICTED BY IDOCK:   -5.22 KCAL/MOL
REMARK 922        TOTAL FREE ENERGY PREDICTED BY IDOCK:   -7.99 KCAL/MOL
REMARK 923 INTER-LIGAND FREE ENERGY PREDICTED BY IDOCK:   -7.29 KCAL/MOL
REMARK 924 INTRA-LIGAND FREE ENERGY PREDICTED BY IDOCK:   -0.69 KCAL/MOL
REMARK 927      BINDING AFFINITY PREDICTED BY RF-SCORE:    0.00 PKD
ROOT
HETATM    1  C   UNL     1      -6.577  18.935  65.498  1.00  0.00    -0.311 C  
HETATM    2  C   UNL     1      -7.756  19.642  66.150  1.00  0.00    -0.321 C  
ENDROOT
BRANCH   2   3
HETATM    3  N   UNL     1      -7.911  19.257  67.559  1.00  0.00    -0.256 NA 
BRANCH   3   4
HETATM    4  C   UNL     1      -7.379  20.153  68.597  1.00  0.00    -0.125 C  
BRANCH   4   5
HETATM    5  C   UNL     1      -6.133  19.545  69.267  1.00  0.00    -0.281 C  
HETATM    6  H   UNL     1      -4.371  18.822  68.717  1.00  0.00     0.000 HD 
HETATM    7  O   UNL     1      -5.140  19.197  68.304  1.00  0.00    -0.176 OA 
ENDBRANCH   4   5
ENDBRANCH   3   4
BRANCH   3   8
HETATM    8  C   UNL     1      -8.713  18.175  67.896  1.00  0.00    -0.261 A  
HETATM    9  C   UNL     1      -8.192  14.477  68.631  1.00  0.00    -0.152 C  
HETATM   10  C   UNL     1     -10.083  18.297  68.154  1.00  0.00    -0.397 A  
HETATM   11  C   UNL     1     -10.862  17.194  68.539  1.00  0.00    -0.281 A  
HETATM   12  C   UNL     1      -8.160  16.895  68.031  1.00  0.00    -0.194 A  
HETATM   13  C   UNL     1     -10.287  15.928  68.713  1.00  0.00    -0.228 A  
HETATM   14  C   UNL     1      -8.914  15.786  68.460  1.00  0.00    -0.194 A  
BRANCH  13  15
HETATM   15  N   UNL     1     -11.045  14.791  69.056  1.00  0.00    -0.244 NA 
HETATM   16  H   UNL     1     -10.758  14.124  69.772  1.00  0.00     0.000 HD 
BRANCH  15  17
HETATM   17  N   UNL     1     -12.103  14.677  68.401  1.00  0.00    -0.581 NA 
HETATM   18  H   UNL     1     -12.966  15.163  68.645  1.00  0.00     0.000 HD 
BRANCH  17  19
HETATM   19  C   UNL     1     -11.993  13.842  67.326  1.00  0.00    -0.411 A  
HETATM   20  N   UNL     1     -11.587  12.581  67.310  1.00  0.00    -0.348 NA 
HETATM   21  C   UNL     1     -11.638  12.063  66.030  1.00  0.00    -0.305 A  
HETATM   22  C   UNL     1     -12.081  12.943  65.078  1.00  0.00    -0.435 A  
HETATM   23  N   UNL     1     -12.234  12.682  63.685  1.00  0.00    -0.515 N  
HETATM   24  S   UNL     1     -12.449  14.451  65.763  1.00  0.00    -0.247 SA 
HETATM   25  O   UNL     1     -11.943  11.540  63.302  1.00  0.00    -0.303 OA 
HETATM   26  O   UNL     1     -12.648  13.596  62.960  1.00  0.00    -0.729 OA 
ENDBRANCH  17  19
ENDBRANCH  15  17
ENDBRANCH  13  15
ENDBRANCH   3   8
ENDBRANCH   2   3
TORSDOF 7
ENDMDL
MODEL       55
REMARK 921   NORMALIZED FREE ENERGY PREDICTED BY IDOCK:   -5.22 KCAL/MOL
REMARK 922        TOTAL FREE ENERGY PREDICTED BY IDOCK:   -7.98 KCAL/MOL
REMARK 923 INTER-LIGAND FREE ENERGY PREDICTED BY IDOCK:   -7.41 KCAL/MOL
REMARK 924 INTRA-LIGAND FREE ENERGY PREDICTED BY IDOCK:   -0.57 KCAL/MOL
REMARK 927      BINDING AFFINITY PREDICTED BY RF-SCORE:    0.00 PKD
ROOT
HETATM    1  C   UNL     1     -10.342   5.276  71.423  1.00  0.00    -0.290 C  
HETATM    2  C   UNL     1     -11.286   6.354  70.911  1.00  0.00    -0.326 C  
ENDROOT
BRANCH   2   3
HETATM    3  N   UNL     1     -10.673   7.148  69.838  1.00  0.00    -0.233 NA 
BRANCH   3   4
HETATM    4  C   UNL     1     -10.005   6.444  68.733  1.00  0.00    -0.147 C  
BRANCH   4   5
HETATM    5  C   UNL     1     -10.984   6.172  67.577  1.00  0.00    -0.307 C  
HETATM    6  H   UNL     1     -11.143   4.923  66.046  1.00  0.00     0.000 HD 
HETATM    7  O   UNL     1     -10.539   5.091  66.759  1.00  0.00    -0.252 OA 
ENDBRANCH   4   5
ENDBRANCH   3   4
BRANCH   3   8
HETATM    8  C   UNL     1     -10.897   8.517  69.776  1.00  0.00    -0.175 A  
HETATM    9  C   UNL     1     -12.996  11.060  71.677  1.00  0.00    -0.561 C  
HETATM   10  C   UNL     1     -10.200   9.361  68.904  1.00  0.00    -0.215 A  
HETATM   11  C   UNL     1     -10.412  10.749  68.894  1.00  0.00    -0.228 A  
HETATM   12  C   UNL     1     -11.825   9.125  70.630  1.00  0.00    -0.222 A  
HETATM   13  C   UNL     1     -11.311  11.349  69.785  1.00  0.00    -0.255 A  
HETATM   14  C   UNL     1     -12.019  10.519  70.668  1.00  0.00    -0.455 A  
BRANCH  13  15
HETATM   15  N   UNL     1     -11.582  12.732  69.775  1.00  0.00    -0.480 NA 
HETATM   16  H   UNL     1     -11.354  13.351  70.552  1.00  0.00     0.000 HD 
BRANCH  15  17
HETATM   17  N   UNL     1     -12.126  13.128  68.722  1.00  0.00    -0.268 NA 
HETATM   18  H   UNL     1     -12.922  12.654  68.293  1.00  0.00     0.000 HD 
BRANCH  17  19
HETATM   19  C   UNL     1     -11.556  14.253  68.201  1.00  0.00    -0.332 A  
HETATM   20  N   UNL     1     -10.764  15.124  68.809  1.00  0.00    -0.231 NA 
HETATM   21  C   UNL     1     -10.368  16.122  67.939  1.00  0.00    -0.277 A  
HETATM   22  C   UNL     1     -10.870  16.001  66.670  1.00  0.00    -0.179 A  
HETATM   23  N   UNL     1     -10.628  16.880  65.573  1.00  0.00    -0.286 N  
HETATM   24  S   UNL     1     -11.855  14.628  66.531  1.00  0.00    -0.243 SA 
HETATM   25  O   UNL     1      -9.883  17.845  65.794  1.00  0.00    -0.540 OA 
HETATM   26  O   UNL     1     -11.165  16.622  64.488  1.00  0.00    -0.909 OA 
ENDBRANCH  17  19
ENDBRANCH  15  17
ENDBRANCH  13  15
ENDBRANCH   3   8
ENDBRANCH   2   3
TORSDOF 7
ENDMDL
MODEL       56
REMARK 921   NORMALIZED FREE ENERGY PREDICTED BY IDOCK:   -5.21 KCAL/MOL
REMARK 922        TOTAL FREE ENERGY PREDICTED BY IDOCK:   -7.97 KCAL/MOL
REMARK 923 INTER-LIGAND FREE ENERGY PREDICTED BY IDOCK:   -7.44 KCAL/MOL
REMARK 924 INTRA-LIGAND FREE ENERGY PREDICTED BY IDOCK:   -0.53 KCAL/MOL
REMARK 927      BINDING AFFINITY PREDICTED BY RF-SCORE:    0.00 PKD
ROOT
HETATM    1  C   UNL     1     -10.393   5.512  70.949  1.00  0.00    -0.310 C  
HETATM    2  C   UNL     1      -8.960   5.934  70.661  1.00  0.00    -0.145 C  
ENDROOT
BRANCH   2   3
HETATM    3  N   UNL     1      -8.784   7.386  70.792  1.00  0.00    -0.144 NA 
BRANCH   3   4
HETATM    4  C   UNL     1      -7.897   7.896  71.849  1.00  0.00    -0.105 C  
BRANCH   4   5
HETATM    5  C   UNL     1      -6.983   9.013  71.313  1.00  0.00    -0.081 C  
HETATM    6  H   UNL     1      -5.670  10.313  72.032  1.00  0.00     0.000 HD 
HETATM    7  O   UNL     1      -6.234   9.623  72.362  1.00  0.00    -0.288 OA 
ENDBRANCH   4   5
ENDBRANCH   3   4
BRANCH   3   8
HETATM    8  C   UNL     1      -9.289   8.236  69.816  1.00  0.00    -0.158 A  
HETATM    9  C   UNL     1      -8.883   8.672  66.057  1.00  0.00    -0.213 C  
HETATM   10  C   UNL     1     -10.274   9.194  70.080  1.00  0.00    -0.237 A  
HETATM   11  C   UNL     1     -10.801  10.009  69.066  1.00  0.00    -0.253 A  
HETATM   12  C   UNL     1      -8.846   8.139  68.492  1.00  0.00    -0.134 A  
HETATM   13  C   UNL     1     -10.381   9.871  67.737  1.00  0.00    -0.221 A  
HETATM   14  C   UNL     1      -9.394   8.915  67.452  1.00  0.00    -0.165 A  
BRANCH  13  15
HETATM   15  N   UNL     1     -10.856  10.700  66.700  1.00  0.00    -0.181 NA 
HETATM   16  H   UNL     1     -10.548  10.614  65.732  1.00  0.00     0.000 HD 
BRANCH  15  17
HETATM   17  N   UNL     1     -11.688  11.550  67.081  1.00  0.00    -0.577 NA 
HETATM   18  H   UNL     1     -12.238  11.450  67.935  1.00  0.00     0.000 HD 
BRANCH  17  19
HETATM   19  C   UNL     1     -11.793  12.625  66.246  1.00  0.00    -0.410 A  
HETATM   20  N   UNL     1     -12.654  12.808  65.255  1.00  0.00    -0.635 NA 
HETATM   21  C   UNL     1     -12.461  14.038  64.655  1.00  0.00    -0.335 A  
HETATM   22  C   UNL     1     -11.445  14.781  65.198  1.00  0.00    -0.371 A  
HETATM   23  N   UNL     1     -11.027  16.080  64.782  1.00  0.00    -0.443 N  
HETATM   24  S   UNL     1     -10.701  13.957  66.480  1.00  0.00    -0.279 SA 
HETATM   25  O   UNL     1     -11.653  16.586  63.840  1.00  0.00    -1.175 OA 
HETATM   26  O   UNL     1     -10.085  16.611  65.385  1.00  0.00    -0.578 OA 
ENDBRANCH  17  19
ENDBRANCH  15  17
ENDBRANCH  13  15
ENDBRANCH   3   8
ENDBRANCH   2   3
TORSDOF 7
ENDMDL
MODEL       57
REMARK 921   NORMALIZED FREE ENERGY PREDICTED BY IDOCK:   -5.20 KCAL/MOL
REMARK 922        TOTAL FREE ENERGY PREDICTED BY IDOCK:   -7.96 KCAL/MOL
REMARK 923 INTER-LIGAND FREE ENERGY PREDICTED BY IDOCK:   -7.59 KCAL/MOL
REMARK 924 INTRA-LIGAND FREE ENERGY PREDICTED BY IDOCK:   -0.37 KCAL/MOL
REMARK 927      BINDING AFFINITY PREDICTED BY RF-SCORE:    0.00 PKD
ROOT
HETATM    1  C   UNL     1     -11.372   6.244  69.583  1.00  0.00    -0.492 C  
HETATM    2  C   UNL     1     -11.221   6.071  71.087  1.00  0.00    -0.261 C  
ENDROOT
BRANCH   2   3
HETATM    3  N   UNL     1     -11.109   7.364  71.775  1.00  0.00    -0.234 NA 
BRANCH   3   4
HETATM    4  C   UNL     1     -11.160   7.387  73.245  1.00  0.00    -0.255 C  
BRANCH   4   5
HETATM    5  C   UNL     1     -10.228   6.322  73.848  1.00  0.00    -0.295 C  
HETATM    6  H   UNL     1      -8.390   6.220  74.584  1.00  0.00     0.000 HD 
HETATM    7  O   UNL     1      -8.965   6.877  74.212  1.00  0.00    -0.171 OA 
ENDBRANCH   4   5
ENDBRANCH   3   4
BRANCH   3   8
HETATM    8  C   UNL     1     -10.765   8.502  71.058  1.00  0.00    -0.228 A  
HETATM    9  C   UNL     1      -7.659   9.825  69.301  1.00  0.00    -0.097 C  
HETATM   10  C   UNL     1     -11.691   9.497  70.725  1.00  0.00    -0.370 A  
HETATM   11  C   UNL     1     -11.328  10.616  69.959  1.00  0.00    -0.400 A  
HETATM   12  C   UNL     1      -9.456   8.684  70.598  1.00  0.00    -0.218 A  
HETATM   13  C   UNL     1     -10.024  10.763  69.468  1.00  0.00    -0.054 A  
HETATM   14  C   UNL     1      -9.081   9.775  69.790  1.00  0.00    -0.246 A  
BRANCH  13  15
HETATM   15  N   UNL     1      -9.613  11.893  68.732  1.00  0.00    -0.393 NA 
HETATM   16  H   UNL     1      -8.756  11.918  68.180  1.00  0.00     0.000 HD 
BRANCH  15  17
HETATM   17  N   UNL     1     -10.398  12.861  68.821  1.00  0.00    -0.405 NA 
HETATM   18  H   UNL     1     -10.608  13.331  69.701  1.00  0.00     0.000 HD 
BRANCH  17  19
HETATM   19  C   UNL     1     -10.948  13.229  67.627  1.00  0.00    -0.262 A  
HETATM   20  N   UNL     1     -11.797  12.547  66.873  1.00  0.00    -0.515 NA 
HETATM   21  C   UNL     1     -12.147  13.266  65.746  1.00  0.00    -0.441 A  
HETATM   22  C   UNL     1     -11.551  14.497  65.652  1.00  0.00    -0.344 A  
HETATM   23  N   UNL     1     -11.727  15.447  64.603  1.00  0.00    -0.332 N  
HETATM   24  S   UNL     1     -10.534  14.788  66.978  1.00  0.00    -0.273 SA 
HETATM   25  O   UNL     1     -12.504  15.127  63.693  1.00  0.00    -0.607 OA 
HETATM   26  O   UNL     1     -11.108  16.518  64.675  1.00  0.00    -0.699 OA 
ENDBRANCH  17  19
ENDBRANCH  15  17
ENDBRANCH  13  15
ENDBRANCH   3   8
ENDBRANCH   2   3
TORSDOF 7
ENDMDL
MODEL       58
REMARK 921   NORMALIZED FREE ENERGY PREDICTED BY IDOCK:   -5.18 KCAL/MOL
REMARK 922        TOTAL FREE ENERGY PREDICTED BY IDOCK:   -7.93 KCAL/MOL
REMARK 923 INTER-LIGAND FREE ENERGY PREDICTED BY IDOCK:   -7.23 KCAL/MOL
REMARK 924 INTRA-LIGAND FREE ENERGY PREDICTED BY IDOCK:   -0.70 KCAL/MOL
REMARK 927      BINDING AFFINITY PREDICTED BY RF-SCORE:    0.00 PKD
ROOT
HETATM    1  C   UNL     1     -10.431  19.617  67.814  1.00  0.00    -0.573 C  
HETATM    2  C   UNL     1     -10.100  18.220  68.315  1.00  0.00    -0.386 C  
ENDROOT
BRANCH   2   3
HETATM    3  N   UNL     1     -10.033  17.249  67.215  1.00  0.00    -0.274 NA 
BRANCH   3   4
HETATM    4  C   UNL     1      -9.284  17.609  66.002  1.00  0.00    -0.020 C  
BRANCH   4   5
HETATM    5  C   UNL     1      -7.769  17.448  66.219  1.00  0.00    -0.305 C  
HETATM    6  H   UNL     1      -6.086  18.073  65.378  1.00  0.00     0.000 HD 
HETATM    7  O   UNL     1      -7.021  18.172  65.244  1.00  0.00    -0.484 OA 
ENDBRANCH   4   5
ENDBRANCH   3   4
BRANCH   3   8
HETATM    8  C   UNL     1     -10.500  15.955  67.405  1.00  0.00    -0.306 A  
HETATM    9  C   UNL     1     -12.097  13.984  70.242  1.00  0.00    -0.425 C  
HETATM   10  C   UNL     1     -10.551  15.008  66.375  1.00  0.00    -0.310 A  
HETATM   11  C   UNL     1     -11.071  13.721  66.582  1.00  0.00    -0.316 A  
HETATM   12  C   UNL     1     -10.983  15.549  68.655  1.00  0.00    -0.279 A  
HETATM   13  C   UNL     1     -11.592  13.343  67.826  1.00  0.00    -0.340 A  
HETATM   14  C   UNL     1     -11.551  14.279  68.871  1.00  0.00    -0.340 A  
BRANCH  13  15
HETATM   15  N   UNL     1     -12.082  12.046  68.082  1.00  0.00    -0.448 NA 
HETATM   16  H   UNL     1     -12.809  11.850  68.770  1.00  0.00     0.000 HD 
BRANCH  15  17
HETATM   17  N   UNL     1     -11.541  11.161  67.387  1.00  0.00    -0.537 NA 
HETATM   18  H   UNL     1     -11.464  11.217  66.371  1.00  0.00     0.000 HD 
BRANCH  17  19
HETATM   19  C   UNL     1     -11.064  10.110  68.115  1.00  0.00    -0.230 A  
HETATM   20  N   UNL     1     -10.440   9.027  67.675  1.00  0.00    -0.259 NA 
HETATM   21  C   UNL     1     -10.087   8.199  68.724  1.00  0.00    -0.199 A  
HETATM   22  C   UNL     1     -10.452   8.663  69.960  1.00  0.00    -0.223 A  
HETATM   23  N   UNL     1     -10.218   8.021  71.212  1.00  0.00    -0.190 N  
HETATM   24  S   UNL     1     -11.251  10.155  69.843  1.00  0.00    -0.298 SA 
HETATM   25  O   UNL     1      -9.615   6.939  71.173  1.00  0.00    -0.167 OA 
HETATM   26  O   UNL     1     -10.618   8.581  72.241  1.00  0.00    -0.319 OA 
ENDBRANCH  17  19
ENDBRANCH  15  17
ENDBRANCH  13  15
ENDBRANCH   3   8
ENDBRANCH   2   3
TORSDOF 7
ENDMDL
MODEL       59
REMARK 921   NORMALIZED FREE ENERGY PREDICTED BY IDOCK:   -5.18 KCAL/MOL
REMARK 922        TOTAL FREE ENERGY PREDICTED BY IDOCK:   -7.92 KCAL/MOL
REMARK 923 INTER-LIGAND FREE ENERGY PREDICTED BY IDOCK:   -7.48 KCAL/MOL
REMARK 924 INTRA-LIGAND FREE ENERGY PREDICTED BY IDOCK:   -0.44 KCAL/MOL
REMARK 927      BINDING AFFINITY PREDICTED BY RF-SCORE:    0.00 PKD
ROOT
HETATM    1  C   UNL     1     -14.319   8.266  71.418  1.00  0.00    -0.461 C  
HETATM    2  C   UNL     1     -12.974   8.417  72.112  1.00  0.00    -0.337 C  
ENDROOT
BRANCH   2   3
HETATM    3  N   UNL     1     -11.857   8.115  71.207  1.00  0.00    -0.285 NA 
BRANCH   3   4
HETATM    4  C   UNL     1     -11.535   6.706  70.931  1.00  0.00    -0.347 C  
BRANCH   4   5
HETATM    5  C   UNL     1     -11.492   6.435  69.417  1.00  0.00    -0.305 C  
HETATM    6  H   UNL     1     -10.231   5.664  68.094  1.00  0.00     0.000 HD 
HETATM    7  O   UNL     1     -10.258   5.832  69.029  1.00  0.00    -0.179 OA 
ENDBRANCH   4   5
ENDBRANCH   3   4
BRANCH   3   8
HETATM    8  C   UNL     1     -11.258   9.136  70.483  1.00  0.00    -0.264 A  
HETATM    9  C   UNL     1      -7.714  10.095  69.478  1.00  0.00    -0.155 C  
HETATM   10  C   UNL     1     -11.990  10.117  69.804  1.00  0.00    -0.106 A  
HETATM   11  C   UNL     1     -11.360  11.112  69.040  1.00  0.00    -0.343 A  
HETATM   12  C   UNL     1      -9.863   9.204  70.370  1.00  0.00    -0.263 A  
HETATM   13  C   UNL     1      -9.966  11.142  68.901  1.00  0.00    -0.175 A  
HETATM   14  C   UNL     1      -9.214  10.166  69.573  1.00  0.00    -0.223 A  
BRANCH  13  15
HETATM   15  N   UNL     1      -9.297  12.150  68.178  1.00  0.00    -0.200 NA 
HETATM   16  H   UNL     1      -8.732  12.874  68.622  1.00  0.00     0.000 HD 
BRANCH  15  17
HETATM   17  N   UNL     1      -9.461  12.072  66.942  1.00  0.00    -0.198 NA 
HETATM   18  H   UNL     1      -9.341  11.207  66.416  1.00  0.00     0.000 HD 
BRANCH  17  19
HETATM   19  C   UNL     1      -9.816  13.256  66.362  1.00  0.00    -0.281 A  
HETATM   20  N   UNL     1      -9.193  14.423  66.439  1.00  0.00    -0.249 NA 
HETATM   21  C   UNL     1      -9.849  15.383  65.692  1.00  0.00    -0.352 A  
HETATM   22  C   UNL     1     -10.975  14.934  65.054  1.00  0.00    -0.420 A  
HETATM   23  N   UNL     1     -11.842  15.701  64.221  1.00  0.00    -0.284 N  
HETATM   24  S   UNL     1     -11.245  13.290  65.373  1.00  0.00    -0.292 SA 
HETATM   25  O   UNL     1     -11.537  16.890  64.054  1.00  0.00    -1.123 OA 
HETATM   26  O   UNL     1     -12.823  15.136  63.720  1.00  0.00    -0.636 OA 
ENDBRANCH  17  19
ENDBRANCH  15  17
ENDBRANCH  13  15
ENDBRANCH   3   8
ENDBRANCH   2   3
TORSDOF 7
ENDMDL
MODEL       60
REMARK 921   NORMALIZED FREE ENERGY PREDICTED BY IDOCK:   -5.13 KCAL/MOL
REMARK 922        TOTAL FREE ENERGY PREDICTED BY IDOCK:   -7.85 KCAL/MOL
REMARK 923 INTER-LIGAND FREE ENERGY PREDICTED BY IDOCK:   -7.64 KCAL/MOL
REMARK 924 INTRA-LIGAND FREE ENERGY PREDICTED BY IDOCK:   -0.22 KCAL/MOL
REMARK 927      BINDING AFFINITY PREDICTED BY RF-SCORE:    0.00 PKD
ROOT
HETATM    1  C   UNL     1     -11.010  12.181  63.484  1.00  0.00    -0.521 C  
HETATM    2  C   UNL     1     -12.060  12.668  64.471  1.00  0.00    -0.417 C  
ENDROOT
BRANCH   2   3
HETATM    3  N   UNL     1     -11.448  13.283  65.657  1.00  0.00    -0.312 NA 
BRANCH   3   4
HETATM    4  C   UNL     1     -11.048  14.697  65.590  1.00  0.00    -0.338 C  
BRANCH   4   5
HETATM    5  C   UNL     1     -11.663  15.389  64.360  1.00  0.00    -0.258 C  
HETATM    6  H   UNL     1     -11.549  17.146  63.448  1.00  0.00     0.000 HD 
HETATM    7  O   UNL     1     -11.170  16.719  64.207  1.00  0.00    -1.163 OA 
ENDBRANCH   4   5
ENDBRANCH   3   4
BRANCH   3   8
HETATM    8  C   UNL     1     -11.434  12.597  66.863  1.00  0.00    -0.343 A  
HETATM    9  C   UNL     1     -12.256  13.381  70.496  1.00  0.00    -0.425 C  
HETATM   10  C   UNL     1     -11.145  11.230  66.955  1.00  0.00    -0.356 A  
HETATM   11  C   UNL     1     -11.183  10.549  68.183  1.00  0.00    -0.357 A  
HETATM   12  C   UNL     1     -11.752  13.253  68.058  1.00  0.00    -0.394 A  
HETATM   13  C   UNL     1     -11.546  11.209  69.364  1.00  0.00    -0.318 A  
HETATM   14  C   UNL     1     -11.840  12.580  69.292  1.00  0.00    -0.360 A  
BRANCH  13  15
HETATM   15  N   UNL     1     -11.553  10.569  70.620  1.00  0.00    -0.339 NA 
HETATM   16  H   UNL     1     -12.381  10.511  71.212  1.00  0.00     0.000 HD 
BRANCH  15  17
HETATM   17  N   UNL     1     -10.449  10.079  70.938  1.00  0.00    -0.341 NA 
HETATM   18  H   UNL     1      -9.683  10.631  71.326  1.00  0.00     0.000 HD 
BRANCH  17  19
HETATM   19  C   UNL     1     -10.363   8.735  70.717  1.00  0.00    -0.213 A  
HETATM   20  N   UNL     1     -11.222   7.792  71.077  1.00  0.00    -0.262 NA 
HETATM   21  C   UNL     1     -10.797   6.548  70.649  1.00  0.00    -0.266 A  
HETATM   22  C   UNL     1      -9.609   6.558  69.967  1.00  0.00    -0.159 A  
HETATM   23  N   UNL     1      -8.938   5.428  69.413  1.00  0.00    -0.104 N  
HETATM   24  S   UNL     1      -8.989   8.132  69.841  1.00  0.00    -0.144 SA 
HETATM   25  O   UNL     1      -9.493   4.330  69.559  1.00  0.00    -0.153 OA 
HETATM   26  O   UNL     1      -7.865   5.616  68.824  1.00  0.00    -0.093 OA 
ENDBRANCH  17  19
ENDBRANCH  15  17
ENDBRANCH  13  15
ENDBRANCH   3   8
ENDBRANCH   2   3
TORSDOF 7
ENDMDL
MODEL       61
REMARK 921   NORMALIZED FREE ENERGY PREDICTED BY IDOCK:   -5.12 KCAL/MOL
REMARK 922        TOTAL FREE ENERGY PREDICTED BY IDOCK:   -7.84 KCAL/MOL
REMARK 923 INTER-LIGAND FREE ENERGY PREDICTED BY IDOCK:   -7.09 KCAL/MOL
REMARK 924 INTRA-LIGAND FREE ENERGY PREDICTED BY IDOCK:   -0.75 KCAL/MOL
REMARK 927      BINDING AFFINITY PREDICTED BY RF-SCORE:    0.00 PKD
ROOT
HETATM    1  C   UNL     1     -12.237   7.954  71.231  1.00  0.00    -0.314 C  
HETATM    2  C   UNL     1     -10.983   8.796  71.048  1.00  0.00    -0.268 C  
ENDROOT
BRANCH   2   3
HETATM    3  N   UNL     1     -10.801   9.205  69.649  1.00  0.00    -0.223 NA 
BRANCH   3   4
HETATM    4  C   UNL     1     -10.457   8.177  68.654  1.00  0.00    -0.165 C  
BRANCH   4   5
HETATM    5  C   UNL     1      -9.170   7.432  69.050  1.00  0.00    -0.146 C  
HETATM    6  H   UNL     1      -8.610   5.575  69.461  1.00  0.00     0.000 HD 
HETATM    7  O   UNL     1      -9.404   6.035  69.216  1.00  0.00    -0.132 OA 
ENDBRANCH   4   5
ENDBRANCH   3   4
BRANCH   3   8
HETATM    8  C   UNL     1     -11.142  10.491  69.253  1.00  0.00    -0.246 A  
HETATM    9  C   UNL     1     -11.418  12.386  65.964  1.00  0.00    -0.431 C  
HETATM   10  C   UNL     1     -11.607  11.462  70.148  1.00  0.00    -0.368 A  
HETATM   11  C   UNL     1     -11.989  12.741  69.714  1.00  0.00    -0.362 A  
HETATM   12  C   UNL     1     -11.065  10.864  67.906  1.00  0.00    -0.362 A  
HETATM   13  C   UNL     1     -11.949  13.087  68.358  1.00  0.00    -0.271 A  
HETATM   14  C   UNL     1     -11.486  12.126  67.445  1.00  0.00    -0.415 A  
BRANCH  13  15
HETATM   15  N   UNL     1     -12.284  14.374  67.891  1.00  0.00    -0.620 NA 
HETATM   16  H   UNL     1     -12.680  14.548  66.968  1.00  0.00     0.000 HD 
BRANCH  15  17
HETATM   17  N   UNL     1     -12.048  15.282  68.717  1.00  0.00    -0.582 NA 
HETATM   18  H   UNL     1     -12.722  15.587  69.419  1.00  0.00     0.000 HD 
BRANCH  17  19
HETATM   19  C   UNL     1     -10.803  15.827  68.589  1.00  0.00    -0.278 A  
HETATM   20  N   UNL     1      -9.793  15.767  69.444  1.00  0.00    -0.270 NA 
HETATM   21  C   UNL     1      -8.684  16.423  68.945  1.00  0.00    -0.253 A  
HETATM   22  C   UNL     1      -8.864  16.983  67.708  1.00  0.00    -0.223 A  
HETATM   23  N   UNL     1      -7.897  17.715  66.957  1.00  0.00    -0.207 N  
HETATM   24  S   UNL     1     -10.435  16.702  67.132  1.00  0.00    -0.268 SA 
HETATM   25  O   UNL     1      -6.781  17.847  67.477  1.00  0.00    -0.172 OA 
HETATM   26  O   UNL     1      -8.229  18.156  65.849  1.00  0.00    -0.513 OA 
ENDBRANCH  17  19
ENDBRANCH  15  17
ENDBRANCH  13  15
ENDBRANCH   3   8
ENDBRANCH   2   3
TORSDOF 7
ENDMDL
MODEL       62
REMARK 921   NORMALIZED FREE ENERGY PREDICTED BY IDOCK:   -5.12 KCAL/MOL
REMARK 922        TOTAL FREE ENERGY PREDICTED BY IDOCK:   -7.84 KCAL/MOL
REMARK 923 INTER-LIGAND FREE ENERGY PREDICTED BY IDOCK:   -7.24 KCAL/MOL
REMARK 924 INTRA-LIGAND FREE ENERGY PREDICTED BY IDOCK:   -0.59 KCAL/MOL
REMARK 927      BINDING AFFINITY PREDICTED BY RF-SCORE:    0.00 PKD
ROOT
HETATM    1  C   UNL     1     -14.104   7.476  71.333  1.00  0.00    -0.496 C  
HETATM    2  C   UNL     1     -12.752   6.854  71.019  1.00  0.00    -0.210 C  
ENDROOT
BRANCH   2   3
HETATM    3  N   UNL     1     -11.646   7.665  71.544  1.00  0.00    -0.266 NA 
BRANCH   3   4
HETATM    4  C   UNL     1     -10.927   7.190  72.736  1.00  0.00    -0.307 C  
BRANCH   4   5
HETATM    5  C   UNL     1     -10.679   5.673  72.665  1.00  0.00    -0.242 C  
HETATM    6  H   UNL     1     -11.319   4.032  73.574  1.00  0.00     0.000 HD 
HETATM    7  O   UNL     1     -11.472   4.968  73.618  1.00  0.00    -0.215 OA 
ENDBRANCH   4   5
ENDBRANCH   3   4
BRANCH   3   8
HETATM    8  C   UNL     1     -11.171   8.746  70.812  1.00  0.00    -0.266 A  
HETATM    9  C   UNL     1     -12.132  12.399  70.346  1.00  0.00    -0.381 C  
HETATM   10  C   UNL     1      -9.999   8.690  70.050  1.00  0.00    -0.191 A  
HETATM   11  C   UNL     1      -9.516   9.811  69.356  1.00  0.00    -0.212 A  
HETATM   12  C   UNL     1     -11.845   9.973  70.839  1.00  0.00    -0.459 A  
HETATM   13  C   UNL     1     -10.176  11.045  69.428  1.00  0.00    -0.067 A  
HETATM   14  C   UNL     1     -11.354  11.121  70.188  1.00  0.00    -0.295 A  
BRANCH  13  15
HETATM   15  N   UNL     1      -9.745  12.180  68.711  1.00  0.00    -0.405 NA 
HETATM   16  H   UNL     1      -9.797  13.128  69.083  1.00  0.00     0.000 HD 
BRANCH  15  17
HETATM   17  N   UNL     1      -9.294  11.913  67.577  1.00  0.00    -0.173 NA 
HETATM   18  H   UNL     1      -8.491  11.303  67.424  1.00  0.00     0.000 HD 
BRANCH  17  19
HETATM   19  C   UNL     1      -9.978  12.516  66.561  1.00  0.00    -0.244 A  
HETATM   20  N   UNL     1      -9.959  13.794  66.209  1.00  0.00    -0.297 NA 
HETATM   21  C   UNL     1     -10.768  14.015  65.111  1.00  0.00    -0.382 A  
HETATM   22  C   UNL     1     -11.402  12.896  64.638  1.00  0.00    -0.323 A  
HETATM   23  N   UNL     1     -12.290  12.829  63.524  1.00  0.00    -0.494 N  
HETATM   24  S   UNL     1     -11.000  11.530  65.559  1.00  0.00    -0.182 SA 
HETATM   25  O   UNL     1     -12.500  13.891  62.922  1.00  0.00    -0.572 OA 
HETATM   26  O   UNL     1     -12.779  11.730  63.231  1.00  0.00    -0.567 OA 
ENDBRANCH  17  19
ENDBRANCH  15  17
ENDBRANCH  13  15
ENDBRANCH   3   8
ENDBRANCH   2   3
TORSDOF 7
ENDMDL
MODEL       63
REMARK 921   NORMALIZED FREE ENERGY PREDICTED BY IDOCK:   -5.10 KCAL/MOL
REMARK 922        TOTAL FREE ENERGY PREDICTED BY IDOCK:   -7.82 KCAL/MOL
REMARK 923 INTER-LIGAND FREE ENERGY PREDICTED BY IDOCK:   -7.32 KCAL/MOL
REMARK 924 INTRA-LIGAND FREE ENERGY PREDICTED BY IDOCK:   -0.50 KCAL/MOL
REMARK 927      BINDING AFFINITY PREDICTED BY RF-SCORE:    0.00 PKD
ROOT
HETATM    1  C   UNL     1     -11.553  15.600  64.635  1.00  0.00    -0.249 C  
HETATM    2  C   UNL     1     -10.294  15.787  65.468  1.00  0.00    -0.404 C  
ENDROOT
BRANCH   2   3
HETATM    3  N   UNL     1     -10.605  15.975  66.890  1.00  0.00    -0.314 NA 
BRANCH   3   4
HETATM    4  C   UNL     1     -10.759  17.345  67.403  1.00  0.00    -0.251 C  
BRANCH   4   5
HETATM    5  C   UNL     1     -10.146  18.371  66.434  1.00  0.00    -0.403 C  
HETATM    6  H   UNL     1     -10.076  20.341  66.226  1.00  0.00     0.000 HD 
HETATM    7  O   UNL     1     -10.454  19.708  66.824  1.00  0.00    -0.429 OA 
ENDBRANCH   4   5
ENDBRANCH   3   4
BRANCH   3   8
HETATM    8  C   UNL     1     -10.938  14.880  67.677  1.00  0.00    -0.300 A  
HETATM    9  C   UNL     1     -12.873  14.282  70.900  1.00  0.00    -0.416 C  
HETATM   10  C   UNL     1     -10.640  13.563  67.309  1.00  0.00    -0.263 A  
HETATM   11  C   UNL     1     -11.029  12.470  68.100  1.00  0.00    -0.260 A  
HETATM   12  C   UNL     1     -11.635  15.054  68.879  1.00  0.00    -0.349 A  
HETATM   13  C   UNL     1     -11.764  12.656  69.278  1.00  0.00    -0.322 A  
HETATM   14  C   UNL     1     -12.074  13.970  69.663  1.00  0.00    -0.408 A  
BRANCH  13  15
HETATM   15  N   UNL     1     -12.135  11.587  70.119  1.00  0.00    -0.346 NA 
HETATM   16  H   UNL     1     -13.104  11.367  70.347  1.00  0.00     0.000 HD 
BRANCH  15  17
HETATM   17  N   UNL     1     -11.163  10.936  70.558  1.00  0.00    -0.436 NA 
HETATM   18  H   UNL     1     -10.206  11.291  70.556  1.00  0.00     0.000 HD 
BRANCH  17  19
HETATM   19  C   UNL     1     -11.503   9.705  71.039  1.00  0.00    -0.371 A  
HETATM   20  N   UNL     1     -12.717   9.212  71.238  1.00  0.00    -0.305 NA 
HETATM   21  C   UNL     1     -12.652   7.916  71.714  1.00  0.00    -0.328 A  
HETATM   22  C   UNL     1     -11.380   7.435  71.878  1.00  0.00    -0.260 A  
HETATM   23  N   UNL     1     -11.015   6.140  72.351  1.00  0.00    -0.245 N  
HETATM   24  S   UNL     1     -10.225   8.597  71.437  1.00  0.00    -0.282 SA 
HETATM   25  O   UNL     1     -11.947   5.374  72.633  1.00  0.00    -0.214 OA 
HETATM   26  O   UNL     1      -9.811   5.867  72.440  1.00  0.00    -0.163 OA 
ENDBRANCH  17  19
ENDBRANCH  15  17
ENDBRANCH  13  15
ENDBRANCH   3   8
ENDBRANCH   2   3
TORSDOF 7
ENDMDL
MODEL       64
REMARK 921   NORMALIZED FREE ENERGY PREDICTED BY IDOCK:   -5.09 KCAL/MOL
REMARK 922        TOTAL FREE ENERGY PREDICTED BY IDOCK:   -7.80 KCAL/MOL
REMARK 923 INTER-LIGAND FREE ENERGY PREDICTED BY IDOCK:   -7.37 KCAL/MOL
REMARK 924 INTRA-LIGAND FREE ENERGY PREDICTED BY IDOCK:   -0.43 KCAL/MOL
REMARK 927      BINDING AFFINITY PREDICTED BY RF-SCORE:    0.00 PKD
ROOT
HETATM    1  C   UNL     1     -10.655  19.650  67.617  1.00  0.00    -0.556 C  
HETATM    2  C   UNL     1     -10.399  18.887  66.326  1.00  0.00    -0.453 C  
ENDROOT
BRANCH   2   3
HETATM    3  N   UNL     1      -9.652  17.646  66.567  1.00  0.00    -0.284 NA 
BRANCH   3   4
HETATM    4  C   UNL     1      -8.310  17.736  67.163  1.00  0.00    -0.223 C  
BRANCH   4   5
HETATM    5  C   UNL     1      -7.217  17.619  66.086  1.00  0.00    -0.317 C  
HETATM    6  H   UNL     1      -6.492  18.712  64.599  1.00  0.00     0.000 HD 
HETATM    7  O   UNL     1      -7.166  18.784  65.264  1.00  0.00    -0.486 OA 
ENDBRANCH   4   5
ENDBRANCH   3   4
BRANCH   3   8
HETATM    8  C   UNL     1     -10.282  16.418  66.416  1.00  0.00    -0.316 A  
HETATM    9  C   UNL     1     -12.145  13.978  68.666  1.00  0.00    -0.332 C  
HETATM   10  C   UNL     1     -10.444  15.795  65.174  1.00  0.00    -0.394 A  
HETATM   11  C   UNL     1     -11.126  14.575  65.043  1.00  0.00    -0.393 A  
HETATM   12  C   UNL     1     -10.825  15.757  67.525  1.00  0.00    -0.315 A  
HETATM   13  C   UNL     1     -11.703  13.947  66.154  1.00  0.00    -0.376 A  
HETATM   14  C   UNL     1     -11.552  14.557  67.410  1.00  0.00    -0.406 A  
BRANCH  13  15
HETATM   15  N   UNL     1     -12.357  12.702  66.069  1.00  0.00    -0.569 NA 
HETATM   16  H   UNL     1     -13.287  12.586  65.666  1.00  0.00     0.000 HD 
BRANCH  15  17
HETATM   17  N   UNL     1     -11.690  11.753  66.532  1.00  0.00    -0.528 NA 
HETATM   18  H   UNL     1     -11.843  11.365  67.463  1.00  0.00     0.000 HD 
BRANCH  17  19
HETATM   19  C   UNL     1     -10.737  11.285  65.674  1.00  0.00    -0.217 A  
HETATM   20  N   UNL     1     -10.888  10.901  64.415  1.00  0.00    -0.209 NA 
HETATM   21  C   UNL     1      -9.680  10.513  63.868  1.00  0.00    -0.325 A  
HETATM   22  C   UNL     1      -8.615  10.603  64.725  1.00  0.00    -0.130 A  
HETATM   23  N   UNL     1      -7.259  10.271  64.431  1.00  0.00    -0.107 N  
HETATM   24  S   UNL     1      -9.099  11.179  66.245  1.00  0.00    -0.199 SA 
HETATM   25  O   UNL     1      -7.025   9.870  63.283  1.00  0.00    -0.117 OA 
HETATM   26  O   UNL     1      -6.416  10.411  65.328  1.00  0.00    -0.120 OA 
ENDBRANCH  17  19
ENDBRANCH  15  17
ENDBRANCH  13  15
ENDBRANCH   3   8
ENDBRANCH   2   3
TORSDOF 7
ENDMDL
MODEL       65
REMARK 921   NORMALIZED FREE ENERGY PREDICTED BY IDOCK:   -5.07 KCAL/MOL
REMARK 922        TOTAL FREE ENERGY PREDICTED BY IDOCK:   -7.78 KCAL/MOL
REMARK 923 INTER-LIGAND FREE ENERGY PREDICTED BY IDOCK:   -7.14 KCAL/MOL
REMARK 924 INTRA-LIGAND FREE ENERGY PREDICTED BY IDOCK:   -0.63 KCAL/MOL
REMARK 927      BINDING AFFINITY PREDICTED BY RF-SCORE:    0.00 PKD
ROOT
HETATM    1  C   UNL     1      -9.243   6.927  66.973  1.00  0.00    -0.160 C  
HETATM    2  C   UNL     1     -10.441   7.864  66.960  1.00  0.00    -0.349 C  
ENDROOT
BRANCH   2   3
HETATM    3  N   UNL     1     -10.434   8.772  68.114  1.00  0.00    -0.212 NA 
BRANCH   3   4
HETATM    4  C   UNL     1      -9.813   8.315  69.367  1.00  0.00    -0.185 C  
BRANCH   4   5
HETATM    5  C   UNL     1      -8.703   9.281  69.820  1.00  0.00    -0.162 C  
HETATM    6  H   UNL     1      -8.085  10.129  71.501  1.00  0.00     0.000 HD 
HETATM    7  O   UNL     1      -8.770   9.533  71.222  1.00  0.00    -0.241 OA 
ENDBRANCH   4   5
ENDBRANCH   3   4
BRANCH   3   8
HETATM    8  C   UNL     1     -10.827  10.094  67.958  1.00  0.00    -0.270 A  
HETATM    9  C   UNL     1     -10.663  12.715  65.202  1.00  0.00    -0.321 C  
HETATM   10  C   UNL     1     -11.559  10.788  68.928  1.00  0.00    -0.361 A  
HETATM   11  C   UNL     1     -11.985  12.111  68.725  1.00  0.00    -0.292 A  
HETATM   12  C   UNL     1     -10.532  10.789  66.778  1.00  0.00    -0.305 A  
HETATM   13  C   UNL     1     -11.720  12.778  67.522  1.00  0.00    -0.364 A  
HETATM   14  C   UNL     1     -10.989  12.098  66.536  1.00  0.00    -0.325 A  
BRANCH  13  15
HETATM   15  N   UNL     1     -12.094  14.119  67.299  1.00  0.00    -0.533 NA 
HETATM   16  H   UNL     1     -12.254  14.507  66.370  1.00  0.00     0.000 HD 
BRANCH  15  17
HETATM   17  N   UNL     1     -12.211  14.787  68.349  1.00  0.00    -0.605 NA 
HETATM   18  H   UNL     1     -12.895  14.571  69.075  1.00  0.00     0.000 HD 
BRANCH  17  19
HETATM   19  C   UNL     1     -11.338  15.833  68.432  1.00  0.00    -0.372 A  
HETATM   20  N   UNL     1     -10.956  16.494  69.514  1.00  0.00    -0.315 NA 
HETATM   21  C   UNL     1     -10.037  17.475  69.194  1.00  0.00    -0.231 A  
HETATM   22  C   UNL     1      -9.730  17.553  67.861  1.00  0.00    -0.278 A  
HETATM   23  N   UNL     1      -8.819  18.465  67.251  1.00  0.00    -0.256 N  
HETATM   24  S   UNL     1     -10.588  16.394  66.968  1.00  0.00    -0.211 SA 
HETATM   25  O   UNL     1      -8.243  19.259  68.007  1.00  0.00    -0.291 OA 
HETATM   26  O   UNL     1      -8.659  18.399  66.025  1.00  0.00    -0.501 OA 
ENDBRANCH  17  19
ENDBRANCH  15  17
ENDBRANCH  13  15
ENDBRANCH   3   8
ENDBRANCH   2   3
TORSDOF 7
ENDMDL
MODEL       66
REMARK 921   NORMALIZED FREE ENERGY PREDICTED BY IDOCK:   -5.03 KCAL/MOL
REMARK 922        TOTAL FREE ENERGY PREDICTED BY IDOCK:   -7.71 KCAL/MOL
REMARK 923 INTER-LIGAND FREE ENERGY PREDICTED BY IDOCK:   -7.14 KCAL/MOL
REMARK 924 INTRA-LIGAND FREE ENERGY PREDICTED BY IDOCK:   -0.57 KCAL/MOL
REMARK 927      BINDING AFFINITY PREDICTED BY RF-SCORE:    0.00 PKD
ROOT
HETATM    1  C   UNL     1     -11.110   6.495  68.356  1.00  0.00    -0.340 C  
HETATM    2  C   UNL     1     -10.619   7.040  67.023  1.00  0.00    -0.341 C  
ENDROOT
BRANCH   2   3
HETATM    3  N   UNL     1      -9.690   8.163  67.203  1.00  0.00    -0.181 NA 
BRANCH   3   4
HETATM    4  C   UNL     1      -8.355   7.891  67.759  1.00  0.00    -0.129 C  
BRANCH   4   5
HETATM    5  C   UNL     1      -7.598   6.860  66.903  1.00  0.00    -0.094 C  
HETATM    6  H   UNL     1      -6.398   6.853  65.325  1.00  0.00     0.000 HD 
HETATM    7  O   UNL     1      -6.865   7.489  65.853  1.00  0.00    -0.055 OA 
ENDBRANCH   4   5
ENDBRANCH   3   4
BRANCH   3   8
HETATM    8  C   UNL     1     -10.000   9.409  66.677  1.00  0.00    -0.258 A  
HETATM    9  C   UNL     1      -9.816  11.090  63.267  1.00  0.00    -0.406 C  
HETATM   10  C   UNL     1     -10.625  10.414  67.424  1.00  0.00    -0.321 A  
HETATM   11  C   UNL     1     -10.971  11.650  66.855  1.00  0.00    -0.342 A  
HETATM   12  C   UNL     1      -9.726   9.703  65.336  1.00  0.00    -0.365 A  
HETATM   13  C   UNL     1     -10.731  11.914  65.500  1.00  0.00    -0.283 A  
HETATM   14  C   UNL     1     -10.105  10.918  64.734  1.00  0.00    -0.383 A  
BRANCH  13  15
HETATM   15  N   UNL     1     -11.024  13.158  64.905  1.00  0.00    -0.304 NA 
HETATM   16  H   UNL     1     -11.957  13.417  64.584  1.00  0.00     0.000 HD 
BRANCH  15  17
HETATM   17  N   UNL     1     -10.033  13.912  64.808  1.00  0.00    -0.602 NA 
HETATM   18  H   UNL     1      -9.142  13.615  64.411  1.00  0.00     0.000 HD 
BRANCH  17  19
HETATM   19  C   UNL     1     -10.257  15.172  65.283  1.00  0.00    -0.368 A  
HETATM   20  N   UNL     1     -10.729  16.221  64.626  1.00  0.00    -0.625 NA 
HETATM   21  C   UNL     1     -10.837  17.318  65.460  1.00  0.00    -0.023 A  
HETATM   22  C   UNL     1     -10.440  17.091  66.751  1.00  0.00    -0.257 A  
HETATM   23  N   UNL     1     -10.444  18.035  67.820  1.00  0.00    -0.398 N  
HETATM   24  S   UNL     1      -9.918  15.490  66.958  1.00  0.00    -0.243 SA 
HETATM   25  O   UNL     1     -10.857  19.171  67.551  1.00  0.00    -0.473 OA 
HETATM   26  O   UNL     1     -10.048  17.661  68.932  1.00  0.00    -0.351 OA 
ENDBRANCH  17  19
ENDBRANCH  15  17
ENDBRANCH  13  15
ENDBRANCH   3   8
ENDBRANCH   2   3
TORSDOF 7
ENDMDL
MODEL       67
REMARK 921   NORMALIZED FREE ENERGY PREDICTED BY IDOCK:   -5.01 KCAL/MOL
REMARK 922        TOTAL FREE ENERGY PREDICTED BY IDOCK:   -7.69 KCAL/MOL
REMARK 923 INTER-LIGAND FREE ENERGY PREDICTED BY IDOCK:   -7.09 KCAL/MOL
REMARK 924 INTRA-LIGAND FREE ENERGY PREDICTED BY IDOCK:   -0.60 KCAL/MOL
REMARK 927      BINDING AFFINITY PREDICTED BY RF-SCORE:    0.00 PKD
ROOT
HETATM    1  C   UNL     1     -10.489   8.116  67.041  1.00  0.00    -0.396 C  
HETATM    2  C   UNL     1     -10.095   9.496  66.536  1.00  0.00    -0.256 C  
ENDROOT
BRANCH   2   3
HETATM    3  N   UNL     1     -10.026  10.476  67.627  1.00  0.00    -0.169 NA 
BRANCH   3   4
HETATM    4  C   UNL     1      -9.628  10.013  68.966  1.00  0.00    -0.196 C  
BRANCH   4   5
HETATM    5  C   UNL     1     -10.746  10.261  69.993  1.00  0.00    -0.292 C  
HETATM    6  H   UNL     1     -11.210   9.685  71.832  1.00  0.00     0.000 HD 
HETATM    7  O   UNL     1     -10.520   9.533  71.198  1.00  0.00    -0.313 OA 
ENDBRANCH   4   5
ENDBRANCH   3   4
BRANCH   3   8
HETATM    8  C   UNL     1     -10.143  11.831  67.349  1.00  0.00    -0.195 A  
HETATM    9  C   UNL     1     -12.713  14.098  65.693  1.00  0.00    -0.469 C  
HETATM   10  C   UNL     1      -9.209  12.778  67.784  1.00  0.00    -0.199 A  
HETATM   11  C   UNL     1      -9.375  14.149  67.530  1.00  0.00    -0.204 A  
HETATM   12  C   UNL     1     -11.246  12.318  66.638  1.00  0.00    -0.367 A  
HETATM   13  C   UNL     1     -10.506  14.627  66.855  1.00  0.00    -0.270 A  
HETATM   14  C   UNL     1     -11.455  13.693  66.412  1.00  0.00    -0.358 A  
BRANCH  13  15
HETATM   15  N   UNL     1     -10.685  15.990  66.544  1.00  0.00    -0.281 NA 
HETATM   16  H   UNL     1     -10.927  16.323  65.611  1.00  0.00     0.000 HD 
BRANCH  15  17
HETATM   17  N   UNL     1     -10.520  16.752  67.521  1.00  0.00    -0.316 NA 
HETATM   18  H   UNL     1     -10.960  16.600  68.429  1.00  0.00     0.000 HD 
BRANCH  17  19
HETATM   19  C   UNL     1      -9.695  17.807  67.257  1.00  0.00    -0.285 A  
HETATM   20  N   UNL     1      -9.577  18.490  66.127  1.00  0.00    -0.492 NA 
HETATM   21  C   UNL     1      -8.651  19.507  66.259  1.00  0.00    -0.361 A  
HETATM   22  C   UNL     1      -8.067  19.585  67.496  1.00  0.00    -0.290 A  
HETATM   23  N   UNL     1      -7.084  20.531  67.913  1.00  0.00    -0.295 N  
HETATM   24  S   UNL     1      -8.664  18.383  68.533  1.00  0.00    -0.291 SA 
HETATM   25  O   UNL     1      -6.732  21.368  67.071  1.00  0.00    -0.515 OA 
HETATM   26  O   UNL     1      -6.658  20.459  69.074  1.00  0.00    -0.280 OA 
ENDBRANCH  17  19
ENDBRANCH  15  17
ENDBRANCH  13  15
ENDBRANCH   3   8
ENDBRANCH   2   3
TORSDOF 7
ENDMDL
MODEL       68
REMARK 921   NORMALIZED FREE ENERGY PREDICTED BY IDOCK:   -4.97 KCAL/MOL
REMARK 922        TOTAL FREE ENERGY PREDICTED BY IDOCK:   -7.63 KCAL/MOL
REMARK 923 INTER-LIGAND FREE ENERGY PREDICTED BY IDOCK:   -7.10 KCAL/MOL
REMARK 924 INTRA-LIGAND FREE ENERGY PREDICTED BY IDOCK:   -0.53 KCAL/MOL
REMARK 927      BINDING AFFINITY PREDICTED BY RF-SCORE:    0.00 PKD
ROOT
HETATM    1  C   UNL     1      -9.713   8.256  67.327  1.00  0.00    -0.234 C  
HETATM    2  C   UNL     1     -10.633   8.377  68.532  1.00  0.00    -0.106 C  
ENDROOT
BRANCH   2   3
HETATM    3  N   UNL     1     -10.702   9.758  69.027  1.00  0.00    -0.217 NA 
BRANCH   3   4
HETATM    4  C   UNL     1     -10.807   9.983  70.477  1.00  0.00    -0.314 C  
BRANCH   4   5
HETATM    5  C   UNL     1     -12.259  10.281  70.888  1.00  0.00    -0.365 C  
HETATM    6  H   UNL     1     -13.406  11.869  71.194  1.00  0.00     0.000 HD 
HETATM    7  O   UNL     1     -12.510  11.685  70.940  1.00  0.00    -0.376 OA 
ENDBRANCH   4   5
ENDBRANCH   3   4
BRANCH   3   8
HETATM    8  C   UNL     1     -10.475  10.817  68.159  1.00  0.00    -0.185 A  
HETATM    9  C   UNL     1      -7.645  13.270  67.478  1.00  0.00    -0.169 C  
HETATM   10  C   UNL     1     -11.372  11.174  67.146  1.00  0.00    -0.257 A  
HETATM   11  C   UNL     1     -11.096  12.220  66.251  1.00  0.00    -0.342 A  
HETATM   12  C   UNL     1      -9.292  11.563  68.242  1.00  0.00    -0.190 A  
HETATM   13  C   UNL     1      -9.890  12.929  66.318  1.00  0.00    -0.273 A  
HETATM   14  C   UNL     1      -8.976  12.585  67.326  1.00  0.00    -0.192 A  
BRANCH  13  15
HETATM   15  N   UNL     1      -9.597  14.013  65.464  1.00  0.00    -0.536 NA 
HETATM   16  H   UNL     1      -8.652  14.247  65.164  1.00  0.00     0.000 HD 
BRANCH  15  17
HETATM   17  N   UNL     1     -10.607  14.659  65.112  1.00  0.00    -0.391 NA 
HETATM   18  H   UNL     1     -11.366  14.254  64.563  1.00  0.00     0.000 HD 
BRANCH  17  19
HETATM   19  C   UNL     1     -10.598  15.958  65.531  1.00  0.00    -0.401 A  
HETATM   20  N   UNL     1     -10.823  17.049  64.814  1.00  0.00    -0.812 NA 
HETATM   21  C   UNL     1     -10.750  18.182  65.602  1.00  0.00    -0.032 A  
HETATM   22  C   UNL     1     -10.463  17.939  66.920  1.00  0.00    -0.329 A  
HETATM   23  N   UNL     1     -10.328  18.912  67.954  1.00  0.00    -0.394 N  
HETATM   24  S   UNL     1     -10.277  16.278  67.209  1.00  0.00    -0.283 SA 
HETATM   25  O   UNL     1     -10.496  20.094  67.624  1.00  0.00    -0.355 OA 
HETATM   26  O   UNL     1     -10.063  18.518  69.097  1.00  0.00    -0.347 OA 
ENDBRANCH  17  19
ENDBRANCH  15  17
ENDBRANCH  13  15
ENDBRANCH   3   8
ENDBRANCH   2   3
TORSDOF 7
ENDMDL
MODEL       69
REMARK 921   NORMALIZED FREE ENERGY PREDICTED BY IDOCK:   -4.95 KCAL/MOL
REMARK 922        TOTAL FREE ENERGY PREDICTED BY IDOCK:   -7.61 KCAL/MOL
REMARK 923 INTER-LIGAND FREE ENERGY PREDICTED BY IDOCK:   -6.96 KCAL/MOL
REMARK 924 INTRA-LIGAND FREE ENERGY PREDICTED BY IDOCK:   -0.65 KCAL/MOL
REMARK 927      BINDING AFFINITY PREDICTED BY RF-SCORE:    0.00 PKD
ROOT
HETATM    1  C   UNL     1      -7.616  19.948  65.696  1.00  0.00    -0.242 C  
HETATM    2  C   UNL     1      -8.922  19.826  66.466  1.00  0.00    -0.371 C  
ENDROOT
BRANCH   2   3
HETATM    3  N   UNL     1      -8.836  18.813  67.526  1.00  0.00    -0.273 NA 
BRANCH   3   4
HETATM    4  C   UNL     1      -7.974  19.081  68.688  1.00  0.00    -0.352 C  
BRANCH   4   5
HETATM    5  C   UNL     1      -6.992  17.920  68.927  1.00  0.00    -0.260 C  
HETATM    6  H   UNL     1      -5.400  17.545  70.048  1.00  0.00     0.000 HD 
HETATM    7  O   UNL     1      -6.007  18.261  69.900  1.00  0.00    -0.238 OA 
ENDBRANCH   4   5
ENDBRANCH   3   4
BRANCH   3   8
HETATM    8  C   UNL     1      -9.700  17.727  67.518  1.00  0.00    -0.284 A  
HETATM    9  C   UNL     1     -10.665  14.986  65.060  1.00  0.00    -0.448 C  
HETATM   10  C   UNL     1     -10.434  17.332  68.643  1.00  0.00    -0.356 A  
HETATM   11  C   UNL     1     -11.265  16.201  68.621  1.00  0.00    -0.369 A  
HETATM   12  C   UNL     1      -9.847  16.944  66.366  1.00  0.00    -0.319 A  
HETATM   13  C   UNL     1     -11.369  15.402  67.475  1.00  0.00    -0.269 A  
HETATM   14  C   UNL     1     -10.640  15.781  66.337  1.00  0.00    -0.307 A  
BRANCH  13  15
HETATM   15  N   UNL     1     -12.226  14.285  67.403  1.00  0.00    -0.604 NA 
HETATM   16  H   UNL     1     -12.777  14.057  66.576  1.00  0.00     0.000 HD 
BRANCH  15  17
HETATM   17  N   UNL     1     -12.246  13.601  68.448  1.00  0.00    -0.381 NA 
HETATM   18  H   UNL     1     -12.702  13.909  69.308  1.00  0.00     0.000 HD 
BRANCH  17  19
HETATM   19  C   UNL     1     -11.600  12.405  68.331  1.00  0.00    -0.324 A  
HETATM   20  N   UNL     1     -11.163  11.614  69.301  1.00  0.00    -0.259 NA 
HETATM   21  C   UNL     1     -10.581  10.473  68.783  1.00  0.00    -0.207 A  
HETATM   22  C   UNL     1     -10.578  10.408  67.414  1.00  0.00    -0.269 A  
HETATM   23  N   UNL     1     -10.048   9.353  66.614  1.00  0.00    -0.254 N  
HETATM   24  S   UNL     1     -11.309  11.781  66.735  1.00  0.00    -0.275 SA 
HETATM   25  O   UNL     1      -9.548   8.397  67.223  1.00  0.00    -0.149 OA 
HETATM   26  O   UNL     1     -10.129   9.456  65.383  1.00  0.00    -0.150 OA 
ENDBRANCH  17  19
ENDBRANCH  15  17
ENDBRANCH  13  15
ENDBRANCH   3   8
ENDBRANCH   2   3
TORSDOF 7
ENDMDL
MODEL       70
REMARK 921   NORMALIZED FREE ENERGY PREDICTED BY IDOCK:   -4.93 KCAL/MOL
REMARK 922        TOTAL FREE ENERGY PREDICTED BY IDOCK:   -7.58 KCAL/MOL
REMARK 923 INTER-LIGAND FREE ENERGY PREDICTED BY IDOCK:   -6.94 KCAL/MOL
REMARK 924 INTRA-LIGAND FREE ENERGY PREDICTED BY IDOCK:   -0.64 KCAL/MOL
REMARK 927      BINDING AFFINITY PREDICTED BY RF-SCORE:    0.00 PKD
ROOT
HETATM    1  C   UNL     1      -7.630   9.425  68.288  1.00  0.00    -0.082 C  
HETATM    2  C   UNL     1      -8.254   8.255  67.543  1.00  0.00    -0.122 C  
ENDROOT
BRANCH   2   3
HETATM    3  N   UNL     1      -9.715   8.377  67.464  1.00  0.00    -0.154 NA 
BRANCH   3   4
HETATM    4  C   UNL     1     -10.540   7.208  67.806  1.00  0.00    -0.225 C  
BRANCH   4   5
HETATM    5  C   UNL     1     -10.490   6.917  69.316  1.00  0.00    -0.214 C  
HETATM    6  H   UNL     1     -11.712   6.254  70.729  1.00  0.00     0.000 HD 
HETATM    7  O   UNL     1     -11.742   6.434  69.797  1.00  0.00    -0.414 OA 
ENDBRANCH   4   5
ENDBRANCH   3   4
BRANCH   3   8
HETATM    8  C   UNL     1     -10.296   9.622  67.264  1.00  0.00    -0.249 A  
HETATM    9  C   UNL     1     -10.595  12.100  64.391  1.00  0.00    -0.363 C  
HETATM   10  C   UNL     1     -11.085  10.256  68.231  1.00  0.00    -0.311 A  
HETATM   11  C   UNL     1     -11.700  11.494  67.986  1.00  0.00    -0.343 A  
HETATM   12  C   UNL     1     -10.141  10.292  66.044  1.00  0.00    -0.311 A  
HETATM   13  C   UNL     1     -11.572  12.131  66.746  1.00  0.00    -0.345 A  
HETATM   14  C   UNL     1     -10.785  11.512  65.762  1.00  0.00    -0.325 A  
BRANCH  13  15
HETATM   15  N   UNL     1     -12.138  13.394  66.479  1.00  0.00    -0.399 NA 
HETATM   16  H   UNL     1     -12.562  13.638  65.584  1.00  0.00     0.000 HD 
BRANCH  15  17
HETATM   17  N   UNL     1     -12.072  14.186  67.442  1.00  0.00    -0.538 NA 
HETATM   18  H   UNL     1     -12.570  14.041  68.320  1.00  0.00     0.000 HD 
BRANCH  17  19
HETATM   19  C   UNL     1     -11.268  15.265  67.209  1.00  0.00    -0.306 A  
HETATM   20  N   UNL     1     -10.569  15.542  66.118  1.00  0.00    -0.307 NA 
HETATM   21  C   UNL     1      -9.896  16.741  66.253  1.00  0.00    -0.309 A  
HETATM   22  C   UNL     1     -10.089  17.367  67.457  1.00  0.00    -0.322 A  
HETATM   23  N   UNL     1      -9.523  18.610  67.868  1.00  0.00    -0.296 N  
HETATM   24  S   UNL     1     -11.123  16.467  68.456  1.00  0.00    -0.324 SA 
HETATM   25  O   UNL     1      -8.791  19.181  67.049  1.00  0.00    -0.281 OA 
HETATM   26  O   UNL     1      -9.802  19.034  68.998  1.00  0.00    -0.396 OA 
ENDBRANCH  17  19
ENDBRANCH  15  17
ENDBRANCH  13  15
ENDBRANCH   3   8
ENDBRANCH   2   3
TORSDOF 7
ENDMDL
MODEL       71
REMARK 921   NORMALIZED FREE ENERGY PREDICTED BY IDOCK:   -4.91 KCAL/MOL
REMARK 922        TOTAL FREE ENERGY PREDICTED BY IDOCK:   -7.55 KCAL/MOL
REMARK 923 INTER-LIGAND FREE ENERGY PREDICTED BY IDOCK:   -6.93 KCAL/MOL
REMARK 924 INTRA-LIGAND FREE ENERGY PREDICTED BY IDOCK:   -0.61 KCAL/MOL
REMARK 927      BINDING AFFINITY PREDICTED BY RF-SCORE:    0.00 PKD
ROOT
HETATM    1  C   UNL     1     -11.277   4.346  73.568  1.00  0.00    -0.375 C  
HETATM    2  C   UNL     1     -10.485   5.097  72.509  1.00  0.00    -0.214 C  
ENDROOT
BRANCH   2   3
HETATM    3  N   UNL     1      -9.972   6.376  73.018  1.00  0.00    -0.169 NA 
BRANCH   3   4
HETATM    4  C   UNL     1      -8.909   6.355  74.035  1.00  0.00    -0.137 C  
BRANCH   4   5
HETATM    5  C   UNL     1      -7.557   5.965  73.413  1.00  0.00    -0.098 C  
HETATM    6  H   UNL     1      -5.719   5.547  74.029  1.00  0.00     0.000 HD 
HETATM    7  O   UNL     1      -6.554   5.788  74.412  1.00  0.00    -0.073 OA 
ENDBRANCH   4   5
ENDBRANCH   3   4
BRANCH   3   8
HETATM    8  C   UNL     1     -10.347   7.565  72.406  1.00  0.00    -0.228 A  
HETATM    9  C   UNL     1      -8.787  10.015  69.946  1.00  0.00    -0.177 C  
HETATM   10  C   UNL     1     -11.623   8.121  72.548  1.00  0.00    -0.468 A  
HETATM   11  C   UNL     1     -11.992   9.301  71.881  1.00  0.00    -0.433 A  
HETATM   12  C   UNL     1      -9.452   8.249  71.575  1.00  0.00    -0.244 A  
HETATM   13  C   UNL     1     -11.101   9.951  71.017  1.00  0.00    -0.331 A  
HETATM   14  C   UNL     1      -9.816   9.407  70.861  1.00  0.00    -0.338 A  
BRANCH  13  15
HETATM   15  N   UNL     1     -11.421  11.159  70.365  1.00  0.00    -0.469 NA 
HETATM   16  H   UNL     1     -11.036  12.062  70.642  1.00  0.00     0.000 HD 
BRANCH  15  17
HETATM   17  N   UNL     1     -12.220  11.018  69.415  1.00  0.00    -0.453 NA 
HETATM   18  H   UNL     1     -13.131  10.569  69.514  1.00  0.00     0.000 HD 
BRANCH  17  19
HETATM   19  C   UNL     1     -11.759  11.522  68.234  1.00  0.00    -0.301 A  
HETATM   20  N   UNL     1     -11.328  10.855  67.173  1.00  0.00    -0.406 NA 
HETATM   21  C   UNL     1     -10.967  11.720  66.158  1.00  0.00    -0.307 A  
HETATM   22  C   UNL     1     -11.123  13.047  66.461  1.00  0.00    -0.288 A  
HETATM   23  N   UNL     1     -10.832  14.153  65.609  1.00  0.00    -0.296 N  
HETATM   24  S   UNL     1     -11.731  13.248  68.032  1.00  0.00    -0.361 SA 
HETATM   25  O   UNL     1     -10.402  13.881  64.480  1.00  0.00    -0.436 OA 
HETATM   26  O   UNL     1     -11.032  15.295  66.044  1.00  0.00    -0.332 OA 
ENDBRANCH  17  19
ENDBRANCH  15  17
ENDBRANCH  13  15
ENDBRANCH   3   8
ENDBRANCH   2   3
TORSDOF 7
ENDMDL
MODEL       72
REMARK 921   NORMALIZED FREE ENERGY PREDICTED BY IDOCK:   -4.91 KCAL/MOL
REMARK 922        TOTAL FREE ENERGY PREDICTED BY IDOCK:   -7.55 KCAL/MOL
REMARK 923 INTER-LIGAND FREE ENERGY PREDICTED BY IDOCK:   -6.86 KCAL/MOL
REMARK 924 INTRA-LIGAND FREE ENERGY PREDICTED BY IDOCK:   -0.68 KCAL/MOL
REMARK 927      BINDING AFFINITY PREDICTED BY RF-SCORE:    0.00 PKD
ROOT
HETATM    1  C   UNL     1     -10.651   5.154  71.540  1.00  0.00    -0.217 C  
HETATM    2  C   UNL     1      -9.978   6.458  71.940  1.00  0.00    -0.175 C  
ENDROOT
BRANCH   2   3
HETATM    3  N   UNL     1     -10.687   7.625  71.400  1.00  0.00    -0.222 NA 
BRANCH   3   4
HETATM    4  C   UNL     1     -11.600   8.366  72.284  1.00  0.00    -0.383 C  
BRANCH   4   5
HETATM    5  C   UNL     1     -13.043   8.322  71.751  1.00  0.00    -0.344 C  
HETATM    6  H   UNL     1     -14.332   9.556  70.886  1.00  0.00     0.000 HD 
HETATM    7  O   UNL     1     -13.441   9.582  71.214  1.00  0.00    -0.370 OA 
ENDBRANCH   4   5
ENDBRANCH   3   4
BRANCH   3   8
HETATM    8  C   UNL     1     -10.348   8.123  70.149  1.00  0.00    -0.215 A  
HETATM    9  C   UNL     1      -8.416  11.112  68.799  1.00  0.00    -0.134 C  
HETATM   10  C   UNL     1     -10.636   7.446  68.959  1.00  0.00    -0.203 A  
HETATM   11  C   UNL     1     -10.240   7.949  67.709  1.00  0.00    -0.276 A  
HETATM   12  C   UNL     1      -9.655   9.334  70.030  1.00  0.00    -0.235 A  
HETATM   13  C   UNL     1      -9.510   9.140  67.608  1.00  0.00    -0.140 A  
HETATM   14  C   UNL     1      -9.210   9.833  68.791  1.00  0.00    -0.143 A  
BRANCH  13  15
HETATM   15  N   UNL     1      -9.133   9.697  66.370  1.00  0.00    -0.151 NA 
HETATM   16  H   UNL     1      -8.264  10.212  66.230  1.00  0.00     0.000 HD 
BRANCH  15  17
HETATM   17  N   UNL     1      -9.966   9.501  65.459  1.00  0.00    -0.399 NA 
HETATM   18  H   UNL     1     -10.224   8.570  65.130  1.00  0.00     0.000 HD 
BRANCH  17  19
HETATM   19  C   UNL     1     -10.496  10.650  64.947  1.00  0.00    -0.212 A  
HETATM   20  N   UNL     1     -10.491  11.061  63.688  1.00  0.00    -0.359 NA 
HETATM   21  C   UNL     1     -11.153  12.268  63.560  1.00  0.00    -0.464 A  
HETATM   22  C   UNL     1     -11.655  12.766  64.733  1.00  0.00    -0.325 A  
HETATM   23  N   UNL     1     -12.379  13.984  64.898  1.00  0.00    -0.429 N  
HETATM   24  S   UNL     1     -11.311  11.734  66.034  1.00  0.00    -0.200 SA 
HETATM   25  O   UNL     1     -12.578  14.651  63.873  1.00  0.00    -0.834 OA 
HETATM   26  O   UNL     1     -12.762  14.288  66.036  1.00  0.00    -0.430 OA 
ENDBRANCH  17  19
ENDBRANCH  15  17
ENDBRANCH  13  15
ENDBRANCH   3   8
ENDBRANCH   2   3
TORSDOF 7
ENDMDL
MODEL       73
REMARK 921   NORMALIZED FREE ENERGY PREDICTED BY IDOCK:   -4.89 KCAL/MOL
REMARK 922        TOTAL FREE ENERGY PREDICTED BY IDOCK:   -7.52 KCAL/MOL
REMARK 923 INTER-LIGAND FREE ENERGY PREDICTED BY IDOCK:   -7.06 KCAL/MOL
REMARK 924 INTRA-LIGAND FREE ENERGY PREDICTED BY IDOCK:   -0.47 KCAL/MOL
REMARK 927      BINDING AFFINITY PREDICTED BY RF-SCORE:    0.00 PKD
ROOT
HETATM    1  C   UNL     1      -9.963  19.809  68.417  1.00  0.00    -0.549 C  
HETATM    2  C   UNL     1      -8.994  20.354  67.379  1.00  0.00    -0.334 C  
ENDROOT
BRANCH   2   3
HETATM    3  N   UNL     1      -7.704  19.652  67.418  1.00  0.00    -0.256 NA 
BRANCH   3   4
HETATM    4  C   UNL     1      -6.498  20.414  67.777  1.00  0.00    -0.264 C  
BRANCH   4   5
HETATM    5  C   UNL     1      -5.994  21.246  66.584  1.00  0.00    -0.311 C  
HETATM    6  H   UNL     1      -5.639  20.985  64.651  1.00  0.00     0.000 HD 
HETATM    7  O   UNL     1      -5.950  20.472  65.387  1.00  0.00    -0.197 OA 
ENDBRANCH   4   5
ENDBRANCH   3   4
BRANCH   3   8
HETATM    8  C   UNL     1      -7.666  18.269  67.311  1.00  0.00    -0.219 A  
HETATM    9  C   UNL     1      -6.366  15.373  69.410  1.00  0.00    -0.134 C  
HETATM   10  C   UNL     1      -8.284  17.571  66.267  1.00  0.00    -0.275 A  
HETATM   11  C   UNL     1      -8.270  16.168  66.207  1.00  0.00    -0.275 A  
HETATM   12  C   UNL     1      -7.022  17.498  68.286  1.00  0.00    -0.210 A  
HETATM   13  C   UNL     1      -7.660  15.408  67.214  1.00  0.00    -0.212 A  
HETATM   14  C   UNL     1      -7.035  16.090  68.270  1.00  0.00    -0.123 A  
BRANCH  13  15
HETATM   15  N   UNL     1      -7.589  14.001  67.165  1.00  0.00    -0.350 NA 
HETATM   16  H   UNL     1      -6.807  13.496  66.749  1.00  0.00     0.000 HD 
BRANCH  15  17
HETATM   17  N   UNL     1      -8.574  13.432  67.681  1.00  0.00    -0.179 NA 
HETATM   18  H   UNL     1      -8.656  13.255  68.682  1.00  0.00     0.000 HD 
BRANCH  17  19
HETATM   19  C   UNL     1      -9.531  13.071  66.777  1.00  0.00    -0.250 A  
HETATM   20  N   UNL     1      -9.474  12.109  65.867  1.00  0.00    -0.216 NA 
HETATM   21  C   UNL     1     -10.655  12.033  65.154  1.00  0.00    -0.288 A  
HETATM   22  C   UNL     1     -11.604  12.947  65.529  1.00  0.00    -0.358 A  
HETATM   23  N   UNL     1     -12.908  13.096  64.970  1.00  0.00    -0.395 N  
HETATM   24  S   UNL     1     -11.041  13.931  66.791  1.00  0.00    -0.310 SA 
HETATM   25  O   UNL     1     -13.210  12.313  64.060  1.00  0.00    -0.757 OA 
HETATM   26  O   UNL     1     -13.643  13.980  65.430  1.00  0.00    -0.593 OA 
ENDBRANCH  17  19
ENDBRANCH  15  17
ENDBRANCH  13  15
ENDBRANCH   3   8
ENDBRANCH   2   3
TORSDOF 7
ENDMDL
MODEL       74
REMARK 921   NORMALIZED FREE ENERGY PREDICTED BY IDOCK:   -4.88 KCAL/MOL
REMARK 922        TOTAL FREE ENERGY PREDICTED BY IDOCK:   -7.51 KCAL/MOL
REMARK 923 INTER-LIGAND FREE ENERGY PREDICTED BY IDOCK:   -6.71 KCAL/MOL
REMARK 924 INTRA-LIGAND FREE ENERGY PREDICTED BY IDOCK:   -0.80 KCAL/MOL
REMARK 927      BINDING AFFINITY PREDICTED BY RF-SCORE:    0.00 PKD
ROOT
HETATM    1  C   UNL     1     -12.803   7.304  71.153  1.00  0.00    -0.334 C  
HETATM    2  C   UNL     1     -11.296   7.117  71.254  1.00  0.00    -0.268 C  
ENDROOT
BRANCH   2   3
HETATM    3  N   UNL     1     -10.715   6.680  69.977  1.00  0.00    -0.222 NA 
BRANCH   3   4
HETATM    4  C   UNL     1     -10.641   5.238  69.694  1.00  0.00    -0.191 C  
BRANCH   4   5
HETATM    5  C   UNL     1      -9.679   4.533  70.666  1.00  0.00    -0.212 C  
HETATM    6  H   UNL     1      -7.854   4.806  71.390  1.00  0.00     0.000 HD 
HETATM    7  O   UNL     1      -8.448   5.242  70.790  1.00  0.00    -0.117 OA 
ENDBRANCH   4   5
ENDBRANCH   3   4
BRANCH   3   8
HETATM    8  C   UNL     1     -10.430   7.614  68.991  1.00  0.00    -0.205 A  
HETATM    9  C   UNL     1      -8.717  11.008  68.814  1.00  0.00    -0.146 C  
HETATM   10  C   UNL     1     -10.695   7.390  67.635  1.00  0.00    -0.278 A  
HETATM   11  C   UNL     1     -10.354   8.332  66.651  1.00  0.00    -0.293 A  
HETATM   12  C   UNL     1      -9.818   8.830  69.318  1.00  0.00    -0.180 A  
HETATM   13  C   UNL     1      -9.702   9.525  66.988  1.00  0.00    -0.176 A  
HETATM   14  C   UNL     1      -9.427   9.768  68.343  1.00  0.00    -0.146 A  
BRANCH  13  15
HETATM   15  N   UNL     1      -9.383  10.513  66.034  1.00  0.00    -0.171 NA 
HETATM   16  H   UNL     1      -8.426  10.789  65.815  1.00  0.00     0.000 HD 
BRANCH  15  17
HETATM   17  N   UNL     1     -10.384  11.017  65.482  1.00  0.00    -0.263 NA 
HETATM   18  H   UNL     1     -11.137  10.461  65.076  1.00  0.00     0.000 HD 
BRANCH  17  19
HETATM   19  C   UNL     1     -10.375  12.382  65.474  1.00  0.00    -0.271 A  
HETATM   20  N   UNL     1      -9.552  13.197  66.118  1.00  0.00    -0.240 NA 
HETATM   21  C   UNL     1      -9.846  14.518  65.837  1.00  0.00    -0.321 A  
HETATM   22  C   UNL     1     -10.899  14.695  64.979  1.00  0.00    -0.417 A  
HETATM   23  N   UNL     1     -11.418  15.940  64.517  1.00  0.00    -0.370 N  
HETATM   24  S   UNL     1     -11.553  13.206  64.498  1.00  0.00    -0.386 SA 
HETATM   25  O   UNL     1     -10.851  16.961  64.930  1.00  0.00    -0.715 OA 
HETATM   26  O   UNL     1     -12.382  15.920  63.740  1.00  0.00    -0.791 OA 
ENDBRANCH  17  19
ENDBRANCH  15  17
ENDBRANCH  13  15
ENDBRANCH   3   8
ENDBRANCH   2   3
TORSDOF 7
ENDMDL
MODEL       75
REMARK 921   NORMALIZED FREE ENERGY PREDICTED BY IDOCK:   -4.85 KCAL/MOL
REMARK 922        TOTAL FREE ENERGY PREDICTED BY IDOCK:   -7.46 KCAL/MOL
REMARK 923 INTER-LIGAND FREE ENERGY PREDICTED BY IDOCK:   -6.89 KCAL/MOL
REMARK 924 INTRA-LIGAND FREE ENERGY PREDICTED BY IDOCK:   -0.57 KCAL/MOL
REMARK 927      BINDING AFFINITY PREDICTED BY RF-SCORE:    0.00 PKD
ROOT
HETATM    1  C   UNL     1      -7.942   8.003  64.078  1.00  0.00    -0.134 C  
HETATM    2  C   UNL     1      -7.862   8.876  65.321  1.00  0.00    -0.104 C  
ENDROOT
BRANCH   2   3
HETATM    3  N   UNL     1      -9.196   9.233  65.821  1.00  0.00    -0.207 NA 
BRANCH   3   4
HETATM    4  C   UNL     1      -9.928   8.253  66.639  1.00  0.00    -0.278 C  
BRANCH   4   5
HETATM    5  C   UNL     1      -9.344   8.172  68.061  1.00  0.00    -0.135 C  
HETATM    6  H   UNL     1      -9.648   9.019  69.827  1.00  0.00     0.000 HD 
HETATM    7  O   UNL     1     -10.008   9.068  68.950  1.00  0.00    -0.177 OA 
ENDBRANCH   4   5
ENDBRANCH   3   4
BRANCH   3   8
HETATM    8  C   UNL     1      -9.660  10.534  65.687  1.00  0.00    -0.226 A  
HETATM    9  C   UNL     1     -12.180  12.354  63.489  1.00  0.00    -0.661 C  
HETATM   10  C   UNL     1      -9.276  11.569  66.547  1.00  0.00    -0.203 A  
HETATM   11  C   UNL     1      -9.796  12.867  66.418  1.00  0.00    -0.268 A  
HETATM   12  C   UNL     1     -10.581  10.860  64.684  1.00  0.00    -0.332 A  
HETATM   13  C   UNL     1     -10.750  13.169  65.438  1.00  0.00    -0.294 A  
HETATM   14  C   UNL     1     -11.150  12.143  64.566  1.00  0.00    -0.375 A  
BRANCH  13  15
HETATM   15  N   UNL     1     -11.262  14.469  65.251  1.00  0.00    -0.336 NA 
HETATM   16  H   UNL     1     -12.202  14.745  65.536  1.00  0.00     0.000 HD 
BRANCH  15  17
HETATM   17  N   UNL     1     -10.456  15.250  64.703  1.00  0.00    -0.520 NA 
HETATM   18  H   UNL     1     -10.057  15.082  63.779  1.00  0.00     0.000 HD 
BRANCH  17  19
HETATM   19  C   UNL     1     -10.162  16.349  65.457  1.00  0.00    -0.269 A  
HETATM   20  N   UNL     1     -10.770  17.526  65.459  1.00  0.00    -0.537 NA 
HETATM   21  C   UNL     1     -10.195  18.378  66.382  1.00  0.00    -0.410 A  
HETATM   22  C   UNL     1      -9.144  17.837  67.075  1.00  0.00    -0.252 A  
HETATM   23  N   UNL     1      -8.368  18.484  68.082  1.00  0.00    -0.287 N  
HETATM   24  S   UNL     1      -8.846  16.240  66.588  1.00  0.00    -0.284 SA 
HETATM   25  O   UNL     1      -8.686  19.648  68.361  1.00  0.00    -0.340 OA 
HETATM   26  O   UNL     1      -7.447  17.846  68.610  1.00  0.00    -0.264 OA 
ENDBRANCH  17  19
ENDBRANCH  15  17
ENDBRANCH  13  15
ENDBRANCH   3   8
ENDBRANCH   2   3
TORSDOF 7
ENDMDL
MODEL       76
REMARK 921   NORMALIZED FREE ENERGY PREDICTED BY IDOCK:   -4.84 KCAL/MOL
REMARK 922        TOTAL FREE ENERGY PREDICTED BY IDOCK:   -7.45 KCAL/MOL
REMARK 923 INTER-LIGAND FREE ENERGY PREDICTED BY IDOCK:   -6.82 KCAL/MOL
REMARK 924 INTRA-LIGAND FREE ENERGY PREDICTED BY IDOCK:   -0.63 KCAL/MOL
REMARK 927      BINDING AFFINITY PREDICTED BY RF-SCORE:    0.00 PKD
ROOT
HETATM    1  C   UNL     1     -12.978  15.482  70.851  1.00  0.00    -0.526 C  
HETATM    2  C   UNL     1     -12.035  14.323  71.136  1.00  0.00    -0.282 C  
ENDROOT
BRANCH   2   3
HETATM    3  N   UNL     1     -12.161  13.259  70.131  1.00  0.00    -0.348 NA 
BRANCH   3   4
HETATM    4  C   UNL     1     -12.033  13.614  68.709  1.00  0.00    -0.359 C  
BRANCH   4   5
HETATM    5  C   UNL     1     -10.576  13.956  68.353  1.00  0.00    -0.255 C  
HETATM    6  H   UNL     1      -9.396  13.899  66.760  1.00  0.00     0.000 HD 
HETATM    7  O   UNL     1     -10.296  13.687  66.981  1.00  0.00    -0.256 OA 
ENDBRANCH   4   5
ENDBRANCH   3   4
BRANCH   3   8
HETATM    8  C   UNL     1     -12.201  11.930  70.531  1.00  0.00    -0.336 A  
HETATM    9  C   UNL     1     -10.299   8.739  69.704  1.00  0.00    -0.213 C  
HETATM   10  C   UNL     1     -13.041  11.470  71.552  1.00  0.00    -0.429 A  
HETATM   11  C   UNL     1     -13.029  10.130  71.969  1.00  0.00    -0.508 A  
HETATM   12  C   UNL     1     -11.356  10.984  69.939  1.00  0.00    -0.364 A  
HETATM   13  C   UNL     1     -12.147   9.203  71.399  1.00  0.00    -0.337 A  
HETATM   14  C   UNL     1     -11.296   9.646  70.374  1.00  0.00    -0.337 A  
BRANCH  13  15
HETATM   15  N   UNL     1     -12.136   7.841  71.762  1.00  0.00    -0.287 NA 
HETATM   16  H   UNL     1     -12.270   7.084  71.092  1.00  0.00     0.000 HD 
BRANCH  15  17
HETATM   17  N   UNL     1     -11.948   7.650  72.982  1.00  0.00    -0.582 NA 
HETATM   18  H   UNL     1     -12.681   7.753  73.683  1.00  0.00     0.000 HD 
BRANCH  17  19
HETATM   19  C   UNL     1     -10.667   7.291  73.287  1.00  0.00    -0.383 A  
HETATM   20  N   UNL     1      -9.621   8.081  73.484  1.00  0.00    -0.225 NA 
HETATM   21  C   UNL     1      -8.497   7.342  73.799  1.00  0.00    -0.175 A  
HETATM   22  C   UNL     1      -8.699   5.988  73.835  1.00  0.00    -0.123 A  
HETATM   23  N   UNL     1      -7.723   4.991  74.131  1.00  0.00    -0.093 N  
HETATM   24  S   UNL     1     -10.310   5.600  73.474  1.00  0.00    -0.253 SA 
HETATM   25  O   UNL     1      -6.581   5.396  74.389  1.00  0.00    -0.069 OA 
HETATM   26  O   UNL     1      -8.077   3.804  74.118  1.00  0.00    -0.078 OA 
ENDBRANCH  17  19
ENDBRANCH  15  17
ENDBRANCH  13  15
ENDBRANCH   3   8
ENDBRANCH   2   3
TORSDOF 7
ENDMDL
MODEL       77
REMARK 921   NORMALIZED FREE ENERGY PREDICTED BY IDOCK:   -4.83 KCAL/MOL
REMARK 922        TOTAL FREE ENERGY PREDICTED BY IDOCK:   -7.43 KCAL/MOL
REMARK 923 INTER-LIGAND FREE ENERGY PREDICTED BY IDOCK:   -6.77 KCAL/MOL
REMARK 924 INTRA-LIGAND FREE ENERGY PREDICTED BY IDOCK:   -0.66 KCAL/MOL
REMARK 927      BINDING AFFINITY PREDICTED BY RF-SCORE:    0.00 PKD
ROOT
HETATM    1  C   UNL     1      -7.906   7.757  63.289  1.00  0.00    -0.129 C  
HETATM    2  C   UNL     1      -7.483   8.518  64.537  1.00  0.00    -0.105 C  
ENDROOT
BRANCH   2   3
HETATM    3  N   UNL     1      -8.507   8.451  65.588  1.00  0.00    -0.156 NA 
BRANCH   3   4
HETATM    4  C   UNL     1      -8.442   7.354  66.567  1.00  0.00    -0.128 C  
BRANCH   4   5
HETATM    5  C   UNL     1      -9.353   6.186  66.151  1.00  0.00    -0.102 C  
HETATM    6  H   UNL     1     -11.071   5.382  66.727  1.00  0.00     0.000 HD 
HETATM    7  O   UNL     1     -10.509   6.103  66.984  1.00  0.00    -0.209 OA 
ENDBRANCH   4   5
ENDBRANCH   3   4
BRANCH   3   8
HETATM    8  C   UNL     1      -9.390   9.507  65.762  1.00  0.00    -0.233 A  
HETATM    9  C   UNL     1     -11.006  12.149  63.549  1.00  0.00    -0.521 C  
HETATM   10  C   UNL     1     -10.017   9.779  66.984  1.00  0.00    -0.259 A  
HETATM   11  C   UNL     1     -10.942  10.826  67.121  1.00  0.00    -0.324 A  
HETATM   12  C   UNL     1      -9.724  10.340  64.687  1.00  0.00    -0.398 A  
HETATM   13  C   UNL     1     -11.300  11.623  66.026  1.00  0.00    -0.196 A  
HETATM   14  C   UNL     1     -10.683  11.366  64.792  1.00  0.00    -0.362 A  
BRANCH  13  15
HETATM   15  N   UNL     1     -12.192  12.709  66.136  1.00  0.00    -0.586 NA 
HETATM   16  H   UNL     1     -12.904  12.920  65.438  1.00  0.00     0.000 HD 
BRANCH  15  17
HETATM   17  N   UNL     1     -12.026  13.390  67.171  1.00  0.00    -0.379 NA 
HETATM   18  H   UNL     1     -12.294  13.066  68.101  1.00  0.00     0.000 HD 
BRANCH  17  19
HETATM   19  C   UNL     1     -11.453  14.606  66.939  1.00  0.00    -0.363 A  
HETATM   20  N   UNL     1     -11.033  15.105  65.786  1.00  0.00    -0.344 NA 
HETATM   21  C   UNL     1     -10.531  16.382  65.953  1.00  0.00    -0.337 A  
HETATM   22  C   UNL     1     -10.572  16.843  67.242  1.00  0.00    -0.270 A  
HETATM   23  N   UNL     1     -10.125  18.116  67.704  1.00  0.00    -0.341 N  
HETATM   24  S   UNL     1     -11.242  15.685  68.285  1.00  0.00    -0.357 SA 
HETATM   25  O   UNL     1      -9.663  18.882  66.847  1.00  0.00    -0.296 OA 
HETATM   26  O   UNL     1     -10.234  18.372  68.910  1.00  0.00    -0.382 OA 
ENDBRANCH  17  19
ENDBRANCH  15  17
ENDBRANCH  13  15
ENDBRANCH   3   8
ENDBRANCH   2   3
TORSDOF 7
ENDMDL
MODEL       78
REMARK 921   NORMALIZED FREE ENERGY PREDICTED BY IDOCK:   -4.82 KCAL/MOL
REMARK 922        TOTAL FREE ENERGY PREDICTED BY IDOCK:   -7.42 KCAL/MOL
REMARK 923 INTER-LIGAND FREE ENERGY PREDICTED BY IDOCK:   -6.79 KCAL/MOL
REMARK 924 INTRA-LIGAND FREE ENERGY PREDICTED BY IDOCK:   -0.62 KCAL/MOL
REMARK 927      BINDING AFFINITY PREDICTED BY RF-SCORE:    0.00 PKD
ROOT
HETATM    1  C   UNL     1     -11.949  14.223  64.936  1.00  0.00    -0.430 C  
HETATM    2  C   UNL     1     -12.404  14.149  66.386  1.00  0.00    -0.400 C  
ENDROOT
BRANCH   2   3
HETATM    3  N   UNL     1     -11.273  13.948  67.302  1.00  0.00    -0.302 NA 
BRANCH   3   4
HETATM    4  C   UNL     1     -10.217  14.971  67.352  1.00  0.00    -0.234 C  
BRANCH   4   5
HETATM    5  C   UNL     1     -10.741  16.278  67.972  1.00  0.00    -0.331 C  
HETATM    6  H   UNL     1     -11.042  18.157  67.414  1.00  0.00     0.000 HD 
HETATM    7  O   UNL     1     -10.719  17.350  67.031  1.00  0.00    -0.279 OA 
ENDBRANCH   4   5
ENDBRANCH   3   4
BRANCH   3   8
HETATM    8  C   UNL     1     -11.309  12.918  68.231  1.00  0.00    -0.291 A  
HETATM    9  C   UNL     1     -13.000  12.281  71.581  1.00  0.00    -0.416 C  
HETATM   10  C   UNL     1     -10.688  11.682  68.019  1.00  0.00    -0.246 A  
HETATM   11  C   UNL     1     -10.779  10.640  68.955  1.00  0.00    -0.257 A  
HETATM   12  C   UNL     1     -12.017  13.067  69.430  1.00  0.00    -0.338 A  
HETATM   13  C   UNL     1     -11.527  10.788  70.130  1.00  0.00    -0.331 A  
HETATM   14  C   UNL     1     -12.159  12.020  70.361  1.00  0.00    -0.407 A  
BRANCH  13  15
HETATM   15  N   UNL     1     -11.606   9.780  71.113  1.00  0.00    -0.362 NA 
HETATM   16  H   UNL     1     -11.223   9.885  72.052  1.00  0.00     0.000 HD 
BRANCH  15  17
HETATM   17  N   UNL     1     -12.188   8.746  70.723  1.00  0.00    -0.483 NA 
HETATM   18  H   UNL     1     -13.155   8.739  70.395  1.00  0.00     0.000 HD 
BRANCH  17  19
HETATM   19  C   UNL     1     -11.409   7.626  70.777  1.00  0.00    -0.281 A  
HETATM   20  N   UNL     1     -10.384   7.306  70.000  1.00  0.00    -0.208 NA 
HETATM   21  C   UNL     1      -9.832   6.099  70.384  1.00  0.00    -0.178 A  
HETATM   22  C   UNL     1     -10.451   5.507  71.454  1.00  0.00    -0.240 A  
HETATM   23  N   UNL     1     -10.095   4.265  72.060  1.00  0.00    -0.182 N  
HETATM   24  S   UNL     1     -11.745   6.450  72.012  1.00  0.00    -0.323 SA 
HETATM   25  O   UNL     1      -9.125   3.671  71.572  1.00  0.00    -0.102 OA 
HETATM   26  O   UNL     1     -10.765   3.873  73.025  1.00  0.00    -0.172 OA 
ENDBRANCH  17  19
ENDBRANCH  15  17
ENDBRANCH  13  15
ENDBRANCH   3   8
ENDBRANCH   2   3
TORSDOF 7
ENDMDL
MODEL       79
REMARK 921   NORMALIZED FREE ENERGY PREDICTED BY IDOCK:   -4.82 KCAL/MOL
REMARK 922        TOTAL FREE ENERGY PREDICTED BY IDOCK:   -7.41 KCAL/MOL
REMARK 923 INTER-LIGAND FREE ENERGY PREDICTED BY IDOCK:   -6.68 KCAL/MOL
REMARK 924 INTRA-LIGAND FREE ENERGY PREDICTED BY IDOCK:   -0.73 KCAL/MOL
REMARK 927      BINDING AFFINITY PREDICTED BY RF-SCORE:    0.00 PKD
ROOT
HETATM    1  C   UNL     1      -7.445   8.663  66.364  1.00  0.00    -0.087 C  
HETATM    2  C   UNL     1      -8.666   7.987  65.758  1.00  0.00    -0.146 C  
ENDROOT
BRANCH   2   3
HETATM    3  N   UNL     1      -9.895   8.330  66.486  1.00  0.00    -0.256 NA 
BRANCH   3   4
HETATM    4  C   UNL     1     -10.715   7.240  67.037  1.00  0.00    -0.336 C  
BRANCH   4   5
HETATM    5  C   UNL     1      -9.860   6.275  67.878  1.00  0.00    -0.124 C  
HETATM    6  H   UNL     1      -8.724   6.346  69.501  1.00  0.00     0.000 HD 
HETATM    7  O   UNL     1      -9.252   6.941  68.983  1.00  0.00    -0.138 OA 
ENDBRANCH   4   5
ENDBRANCH   3   4
BRANCH   3   8
HETATM    8  C   UNL     1     -10.161   9.653  66.810  1.00  0.00    -0.236 A  
HETATM    9  C   UNL     1     -10.890  12.869  64.908  1.00  0.00    -0.331 C  
HETATM   10  C   UNL     1     -10.320  10.095  68.129  1.00  0.00    -0.217 A  
HETATM   11  C   UNL     1     -10.635  11.430  68.427  1.00  0.00    -0.230 A  
HETATM   12  C   UNL     1     -10.321  10.614  65.804  1.00  0.00    -0.287 A  
HETATM   13  C   UNL     1     -10.836  12.370  67.409  1.00  0.00    -0.238 A  
HETATM   14  C   UNL     1     -10.682  11.947  66.079  1.00  0.00    -0.326 A  
BRANCH  13  15
HETATM   15  N   UNL     1     -11.111  13.727  67.671  1.00  0.00    -0.267 NA 
HETATM   16  H   UNL     1     -10.490  14.487  67.392  1.00  0.00     0.000 HD 
BRANCH  15  17
HETATM   17  N   UNL     1     -12.188  13.911  68.277  1.00  0.00    -0.494 NA 
HETATM   18  H   UNL     1     -13.081  13.538  67.956  1.00  0.00     0.000 HD 
BRANCH  17  19
HETATM   19  C   UNL     1     -12.055  14.660  69.411  1.00  0.00    -0.280 A  
HETATM   20  N   UNL     1     -11.440  15.825  69.554  1.00  0.00    -0.329 NA 
HETATM   21  C   UNL     1     -11.543  16.282  70.854  1.00  0.00    -0.286 A  
HETATM   22  C   UNL     1     -12.237  15.451  71.694  1.00  0.00    -0.375 A  
HETATM   23  N   UNL     1     -12.498  15.668  73.079  1.00  0.00    -0.406 N  
HETATM   24  S   UNL     1     -12.783  14.070  70.875  1.00  0.00    -0.337 SA 
HETATM   25  O   UNL     1     -12.058  16.719  73.565  1.00  0.00    -0.426 OA 
HETATM   26  O   UNL     1     -13.145  14.810  73.694  1.00  0.00    -0.527 OA 
ENDBRANCH  17  19
ENDBRANCH  15  17
ENDBRANCH  13  15
ENDBRANCH   3   8
ENDBRANCH   2   3
TORSDOF 7
ENDMDL
MODEL       80
REMARK 921   NORMALIZED FREE ENERGY PREDICTED BY IDOCK:   -4.79 KCAL/MOL
REMARK 922        TOTAL FREE ENERGY PREDICTED BY IDOCK:   -7.38 KCAL/MOL
REMARK 923 INTER-LIGAND FREE ENERGY PREDICTED BY IDOCK:   -6.82 KCAL/MOL
REMARK 924 INTRA-LIGAND FREE ENERGY PREDICTED BY IDOCK:   -0.57 KCAL/MOL
REMARK 927      BINDING AFFINITY PREDICTED BY RF-SCORE:    0.00 PKD
ROOT
HETATM    1  C   UNL     1     -10.546  15.243  68.871  1.00  0.00    -0.242 C  
HETATM    2  C   UNL     1     -11.433  15.244  67.635  1.00  0.00    -0.280 C  
ENDROOT
BRANCH   2   3
HETATM    3  N   UNL     1     -10.914  14.350  66.592  1.00  0.00    -0.312 NA 
BRANCH   3   4
HETATM    4  C   UNL     1     -10.467  14.937  65.319  1.00  0.00    -0.404 C  
BRANCH   4   5
HETATM    5  C   UNL     1     -10.697  16.459  65.300  1.00  0.00    -0.295 C  
HETATM    6  H   UNL     1     -11.551  17.804  64.121  1.00  0.00     0.000 HD 
HETATM    7  O   UNL     1     -11.409  16.865  64.133  1.00  0.00    -1.208 OA 
ENDBRANCH   4   5
ENDBRANCH   3   4
BRANCH   3   8
HETATM    8  C   UNL     1     -10.672  13.014  66.882  1.00  0.00    -0.262 A  
HETATM    9  C   UNL     1      -7.747  10.603  66.548  1.00  0.00    -0.137 C  
HETATM   10  C   UNL     1     -11.600  12.202  67.545  1.00  0.00    -0.413 A  
HETATM   11  C   UNL     1     -11.312  10.866  67.868  1.00  0.00    -0.380 A  
HETATM   12  C   UNL     1      -9.447  12.425  66.548  1.00  0.00    -0.242 A  
HETATM   13  C   UNL     1     -10.065  10.302  67.567  1.00  0.00    -0.198 A  
HETATM   14  C   UNL     1      -9.121  11.102  66.904  1.00  0.00    -0.166 A  
BRANCH  13  15
HETATM   15  N   UNL     1      -9.756   8.954  67.838  1.00  0.00    -0.155 NA 
HETATM   16  H   UNL     1      -9.938   8.197  67.180  1.00  0.00     0.000 HD 
BRANCH  15  17
HETATM   17  N   UNL     1      -9.238   8.775  68.960  1.00  0.00    -0.141 NA 
HETATM   18  H   UNL     1      -8.369   9.223  69.252  1.00  0.00     0.000 HD 
BRANCH  17  19
HETATM   19  C   UNL     1      -9.945   7.923  69.759  1.00  0.00    -0.186 A  
HETATM   20  N   UNL     1     -10.856   7.032  69.398  1.00  0.00    -0.238 NA 
HETATM   21  C   UNL     1     -11.331   6.338  70.495  1.00  0.00    -0.361 A  
HETATM   22  C   UNL     1     -10.773   6.715  71.688  1.00  0.00    -0.229 A  
HETATM   23  N   UNL     1     -11.071   6.172  72.974  1.00  0.00    -0.245 N  
HETATM   24  S   UNL     1      -9.634   7.952  71.469  1.00  0.00    -0.156 SA 
HETATM   25  O   UNL     1     -11.913   5.265  73.008  1.00  0.00    -0.220 OA 
HETATM   26  O   UNL     1     -10.472   6.632  73.955  1.00  0.00    -0.346 OA 
ENDBRANCH  17  19
ENDBRANCH  15  17
ENDBRANCH  13  15
ENDBRANCH   3   8
ENDBRANCH   2   3
TORSDOF 7
ENDMDL
MODEL       81
REMARK 921   NORMALIZED FREE ENERGY PREDICTED BY IDOCK:   -4.79 KCAL/MOL
REMARK 922        TOTAL FREE ENERGY PREDICTED BY IDOCK:   -7.38 KCAL/MOL
REMARK 923 INTER-LIGAND FREE ENERGY PREDICTED BY IDOCK:   -6.69 KCAL/MOL
REMARK 924 INTRA-LIGAND FREE ENERGY PREDICTED BY IDOCK:   -0.69 KCAL/MOL
REMARK 927      BINDING AFFINITY PREDICTED BY RF-SCORE:    0.00 PKD
ROOT
HETATM    1  C   UNL     1      -7.694   6.193  63.973  1.00  0.00    -0.106 C  
HETATM    2  C   UNL     1      -8.090   7.396  64.816  1.00  0.00    -0.104 C  
ENDROOT
BRANCH   2   3
HETATM    3  N   UNL     1      -8.846   6.998  66.010  1.00  0.00    -0.154 NA 
BRANCH   3   4
HETATM    4  C   UNL     1      -8.993   5.564  66.306  1.00  0.00    -0.140 C  
BRANCH   4   5
HETATM    5  C   UNL     1     -10.471   5.139  66.267  1.00  0.00    -0.289 C  
HETATM    6  H   UNL     1     -11.658   4.043  65.117  1.00  0.00     0.000 HD 
HETATM    7  O   UNL     1     -10.745   4.305  65.142  1.00  0.00    -0.251 OA 
ENDBRANCH   4   5
ENDBRANCH   3   4
BRANCH   3   8
HETATM    8  C   UNL     1      -9.238   7.958  66.933  1.00  0.00    -0.155 A  
HETATM    9  C   UNL     1     -11.199  11.220  66.861  1.00  0.00    -0.300 C  
HETATM   10  C   UNL     1      -9.013   7.825  68.308  1.00  0.00    -0.131 A  
HETATM   11  C   UNL     1      -9.461   8.789  69.226  1.00  0.00    -0.161 A  
HETATM   12  C   UNL     1      -9.923   9.106  66.518  1.00  0.00    -0.359 A  
HETATM   13  C   UNL     1     -10.183   9.911  68.800  1.00  0.00    -0.189 A  
HETATM   14  C   UNL     1     -10.420  10.062  67.425  1.00  0.00    -0.316 A  
BRANCH  13  15
HETATM   15  N   UNL     1     -10.611  10.920  69.687  1.00  0.00    -0.412 NA 
HETATM   16  H   UNL     1     -10.191  11.849  69.720  1.00  0.00     0.000 HD 
BRANCH  15  17
HETATM   17  N   UNL     1     -11.553  10.569  70.427  1.00  0.00    -0.319 NA 
HETATM   18  H   UNL     1     -11.771   9.593  70.629  1.00  0.00     0.000 HD 
BRANCH  17  19
HETATM   19  C   UNL     1     -12.263  11.615  70.942  1.00  0.00    -0.298 A  
HETATM   20  N   UNL     1     -13.109  11.605  71.962  1.00  0.00    -0.440 NA 
HETATM   21  C   UNL     1     -13.613  12.870  72.198  1.00  0.00    -0.495 A  
HETATM   22  C   UNL     1     -13.144  13.836  71.346  1.00  0.00    -0.337 A  
HETATM   23  N   UNL     1     -13.490  15.219  71.357  1.00  0.00    -0.472 N  
HETATM   24  S   UNL     1     -12.055  13.183  70.221  1.00  0.00    -0.262 SA 
HETATM   25  O   UNL     1     -14.288  15.581  72.232  1.00  0.00    -0.562 OA 
HETATM   26  O   UNL     1     -12.971  15.958  70.510  1.00  0.00    -0.438 OA 
ENDBRANCH  17  19
ENDBRANCH  15  17
ENDBRANCH  13  15
ENDBRANCH   3   8
ENDBRANCH   2   3
TORSDOF 7
ENDMDL
MODEL       82
REMARK 921   NORMALIZED FREE ENERGY PREDICTED BY IDOCK:   -4.78 KCAL/MOL
REMARK 922        TOTAL FREE ENERGY PREDICTED BY IDOCK:   -7.36 KCAL/MOL
REMARK 923 INTER-LIGAND FREE ENERGY PREDICTED BY IDOCK:   -6.63 KCAL/MOL
REMARK 924 INTRA-LIGAND FREE ENERGY PREDICTED BY IDOCK:   -0.74 KCAL/MOL
REMARK 927      BINDING AFFINITY PREDICTED BY RF-SCORE:    0.00 PKD
ROOT
HETATM    1  C   UNL     1     -10.094  15.919  67.279  1.00  0.00    -0.260 C  
HETATM    2  C   UNL     1     -11.311  15.014  67.389  1.00  0.00    -0.332 C  
ENDROOT
BRANCH   2   3
HETATM    3  N   UNL     1     -11.131  13.765  66.638  1.00  0.00    -0.307 NA 
BRANCH   3   4
HETATM    4  C   UNL     1     -10.948  13.839  65.180  1.00  0.00    -0.337 C  
BRANCH   4   5
HETATM    5  C   UNL     1     -12.134  14.554  64.509  1.00  0.00    -0.484 C  
HETATM    6  H   UNL     1     -13.275  14.323  62.904  1.00  0.00     0.000 HD 
HETATM    7  O   UNL     1     -12.543  13.883  63.319  1.00  0.00    -0.824 OA 
ENDBRANCH   4   5
ENDBRANCH   3   4
BRANCH   3   8
HETATM    8  C   UNL     1     -10.942  12.569  67.318  1.00  0.00    -0.261 A  
HETATM    9  C   UNL     1      -8.471   9.677  67.183  1.00  0.00    -0.131 C  
HETATM   10  C   UNL     1     -11.714  12.195  68.424  1.00  0.00    -0.388 A  
HETATM   11  C   UNL     1     -11.471  11.002  69.123  1.00  0.00    -0.370 A  
HETATM   12  C   UNL     1      -9.923  11.688  66.936  1.00  0.00    -0.225 A  
HETATM   13  C   UNL     1     -10.420  10.151  68.757  1.00  0.00    -0.204 A  
HETATM   14  C   UNL     1      -9.634  10.509  67.651  1.00  0.00    -0.175 A  
BRANCH  13  15
HETATM   15  N   UNL     1     -10.174   8.924  69.408  1.00  0.00    -0.203 NA 
HETATM   16  H   UNL     1      -9.340   8.746  69.966  1.00  0.00     0.000 HD 
BRANCH  15  17
HETATM   17  N   UNL     1     -11.076   8.077  69.235  1.00  0.00    -0.435 NA 
HETATM   18  H   UNL     1     -12.069   8.288  69.340  1.00  0.00     0.000 HD 
BRANCH  17  19
HETATM   19  C   UNL     1     -10.606   6.842  68.893  1.00  0.00    -0.228 A  
HETATM   20  N   UNL     1     -10.106   5.909  69.690  1.00  0.00    -0.184 NA 
HETATM   21  C   UNL     1      -9.761   4.779  68.972  1.00  0.00    -0.178 A  
HETATM   22  C   UNL     1     -10.002   4.867  67.626  1.00  0.00    -0.141 A  
HETATM   23  N   UNL     1      -9.747   3.859  66.649  1.00  0.00    -0.201 N  
HETATM   24  S   UNL     1     -10.670   6.373  67.221  1.00  0.00    -0.394 SA 
HETATM   25  O   UNL     1      -9.266   2.797  67.066  1.00  0.00    -0.164 OA 
HETATM   26  O   UNL     1     -10.024   4.106  65.468  1.00  0.00    -0.200 OA 
ENDBRANCH  17  19
ENDBRANCH  15  17
ENDBRANCH  13  15
ENDBRANCH   3   8
ENDBRANCH   2   3
TORSDOF 7
ENDMDL
MODEL       83
REMARK 921   NORMALIZED FREE ENERGY PREDICTED BY IDOCK:   -4.78 KCAL/MOL
REMARK 922        TOTAL FREE ENERGY PREDICTED BY IDOCK:   -7.36 KCAL/MOL
REMARK 923 INTER-LIGAND FREE ENERGY PREDICTED BY IDOCK:   -6.95 KCAL/MOL
REMARK 924 INTRA-LIGAND FREE ENERGY PREDICTED BY IDOCK:   -0.41 KCAL/MOL
REMARK 927      BINDING AFFINITY PREDICTED BY RF-SCORE:    0.00 PKD
ROOT
HETATM    1  C   UNL     1     -12.802  10.086  71.494  1.00  0.00    -0.537 C  
HETATM    2  C   UNL     1     -12.484   8.788  72.222  1.00  0.00    -0.386 C  
ENDROOT
BRANCH   2   3
HETATM    3  N   UNL     1     -11.142   8.294  71.891  1.00  0.00    -0.271 NA 
BRANCH   3   4
HETATM    4  C   UNL     1     -10.512   7.313  72.789  1.00  0.00    -0.260 C  
BRANCH   4   5
HETATM    5  C   UNL     1     -11.257   5.967  72.748  1.00  0.00    -0.276 C  
HETATM    6  H   UNL     1     -11.022   4.131  73.460  1.00  0.00     0.000 HD 
HETATM    7  O   UNL     1     -10.562   4.962  73.485  1.00  0.00    -0.203 OA 
ENDBRANCH   4   5
ENDBRANCH   3   4
BRANCH   3   8
HETATM    8  C   UNL     1     -10.574   8.599  70.662  1.00  0.00    -0.211 A  
HETATM    9  C   UNL     1     -10.845   7.294  67.096  1.00  0.00    -0.378 C  
HETATM   10  C   UNL     1      -9.716   9.688  70.471  1.00  0.00    -0.280 A  
HETATM   11  C   UNL     1      -9.193  10.002  69.207  1.00  0.00    -0.212 A  
HETATM   12  C   UNL     1     -10.875   7.831  69.530  1.00  0.00    -0.157 A  
HETATM   13  C   UNL     1      -9.537   9.252  68.075  1.00  0.00    -0.142 A  
HETATM   14  C   UNL     1     -10.398   8.156  68.246  1.00  0.00    -0.241 A  
BRANCH  13  15
HETATM   15  N   UNL     1      -8.998   9.512  66.799  1.00  0.00    -0.136 NA 
HETATM   16  H   UNL     1      -9.016   8.834  66.037  1.00  0.00     0.000 HD 
BRANCH  15  17
HETATM   17  N   UNL     1      -8.496  10.650  66.690  1.00  0.00    -0.133 NA 
HETATM   18  H   UNL     1      -7.537  10.867  66.965  1.00  0.00     0.000 HD 
BRANCH  17  19
HETATM   19  C   UNL     1      -9.351  11.577  66.169  1.00  0.00    -0.215 A  
HETATM   20  N   UNL     1      -9.424  12.871  66.448  1.00  0.00    -0.248 NA 
HETATM   21  C   UNL     1     -10.406  13.485  65.694  1.00  0.00    -0.297 A  
HETATM   22  C   UNL     1     -11.077  12.645  64.845  1.00  0.00    -0.296 A  
HETATM   23  N   UNL     1     -12.132  13.003  63.954  1.00  0.00    -0.450 N  
HETATM   24  S   UNL     1     -10.495  11.056  64.968  1.00  0.00    -0.247 SA 
HETATM   25  O   UNL     1     -12.465  14.196  63.945  1.00  0.00    -0.730 OA 
HETATM   26  O   UNL     1     -12.633  12.113  63.254  1.00  0.00    -0.641 OA 
ENDBRANCH  17  19
ENDBRANCH  15  17
ENDBRANCH  13  15
ENDBRANCH   3   8
ENDBRANCH   2   3
TORSDOF 7
ENDMDL
MODEL       84
REMARK 921   NORMALIZED FREE ENERGY PREDICTED BY IDOCK:   -4.78 KCAL/MOL
REMARK 922        TOTAL FREE ENERGY PREDICTED BY IDOCK:   -7.36 KCAL/MOL
REMARK 923 INTER-LIGAND FREE ENERGY PREDICTED BY IDOCK:   -6.73 KCAL/MOL
REMARK 924 INTRA-LIGAND FREE ENERGY PREDICTED BY IDOCK:   -0.63 KCAL/MOL
REMARK 927      BINDING AFFINITY PREDICTED BY RF-SCORE:    0.00 PKD
ROOT
HETATM    1  C   UNL     1     -14.353  14.822  72.054  1.00  0.00    -0.642 C  
HETATM    2  C   UNL     1     -13.120  13.961  72.283  1.00  0.00    -0.417 C  
ENDROOT
BRANCH   2   3
HETATM    3  N   UNL     1     -12.597  13.414  71.025  1.00  0.00    -0.361 NA 
BRANCH   3   4
HETATM    4  C   UNL     1     -12.096  14.348  70.004  1.00  0.00    -0.343 C  
BRANCH   4   5
HETATM    5  C   UNL     1     -10.912  15.172  70.542  1.00  0.00    -0.234 C  
HETATM    6  H   UNL     1     -10.576  17.014  71.195  1.00  0.00     0.000 HD 
HETATM    7  O   UNL     1     -11.306  16.505  70.863  1.00  0.00    -0.321 OA 
ENDBRANCH   4   5
ENDBRANCH   3   4
BRANCH   3   8
HETATM    8  C   UNL     1     -12.402  12.046  70.892  1.00  0.00    -0.285 A  
HETATM    9  C   UNL     1     -13.634   8.900  72.645  1.00  0.00    -0.395 C  
HETATM   10  C   UNL     1     -11.653  11.483  69.853  1.00  0.00    -0.387 A  
HETATM   11  C   UNL     1     -11.510  10.093  69.715  1.00  0.00    -0.288 A  
HETATM   12  C   UNL     1     -12.992  11.154  71.795  1.00  0.00    -0.526 A  
HETATM   13  C   UNL     1     -12.143   9.211  70.600  1.00  0.00    -0.068 A  
HETATM   14  C   UNL     1     -12.900   9.756  71.649  1.00  0.00    -0.519 A  
BRANCH  13  15
HETATM   15  N   UNL     1     -11.987   7.812  70.519  1.00  0.00    -0.489 NA 
HETATM   16  H   UNL     1     -12.629   7.208  70.006  1.00  0.00     0.000 HD 
BRANCH  15  17
HETATM   17  N   UNL     1     -10.989   7.383  71.135  1.00  0.00    -0.243 NA 
HETATM   18  H   UNL     1     -10.852   7.514  72.137  1.00  0.00     0.000 HD 
BRANCH  17  19
HETATM   19  C   UNL     1     -10.098   6.723  70.339  1.00  0.00    -0.183 A  
HETATM   20  N   UNL     1      -8.792   6.585  70.514  1.00  0.00    -0.150 NA 
HETATM   21  C   UNL     1      -8.235   5.824  69.503  1.00  0.00    -0.108 A  
HETATM   22  C   UNL     1      -9.130   5.392  68.560  1.00  0.00    -0.108 A  
HETATM   23  N   UNL     1      -8.838   4.595  67.414  1.00  0.00    -0.104 N  
HETATM   24  S   UNL     1     -10.700   5.928  68.915  1.00  0.00    -0.289 SA 
HETATM   25  O   UNL     1      -7.656   4.256  67.265  1.00  0.00    -0.076 OA 
HETATM   26  O   UNL     1      -9.771   4.294  66.658  1.00  0.00    -0.194 OA 
ENDBRANCH  17  19
ENDBRANCH  15  17
ENDBRANCH  13  15
ENDBRANCH   3   8
ENDBRANCH   2   3
TORSDOF 7
ENDMDL
MODEL       85
REMARK 921   NORMALIZED FREE ENERGY PREDICTED BY IDOCK:   -4.77 KCAL/MOL
REMARK 922        TOTAL FREE ENERGY PREDICTED BY IDOCK:   -7.35 KCAL/MOL
REMARK 923 INTER-LIGAND FREE ENERGY PREDICTED BY IDOCK:   -6.75 KCAL/MOL
REMARK 924 INTRA-LIGAND FREE ENERGY PREDICTED BY IDOCK:   -0.60 KCAL/MOL
REMARK 927      BINDING AFFINITY PREDICTED BY RF-SCORE:    0.00 PKD
ROOT
HETATM    1  C   UNL     1     -12.530  14.457  64.526  1.00  0.00    -0.362 C  
HETATM    2  C   UNL     1     -11.189  13.739  64.580  1.00  0.00    -0.373 C  
ENDROOT
BRANCH   2   3
HETATM    3  N   UNL     1     -10.558  13.866  65.900  1.00  0.00    -0.287 NA 
BRANCH   3   4
HETATM    4  C   UNL     1      -9.721  15.045  66.171  1.00  0.00    -0.306 C  
BRANCH   4   5
HETATM    5  C   UNL     1      -8.423  14.649  66.894  1.00  0.00    -0.173 C  
HETATM    6  H   UNL     1      -7.305  15.320  68.388  1.00  0.00     0.000 HD 
HETATM    7  O   UNL     1      -8.106  15.565  67.941  1.00  0.00    -0.133 OA 
ENDBRANCH   4   5
ENDBRANCH   3   4
BRANCH   3   8
HETATM    8  C   UNL     1     -10.906  12.992  66.921  1.00  0.00    -0.264 A  
HETATM    9  C   UNL     1     -12.323  13.285  70.441  1.00  0.00    -0.365 C  
HETATM   10  C   UNL     1     -10.871  11.601  66.774  1.00  0.00    -0.322 A  
HETATM   11  C   UNL     1     -11.274  10.739  67.807  1.00  0.00    -0.385 A  
HETATM   12  C   UNL     1     -11.353  13.482  68.154  1.00  0.00    -0.319 A  
HETATM   13  C   UNL     1     -11.760  11.244  69.020  1.00  0.00    -0.342 A  
HETATM   14  C   UNL     1     -11.804  12.637  69.186  1.00  0.00    -0.349 A  
BRANCH  13  15
HETATM   15  N   UNL     1     -12.132  10.411  70.095  1.00  0.00    -0.401 NA 
HETATM   16  H   UNL     1     -12.455  10.769  70.993  1.00  0.00     0.000 HD 
BRANCH  15  17
HETATM   17  N   UNL     1     -12.028   9.192  69.842  1.00  0.00    -0.242 NA 
HETATM   18  H   UNL     1     -12.239   8.791  68.927  1.00  0.00     0.000 HD 
BRANCH  17  19
HETATM   19  C   UNL     1     -11.605   8.447  70.905  1.00  0.00    -0.262 A  
HETATM   20  N   UNL     1     -12.112   7.310  71.359  1.00  0.00    -0.317 NA 
HETATM   21  C   UNL     1     -11.391   6.846  72.443  1.00  0.00    -0.271 A  
HETATM   22  C   UNL     1     -10.338   7.643  72.807  1.00  0.00    -0.295 A  
HETATM   23  N   UNL     1      -9.429   7.411  73.881  1.00  0.00    -0.273 N  
HETATM   24  S   UNL     1     -10.221   9.001  71.797  1.00  0.00    -0.235 SA 
HETATM   25  O   UNL     1      -9.609   6.380  74.543  1.00  0.00    -0.220 OA 
HETATM   26  O   UNL     1      -8.528   8.239  74.074  1.00  0.00    -0.256 OA 
ENDBRANCH  17  19
ENDBRANCH  15  17
ENDBRANCH  13  15
ENDBRANCH   3   8
ENDBRANCH   2   3
TORSDOF 7
ENDMDL
MODEL       86
REMARK 921   NORMALIZED FREE ENERGY PREDICTED BY IDOCK:   -4.77 KCAL/MOL
REMARK 922        TOTAL FREE ENERGY PREDICTED BY IDOCK:   -7.35 KCAL/MOL
REMARK 923 INTER-LIGAND FREE ENERGY PREDICTED BY IDOCK:   -6.80 KCAL/MOL
REMARK 924 INTRA-LIGAND FREE ENERGY PREDICTED BY IDOCK:   -0.55 KCAL/MOL
REMARK 927      BINDING AFFINITY PREDICTED BY RF-SCORE:    0.00 PKD
ROOT
HETATM    1  C   UNL     1     -12.206  15.586  64.412  1.00  0.00    -0.087 C  
HETATM    2  C   UNL     1     -10.767  15.728  64.885  1.00  0.00    -0.361 C  
ENDROOT
BRANCH   2   3
HETATM    3  N   UNL     1     -10.660  15.612  66.345  1.00  0.00    -0.305 NA 
BRANCH   3   4
HETATM    4  C   UNL     1     -10.445  16.834  67.136  1.00  0.00    -0.299 C  
BRANCH   4   5
HETATM    5  C   UNL     1     -10.267  18.060  66.222  1.00  0.00    -0.381 C  
HETATM    6  H   UNL     1      -8.780  19.149  65.493  1.00  0.00     0.000 HD 
HETATM    7  O   UNL     1      -8.890  18.392  66.056  1.00  0.00    -0.498 OA 
ENDBRANCH   4   5
ENDBRANCH   3   4
BRANCH   3   8
HETATM    8  C   UNL     1     -10.952  14.406  66.967  1.00  0.00    -0.304 A  
HETATM    9  C   UNL     1     -12.257  13.297  70.366  1.00  0.00    -0.404 C  
HETATM   10  C   UNL     1     -10.888  13.175  66.303  1.00  0.00    -0.292 A  
HETATM   11  C   UNL     1     -11.234  11.973  66.942  1.00  0.00    -0.375 A  
HETATM   12  C   UNL     1     -11.369  14.377  68.303  1.00  0.00    -0.311 A  
HETATM   13  C   UNL     1     -11.691  11.965  68.266  1.00  0.00    -0.321 A  
HETATM   14  C   UNL     1     -11.764  13.189  68.948  1.00  0.00    -0.368 A  
BRANCH  13  15
HETATM   15  N   UNL     1     -12.006  10.775  68.953  1.00  0.00    -0.672 NA 
HETATM   16  H   UNL     1     -12.604  10.749  69.779  1.00  0.00     0.000 HD 
BRANCH  15  17
HETATM   17  N   UNL     1     -11.484   9.756  68.454  1.00  0.00    -0.487 NA 
HETATM   18  H   UNL     1     -11.782   9.353  67.565  1.00  0.00     0.000 HD 
BRANCH  17  19
HETATM   19  C   UNL     1     -10.475   9.232  69.211  1.00  0.00    -0.218 A  
HETATM   20  N   UNL     1      -9.418   8.546  68.802  1.00  0.00    -0.143 NA 
HETATM   21  C   UNL     1      -8.607   8.207  69.868  1.00  0.00    -0.130 A  
HETATM   22  C   UNL     1      -9.061   8.639  71.086  1.00  0.00    -0.209 A  
HETATM   23  N   UNL     1      -8.430   8.434  72.349  1.00  0.00    -0.183 N  
HETATM   24  S   UNL     1     -10.522   9.485  70.930  1.00  0.00    -0.296 SA 
HETATM   25  O   UNL     1      -7.360   7.810  72.336  1.00  0.00    -0.073 OA 
HETATM   26  O   UNL     1      -8.980   8.894  73.359  1.00  0.00    -0.079 OA 
ENDBRANCH  17  19
ENDBRANCH  15  17
ENDBRANCH  13  15
ENDBRANCH   3   8
ENDBRANCH   2   3
TORSDOF 7
ENDMDL
MODEL       87
REMARK 921   NORMALIZED FREE ENERGY PREDICTED BY IDOCK:   -4.74 KCAL/MOL
REMARK 922        TOTAL FREE ENERGY PREDICTED BY IDOCK:   -7.31 KCAL/MOL
REMARK 923 INTER-LIGAND FREE ENERGY PREDICTED BY IDOCK:   -6.62 KCAL/MOL
REMARK 924 INTRA-LIGAND FREE ENERGY PREDICTED BY IDOCK:   -0.68 KCAL/MOL
REMARK 927      BINDING AFFINITY PREDICTED BY RF-SCORE:    0.00 PKD
ROOT
HETATM    1  C   UNL     1     -11.188   6.299  69.112  1.00  0.00    -0.439 C  
HETATM    2  C   UNL     1     -10.068   7.227  69.555  1.00  0.00    -0.182 C  
ENDROOT
BRANCH   2   3
HETATM    3  N   UNL     1     -10.551   8.596  69.779  1.00  0.00    -0.224 NA 
BRANCH   3   4
HETATM    4  C   UNL     1     -11.206   8.910  71.059  1.00  0.00    -0.281 C  
BRANCH   4   5
HETATM    5  C   UNL     1     -10.438   8.292  72.240  1.00  0.00    -0.321 C  
HETATM    6  H   UNL     1      -8.679   8.509  73.129  1.00  0.00     0.000 HD 
HETATM    7  O   UNL     1      -9.154   8.891  72.400  1.00  0.00    -0.372 OA 
ENDBRANCH   4   5
ENDBRANCH   3   4
BRANCH   3   8
HETATM    8  C   UNL     1     -10.218   9.603  68.885  1.00  0.00    -0.201 A  
HETATM    9  C   UNL     1      -7.375  12.100  68.472  1.00  0.00    -0.105 C  
HETATM   10  C   UNL     1     -10.958   9.865  67.726  1.00  0.00    -0.278 A  
HETATM   11  C   UNL     1     -10.573  10.859  66.813  1.00  0.00    -0.313 A  
HETATM   12  C   UNL     1      -9.080  10.392  69.094  1.00  0.00    -0.197 A  
HETATM   13  C   UNL     1      -9.408  11.611  67.012  1.00  0.00    -0.181 A  
HETATM   14  C   UNL     1      -8.651  11.363  68.168  1.00  0.00    -0.153 A  
BRANCH  13  15
HETATM   15  N   UNL     1      -9.014  12.646  66.141  1.00  0.00    -0.431 NA 
HETATM   16  H   UNL     1      -8.043  12.931  66.016  1.00  0.00     0.000 HD 
BRANCH  15  17
HETATM   17  N   UNL     1      -9.967  13.181  65.536  1.00  0.00    -0.426 NA 
HETATM   18  H   UNL     1     -10.577  12.673  64.894  1.00  0.00     0.000 HD 
BRANCH  17  19
HETATM   19  C   UNL     1     -10.114  14.509  65.814  1.00  0.00    -0.342 A  
HETATM   20  N   UNL     1     -10.550  15.469  65.011  1.00  0.00    -0.426 NA 
HETATM   21  C   UNL     1     -10.582  16.685  65.667  1.00  0.00    -0.270 A  
HETATM   22  C   UNL     1     -10.163  16.638  66.970  1.00  0.00    -0.290 A  
HETATM   23  N   UNL     1     -10.093  17.734  67.880  1.00  0.00    -0.324 N  
HETATM   24  S   UNL     1      -9.717  15.062  67.413  1.00  0.00    -0.217 SA 
HETATM   25  O   UNL     1     -10.455  18.836  67.445  1.00  0.00    -0.387 OA 
HETATM   26  O   UNL     1      -9.687  17.515  69.029  1.00  0.00    -0.263 OA 
ENDBRANCH  17  19
ENDBRANCH  15  17
ENDBRANCH  13  15
ENDBRANCH   3   8
ENDBRANCH   2   3
TORSDOF 7
ENDMDL
MODEL       88
REMARK 921   NORMALIZED FREE ENERGY PREDICTED BY IDOCK:   -4.73 KCAL/MOL
REMARK 922        TOTAL FREE ENERGY PREDICTED BY IDOCK:   -7.30 KCAL/MOL
REMARK 923 INTER-LIGAND FREE ENERGY PREDICTED BY IDOCK:   -6.95 KCAL/MOL
REMARK 924 INTRA-LIGAND FREE ENERGY PREDICTED BY IDOCK:   -0.35 KCAL/MOL
REMARK 927      BINDING AFFINITY PREDICTED BY RF-SCORE:    0.00 PKD
ROOT
HETATM    1  C   UNL     1     -10.728  15.731  70.063  1.00  0.00    -0.347 C  
HETATM    2  C   UNL     1     -12.245  15.696  70.171  1.00  0.00    -0.361 C  
ENDROOT
BRANCH   2   3
HETATM    3  N   UNL     1     -12.726  14.392  70.647  1.00  0.00    -0.350 NA 
BRANCH   3   4
HETATM    4  C   UNL     1     -13.757  14.362  71.696  1.00  0.00    -0.404 C  
BRANCH   4   5
HETATM    5  C   UNL     1     -13.159  14.716  73.069  1.00  0.00    -0.515 C  
HETATM    6  H   UNL     1     -12.955  16.319  74.218  1.00  0.00     0.000 HD 
HETATM    7  O   UNL     1     -13.324  16.100  73.370  1.00  0.00    -0.574 OA 
ENDBRANCH   4   5
ENDBRANCH   3   4
BRANCH   3   8
HETATM    8  C   UNL     1     -12.356  13.232  69.980  1.00  0.00    -0.200 A  
HETATM    9  C   UNL     1     -11.230  12.309  66.463  1.00  0.00    -0.373 C  
HETATM   10  C   UNL     1     -12.229  11.995  70.623  1.00  0.00    -0.409 A  
HETATM   11  C   UNL     1     -11.808  10.846  69.934  1.00  0.00    -0.427 A  
HETATM   12  C   UNL     1     -12.054  13.263  68.613  1.00  0.00    -0.257 A  
HETATM   13  C   UNL     1     -11.466  10.901  68.577  1.00  0.00    -0.310 A  
HETATM   14  C   UNL     1     -11.587  12.133  67.915  1.00  0.00    -0.413 A  
BRANCH  13  15
HETATM   15  N   UNL     1     -11.082   9.761  67.844  1.00  0.00    -0.504 NA 
HETATM   16  H   UNL     1     -11.708   9.270  67.206  1.00  0.00     0.000 HD 
BRANCH  15  17
HETATM   17  N   UNL     1      -9.901   9.409  68.050  1.00  0.00    -0.158 NA 
HETATM   18  H   UNL     1      -9.115  10.059  68.042  1.00  0.00     0.000 HD 
BRANCH  17  19
HETATM   19  C   UNL     1      -9.763   8.071  68.286  1.00  0.00    -0.164 A  
HETATM   20  N   UNL     1      -9.444   7.472  69.424  1.00  0.00    -0.155 NA 
HETATM   21  C   UNL     1      -9.428   6.098  69.271  1.00  0.00    -0.133 A  
HETATM   22  C   UNL     1      -9.733   5.665  68.007  1.00  0.00    -0.126 A  
HETATM   23  N   UNL     1      -9.792   4.310  67.565  1.00  0.00    -0.151 N  
HETATM   24  S   UNL     1     -10.050   6.971  66.972  1.00  0.00    -0.247 SA 
HETATM   25  O   UNL     1      -9.550   3.442  68.414  1.00  0.00    -0.166 OA 
HETATM   26  O   UNL     1     -10.084   4.094  66.381  1.00  0.00    -0.206 OA 
ENDBRANCH  17  19
ENDBRANCH  15  17
ENDBRANCH  13  15
ENDBRANCH   3   8
ENDBRANCH   2   3
TORSDOF 7
ENDMDL
MODEL       89
REMARK 921   NORMALIZED FREE ENERGY PREDICTED BY IDOCK:   -4.73 KCAL/MOL
REMARK 922        TOTAL FREE ENERGY PREDICTED BY IDOCK:   -7.30 KCAL/MOL
REMARK 923 INTER-LIGAND FREE ENERGY PREDICTED BY IDOCK:   -6.56 KCAL/MOL
REMARK 924 INTRA-LIGAND FREE ENERGY PREDICTED BY IDOCK:   -0.73 KCAL/MOL
REMARK 927      BINDING AFFINITY PREDICTED BY RF-SCORE:    0.00 PKD
ROOT
HETATM    1  C   UNL     1     -14.309   7.388  72.004  1.00  0.00    -0.429 C  
HETATM    2  C   UNL     1     -13.011   7.165  71.243  1.00  0.00    -0.324 C  
ENDROOT
BRANCH   2   3
HETATM    3  N   UNL     1     -12.011   8.193  71.560  1.00  0.00    -0.288 NA 
BRANCH   3   4
HETATM    4  C   UNL     1     -10.868   7.825  72.411  1.00  0.00    -0.303 C  
BRANCH   4   5
HETATM    5  C   UNL     1      -9.900   6.891  71.664  1.00  0.00    -0.168 C  
HETATM    6  H   UNL     1      -8.291   7.051  70.517  1.00  0.00     0.000 HD 
HETATM    7  O   UNL     1      -8.888   7.627  70.979  1.00  0.00    -0.139 OA 
ENDBRANCH   4   5
ENDBRANCH   3   4
BRANCH   3   8
HETATM    8  C   UNL     1     -12.047   9.419  70.910  1.00  0.00    -0.255 A  
HETATM    9  C   UNL     1     -13.057  12.982  71.789  1.00  0.00    -0.469 C  
HETATM   10  C   UNL     1     -11.550   9.606  69.615  1.00  0.00     0.030 A  
HETATM   11  C   UNL     1     -11.556  10.867  68.998  1.00  0.00    -0.387 A  
HETATM   12  C   UNL     1     -12.562  10.551  71.554  1.00  0.00    -0.529 A  
HETATM   13  C   UNL     1     -12.033  11.999  69.671  1.00  0.00    -0.293 A  
HETATM   14  C   UNL     1     -12.535  11.832  70.971  1.00  0.00    -0.411 A  
BRANCH  13  15
HETATM   15  N   UNL     1     -12.095  13.271  69.067  1.00  0.00    -0.283 NA 
HETATM   16  H   UNL     1     -12.295  14.126  69.586  1.00  0.00     0.000 HD 
BRANCH  15  17
HETATM   17  N   UNL     1     -11.881  13.252  67.837  1.00  0.00    -0.352 NA 
HETATM   18  H   UNL     1     -12.387  12.645  67.191  1.00  0.00     0.000 HD 
BRANCH  17  19
HETATM   19  C   UNL     1     -10.908  14.122  67.437  1.00  0.00    -0.287 A  
HETATM   20  N   UNL     1     -11.055  15.305  66.860  1.00  0.00    -0.314 NA 
HETATM   21  C   UNL     1      -9.829  15.899  66.629  1.00  0.00    -0.254 A  
HETATM   22  C   UNL     1      -8.753  15.153  67.034  1.00  0.00    -0.238 A  
HETATM   23  N   UNL     1      -7.378  15.516  66.921  1.00  0.00    -0.125 N  
HETATM   24  S   UNL     1      -9.249  13.682  67.717  1.00  0.00    -0.226 SA 
HETATM   25  O   UNL     1      -7.138  16.620  66.413  1.00  0.00    -0.218 OA 
HETATM   26  O   UNL     1      -6.527  14.719  67.339  1.00  0.00    -0.302 OA 
ENDBRANCH  17  19
ENDBRANCH  15  17
ENDBRANCH  13  15
ENDBRANCH   3   8
ENDBRANCH   2   3
TORSDOF 7
ENDMDL
MODEL       90
REMARK 921   NORMALIZED FREE ENERGY PREDICTED BY IDOCK:   -4.72 KCAL/MOL
REMARK 922        TOTAL FREE ENERGY PREDICTED BY IDOCK:   -7.28 KCAL/MOL
REMARK 923 INTER-LIGAND FREE ENERGY PREDICTED BY IDOCK:   -6.73 KCAL/MOL
REMARK 924 INTRA-LIGAND FREE ENERGY PREDICTED BY IDOCK:   -0.54 KCAL/MOL
REMARK 927      BINDING AFFINITY PREDICTED BY RF-SCORE:    0.00 PKD
ROOT
HETATM    1  C   UNL     1     -10.143  14.677  66.511  1.00  0.00    -0.286 C  
HETATM    2  C   UNL     1     -11.452  14.060  66.979  1.00  0.00    -0.351 C  
ENDROOT
BRANCH   2   3
HETATM    3  N   UNL     1     -11.447  12.598  66.833  1.00  0.00    -0.323 NA 
BRANCH   3   4
HETATM    4  C   UNL     1     -11.388  12.025  65.479  1.00  0.00    -0.328 C  
BRANCH   4   5
HETATM    5  C   UNL     1     -12.555  12.531  64.613  1.00  0.00    -0.426 C  
HETATM    6  H   UNL     1     -12.839  13.187  62.764  1.00  0.00     0.000 HD 
HETATM    7  O   UNL     1     -12.119  12.875  63.299  1.00  0.00    -0.561 OA 
ENDBRANCH   4   5
ENDBRANCH   3   4
BRANCH   3   8
HETATM    8  C   UNL     1     -11.303  11.791  67.953  1.00  0.00    -0.292 A  
HETATM    9  C   UNL     1     -12.788  11.637  71.455  1.00  0.00    -0.461 C  
HETATM   10  C   UNL     1     -10.509  10.639  67.961  1.00  0.00    -0.228 A  
HETATM   11  C   UNL     1     -10.417   9.814  69.094  1.00  0.00    -0.232 A  
HETATM   12  C   UNL     1     -11.993  12.086  69.136  1.00  0.00    -0.326 A  
HETATM   13  C   UNL     1     -11.147  10.098  70.255  1.00  0.00    -0.317 A  
HETATM   14  C   UNL     1     -11.950  11.248  70.267  1.00  0.00    -0.466 A  
BRANCH  13  15
HETATM   15  N   UNL     1     -11.046   9.317  71.425  1.00  0.00    -0.341 NA 
HETATM   16  H   UNL     1     -10.438   9.559  72.207  1.00  0.00     0.000 HD 
BRANCH  15  17
HETATM   17  N   UNL     1     -11.773   8.301  71.412  1.00  0.00    -0.279 NA 
HETATM   18  H   UNL     1     -12.760   8.317  71.670  1.00  0.00     0.000 HD 
BRANCH  17  19
HETATM   19  C   UNL     1     -11.120   7.168  71.020  1.00  0.00    -0.260 A  
HETATM   20  N   UNL     1     -11.434   6.345  70.030  1.00  0.00    -0.430 NA 
HETATM   21  C   UNL     1     -10.514   5.319  69.929  1.00  0.00    -0.281 A  
HETATM   22  C   UNL     1      -9.504   5.370  70.853  1.00  0.00    -0.167 A  
HETATM   23  N   UNL     1      -8.424   4.448  70.983  1.00  0.00    -0.088 N  
HETATM   24  S   UNL     1      -9.680   6.711  71.878  1.00  0.00    -0.150 SA 
HETATM   25  O   UNL     1      -8.396   3.514  70.170  1.00  0.00    -0.055 OA 
HETATM   26  O   UNL     1      -7.593   4.644  71.880  1.00  0.00    -0.083 OA 
ENDBRANCH  17  19
ENDBRANCH  15  17
ENDBRANCH  13  15
ENDBRANCH   3   8
ENDBRANCH   2   3
TORSDOF 7
ENDMDL
MODEL       91
REMARK 921   NORMALIZED FREE ENERGY PREDICTED BY IDOCK:   -4.69 KCAL/MOL
REMARK 922        TOTAL FREE ENERGY PREDICTED BY IDOCK:   -7.23 KCAL/MOL
REMARK 923 INTER-LIGAND FREE ENERGY PREDICTED BY IDOCK:   -6.43 KCAL/MOL
REMARK 924 INTRA-LIGAND FREE ENERGY PREDICTED BY IDOCK:   -0.80 KCAL/MOL
REMARK 927      BINDING AFFINITY PREDICTED BY RF-SCORE:    0.00 PKD
ROOT
HETATM    1  C   UNL     1     -10.337   5.234  70.247  1.00  0.00    -0.350 C  
HETATM    2  C   UNL     1      -9.080   6.092  70.228  1.00  0.00    -0.151 C  
ENDROOT
BRANCH   2   3
HETATM    3  N   UNL     1      -9.188   7.236  71.142  1.00  0.00    -0.156 NA 
BRANCH   3   4
HETATM    4  C   UNL     1      -8.362   7.245  72.360  1.00  0.00    -0.108 C  
BRANCH   4   5
HETATM    5  C   UNL     1      -9.070   6.514  73.514  1.00  0.00    -0.126 C  
HETATM    6  H   UNL     1      -9.856   6.962  75.278  1.00  0.00     0.000 HD 
HETATM    7  O   UNL     1      -9.420   7.413  74.565  1.00  0.00    -0.070 OA 
ENDBRANCH   4   5
ENDBRANCH   3   4
BRANCH   3   8
HETATM    8  C   UNL     1      -9.904   8.362  70.760  1.00  0.00    -0.182 A  
HETATM    9  C   UNL     1     -10.326  10.420  67.587  1.00  0.00    -0.260 C  
HETATM   10  C   UNL     1     -10.823   8.998  71.602  1.00  0.00    -0.437 A  
HETATM   11  C   UNL     1     -11.569  10.109  71.175  1.00  0.00    -0.430 A  
HETATM   12  C   UNL     1      -9.757   8.896  69.474  1.00  0.00    -0.173 A  
HETATM   13  C   UNL     1     -11.444  10.605  69.871  1.00  0.00    -0.317 A  
HETATM   14  C   UNL     1     -10.527   9.980  69.011  1.00  0.00    -0.233 A  
BRANCH  13  15
HETATM   15  N   UNL     1     -12.143  11.743  69.421  1.00  0.00    -0.273 NA 
HETATM   16  H   UNL     1     -12.871  11.705  68.707  1.00  0.00     0.000 HD 
BRANCH  15  17
HETATM   17  N   UNL     1     -11.787  12.802  69.979  1.00  0.00    -0.479 NA 
HETATM   18  H   UNL     1     -11.694  12.897  70.991  1.00  0.00     0.000 HD 
BRANCH  17  19
HETATM   19  C   UNL     1     -11.535  13.822  69.107  1.00  0.00    -0.298 A  
HETATM   20  N   UNL     1     -11.666  13.820  67.788  1.00  0.00    -0.338 NA 
HETATM   21  C   UNL     1     -11.337  15.053  67.258  1.00  0.00    -0.332 A  
HETATM   22  C   UNL     1     -10.953  15.985  68.185  1.00  0.00    -0.339 A  
HETATM   23  N   UNL     1     -10.562  17.332  67.924  1.00  0.00    -0.379 N  
HETATM   24  S   UNL     1     -10.994  15.341  69.754  1.00  0.00    -0.305 SA 
HETATM   25  O   UNL     1     -10.581  17.692  66.739  1.00  0.00    -0.313 OA 
HETATM   26  O   UNL     1     -10.242  18.044  68.884  1.00  0.00    -0.379 OA 
ENDBRANCH  17  19
ENDBRANCH  15  17
ENDBRANCH  13  15
ENDBRANCH   3   8
ENDBRANCH   2   3
TORSDOF 7
ENDMDL
MODEL       92
REMARK 921   NORMALIZED FREE ENERGY PREDICTED BY IDOCK:   -4.68 KCAL/MOL
REMARK 922        TOTAL FREE ENERGY PREDICTED BY IDOCK:   -7.22 KCAL/MOL
REMARK 923 INTER-LIGAND FREE ENERGY PREDICTED BY IDOCK:   -6.81 KCAL/MOL
REMARK 924 INTRA-LIGAND FREE ENERGY PREDICTED BY IDOCK:   -0.42 KCAL/MOL
REMARK 927      BINDING AFFINITY PREDICTED BY RF-SCORE:    0.00 PKD
ROOT
HETATM    1  C   UNL     1      -8.358   8.657  64.772  1.00  0.00    -0.167 C  
HETATM    2  C   UNL     1      -8.088   9.906  65.598  1.00  0.00    -0.128 C  
ENDROOT
BRANCH   2   3
HETATM    3  N   UNL     1      -8.909   9.942  66.815  1.00  0.00    -0.134 NA 
BRANCH   3   4
HETATM    4  C   UNL     1      -8.689   8.914  67.844  1.00  0.00    -0.129 C  
BRANCH   4   5
HETATM    5  C   UNL     1     -10.003   8.198  68.200  1.00  0.00    -0.186 C  
HETATM    6  H   UNL     1     -11.565   7.429  67.251  1.00  0.00     0.000 HD 
HETATM    7  O   UNL     1     -10.754   7.872  67.032  1.00  0.00    -0.339 OA 
ENDBRANCH   4   5
ENDBRANCH   3   4
BRANCH   3   8
HETATM    8  C   UNL     1      -9.728  11.035  67.065  1.00  0.00    -0.182 A  
HETATM    9  C   UNL     1     -12.521  12.868  65.241  1.00  0.00    -0.552 C  
HETATM   10  C   UNL     1      -9.726  11.721  68.285  1.00  0.00    -0.199 A  
HETATM   11  C   UNL     1     -10.598  12.794  68.530  1.00  0.00    -0.270 A  
HETATM   12  C   UNL     1     -10.635  11.480  66.096  1.00  0.00    -0.314 A  
HETATM   13  C   UNL     1     -11.531  13.200  67.567  1.00  0.00    -0.328 A  
HETATM   14  C   UNL     1     -11.549  12.524  66.337  1.00  0.00    -0.449 A  
BRANCH  13  15
HETATM   15  N   UNL     1     -12.392  14.300  67.761  1.00  0.00    -0.578 NA 
HETATM   16  H   UNL     1     -13.294  14.391  67.294  1.00  0.00     0.000 HD 
BRANCH  15  17
HETATM   17  N   UNL     1     -11.944  15.151  68.557  1.00  0.00    -0.549 NA 
HETATM   18  H   UNL     1     -12.165  15.155  69.554  1.00  0.00     0.000 HD 
BRANCH  17  19
HETATM   19  C   UNL     1     -11.132  16.077  67.969  1.00  0.00    -0.334 A  
HETATM   20  N   UNL     1     -10.854  16.219  66.681  1.00  0.00    -0.189 NA 
HETATM   21  C   UNL     1     -10.006  17.291  66.474  1.00  0.00    -0.305 A  
HETATM   22  C   UNL     1      -9.643  17.956  67.616  1.00  0.00    -0.270 A  
HETATM   23  N   UNL     1      -8.785  19.092  67.701  1.00  0.00    -0.286 N  
HETATM   24  S   UNL     1     -10.356  17.254  68.986  1.00  0.00    -0.277 SA 
HETATM   25  O   UNL     1      -8.332  19.522  66.631  1.00  0.00    -0.286 OA 
HETATM   26  O   UNL     1      -8.559  19.572  68.820  1.00  0.00    -0.357 OA 
ENDBRANCH  17  19
ENDBRANCH  15  17
ENDBRANCH  13  15
ENDBRANCH   3   8
ENDBRANCH   2   3
TORSDOF 7
ENDMDL
MODEL       93
REMARK 921   NORMALIZED FREE ENERGY PREDICTED BY IDOCK:   -4.66 KCAL/MOL
REMARK 922        TOTAL FREE ENERGY PREDICTED BY IDOCK:   -7.19 KCAL/MOL
REMARK 923 INTER-LIGAND FREE ENERGY PREDICTED BY IDOCK:   -6.51 KCAL/MOL
REMARK 924 INTRA-LIGAND FREE ENERGY PREDICTED BY IDOCK:   -0.68 KCAL/MOL
REMARK 927      BINDING AFFINITY PREDICTED BY RF-SCORE:    0.00 PKD
ROOT
HETATM    1  C   UNL     1      -9.804  11.215  63.039  1.00  0.00    -0.368 C  
HETATM    2  C   UNL     1     -10.987  11.668  63.881  1.00  0.00    -0.407 C  
ENDROOT
BRANCH   2   3
HETATM    3  N   UNL     1     -10.554  12.352  65.106  1.00  0.00    -0.283 NA 
BRANCH   3   4
HETATM    4  C   UNL     1     -10.797  13.798  65.230  1.00  0.00    -0.324 C  
BRANCH   4   5
HETATM    5  C   UNL     1     -12.303  14.112  65.181  1.00  0.00    -0.451 C  
HETATM    6  H   UNL     1     -13.571  15.064  63.991  1.00  0.00     0.000 HD 
HETATM    7  O   UNL     1     -12.641  14.870  64.021  1.00  0.00    -0.832 OA 
ENDBRANCH   4   5
ENDBRANCH   3   4
BRANCH   3   8
HETATM    8  C   UNL     1     -10.107  11.611  66.192  1.00  0.00    -0.224 A  
HETATM    9  C   UNL     1      -7.049  11.604  68.459  1.00  0.00    -0.089 C  
HETATM   10  C   UNL     1     -10.881  10.617  66.802  1.00  0.00    -0.233 A  
HETATM   11  C   UNL     1     -10.424   9.915  67.929  1.00  0.00    -0.282 A  
HETATM   12  C   UNL     1      -8.849  11.861  66.754  1.00  0.00    -0.193 A  
HETATM   13  C   UNL     1      -9.182  10.206  68.507  1.00  0.00    -0.144 A  
HETATM   14  C   UNL     1      -8.391  11.200  67.910  1.00  0.00    -0.129 A  
BRANCH  13  15
HETATM   15  N   UNL     1      -8.672   9.492  69.611  1.00  0.00    -0.165 NA 
HETATM   16  H   UNL     1      -7.973   8.754  69.524  1.00  0.00     0.000 HD 
BRANCH  15  17
HETATM   17  N   UNL     1      -9.157   9.850  70.705  1.00  0.00    -0.341 NA 
HETATM   18  H   UNL     1      -8.999  10.772  71.112  1.00  0.00     0.000 HD 
BRANCH  17  19
HETATM   19  C   UNL     1      -9.920   8.890  71.304  1.00  0.00    -0.288 A  
HETATM   20  N   UNL     1     -11.083   9.037  71.922  1.00  0.00    -0.373 NA 
HETATM   21  C   UNL     1     -11.558   7.823  72.379  1.00  0.00    -0.356 A  
HETATM   22  C   UNL     1     -10.743   6.756  72.104  1.00  0.00    -0.220 A  
HETATM   23  N   UNL     1     -10.981   5.393  72.453  1.00  0.00    -0.244 N  
HETATM   24  S   UNL     1      -9.354   7.247  71.263  1.00  0.00    -0.154 SA 
HETATM   25  O   UNL     1     -12.035   5.155  73.058  1.00  0.00    -0.231 OA 
HETATM   26  O   UNL     1     -10.135   4.550  72.127  1.00  0.00    -0.183 OA 
ENDBRANCH  17  19
ENDBRANCH  15  17
ENDBRANCH  13  15
ENDBRANCH   3   8
ENDBRANCH   2   3
TORSDOF 7
ENDMDL
MODEL       94
REMARK 921   NORMALIZED FREE ENERGY PREDICTED BY IDOCK:   -4.64 KCAL/MOL
REMARK 922        TOTAL FREE ENERGY PREDICTED BY IDOCK:   -7.16 KCAL/MOL
REMARK 923 INTER-LIGAND FREE ENERGY PREDICTED BY IDOCK:   -6.66 KCAL/MOL
REMARK 924 INTRA-LIGAND FREE ENERGY PREDICTED BY IDOCK:   -0.50 KCAL/MOL
REMARK 927      BINDING AFFINITY PREDICTED BY RF-SCORE:    0.00 PKD
ROOT
HETATM    1  C   UNL     1      -8.087  10.533  64.733  1.00  0.00    -0.078 C  
HETATM    2  C   UNL     1      -9.550  10.629  64.327  1.00  0.00    -0.296 C  
ENDROOT
BRANCH   2   3
HETATM    3  N   UNL     1     -10.269  11.636  65.118  1.00  0.00    -0.262 NA 
BRANCH   3   4
HETATM    4  C   UNL     1     -10.746  12.853  64.444  1.00  0.00    -0.386 C  
BRANCH   4   5
HETATM    5  C   UNL     1     -12.117  12.619  63.785  1.00  0.00    -0.522 C  
HETATM    6  H   UNL     1     -13.454  13.661  62.756  1.00  0.00     0.000 HD 
HETATM    7  O   UNL     1     -12.607  13.804  63.162  1.00  0.00    -0.793 OA 
ENDBRANCH   4   5
ENDBRANCH   3   4
BRANCH   3   8
HETATM    8  C   UNL     1     -10.655  11.347  66.420  1.00  0.00    -0.263 A  
HETATM    9  C   UNL     1     -12.014  13.296  69.393  1.00  0.00    -0.356 C  
HETATM   10  C   UNL     1     -10.699  10.043  66.927  1.00  0.00    -0.211 A  
HETATM   11  C   UNL     1     -11.138   9.774  68.234  1.00  0.00    -0.158 A  
HETATM   12  C   UNL     1     -11.059  12.371  67.285  1.00  0.00    -0.329 A  
HETATM   13  C   UNL     1     -11.581  10.804  69.073  1.00  0.00    -0.299 A  
HETATM   14  C   UNL     1     -11.546  12.118  68.583  1.00  0.00    -0.372 A  
BRANCH  13  15
HETATM   15  N   UNL     1     -11.988  10.577  70.404  1.00  0.00    -0.307 NA 
HETATM   16  H   UNL     1     -12.961  10.621  70.706  1.00  0.00     0.000 HD 
BRANCH  15  17
HETATM   17  N   UNL     1     -11.043  10.316  71.178  1.00  0.00    -0.243 NA 
HETATM   18  H   UNL     1     -10.331  10.998  71.440  1.00  0.00     0.000 HD 
BRANCH  17  19
HETATM   19  C   UNL     1     -11.053   9.031  71.640  1.00  0.00    -0.363 A  
HETATM   20  N   UNL     1     -11.960   8.447  72.408  1.00  0.00    -0.389 NA 
HETATM   21  C   UNL     1     -11.632   7.124  72.642  1.00  0.00    -0.188 A  
HETATM   22  C   UNL     1     -10.468   6.715  72.046  1.00  0.00    -0.204 A  
HETATM   23  N   UNL     1      -9.891   5.413  72.115  1.00  0.00    -0.166 N  
HETATM   24  S   UNL     1      -9.750   7.980  71.174  1.00  0.00    -0.162 SA 
HETATM   25  O   UNL     1     -10.512   4.568  72.774  1.00  0.00    -0.186 OA 
HETATM   26  O   UNL     1      -8.827   5.213  71.515  1.00  0.00    -0.130 OA 
ENDBRANCH  17  19
ENDBRANCH  15  17
ENDBRANCH  13  15
ENDBRANCH   3   8
ENDBRANCH   2   3
TORSDOF 7
ENDMDL
MODEL       95
REMARK 921   NORMALIZED FREE ENERGY PREDICTED BY IDOCK:   -4.62 KCAL/MOL
REMARK 922        TOTAL FREE ENERGY PREDICTED BY IDOCK:   -7.14 KCAL/MOL
REMARK 923 INTER-LIGAND FREE ENERGY PREDICTED BY IDOCK:   -6.65 KCAL/MOL
REMARK 924 INTRA-LIGAND FREE ENERGY PREDICTED BY IDOCK:   -0.49 KCAL/MOL
REMARK 927      BINDING AFFINITY PREDICTED BY RF-SCORE:    0.00 PKD
ROOT
HETATM    1  C   UNL     1      -8.280   4.395  71.469  1.00  0.00    -0.092 C  
HETATM    2  C   UNL     1      -9.616   4.390  70.740  1.00  0.00    -0.188 C  
ENDROOT
BRANCH   2   3
HETATM    3  N   UNL     1      -9.804   5.608  69.942  1.00  0.00    -0.176 NA 
BRANCH   3   4
HETATM    4  C   UNL     1      -9.406   5.590  68.525  1.00  0.00    -0.121 C  
BRANCH   4   5
HETATM    5  C   UNL     1      -9.420   4.157  67.964  1.00  0.00    -0.160 C  
HETATM    6  H   UNL     1      -8.288   3.021  66.800  1.00  0.00     0.000 HD 
HETATM    7  O   UNL     1      -8.279   3.905  67.146  1.00  0.00    -0.098 OA 
ENDBRANCH   4   5
ENDBRANCH   3   4
BRANCH   3   8
HETATM    8  C   UNL     1     -10.522   6.675  70.465  1.00  0.00    -0.203 A  
HETATM    9  C   UNL     1     -14.123   7.335  71.505  1.00  0.00    -0.515 C  
HETATM   10  C   UNL     1      -9.920   7.878  70.848  1.00  0.00    -0.196 A  
HETATM   11  C   UNL     1     -10.661   8.925  71.419  1.00  0.00    -0.382 A  
HETATM   12  C   UNL     1     -11.903   6.571  70.668  1.00  0.00    -0.398 A  
HETATM   13  C   UNL     1     -12.035   8.792  71.657  1.00  0.00    -0.332 A  
HETATM   14  C   UNL     1     -12.657   7.591  71.280  1.00  0.00    -0.345 A  
BRANCH  13  15
HETATM   15  N   UNL     1     -12.819   9.836  72.187  1.00  0.00    -0.383 NA 
HETATM   16  H   UNL     1     -12.871  10.044  73.184  1.00  0.00     0.000 HD 
BRANCH  15  17
HETATM   17  N   UNL     1     -13.445  10.482  71.320  1.00  0.00    -0.180 NA 
HETATM   18  H   UNL     1     -14.204  10.084  70.767  1.00  0.00     0.000 HD 
BRANCH  17  19
HETATM   19  C   UNL     1     -13.015  11.770  71.182  1.00  0.00    -0.187 A  
HETATM   20  N   UNL     1     -12.158  12.256  70.296  1.00  0.00    -0.336 NA 
HETATM   21  C   UNL     1     -11.996  13.618  70.461  1.00  0.00    -0.280 A  
HETATM   22  C   UNL     1     -12.735  14.158  71.481  1.00  0.00    -0.358 A  
HETATM   23  N   UNL     1     -12.765  15.529  71.874  1.00  0.00    -0.385 N  
HETATM   24  S   UNL     1     -13.656  12.970  72.265  1.00  0.00    -0.445 SA 
HETATM   25  O   UNL     1     -12.056  16.306  71.220  1.00  0.00    -0.372 OA 
HETATM   26  O   UNL     1     -13.492  15.848  72.824  1.00  0.00    -0.519 OA 
ENDBRANCH  17  19
ENDBRANCH  15  17
ENDBRANCH  13  15
ENDBRANCH   3   8
ENDBRANCH   2   3
TORSDOF 7
ENDMDL
MODEL       96
REMARK 921   NORMALIZED FREE ENERGY PREDICTED BY IDOCK:   -4.59 KCAL/MOL
REMARK 922        TOTAL FREE ENERGY PREDICTED BY IDOCK:   -7.10 KCAL/MOL
REMARK 923 INTER-LIGAND FREE ENERGY PREDICTED BY IDOCK:   -6.53 KCAL/MOL
REMARK 924 INTRA-LIGAND FREE ENERGY PREDICTED BY IDOCK:   -0.57 KCAL/MOL
REMARK 927      BINDING AFFINITY PREDICTED BY RF-SCORE:    0.00 PKD
ROOT
HETATM    1  C   UNL     1     -10.369  18.712  66.207  1.00  0.00    -0.483 C  
HETATM    2  C   UNL     1     -10.630  17.290  65.734  1.00  0.00    -0.194 C  
ENDROOT
BRANCH   2   3
HETATM    3  N   UNL     1     -10.569  16.329  66.843  1.00  0.00    -0.299 NA 
BRANCH   3   4
HETATM    4  C   UNL     1     -10.757  16.823  68.216  1.00  0.00    -0.364 C  
BRANCH   4   5
HETATM    5  C   UNL     1     -11.764  15.951  68.985  1.00  0.00    -0.370 C  
HETATM    6  H   UNL     1     -11.834  14.934  70.685  1.00  0.00     0.000 HD 
HETATM    7  O   UNL     1     -11.213  15.472  70.210  1.00  0.00    -0.269 OA 
ENDBRANCH   4   5
ENDBRANCH   3   4
BRANCH   3   8
HETATM    8  C   UNL     1     -10.532  14.967  66.577  1.00  0.00    -0.297 A  
HETATM    9  C   UNL     1     -12.488  12.523  64.412  1.00  0.00    -0.530 C  
HETATM   10  C   UNL     1      -9.539  14.121  67.084  1.00  0.00    -0.244 A  
HETATM   11  C   UNL     1      -9.498  12.755  66.761  1.00  0.00    -0.243 A  
HETATM   12  C   UNL     1     -11.490  14.379  65.742  1.00  0.00    -0.335 A  
HETATM   13  C   UNL     1     -10.437  12.190  65.889  1.00  0.00    -0.254 A  
HETATM   14  C   UNL     1     -11.441  13.022  65.370  1.00  0.00    -0.344 A  
BRANCH  13  15
HETATM   15  N   UNL     1     -10.453  10.815  65.577  1.00  0.00    -0.230 NA 
HETATM   16  H   UNL     1     -11.158  10.387  64.979  1.00  0.00     0.000 HD 
BRANCH  15  17
HETATM   17  N   UNL     1      -9.520  10.172  66.104  1.00  0.00    -0.177 NA 
HETATM   18  H   UNL     1      -8.535  10.399  65.962  1.00  0.00     0.000 HD 
BRANCH  17  19
HETATM   19  C   UNL     1      -9.944   9.137  66.886  1.00  0.00    -0.238 A  
HETATM   20  N   UNL     1      -9.983   7.847  66.584  1.00  0.00    -0.256 NA 
HETATM   21  C   UNL     1     -10.452   7.104  67.651  1.00  0.00    -0.239 A  
HETATM   22  C   UNL     1     -10.771   7.843  68.760  1.00  0.00    -0.051 A  
HETATM   23  N   UNL     1     -11.274   7.343  69.998  1.00  0.00    -0.223 N  
HETATM   24  S   UNL     1     -10.490   9.495  68.497  1.00  0.00    -0.212 SA 
HETATM   25  O   UNL     1     -11.429   6.116  70.075  1.00  0.00    -0.406 OA 
HETATM   26  O   UNL     1     -11.512   8.154  70.902  1.00  0.00    -0.272 OA 
ENDBRANCH  17  19
ENDBRANCH  15  17
ENDBRANCH  13  15
ENDBRANCH   3   8
ENDBRANCH   2   3
TORSDOF 7
ENDMDL
MODEL       97
REMARK 921   NORMALIZED FREE ENERGY PREDICTED BY IDOCK:   -4.58 KCAL/MOL
REMARK 922        TOTAL FREE ENERGY PREDICTED BY IDOCK:   -7.08 KCAL/MOL
REMARK 923 INTER-LIGAND FREE ENERGY PREDICTED BY IDOCK:   -6.67 KCAL/MOL
REMARK 924 INTRA-LIGAND FREE ENERGY PREDICTED BY IDOCK:   -0.41 KCAL/MOL
REMARK 927      BINDING AFFINITY PREDICTED BY RF-SCORE:    0.00 PKD
ROOT
HETATM    1  C   UNL     1     -11.396   6.343  69.845  1.00  0.00    -0.500 C  
HETATM    2  C   UNL     1     -10.203   7.276  69.701  1.00  0.00    -0.211 C  
ENDROOT
BRANCH   2   3
HETATM    3  N   UNL     1     -10.553   8.662  70.038  1.00  0.00    -0.224 NA 
BRANCH   3   4
HETATM    4  C   UNL     1     -11.031   8.958  71.397  1.00  0.00    -0.310 C  
BRANCH   4   5
HETATM    5  C   UNL     1     -12.343   9.762  71.359  1.00  0.00    -0.388 C  
HETATM    6  H   UNL     1     -14.033   9.872  72.390  1.00  0.00     0.000 HD 
HETATM    7  O   UNL     1     -13.223   9.376  72.413  1.00  0.00    -0.434 OA 
ENDBRANCH   4   5
ENDBRANCH   3   4
BRANCH   3   8
HETATM    8  C   UNL     1     -10.248   9.687  69.153  1.00  0.00    -0.202 A  
HETATM    9  C   UNL     1      -7.314  12.035  68.551  1.00  0.00    -0.111 C  
HETATM   10  C   UNL     1     -11.081  10.040  68.085  1.00  0.00    -0.252 A  
HETATM   11  C   UNL     1     -10.728  11.050  67.176  1.00  0.00    -0.313 A  
HETATM   12  C   UNL     1      -9.050  10.401  69.276  1.00  0.00    -0.188 A  
HETATM   13  C   UNL     1      -9.506  11.726  67.285  1.00  0.00    -0.170 A  
HETATM   14  C   UNL     1      -8.656  11.385  68.349  1.00  0.00    -0.156 A  
BRANCH  13  15
HETATM   15  N   UNL     1      -9.137  12.774  66.418  1.00  0.00    -0.411 NA 
HETATM   16  H   UNL     1      -8.263  12.781  65.891  1.00  0.00     0.000 HD 
BRANCH  15  17
HETATM   17  N   UNL     1      -9.981  13.692  66.356  1.00  0.00    -0.289 NA 
HETATM   18  H   UNL     1     -10.473  13.942  65.498  1.00  0.00     0.000 HD 
BRANCH  17  19
HETATM   19  C   UNL     1     -10.182  14.331  67.546  1.00  0.00    -0.240 A  
HETATM   20  N   UNL     1      -9.305  15.019  68.262  1.00  0.00    -0.187 NA 
HETATM   21  C   UNL     1      -9.895  15.539  69.398  1.00  0.00    -0.283 A  
HETATM   22  C   UNL     1     -11.224  15.235  69.537  1.00  0.00    -0.281 A  
HETATM   23  N   UNL     1     -12.080  15.636  70.605  1.00  0.00    -0.381 N  
HETATM   24  S   UNL     1     -11.773  14.286  68.243  1.00  0.00    -0.343 SA 
HETATM   25  O   UNL     1     -11.568  16.337  71.489  1.00  0.00    -0.457 OA 
HETATM   26  O   UNL     1     -13.263  15.271  70.575  1.00  0.00    -0.342 OA 
ENDBRANCH  17  19
ENDBRANCH  15  17
ENDBRANCH  13  15
ENDBRANCH   3   8
ENDBRANCH   2   3
TORSDOF 7
ENDMDL
MODEL       98
REMARK 921   NORMALIZED FREE ENERGY PREDICTED BY IDOCK:   -4.55 KCAL/MOL
REMARK 922        TOTAL FREE ENERGY PREDICTED BY IDOCK:   -7.04 KCAL/MOL
REMARK 923 INTER-LIGAND FREE ENERGY PREDICTED BY IDOCK:   -6.49 KCAL/MOL
REMARK 924 INTRA-LIGAND FREE ENERGY PREDICTED BY IDOCK:   -0.56 KCAL/MOL
REMARK 927      BINDING AFFINITY PREDICTED BY RF-SCORE:    0.00 PKD
ROOT
HETATM    1  C   UNL     1     -14.374  15.261  72.129  1.00  0.00    -0.651 C  
HETATM    2  C   UNL     1     -13.048  14.530  72.275  1.00  0.00    -0.374 C  
ENDROOT
BRANCH   2   3
HETATM    3  N   UNL     1     -12.595  13.963  70.998  1.00  0.00    -0.353 NA 
BRANCH   3   4
HETATM    4  C   UNL     1     -12.128  14.880  69.947  1.00  0.00    -0.332 C  
BRANCH   4   5
HETATM    5  C   UNL     1     -10.973  15.761  70.454  1.00  0.00    -0.355 C  
HETATM    6  H   UNL     1      -9.029  15.973  70.126  1.00  0.00     0.000 HD 
HETATM    7  O   UNL     1      -9.742  15.429  69.813  1.00  0.00    -0.272 OA 
ENDBRANCH   4   5
ENDBRANCH   3   4
BRANCH   3   8
HETATM    8  C   UNL     1     -12.430  12.591  70.869  1.00  0.00    -0.269 A  
HETATM    9  C   UNL     1     -13.764   9.475  72.600  1.00  0.00    -0.255 C  
HETATM   10  C   UNL     1     -11.676  12.011  69.843  1.00  0.00    -0.374 A  
HETATM   11  C   UNL     1     -11.563  10.618  69.708  1.00  0.00    -0.385 A  
HETATM   12  C   UNL     1     -13.056  11.712  71.762  1.00  0.00    -0.487 A  
HETATM   13  C   UNL     1     -12.231   9.750  70.581  1.00  0.00    -0.202 A  
HETATM   14  C   UNL     1     -12.993  10.313  71.617  1.00  0.00    -0.570 A  
BRANCH  13  15
HETATM   15  N   UNL     1     -12.106   8.348  70.502  1.00  0.00    -0.482 NA 
HETATM   16  H   UNL     1     -12.673   7.771  69.882  1.00  0.00     0.000 HD 
BRANCH  15  17
HETATM   17  N   UNL     1     -11.234   7.880  71.265  1.00  0.00    -0.251 NA 
HETATM   18  H   UNL     1     -11.426   7.600  72.227  1.00  0.00     0.000 HD 
BRANCH  17  19
HETATM   19  C   UNL     1     -10.001   7.779  70.688  1.00  0.00    -0.186 A  
HETATM   20  N   UNL     1      -9.653   7.076  69.621  1.00  0.00    -0.151 NA 
HETATM   21  C   UNL     1      -8.314   7.249  69.330  1.00  0.00    -0.132 A  
HETATM   22  C   UNL     1      -7.650   8.086  70.188  1.00  0.00    -0.081 A  
HETATM   23  N   UNL     1      -6.271   8.445  70.129  1.00  0.00    -0.031 N  
HETATM   24  S   UNL     1      -8.691   8.682  71.388  1.00  0.00    -0.216 SA 
HETATM   25  O   UNL     1      -5.613   7.954  69.201  1.00  0.00    -0.031 OA 
HETATM   26  O   UNL     1      -5.830   9.217  70.990  1.00  0.00    -0.047 OA 
ENDBRANCH  17  19
ENDBRANCH  15  17
ENDBRANCH  13  15
ENDBRANCH   3   8
ENDBRANCH   2   3
TORSDOF 7
ENDMDL
MODEL       99
REMARK 921   NORMALIZED FREE ENERGY PREDICTED BY IDOCK:   -4.55 KCAL/MOL
REMARK 922        TOTAL FREE ENERGY PREDICTED BY IDOCK:   -7.03 KCAL/MOL
REMARK 923 INTER-LIGAND FREE ENERGY PREDICTED BY IDOCK:   -6.35 KCAL/MOL
REMARK 924 INTRA-LIGAND FREE ENERGY PREDICTED BY IDOCK:   -0.69 KCAL/MOL
REMARK 927      BINDING AFFINITY PREDICTED BY RF-SCORE:    0.00 PKD
ROOT
HETATM    1  C   UNL     1     -10.174  19.945  67.833  1.00  0.00    -0.571 C  
HETATM    2  C   UNL     1      -9.650  19.762  66.417  1.00  0.00    -0.411 C  
ENDROOT
BRANCH   2   3
HETATM    3  N   UNL     1      -8.688  18.655  66.332  1.00  0.00    -0.372 NA 
BRANCH   3   4
HETATM    4  C   UNL     1      -7.251  18.970  66.307  1.00  0.00    -0.248 C  
BRANCH   4   5
HETATM    5  C   UNL     1      -6.991  20.312  65.600  1.00  0.00    -0.266 C  
HETATM    6  H   UNL     1      -6.622  20.961  63.763  1.00  0.00     0.000 HD 
HETATM    7  O   UNL     1      -6.783  20.133  64.200  1.00  0.00    -0.215 OA 
ENDBRANCH   4   5
ENDBRANCH   3   4
BRANCH   3   8
HETATM    8  C   UNL     1      -9.126  17.345  66.471  1.00  0.00    -0.266 A  
HETATM    9  C   UNL     1      -8.368  14.410  68.773  1.00  0.00    -0.126 C  
HETATM   10  C   UNL     1     -10.169  16.808  65.707  1.00  0.00    -0.311 A  
HETATM   11  C   UNL     1     -10.624  15.494  65.900  1.00  0.00    -0.350 A  
HETATM   12  C   UNL     1      -8.552  16.501  67.429  1.00  0.00    -0.193 A  
HETATM   13  C   UNL     1     -10.070  14.676  66.892  1.00  0.00    -0.255 A  
HETATM   14  C   UNL     1      -9.023  15.196  67.670  1.00  0.00    -0.183 A  
BRANCH  13  15
HETATM   15  N   UNL     1     -10.471  13.338  67.086  1.00  0.00    -0.247 NA 
HETATM   16  H   UNL     1      -9.979  12.543  66.679  1.00  0.00     0.000 HD 
BRANCH  15  17
HETATM   17  N   UNL     1     -11.487  13.220  67.802  1.00  0.00    -0.298 NA 
HETATM   18  H   UNL     1     -12.241  13.908  67.821  1.00  0.00     0.000 HD 
BRANCH  17  19
HETATM   19  C   UNL     1     -11.494  12.083  68.558  1.00  0.00    -0.293 A  
HETATM   20  N   UNL     1     -10.818  10.962  68.353  1.00  0.00    -0.204 NA 
HETATM   21  C   UNL     1     -11.070  10.043  69.354  1.00  0.00    -0.223 A  
HETATM   22  C   UNL     1     -11.945  10.477  70.315  1.00  0.00    -0.325 A  
HETATM   23  N   UNL     1     -12.384   9.744  71.457  1.00  0.00    -0.378 N  
HETATM   24  S   UNL     1     -12.479  12.054  69.990  1.00  0.00     0.086 SA 
HETATM   25  O   UNL     1     -11.918   8.605  71.594  1.00  0.00    -0.290 OA 
HETATM   26  O   UNL     1     -13.184  10.289  72.229  1.00  0.00    -0.409 OA 
ENDBRANCH  17  19
ENDBRANCH  15  17
ENDBRANCH  13  15
ENDBRANCH   3   8
ENDBRANCH   2   3
TORSDOF 7
ENDMDL
MODEL      100
REMARK 921   NORMALIZED FREE ENERGY PREDICTED BY IDOCK:   -4.52 KCAL/MOL
REMARK 922        TOTAL FREE ENERGY PREDICTED BY IDOCK:   -7.00 KCAL/MOL
REMARK 923 INTER-LIGAND FREE ENERGY PREDICTED BY IDOCK:   -6.37 KCAL/MOL
REMARK 924 INTRA-LIGAND FREE ENERGY PREDICTED BY IDOCK:   -0.63 KCAL/MOL
REMARK 927      BINDING AFFINITY PREDICTED BY RF-SCORE:    0.00 PKD
ROOT
HETATM    1  C   UNL     1     -13.756   6.819  71.348  1.00  0.00    -0.098 C  
HETATM    2  C   UNL     1     -12.404   7.401  71.733  1.00  0.00    -0.333 C  
ENDROOT
BRANCH   2   3
HETATM    3  N   UNL     1     -11.429   7.279  70.641  1.00  0.00    -0.290 NA 
BRANCH   3   4
HETATM    4  C   UNL     1     -10.813   5.966  70.390  1.00  0.00    -0.308 C  
BRANCH   4   5
HETATM    5  C   UNL     1     -10.194   5.390  71.675  1.00  0.00    -0.209 C  
HETATM    6  H   UNL     1     -10.385   3.772  72.805  1.00  0.00     0.000 HD 
HETATM    7  O   UNL     1     -10.767   4.128  72.011  1.00  0.00     0.009 OA 
ENDBRANCH   4   5
ENDBRANCH   3   4
BRANCH   3   8
HETATM    8  C   UNL     1     -11.250   8.330  69.752  1.00  0.00     0.036 A  
HETATM    9  C   UNL     1      -9.873   8.762  66.230  1.00  0.00    -0.342 C  
HETATM   10  C   UNL     1     -11.703   9.628  70.011  1.00  0.00    -0.074 A  
HETATM   11  C   UNL     1     -11.550  10.663  69.075  1.00  0.00    -0.332 A  
HETATM   12  C   UNL     1     -10.626   8.117  68.517  1.00  0.00    -0.142 A  
HETATM   13  C   UNL     1     -10.963  10.427  67.825  1.00  0.00    -0.309 A  
HETATM   14  C   UNL     1     -10.503   9.130  67.546  1.00  0.00    -0.335 A  
BRANCH  13  15
HETATM   15  N   UNL     1     -10.754  11.449  66.878  1.00  0.00    -0.252 NA 
HETATM   16  H   UNL     1      -9.862  11.601  66.408  1.00  0.00     0.000 HD 
BRANCH  15  17
HETATM   17  N   UNL     1     -11.766  12.153  66.670  1.00  0.00    -0.562 NA 
HETATM   18  H   UNL     1     -12.638  11.779  66.295  1.00  0.00     0.000 HD 
BRANCH  17  19
HETATM   19  C   UNL     1     -11.593  13.468  66.992  1.00  0.00    -0.359 A  
HETATM   20  N   UNL     1     -11.895  14.077  68.129  1.00  0.00    -0.357 NA 
HETATM   21  C   UNL     1     -11.545  15.413  68.081  1.00  0.00    -0.319 A  
HETATM   22  C   UNL     1     -10.981  15.810  66.897  1.00  0.00    -0.207 A  
HETATM   23  N   UNL     1     -10.527  17.122  66.570  1.00  0.00    -0.292 N  
HETATM   24  S   UNL     1     -10.870  14.515  65.807  1.00  0.00    -0.330 SA 
HETATM   25  O   UNL     1     -10.650  17.984  67.451  1.00  0.00    -0.386 OA 
HETATM   26  O   UNL     1     -10.039  17.309  65.447  1.00  0.00    -0.574 OA 
ENDBRANCH  17  19
ENDBRANCH  15  17
ENDBRANCH  13  15
ENDBRANCH   3   8
ENDBRANCH   2   3
TORSDOF 7
ENDMDL
MODEL      101
REMARK 921   NORMALIZED FREE ENERGY PREDICTED BY IDOCK:   -4.51 KCAL/MOL
REMARK 922        TOTAL FREE ENERGY PREDICTED BY IDOCK:   -6.98 KCAL/MOL
REMARK 923 INTER-LIGAND FREE ENERGY PREDICTED BY IDOCK:   -6.75 KCAL/MOL
REMARK 924 INTRA-LIGAND FREE ENERGY PREDICTED BY IDOCK:   -0.23 KCAL/MOL
REMARK 927      BINDING AFFINITY PREDICTED BY RF-SCORE:    0.00 PKD
ROOT
HETATM    1  C   UNL     1      -6.851   8.863  68.067  1.00  0.00    -0.070 C  
HETATM    2  C   UNL     1      -6.986   7.666  67.138  1.00  0.00    -0.080 C  
ENDROOT
BRANCH   2   3
HETATM    3  N   UNL     1      -8.309   7.617  66.502  1.00  0.00    -0.124 NA 
BRANCH   3   4
HETATM    4  C   UNL     1      -8.739   6.363  65.864  1.00  0.00    -0.145 C  
BRANCH   4   5
HETATM    5  C   UNL     1      -9.844   5.675  66.685  1.00  0.00    -0.167 C  
HETATM    6  H   UNL     1     -11.536   4.697  66.348  1.00  0.00     0.000 HD 
HETATM    7  O   UNL     1     -10.853   5.122  65.842  1.00  0.00    -0.208 OA 
ENDBRANCH   4   5
ENDBRANCH   3   4
BRANCH   3   8
HETATM    8  C   UNL     1      -9.200   8.667  66.677  1.00  0.00    -0.181 A  
HETATM    9  C   UNL     1     -10.601  11.484  64.535  1.00  0.00    -0.387 C  
HETATM   10  C   UNL     1      -9.933   8.853  67.855  1.00  0.00    -0.223 A  
HETATM   11  C   UNL     1     -10.863   9.896  67.988  1.00  0.00    -0.294 A  
HETATM   12  C   UNL     1      -9.433   9.581  65.642  1.00  0.00    -0.326 A  
HETATM   13  C   UNL     1     -11.118  10.777  66.930  1.00  0.00    -0.133 A  
HETATM   14  C   UNL     1     -10.394  10.606  65.739  1.00  0.00    -0.287 A  
BRANCH  13  15
HETATM   15  N   UNL     1     -12.012  11.861  67.042  1.00  0.00    -0.601 NA 
HETATM   16  H   UNL     1     -12.812  11.991  66.424  1.00  0.00     0.000 HD 
BRANCH  15  17
HETATM   17  N   UNL     1     -11.730  12.647  67.971  1.00  0.00    -0.341 NA 
HETATM   18  H   UNL     1     -11.861  12.418  68.956  1.00  0.00     0.000 HD 
BRANCH  17  19
HETATM   19  C   UNL     1     -11.231  13.843  67.542  1.00  0.00    -0.303 A  
HETATM   20  N   UNL     1     -10.296  14.590  68.111  1.00  0.00    -0.229 NA 
HETATM   21  C   UNL     1     -10.043  15.722  67.360  1.00  0.00    -0.246 A  
HETATM   22  C   UNL     1     -10.797  15.828  66.221  1.00  0.00    -0.232 A  
HETATM   23  N   UNL     1     -10.748  16.884  65.264  1.00  0.00    -0.241 N  
HETATM   24  S   UNL     1     -11.848  14.506  66.058  1.00  0.00    -0.292 SA 
HETATM   25  O   UNL     1      -9.933  17.791  65.485  1.00  0.00    -0.515 OA 
HETATM   26  O   UNL     1     -11.505  16.823  64.286  1.00  0.00    -1.125 OA 
ENDBRANCH  17  19
ENDBRANCH  15  17
ENDBRANCH  13  15
ENDBRANCH   3   8
ENDBRANCH   2   3
TORSDOF 7
ENDMDL
MODEL      102
REMARK 921   NORMALIZED FREE ENERGY PREDICTED BY IDOCK:   -4.50 KCAL/MOL
REMARK 922        TOTAL FREE ENERGY PREDICTED BY IDOCK:   -6.97 KCAL/MOL
REMARK 923 INTER-LIGAND FREE ENERGY PREDICTED BY IDOCK:   -6.36 KCAL/MOL
REMARK 924 INTRA-LIGAND FREE ENERGY PREDICTED BY IDOCK:   -0.61 KCAL/MOL
REMARK 927      BINDING AFFINITY PREDICTED BY RF-SCORE:    0.00 PKD
ROOT
HETATM    1  C   UNL     1     -11.824  16.032  68.410  1.00  0.00    -0.068 C  
HETATM    2  C   UNL     1     -10.960  15.099  67.574  1.00  0.00    -0.310 C  
ENDROOT
BRANCH   2   3
HETATM    3  N   UNL     1     -11.729  13.954  67.068  1.00  0.00    -0.374 NA 
BRANCH   3   4
HETATM    4  C   UNL     1     -12.528  14.126  65.845  1.00  0.00    -0.453 C  
BRANCH   4   5
HETATM    5  C   UNL     1     -11.694  14.776  64.727  1.00  0.00    -0.422 C  
HETATM    6  H   UNL     1     -11.993  15.972  63.173  1.00  0.00     0.000 HD 
HETATM    7  O   UNL     1     -12.507  15.570  63.864  1.00  0.00    -0.656 OA 
ENDBRANCH   4   5
ENDBRANCH   3   4
BRANCH   3   8
HETATM    8  C   UNL     1     -11.542  12.695  67.624  1.00  0.00    -0.357 A  
HETATM    9  C   UNL     1     -12.283  11.011  70.956  1.00  0.00    -0.456 C  
HETATM   10  C   UNL     1     -11.037  11.612  66.896  1.00  0.00    -0.365 A  
HETATM   11  C   UNL     1     -10.902  10.337  67.469  1.00  0.00    -0.355 A  
HETATM   12  C   UNL     1     -11.895  12.447  68.956  1.00  0.00    -0.349 A  
HETATM   13  C   UNL     1     -11.301  10.092  68.789  1.00  0.00    -0.115 A  
HETATM   14  C   UNL     1     -11.810  11.166  69.536  1.00  0.00    -0.423 A  
BRANCH  13  15
HETATM   15  N   UNL     1     -11.140   8.837  69.411  1.00  0.00    -0.436 NA 
HETATM   16  H   UNL     1     -11.912   8.318  69.828  1.00  0.00     0.000 HD 
BRANCH  15  17
HETATM   17  N   UNL     1      -9.962   8.422  69.404  1.00  0.00    -0.186 NA 
HETATM   18  H   UNL     1      -9.192   8.917  69.855  1.00  0.00     0.000 HD 
BRANCH  17  19
HETATM   19  C   UNL     1      -9.802   7.244  68.734  1.00  0.00    -0.161 A  
HETATM   20  N   UNL     1     -10.476   6.115  68.894  1.00  0.00    -0.210 NA 
HETATM   21  C   UNL     1     -10.038   5.148  68.009  1.00  0.00    -0.128 A  
HETATM   22  C   UNL     1      -9.025   5.554  67.181  1.00  0.00    -0.112 A  
HETATM   23  N   UNL     1      -8.384   4.771  66.176  1.00  0.00    -0.111 N  
HETATM   24  S   UNL     1      -8.591   7.165  67.489  1.00  0.00    -0.121 SA 
HETATM   25  O   UNL     1      -8.793   3.610  66.036  1.00  0.00    -0.116 OA 
HETATM   26  O   UNL     1      -7.479   5.297  65.514  1.00  0.00    -0.075 OA 
ENDBRANCH  17  19
ENDBRANCH  15  17
ENDBRANCH  13  15
ENDBRANCH   3   8
ENDBRANCH   2   3
TORSDOF 7
ENDMDL
MODEL      103
REMARK 921   NORMALIZED FREE ENERGY PREDICTED BY IDOCK:   -4.49 KCAL/MOL
REMARK 922        TOTAL FREE ENERGY PREDICTED BY IDOCK:   -6.96 KCAL/MOL
REMARK 923 INTER-LIGAND FREE ENERGY PREDICTED BY IDOCK:   -6.35 KCAL/MOL
REMARK 924 INTRA-LIGAND FREE ENERGY PREDICTED BY IDOCK:   -0.61 KCAL/MOL
REMARK 927      BINDING AFFINITY PREDICTED BY RF-SCORE:    0.00 PKD
ROOT
HETATM    1  C   UNL     1     -10.141   5.142  69.994  1.00  0.00    -0.345 C  
HETATM    2  C   UNL     1     -10.942   6.213  69.268  1.00  0.00    -0.381 C  
ENDROOT
BRANCH   2   3
HETATM    3  N   UNL     1     -10.072   7.133  68.525  1.00  0.00    -0.163 NA 
BRANCH   3   4
HETATM    4  C   UNL     1      -9.020   6.569  67.666  1.00  0.00    -0.114 C  
BRANCH   4   5
HETATM    5  C   UNL     1      -9.623   5.903  66.417  1.00  0.00    -0.146 C  
HETATM    6  H   UNL     1      -9.819   4.076  65.672  1.00  0.00     0.000 HD 
HETATM    7  O   UNL     1      -9.447   4.488  66.443  1.00  0.00    -0.145 OA 
ENDBRANCH   4   5
ENDBRANCH   3   4
BRANCH   3   8
HETATM    8  C   UNL     1     -10.370   8.489  68.486  1.00  0.00    -0.198 A  
HETATM    9  C   UNL     1     -10.660  11.176  65.806  1.00  0.00    -0.289 C  
HETATM   10  C   UNL     1     -10.771   9.210  69.616  1.00  0.00    -0.236 A  
HETATM   11  C   UNL     1     -11.112  10.570  69.541  1.00  0.00    -0.320 A  
HETATM   12  C   UNL     1     -10.316   9.194  67.278  1.00  0.00    -0.338 A  
HETATM   13  C   UNL     1     -11.096  11.252  68.318  1.00  0.00    -0.240 A  
HETATM   14  C   UNL     1     -10.697  10.546  67.172  1.00  0.00    -0.323 A  
BRANCH  13  15
HETATM   15  N   UNL     1     -11.390  12.627  68.211  1.00  0.00    -0.272 NA 
HETATM   16  H   UNL     1     -11.949  13.021  67.454  1.00  0.00     0.000 HD 
BRANCH  15  17
HETATM   17  N   UNL     1     -10.900  13.316  69.130  1.00  0.00    -0.423 NA 
HETATM   18  H   UNL     1     -10.936  13.044  70.112  1.00  0.00     0.000 HD 
BRANCH  17  19
HETATM   19  C   UNL     1     -10.311  14.468  68.694  1.00  0.00    -0.242 A  
HETATM   20  N   UNL     1      -9.338  15.158  69.272  1.00  0.00    -0.221 NA 
HETATM   21  C   UNL     1      -8.993  16.258  68.511  1.00  0.00    -0.219 A  
HETATM   22  C   UNL     1      -9.715  16.397  67.355  1.00  0.00    -0.238 A  
HETATM   23  N   UNL     1      -9.573  17.433  66.384  1.00  0.00    -0.279 N  
HETATM   24  S   UNL     1     -10.850  15.148  67.189  1.00  0.00    -0.324 SA 
HETATM   25  O   UNL     1      -8.702  18.284  66.610  1.00  0.00    -0.262 OA 
HETATM   26  O   UNL     1     -10.312  17.408  65.391  1.00  0.00    -0.631 OA 
ENDBRANCH  17  19
ENDBRANCH  15  17
ENDBRANCH  13  15
ENDBRANCH   3   8
ENDBRANCH   2   3
TORSDOF 7
ENDMDL
MODEL      104
REMARK 921   NORMALIZED FREE ENERGY PREDICTED BY IDOCK:   -4.49 KCAL/MOL
REMARK 922        TOTAL FREE ENERGY PREDICTED BY IDOCK:   -6.95 KCAL/MOL
REMARK 923 INTER-LIGAND FREE ENERGY PREDICTED BY IDOCK:   -6.22 KCAL/MOL
REMARK 924 INTRA-LIGAND FREE ENERGY PREDICTED BY IDOCK:   -0.73 KCAL/MOL
REMARK 927      BINDING AFFINITY PREDICTED BY RF-SCORE:    0.00 PKD
ROOT
HETATM    1  C   UNL     1      -7.328   4.464  67.564  1.00  0.00    -0.069 C  
HETATM    2  C   UNL     1      -8.594   3.770  67.083  1.00  0.00    -0.107 C  
ENDROOT
BRANCH   2   3
HETATM    3  N   UNL     1      -9.492   4.700  66.387  1.00  0.00    -0.151 NA 
BRANCH   3   4
HETATM    4  C   UNL     1     -10.043   4.303  65.082  1.00  0.00    -0.207 C  
BRANCH   4   5
HETATM    5  C   UNL     1      -8.928   4.155  64.032  1.00  0.00    -0.141 C  
HETATM    6  H   UNL     1      -7.770   5.335  62.937  1.00  0.00     0.000 HD 
HETATM    7  O   UNL     1      -8.459   5.426  63.585  1.00  0.00    -0.125 OA 
ENDBRANCH   4   5
ENDBRANCH   3   4
BRANCH   3   8
HETATM    8  C   UNL     1      -9.959   5.832  67.041  1.00  0.00    -0.165 A  
HETATM    9  C   UNL     1     -11.720   6.593  70.328  1.00  0.00    -0.432 C  
HETATM   10  C   UNL     1      -9.749   7.129  66.557  1.00  0.00    -0.199 A  
HETATM   11  C   UNL     1     -10.191   8.260  67.262  1.00  0.00    -0.344 A  
HETATM   12  C   UNL     1     -10.643   5.719  68.257  1.00  0.00    -0.286 A  
HETATM   13  C   UNL     1     -10.835   8.134  68.500  1.00  0.00     0.093 A  
HETATM   14  C   UNL     1     -11.054   6.842  69.002  1.00  0.00    -0.254 A  
BRANCH  13  15
HETATM   15  N   UNL     1     -11.330   9.243  69.214  1.00  0.00    -0.431 NA 
HETATM   16  H   UNL     1     -11.375   9.276  70.232  1.00  0.00     0.000 HD 
BRANCH  15  17
HETATM   17  N   UNL     1     -11.708  10.182  68.482  1.00  0.00    -0.645 NA 
HETATM   18  H   UNL     1     -11.835  10.088  67.474  1.00  0.00     0.000 HD 
BRANCH  17  19
HETATM   19  C   UNL     1     -11.935  11.346  69.158  1.00  0.00    -0.328 A  
HETATM   20  N   UNL     1     -12.282  11.498  70.428  1.00  0.00    -0.358 NA 
HETATM   21  C   UNL     1     -12.395  12.837  70.752  1.00  0.00    -0.287 A  
HETATM   22  C   UNL     1     -12.134  13.695  69.716  1.00  0.00    -0.334 A  
HETATM   23  N   UNL     1     -12.173  15.120  69.763  1.00  0.00    -0.308 N  
HETATM   24  S   UNL     1     -11.739  12.845  68.302  1.00  0.00    -0.346 SA 
HETATM   25  O   UNL     1     -12.465  15.628  70.854  1.00  0.00    -0.410 OA 
HETATM   26  O   UNL     1     -11.910  15.746  68.728  1.00  0.00    -0.387 OA 
ENDBRANCH  17  19
ENDBRANCH  15  17
ENDBRANCH  13  15
ENDBRANCH   3   8
ENDBRANCH   2   3
TORSDOF 7
ENDMDL
MODEL      105
REMARK 921   NORMALIZED FREE ENERGY PREDICTED BY IDOCK:   -4.49 KCAL/MOL
REMARK 922        TOTAL FREE ENERGY PREDICTED BY IDOCK:   -6.95 KCAL/MOL
REMARK 923 INTER-LIGAND FREE ENERGY PREDICTED BY IDOCK:   -6.35 KCAL/MOL
REMARK 924 INTRA-LIGAND FREE ENERGY PREDICTED BY IDOCK:   -0.61 KCAL/MOL
REMARK 927      BINDING AFFINITY PREDICTED BY RF-SCORE:    0.00 PKD
ROOT
HETATM    1  C   UNL     1     -11.523  16.077  68.896  1.00  0.00    -0.362 C  
HETATM    2  C   UNL     1     -10.294  16.481  68.095  1.00  0.00    -0.296 C  
ENDROOT
BRANCH   2   3
HETATM    3  N   UNL     1     -10.454  16.185  66.666  1.00  0.00    -0.305 NA 
BRANCH   3   4
HETATM    4  C   UNL     1     -10.405  17.298  65.705  1.00  0.00    -0.234 C  
BRANCH   4   5
HETATM    5  C   UNL     1     -10.072  18.624  66.412  1.00  0.00    -0.403 C  
HETATM    6  H   UNL     1      -8.579  19.926  66.473  1.00  0.00     0.000 HD 
HETATM    7  O   UNL     1      -8.784  19.108  66.037  1.00  0.00    -0.450 OA 
ENDBRANCH   4   5
ENDBRANCH   3   4
BRANCH   3   8
HETATM    8  C   UNL     1     -10.452  14.868  66.227  1.00  0.00    -0.302 A  
HETATM    9  C   UNL     1     -12.082  12.894  63.411  1.00  0.00    -0.610 C  
HETATM   10  C   UNL     1      -9.640  13.880  66.795  1.00  0.00    -0.288 A  
HETATM   11  C   UNL     1      -9.623  12.565  66.302  1.00  0.00    -0.246 A  
HETATM   12  C   UNL     1     -11.257  14.476  65.150  1.00  0.00    -0.367 A  
HETATM   13  C   UNL     1     -10.400  12.198  65.196  1.00  0.00    -0.279 A  
HETATM   14  C   UNL     1     -11.221  13.175  64.612  1.00  0.00    -0.366 A  
BRANCH  13  15
HETATM   15  N   UNL     1     -10.441  10.879  64.701  1.00  0.00    -0.337 NA 
HETATM   16  H   UNL     1     -11.306  10.350  64.594  1.00  0.00     0.000 HD 
BRANCH  15  17
HETATM   17  N   UNL     1      -9.317  10.420  64.406  1.00  0.00    -0.246 NA 
HETATM   18  H   UNL     1      -8.660  10.904  63.793  1.00  0.00     0.000 HD 
BRANCH  17  19
HETATM   19  C   UNL     1      -9.053   9.210  64.980  1.00  0.00    -0.156 A  
HETATM   20  N   UNL     1      -8.244   8.257  64.541  1.00  0.00    -0.157 NA 
HETATM   21  C   UNL     1      -8.223   7.186  65.415  1.00  0.00    -0.137 A  
HETATM   22  C   UNL     1      -9.024   7.337  66.516  1.00  0.00    -0.152 A  
HETATM   23  N   UNL     1      -9.195   6.398  67.576  1.00  0.00    -0.113 N  
HETATM   24  S   UNL     1      -9.830   8.829  66.487  1.00  0.00    -0.289 SA 
HETATM   25  O   UNL     1      -8.546   5.347  67.492  1.00  0.00    -0.109 OA 
HETATM   26  O   UNL     1      -9.964   6.695  68.501  1.00  0.00    -0.143 OA 
ENDBRANCH  17  19
ENDBRANCH  15  17
ENDBRANCH  13  15
ENDBRANCH   3   8
ENDBRANCH   2   3
TORSDOF 7
ENDMDL
MODEL      106
REMARK 921   NORMALIZED FREE ENERGY PREDICTED BY IDOCK:   -4.48 KCAL/MOL
REMARK 922        TOTAL FREE ENERGY PREDICTED BY IDOCK:   -6.94 KCAL/MOL
REMARK 923 INTER-LIGAND FREE ENERGY PREDICTED BY IDOCK:   -6.36 KCAL/MOL
REMARK 924 INTRA-LIGAND FREE ENERGY PREDICTED BY IDOCK:   -0.59 KCAL/MOL
REMARK 927      BINDING AFFINITY PREDICTED BY RF-SCORE:    0.00 PKD
ROOT
HETATM    1  C   UNL     1     -12.113  12.596  63.353  1.00  0.00    -0.614 C  
HETATM    2  C   UNL     1     -10.928  13.166  64.118  1.00  0.00    -0.390 C  
ENDROOT
BRANCH   2   3
HETATM    3  N   UNL     1     -11.130  13.090  65.571  1.00  0.00    -0.274 NA 
BRANCH   3   4
HETATM    4  C   UNL     1     -12.302  13.760  66.155  1.00  0.00    -0.452 C  
BRANCH   4   5
HETATM    5  C   UNL     1     -11.886  14.714  67.289  1.00  0.00    -0.351 C  
HETATM    6  H   UNL     1     -11.892  14.735  69.272  1.00  0.00     0.000 HD 
HETATM    7  O   UNL     1     -12.148  14.147  68.572  1.00  0.00    -0.342 OA 
ENDBRANCH   4   5
ENDBRANCH   3   4
BRANCH   3   8
HETATM    8  C   UNL     1     -10.342  12.241  66.336  1.00  0.00    -0.225 A  
HETATM    9  C   UNL     1     -10.355   8.550  67.264  1.00  0.00    -0.372 C  
HETATM   10  C   UNL     1      -9.145  12.651  66.935  1.00  0.00    -0.218 A  
HETATM   11  C   UNL     1      -8.343  11.760  67.665  1.00  0.00    -0.145 A  
HETATM   12  C   UNL     1     -10.704  10.900  66.511  1.00  0.00    -0.270 A  
HETATM   13  C   UNL     1      -8.695  10.411  67.795  1.00  0.00    -0.122 A  
HETATM   14  C   UNL     1      -9.891   9.980  67.200  1.00  0.00    -0.231 A  
BRANCH  13  15
HETATM   15  N   UNL     1      -7.937   9.498  68.556  1.00  0.00    -0.092 NA 
HETATM   16  H   UNL     1      -7.718   8.553  68.240  1.00  0.00     0.000 HD 
BRANCH  15  17
HETATM   17  N   UNL     1      -7.558   9.956  69.655  1.00  0.00    -0.118 NA 
HETATM   18  H   UNL     1      -6.939  10.762  69.740  1.00  0.00     0.000 HD 
BRANCH  17  19
HETATM   19  C   UNL     1      -8.051   9.274  70.730  1.00  0.00    -0.156 A  
HETATM   20  N   UNL     1      -7.374   8.693  71.709  1.00  0.00    -0.177 NA 
HETATM   21  C   UNL     1      -8.230   8.123  72.632  1.00  0.00    -0.170 A  
HETATM   22  C   UNL     1      -9.560   8.276  72.341  1.00  0.00    -0.294 A  
HETATM   23  N   UNL     1     -10.660   7.795  73.112  1.00  0.00    -0.374 N  
HETATM   24  S   UNL     1      -9.776   9.141  70.898  1.00  0.00    -0.286 SA 
HETATM   25  O   UNL     1     -10.378   7.185  74.153  1.00  0.00    -0.307 OA 
HETATM   26  O   UNL     1     -11.805   8.021  72.701  1.00  0.00    -0.377 OA 
ENDBRANCH  17  19
ENDBRANCH  15  17
ENDBRANCH  13  15
ENDBRANCH   3   8
ENDBRANCH   2   3
TORSDOF 7
ENDMDL
MODEL      107
REMARK 921   NORMALIZED FREE ENERGY PREDICTED BY IDOCK:   -4.48 KCAL/MOL
REMARK 922        TOTAL FREE ENERGY PREDICTED BY IDOCK:   -6.94 KCAL/MOL
REMARK 923 INTER-LIGAND FREE ENERGY PREDICTED BY IDOCK:   -6.34 KCAL/MOL
REMARK 924 INTRA-LIGAND FREE ENERGY PREDICTED BY IDOCK:   -0.60 KCAL/MOL
REMARK 927      BINDING AFFINITY PREDICTED BY RF-SCORE:    0.00 PKD
ROOT
HETATM    1  C   UNL     1     -11.942  15.414  70.830  1.00  0.00    -0.402 C  
HETATM    2  C   UNL     1     -12.265  16.004  69.465  1.00  0.00     0.019 C  
ENDROOT
BRANCH   2   3
HETATM    3  N   UNL     1     -11.066  16.122  68.626  1.00  0.00    -0.338 NA 
BRANCH   3   4
HETATM    4  C   UNL     1     -10.187  17.287  68.813  1.00  0.00    -0.353 C  
BRANCH   4   5
HETATM    5  C   UNL     1     -10.089  18.120  67.523  1.00  0.00    -0.349 C  
HETATM    6  H   UNL     1     -10.958  19.716  66.731  1.00  0.00     0.000 HD 
HETATM    7  O   UNL     1     -11.018  19.202  67.527  1.00  0.00    -0.456 OA 
ENDBRANCH   4   5
ENDBRANCH   3   4
BRANCH   3   8
HETATM    8  C   UNL     1     -10.678  15.061  67.819  1.00  0.00    -0.278 A  
HETATM    9  C   UNL     1     -12.327  12.820  65.222  1.00  0.00    -0.546 C  
HETATM   10  C   UNL     1      -9.356  14.607  67.747  1.00  0.00    -0.197 A  
HETATM   11  C   UNL     1      -8.981  13.562  66.888  1.00  0.00    -0.219 A  
HETATM   12  C   UNL     1     -11.610  14.413  67.000  1.00  0.00    -0.402 A  
HETATM   13  C   UNL     1      -9.916  12.951  66.042  1.00  0.00    -0.272 A  
HETATM   14  C   UNL     1     -11.247  13.394  66.099  1.00  0.00    -0.311 A  
BRANCH  13  15
HETATM   15  N   UNL     1      -9.585  11.871  65.199  1.00  0.00    -0.400 NA 
HETATM   16  H   UNL     1     -10.153  11.593  64.399  1.00  0.00     0.000 HD 
BRANCH  15  17
HETATM   17  N   UNL     1      -8.530  11.287  65.524  1.00  0.00    -0.381 NA 
HETATM   18  H   UNL     1      -7.617  11.526  65.137  1.00  0.00     0.000 HD 
BRANCH  17  19
HETATM   19  C   UNL     1      -8.716  10.298  66.447  1.00  0.00    -0.135 A  
HETATM   20  N   UNL     1      -8.114  10.150  67.618  1.00  0.00    -0.109 NA 
HETATM   21  C   UNL     1      -8.590   9.035  68.281  1.00  0.00    -0.130 A  
HETATM   22  C   UNL     1      -9.554   8.339  67.600  1.00  0.00    -0.152 A  
HETATM   23  N   UNL     1     -10.219   7.157  68.041  1.00  0.00    -0.176 N  
HETATM   24  S   UNL     1      -9.892   9.065  66.105  1.00  0.00    -0.228 SA 
HETATM   25  O   UNL     1      -9.895   6.725  69.155  1.00  0.00    -0.155 OA 
HETATM   26  O   UNL     1     -11.070   6.652  67.296  1.00  0.00    -0.370 OA 
ENDBRANCH  17  19
ENDBRANCH  15  17
ENDBRANCH  13  15
ENDBRANCH   3   8
ENDBRANCH   2   3
TORSDOF 7
ENDMDL
MODEL      108
REMARK 921   NORMALIZED FREE ENERGY PREDICTED BY IDOCK:   -4.46 KCAL/MOL
REMARK 922        TOTAL FREE ENERGY PREDICTED BY IDOCK:   -6.91 KCAL/MOL
REMARK 923 INTER-LIGAND FREE ENERGY PREDICTED BY IDOCK:   -6.37 KCAL/MOL
REMARK 924 INTRA-LIGAND FREE ENERGY PREDICTED BY IDOCK:   -0.53 KCAL/MOL
REMARK 927      BINDING AFFINITY PREDICTED BY RF-SCORE:    0.00 PKD
ROOT
HETATM    1  C   UNL     1     -10.266  20.305  68.354  1.00  0.00    -0.340 C  
HETATM    2  C   UNL     1      -9.720  18.896  68.528  1.00  0.00    -0.387 C  
ENDROOT
BRANCH   2   3
HETATM    3  N   UNL     1      -9.379  18.281  67.239  1.00  0.00    -0.254 NA 
BRANCH   3   4
HETATM    4  C   UNL     1      -8.310  18.887  66.430  1.00  0.00    -0.296 C  
BRANCH   4   5
HETATM    5  C   UNL     1      -6.934  18.310  66.810  1.00  0.00    -0.196 C  
HETATM    6  H   UNL     1      -5.504  18.665  68.136  1.00  0.00     0.000 HD 
HETATM    7  O   UNL     1      -6.353  19.021  67.901  1.00  0.00    -0.207 OA 
ENDBRANCH   4   5
ENDBRANCH   3   4
BRANCH   3   8
HETATM    8  C   UNL     1      -9.920  17.050  66.894  1.00  0.00    -0.289 A  
HETATM    9  C   UNL     1     -12.273  14.523  68.496  1.00  0.00    -0.164 C  
HETATM   10  C   UNL     1      -9.728  16.461  65.639  1.00  0.00    -0.165 A  
HETATM   11  C   UNL     1     -10.325  15.236  65.300  1.00  0.00    -0.430 A  
HETATM   12  C   UNL     1     -10.729  16.351  67.798  1.00  0.00    -0.328 A  
HETATM   13  C   UNL     1     -11.168  14.570  66.199  1.00  0.00    -0.339 A  
HETATM   14  C   UNL     1     -11.374  15.145  67.462  1.00  0.00    -0.325 A  
BRANCH  13  15
HETATM   15  N   UNL     1     -11.749  13.319  65.909  1.00  0.00    -0.348 NA 
HETATM   16  H   UNL     1     -12.689  13.058  66.207  1.00  0.00     0.000 HD 
BRANCH  15  17
HETATM   17  N   UNL     1     -11.004  12.560  65.253  1.00  0.00    -0.286 NA 
HETATM   18  H   UNL     1     -10.644  12.795  64.328  1.00  0.00     0.000 HD 
BRANCH  17  19
HETATM   19  C   UNL     1     -10.719  11.388  65.892  1.00  0.00    -0.255 A  
HETATM   20  N   UNL     1     -10.152  10.301  65.390  1.00  0.00    -0.298 NA 
HETATM   21  C   UNL     1     -10.006   9.327  66.360  1.00  0.00    -0.286 A  
HETATM   22  C   UNL     1     -10.471   9.686  67.598  1.00  0.00    -0.261 A  
HETATM   23  N   UNL     1     -10.449   8.885  68.778  1.00  0.00    -0.216 N  
HETATM   24  S   UNL     1     -11.105  11.259  67.582  1.00  0.00    -0.293 SA 
HETATM   25  O   UNL     1      -9.952   7.756  68.669  1.00  0.00    -0.171 OA 
HETATM   26  O   UNL     1     -10.915   9.366  69.820  1.00  0.00    -0.237 OA 
ENDBRANCH  17  19
ENDBRANCH  15  17
ENDBRANCH  13  15
ENDBRANCH   3   8
ENDBRANCH   2   3
TORSDOF 7
ENDMDL
MODEL      109
REMARK 921   NORMALIZED FREE ENERGY PREDICTED BY IDOCK:   -4.45 KCAL/MOL
REMARK 922        TOTAL FREE ENERGY PREDICTED BY IDOCK:   -6.90 KCAL/MOL
REMARK 923 INTER-LIGAND FREE ENERGY PREDICTED BY IDOCK:   -7.31 KCAL/MOL
REMARK 924 INTRA-LIGAND FREE ENERGY PREDICTED BY IDOCK:    0.41 KCAL/MOL
REMARK 927      BINDING AFFINITY PREDICTED BY RF-SCORE:    0.00 PKD
ROOT
HETATM    1  C   UNL     1      -5.966  16.394  70.041  1.00  0.00    -0.174 C  
HETATM    2  C   UNL     1      -5.307  17.765  70.033  1.00  0.00    -0.224 C  
ENDROOT
BRANCH   2   3
HETATM    3  N   UNL     1      -5.872  18.634  68.993  1.00  0.00    -0.212 NA 
BRANCH   3   4
HETATM    4  C   UNL     1      -5.197  19.907  68.695  1.00  0.00    -0.191 C  
BRANCH   4   5
HETATM    5  C   UNL     1      -5.412  20.927  69.826  1.00  0.00    -0.335 C  
HETATM    6  H   UNL     1      -6.540  21.112  71.446  1.00  0.00     0.000 HD 
HETATM    7  O   UNL     1      -6.407  20.483  70.748  1.00  0.00    -0.536 OA 
ENDBRANCH   4   5
ENDBRANCH   3   4
BRANCH   3   8
HETATM    8  C   UNL     1      -6.899  18.168  68.185  1.00  0.00    -0.212 A  
HETATM    9  C   UNL     1     -10.531  19.096  67.526  1.00  0.00    -0.549 C  
HETATM   10  C   UNL     1      -6.720  17.149  67.242  1.00  0.00    -0.190 A  
HETATM   11  C   UNL     1      -7.765  16.728  66.403  1.00  0.00    -0.345 A  
HETATM   12  C   UNL     1      -8.176  18.738  68.258  1.00  0.00    -0.355 A  
HETATM   13  C   UNL     1      -9.025  17.338  66.457  1.00  0.00    -0.268 A  
HETATM   14  C   UNL     1      -9.224  18.363  67.395  1.00  0.00    -0.275 A  
BRANCH  13  15
HETATM   15  N   UNL     1     -10.109  16.913  65.661  1.00  0.00    -0.586 NA 
HETATM   16  H   UNL     1     -10.173  17.098  64.661  1.00  0.00     0.000 HD 
BRANCH  15  17
HETATM   17  N   UNL     1     -10.983  16.290  66.299  1.00  0.00    -0.084 NA 
HETATM   18  H   UNL     1     -11.735  16.751  66.812  1.00  0.00     0.000 HD 
BRANCH  17  19
HETATM   19  C   UNL     1     -10.837  14.934  66.245  1.00  0.00    -0.331 A  
HETATM   20  N   UNL     1     -10.062  14.228  65.434  1.00  0.00    -0.357 NA 
HETATM   21  C   UNL     1     -10.169  12.876  65.702  1.00  0.00    -0.285 A  
HETATM   22  C   UNL     1     -11.034  12.566  66.718  1.00  0.00    -0.265 A  
HETATM   23  N   UNL     1     -11.338  11.261  67.206  1.00  0.00    -0.295 N  
HETATM   24  S   UNL     1     -11.739  13.964  67.370  1.00  0.00    -0.410 SA 
HETATM   25  O   UNL     1     -10.753  10.317  66.658  1.00  0.00    -0.199 OA 
HETATM   26  O   UNL     1     -12.149  11.159  68.137  1.00  0.00    -0.633 OA 
ENDBRANCH  17  19
ENDBRANCH  15  17
ENDBRANCH  13  15
ENDBRANCH   3   8
ENDBRANCH   2   3
TORSDOF 7
ENDMDL
MODEL      110
REMARK 921   NORMALIZED FREE ENERGY PREDICTED BY IDOCK:   -4.43 KCAL/MOL
REMARK 922        TOTAL FREE ENERGY PREDICTED BY IDOCK:   -6.87 KCAL/MOL
REMARK 923 INTER-LIGAND FREE ENERGY PREDICTED BY IDOCK:   -6.67 KCAL/MOL
REMARK 924 INTRA-LIGAND FREE ENERGY PREDICTED BY IDOCK:   -0.21 KCAL/MOL
REMARK 927      BINDING AFFINITY PREDICTED BY RF-SCORE:    0.00 PKD
ROOT
HETATM    1  C   UNL     1     -10.554  19.931  66.545  1.00  0.00    -0.531 C  
HETATM    2  C   UNL     1     -10.476  18.481  66.091  1.00  0.00    -0.413 C  
ENDROOT
BRANCH   2   3
HETATM    3  N   UNL     1      -9.816  17.633  67.091  1.00  0.00    -0.295 NA 
BRANCH   3   4
HETATM    4  C   UNL     1      -9.256  18.267  68.295  1.00  0.00    -0.309 C  
BRANCH   4   5
HETATM    5  C   UNL     1      -7.769  18.611  68.098  1.00  0.00    -0.281 C  
HETATM    6  H   UNL     1      -6.285  19.390  69.158  1.00  0.00     0.000 HD 
HETATM    7  O   UNL     1      -7.203  19.177  69.278  1.00  0.00    -0.318 OA 
ENDBRANCH   4   5
ENDBRANCH   3   4
BRANCH   3   8
HETATM    8  C   UNL     1      -9.899  16.251  66.989  1.00  0.00    -0.244 A  
HETATM    9  C   UNL     1     -12.475  13.720  65.789  1.00  0.00    -0.527 C  
HETATM   10  C   UNL     1      -8.825  15.403  67.283  1.00  0.00    -0.212 A  
HETATM   11  C   UNL     1      -8.920  14.011  67.127  1.00  0.00    -0.241 A  
HETATM   12  C   UNL     1     -11.077  15.640  66.543  1.00  0.00    -0.135 A  
HETATM   13  C   UNL     1     -10.090  13.417  66.638  1.00  0.00    -0.275 A  
HETATM   14  C   UNL     1     -11.178  14.250  66.336  1.00  0.00    -0.337 A  
BRANCH  13  15
HETATM   15  N   UNL     1     -10.236  12.020  66.509  1.00  0.00    -0.203 NA 
HETATM   16  H   UNL     1     -10.796  11.583  65.777  1.00  0.00     0.000 HD 
BRANCH  15  17
HETATM   17  N   UNL     1      -9.615  11.370  67.376  1.00  0.00    -0.173 NA 
HETATM   18  H   UNL     1      -8.605  11.229  67.351  1.00  0.00     0.000 HD 
BRANCH  17  19
HETATM   19  C   UNL     1     -10.417  10.866  68.359  1.00  0.00    -0.183 A  
HETATM   20  N   UNL     1     -10.562   9.602  68.727  1.00  0.00    -0.215 NA 
HETATM   21  C   UNL     1     -11.449   9.493  69.782  1.00  0.00    -0.010 A  
HETATM   22  C   UNL     1     -11.974  10.684  70.206  1.00  0.00    -0.339 A  
HETATM   23  N   UNL     1     -12.907  10.871  71.269  1.00  0.00    -0.410 N  
HETATM   24  S   UNL     1     -11.371  11.980  69.293  1.00  0.00    -0.256 SA 
HETATM   25  O   UNL     1     -13.269   9.850  71.871  1.00  0.00    -0.408 OA 
HETATM   26  O   UNL     1     -13.283  12.023  71.522  1.00  0.00    -0.352 OA 
ENDBRANCH  17  19
ENDBRANCH  15  17
ENDBRANCH  13  15
ENDBRANCH   3   8
ENDBRANCH   2   3
TORSDOF 7
ENDMDL
MODEL      111
REMARK 921   NORMALIZED FREE ENERGY PREDICTED BY IDOCK:   -4.42 KCAL/MOL
REMARK 922        TOTAL FREE ENERGY PREDICTED BY IDOCK:   -6.85 KCAL/MOL
REMARK 923 INTER-LIGAND FREE ENERGY PREDICTED BY IDOCK:   -6.27 KCAL/MOL
REMARK 924 INTRA-LIGAND FREE ENERGY PREDICTED BY IDOCK:   -0.58 KCAL/MOL
REMARK 927      BINDING AFFINITY PREDICTED BY RF-SCORE:    0.00 PKD
ROOT
HETATM    1  C   UNL     1     -10.457  18.664  66.538  1.00  0.00    -0.465 C  
HETATM    2  C   UNL     1     -10.588  17.260  65.966  1.00  0.00    -0.217 C  
ENDROOT
BRANCH   2   3
HETATM    3  N   UNL     1     -10.455  16.233  67.007  1.00  0.00    -0.310 NA 
BRANCH   3   4
HETATM    4  C   UNL     1     -10.581  16.637  68.416  1.00  0.00    -0.343 C  
BRANCH   4   5
HETATM    5  C   UNL     1     -11.691  15.840  69.122  1.00  0.00    -0.388 C  
HETATM    6  H   UNL     1     -11.949  14.875  70.836  1.00  0.00     0.000 HD 
HETATM    7  O   UNL     1     -11.264  15.368  70.399  1.00  0.00    -0.272 OA 
ENDBRANCH   4   5
ENDBRANCH   3   4
BRANCH   3   8
HETATM    8  C   UNL     1     -10.408  14.891  66.654  1.00  0.00    -0.283 A  
HETATM    9  C   UNL     1     -12.511  12.516  64.551  1.00  0.00    -0.539 C  
HETATM   10  C   UNL     1      -9.345  14.051  67.003  1.00  0.00    -0.256 A  
HETATM   11  C   UNL     1      -9.300  12.709  66.593  1.00  0.00    -0.236 A  
HETATM   12  C   UNL     1     -11.431  14.323  65.885  1.00  0.00    -0.335 A  
HETATM   13  C   UNL     1     -10.308  12.165  65.787  1.00  0.00    -0.258 A  
HETATM   14  C   UNL     1     -11.383  12.992  65.426  1.00  0.00    -0.327 A  
BRANCH  13  15
HETATM   15  N   UNL     1     -10.319  10.812  65.393  1.00  0.00    -0.266 NA 
HETATM   16  H   UNL     1     -11.072  10.395  64.847  1.00  0.00     0.000 HD 
BRANCH  15  17
HETATM   17  N   UNL     1      -9.317  10.171  65.777  1.00  0.00    -0.175 NA 
HETATM   18  H   UNL     1      -8.375  10.562  65.789  1.00  0.00     0.000 HD 
BRANCH  17  19
HETATM   19  C   UNL     1      -9.604   8.899  66.179  1.00  0.00    -0.265 A  
HETATM   20  N   UNL     1     -10.655   8.476  66.866  1.00  0.00    -0.271 NA 
HETATM   21  C   UNL     1     -10.602   7.109  67.059  1.00  0.00    -0.343 A  
HETATM   22  C   UNL     1      -9.500   6.502  66.515  1.00  0.00    -0.154 A  
HETATM   23  N   UNL     1      -9.188   5.110  66.559  1.00  0.00    -0.131 N  
HETATM   24  S   UNL     1      -8.497   7.631  65.744  1.00  0.00    -0.136 SA 
HETATM   25  O   UNL     1     -10.002   4.381  67.142  1.00  0.00    -0.196 OA 
HETATM   26  O   UNL     1      -8.144   4.728  66.014  1.00  0.00    -0.105 OA 
ENDBRANCH  17  19
ENDBRANCH  15  17
ENDBRANCH  13  15
ENDBRANCH   3   8
ENDBRANCH   2   3
TORSDOF 7
ENDMDL
MODEL      112
REMARK 921   NORMALIZED FREE ENERGY PREDICTED BY IDOCK:   -4.40 KCAL/MOL
REMARK 922        TOTAL FREE ENERGY PREDICTED BY IDOCK:   -6.83 KCAL/MOL
REMARK 923 INTER-LIGAND FREE ENERGY PREDICTED BY IDOCK:   -6.50 KCAL/MOL
REMARK 924 INTRA-LIGAND FREE ENERGY PREDICTED BY IDOCK:   -0.33 KCAL/MOL
REMARK 927      BINDING AFFINITY PREDICTED BY RF-SCORE:    0.00 PKD
ROOT
HETATM    1  C   UNL     1     -10.910   5.857  67.902  1.00  0.00    -0.323 C  
HETATM    2  C   UNL     1     -10.897   7.073  66.987  1.00  0.00    -0.343 C  
ENDROOT
BRANCH   2   3
HETATM    3  N   UNL     1     -10.509   8.292  67.708  1.00  0.00    -0.231 NA 
BRANCH   3   4
HETATM    4  C   UNL     1      -9.789   8.156  68.985  1.00  0.00    -0.176 C  
BRANCH   4   5
HETATM    5  C   UNL     1     -10.723   8.428  70.177  1.00  0.00    -0.236 C  
HETATM    6  H   UNL     1     -11.241   7.542  71.874  1.00  0.00     0.000 HD 
HETATM    7  O   UNL     1     -10.665   7.375  71.137  1.00  0.00    -0.229 OA 
ENDBRANCH   4   5
ENDBRANCH   3   4
BRANCH   3   8
HETATM    8  C   UNL     1     -10.645   9.531  67.097  1.00  0.00    -0.225 A  
HETATM    9  C   UNL     1      -9.753  11.061  63.728  1.00  0.00    -0.351 C  
HETATM   10  C   UNL     1     -11.333  10.596  67.688  1.00  0.00    -0.284 A  
HETATM   11  C   UNL     1     -11.497  11.825  67.029  1.00  0.00    -0.368 A  
HETATM   12  C   UNL     1     -10.118   9.755  65.820  1.00  0.00    -0.308 A  
HETATM   13  C   UNL     1     -11.003  12.021  65.733  1.00  0.00    -0.307 A  
HETATM   14  C   UNL     1     -10.311  10.964  65.123  1.00  0.00    -0.344 A  
BRANCH  13  15
HETATM   15  N   UNL     1     -11.111  13.254  65.058  1.00  0.00    -0.300 NA 
HETATM   16  H   UNL     1     -10.812  13.389  64.092  1.00  0.00     0.000 HD 
BRANCH  15  17
HETATM   17  N   UNL     1     -11.607  14.164  65.754  1.00  0.00    -0.335 NA 
HETATM   18  H   UNL     1     -12.568  14.146  66.095  1.00  0.00     0.000 HD 
BRANCH  17  19
HETATM   19  C   UNL     1     -10.740  15.186  66.017  1.00  0.00    -0.329 A  
HETATM   20  N   UNL     1     -10.497  16.260  65.281  1.00  0.00    -0.604 NA 
HETATM   21  C   UNL     1      -9.569  17.080  65.895  1.00  0.00    -0.112 A  
HETATM   22  C   UNL     1      -9.110  16.615  67.099  1.00  0.00    -0.214 A  
HETATM   23  N   UNL     1      -8.156  17.250  67.948  1.00  0.00    -0.205 N  
HETATM   24  S   UNL     1      -9.831  15.132  67.497  1.00  0.00    -0.220 SA 
HETATM   25  O   UNL     1      -7.706  18.336  67.556  1.00  0.00    -0.220 OA 
HETATM   26  O   UNL     1      -7.850  16.688  69.008  1.00  0.00    -0.236 OA 
ENDBRANCH  17  19
ENDBRANCH  15  17
ENDBRANCH  13  15
ENDBRANCH   3   8
ENDBRANCH   2   3
TORSDOF 7
ENDMDL
MODEL      113
REMARK 921   NORMALIZED FREE ENERGY PREDICTED BY IDOCK:   -4.39 KCAL/MOL
REMARK 922        TOTAL FREE ENERGY PREDICTED BY IDOCK:   -6.82 KCAL/MOL
REMARK 923 INTER-LIGAND FREE ENERGY PREDICTED BY IDOCK:   -6.09 KCAL/MOL
REMARK 924 INTRA-LIGAND FREE ENERGY PREDICTED BY IDOCK:   -0.73 KCAL/MOL
REMARK 927      BINDING AFFINITY PREDICTED BY RF-SCORE:    0.00 PKD
ROOT
HETATM    1  C   UNL     1      -8.147   8.102  64.150  1.00  0.00    -0.128 C  
HETATM    2  C   UNL     1      -8.196   8.704  65.546  1.00  0.00    -0.135 C  
ENDROOT
BRANCH   2   3
HETATM    3  N   UNL     1      -9.567   8.755  66.068  1.00  0.00    -0.246 NA 
BRANCH   3   4
HETATM    4  C   UNL     1     -10.152   7.530  66.636  1.00  0.00    -0.193 C  
BRANCH   4   5
HETATM    5  C   UNL     1      -9.162   6.835  67.588  1.00  0.00    -0.118 C  
HETATM    6  H   UNL     1      -8.966   6.521  69.536  1.00  0.00     0.000 HD 
HETATM    7  O   UNL     1      -9.577   6.950  68.948  1.00  0.00    -0.140 OA 
ENDBRANCH   4   5
ENDBRANCH   3   4
BRANCH   3   8
HETATM    8  C   UNL     1     -10.214   9.977  66.199  1.00  0.00    -0.213 A  
HETATM    9  C   UNL     1     -11.002  12.938  63.940  1.00  0.00    -0.422 C  
HETATM   10  C   UNL     1     -10.880  10.362  67.368  1.00  0.00    -0.344 A  
HETATM   11  C   UNL     1     -11.565  11.584  67.457  1.00  0.00    -0.322 A  
HETATM   12  C   UNL     1     -10.256  10.877  65.127  1.00  0.00    -0.360 A  
HETATM   13  C   UNL     1     -11.637  12.455  66.363  1.00  0.00    -0.384 A  
HETATM   14  C   UNL     1     -10.976  12.086  65.180  1.00  0.00    -0.359 A  
BRANCH  13  15
HETATM   15  N   UNL     1     -12.279  13.708  66.429  1.00  0.00    -0.431 NA 
HETATM   16  H   UNL     1     -13.047  13.975  65.814  1.00  0.00     0.000 HD 
BRANCH  15  17
HETATM   17  N   UNL     1     -11.817  14.461  67.313  1.00  0.00    -0.400 NA 
HETATM   18  H   UNL     1     -12.264  14.598  68.219  1.00  0.00     0.000 HD 
BRANCH  17  19
HETATM   19  C   UNL     1     -10.656  15.081  66.950  1.00  0.00    -0.297 A  
HETATM   20  N   UNL     1     -10.498  16.085  66.100  1.00  0.00    -0.319 NA 
HETATM   21  C   UNL     1      -9.169  16.456  66.015  1.00  0.00    -0.293 A  
HETATM   22  C   UNL     1      -8.324  15.722  66.805  1.00  0.00    -0.274 A  
HETATM   23  N   UNL     1      -6.911  15.884  66.917  1.00  0.00    -0.132 N  
HETATM   24  S   UNL     1      -9.173  14.543  67.679  1.00  0.00    -0.201 SA 
HETATM   25  O   UNL     1      -6.404  16.786  66.237  1.00  0.00    -0.221 OA 
HETATM   26  O   UNL     1      -6.296  15.130  67.682  1.00  0.00    -0.153 OA 
ENDBRANCH  17  19
ENDBRANCH  15  17
ENDBRANCH  13  15
ENDBRANCH   3   8
ENDBRANCH   2   3
TORSDOF 7
ENDMDL
MODEL      114
REMARK 921   NORMALIZED FREE ENERGY PREDICTED BY IDOCK:   -4.39 KCAL/MOL
REMARK 922        TOTAL FREE ENERGY PREDICTED BY IDOCK:   -6.81 KCAL/MOL
REMARK 923 INTER-LIGAND FREE ENERGY PREDICTED BY IDOCK:   -6.16 KCAL/MOL
REMARK 924 INTRA-LIGAND FREE ENERGY PREDICTED BY IDOCK:   -0.65 KCAL/MOL
REMARK 927      BINDING AFFINITY PREDICTED BY RF-SCORE:    0.00 PKD
ROOT
HETATM    1  C   UNL     1      -8.413   8.523  63.691  1.00  0.00    -0.030 C  
HETATM    2  C   UNL     1      -7.725   9.087  64.925  1.00  0.00    -0.111 C  
ENDROOT
BRANCH   2   3
HETATM    3  N   UNL     1      -8.676   9.322  66.019  1.00  0.00    -0.146 NA 
BRANCH   3   4
HETATM    4  C   UNL     1      -8.989   8.210  66.931  1.00  0.00    -0.140 C  
BRANCH   4   5
HETATM    5  C   UNL     1     -10.507   8.088  67.154  1.00  0.00    -0.338 C  
HETATM    6  H   UNL     1     -11.913   6.700  66.988  1.00  0.00     0.000 HD 
HETATM    7  O   UNL     1     -10.976   6.776  66.851  1.00  0.00    -0.378 OA 
ENDBRANCH   4   5
ENDBRANCH   3   4
BRANCH   3   8
HETATM    8  C   UNL     1      -9.110  10.611  66.295  1.00  0.00    -0.167 A  
HETATM    9  C   UNL     1      -7.910  13.531  68.422  1.00  0.00    -0.143 C  
HETATM   10  C   UNL     1     -10.213  11.193  65.659  1.00  0.00    -0.310 A  
HETATM   11  C   UNL     1     -10.602  12.516  65.923  1.00  0.00    -0.292 A  
HETATM   12  C   UNL     1      -8.421  11.411  67.215  1.00  0.00    -0.148 A  
HETATM   13  C   UNL     1      -9.878  13.319  66.813  1.00  0.00    -0.264 A  
HETATM   14  C   UNL     1      -8.768  12.754  67.460  1.00  0.00    -0.185 A  
BRANCH  13  15
HETATM   15  N   UNL     1     -10.264  14.636  67.135  1.00  0.00    -0.254 NA 
HETATM   16  H   UNL     1      -9.608  15.416  67.177  1.00  0.00     0.000 HD 
BRANCH  15  17
HETATM   17  N   UNL     1     -11.486  14.758  67.363  1.00  0.00    -0.354 NA 
HETATM   18  H   UNL     1     -12.170  14.982  66.639  1.00  0.00     0.000 HD 
BRANCH  17  19
HETATM   19  C   UNL     1     -11.820  14.562  68.671  1.00  0.00    -0.320 A  
HETATM   20  N   UNL     1     -12.251  13.449  69.247  1.00  0.00    -0.245 NA 
HETATM   21  C   UNL     1     -12.459  13.641  70.600  1.00  0.00    -0.347 A  
HETATM   22  C   UNL     1     -12.186  14.909  71.041  1.00  0.00    -0.317 A  
HETATM   23  N   UNL     1     -12.310  15.387  72.379  1.00  0.00    -0.348 N  
HETATM   24  S   UNL     1     -11.659  15.900  69.769  1.00  0.00    -0.320 SA 
HETATM   25  O   UNL     1     -12.696  14.568  73.224  1.00  0.00    -0.465 OA 
HETATM   26  O   UNL     1     -12.022  16.570  72.606  1.00  0.00    -0.533 OA 
ENDBRANCH  17  19
ENDBRANCH  15  17
ENDBRANCH  13  15
ENDBRANCH   3   8
ENDBRANCH   2   3
TORSDOF 7
ENDMDL
MODEL      115
REMARK 921   NORMALIZED FREE ENERGY PREDICTED BY IDOCK:   -4.38 KCAL/MOL
REMARK 922        TOTAL FREE ENERGY PREDICTED BY IDOCK:   -6.80 KCAL/MOL
REMARK 923 INTER-LIGAND FREE ENERGY PREDICTED BY IDOCK:   -6.23 KCAL/MOL
REMARK 924 INTRA-LIGAND FREE ENERGY PREDICTED BY IDOCK:   -0.57 KCAL/MOL
REMARK 927      BINDING AFFINITY PREDICTED BY RF-SCORE:    0.00 PKD
ROOT
HETATM    1  C   UNL     1      -9.339  14.131  66.966  1.00  0.00    -0.253 C  
HETATM    2  C   UNL     1     -10.701  13.892  66.331  1.00  0.00    -0.281 C  
ENDROOT
BRANCH   2   3
HETATM    3  N   UNL     1     -10.738  12.629  65.582  1.00  0.00    -0.264 NA 
BRANCH   3   4
HETATM    4  C   UNL     1     -10.730  12.681  64.112  1.00  0.00    -0.406 C  
BRANCH   4   5
HETATM    5  C   UNL     1     -12.162  12.757  63.553  1.00  0.00    -0.525 C  
HETATM    6  H   UNL     1     -13.471  14.155  63.042  1.00  0.00     0.000 HD 
HETATM    7  O   UNL     1     -12.588  14.108  63.387  1.00  0.00    -0.818 OA 
ENDBRANCH   4   5
ENDBRANCH   3   4
BRANCH   3   8
HETATM    8  C   UNL     1     -10.586  11.423  66.251  1.00  0.00    -0.263 A  
HETATM    9  C   UNL     1      -8.772   8.134  65.635  1.00  0.00    -0.176 C  
HETATM   10  C   UNL     1     -11.093  11.198  67.537  1.00  0.00    -0.353 A  
HETATM   11  C   UNL     1     -10.884   9.984  68.210  1.00  0.00    -0.286 A  
HETATM   12  C   UNL     1      -9.870  10.371  65.667  1.00  0.00    -0.321 A  
HETATM   13  C   UNL     1     -10.128   8.957  67.631  1.00  0.00    -0.218 A  
HETATM   14  C   UNL     1      -9.610   9.163  66.343  1.00  0.00    -0.309 A  
BRANCH  13  15
HETATM   15  N   UNL     1      -9.934   7.710  68.259  1.00  0.00    -0.170 NA 
HETATM   16  H   UNL     1     -10.476   6.878  68.027  1.00  0.00     0.000 HD 
BRANCH  15  17
HETATM   17  N   UNL     1      -9.036   7.721  69.127  1.00  0.00    -0.145 NA 
HETATM   18  H   UNL     1      -8.268   8.393  69.127  1.00  0.00     0.000 HD 
BRANCH  17  19
HETATM   19  C   UNL     1      -9.179   6.749  70.074  1.00  0.00    -0.158 A  
HETATM   20  N   UNL     1      -8.290   5.843  70.455  1.00  0.00    -0.121 NA 
HETATM   21  C   UNL     1      -8.799   5.045  71.462  1.00  0.00    -0.132 A  
HETATM   22  C   UNL     1     -10.081   5.352  71.836  1.00  0.00    -0.193 A  
HETATM   23  N   UNL     1     -10.852   4.700  72.844  1.00  0.00    -0.224 N  
HETATM   24  S   UNL     1     -10.686   6.655  70.934  1.00  0.00    -0.245 SA 
HETATM   25  O   UNL     1     -10.299   3.767  73.443  1.00  0.00    -0.140 OA 
HETATM   26  O   UNL     1     -12.002   5.107  73.055  1.00  0.00    -0.231 OA 
ENDBRANCH  17  19
ENDBRANCH  15  17
ENDBRANCH  13  15
ENDBRANCH   3   8
ENDBRANCH   2   3
TORSDOF 7
ENDMDL
MODEL      116
REMARK 921   NORMALIZED FREE ENERGY PREDICTED BY IDOCK:   -4.37 KCAL/MOL
REMARK 922        TOTAL FREE ENERGY PREDICTED BY IDOCK:   -6.79 KCAL/MOL
REMARK 923 INTER-LIGAND FREE ENERGY PREDICTED BY IDOCK:   -6.21 KCAL/MOL
REMARK 924 INTRA-LIGAND FREE ENERGY PREDICTED BY IDOCK:   -0.57 KCAL/MOL
REMARK 927      BINDING AFFINITY PREDICTED BY RF-SCORE:    0.00 PKD
ROOT
HETATM    1  C   UNL     1     -11.115   6.950  68.832  1.00  0.00    -0.171 C  
HETATM    2  C   UNL     1     -10.393   7.556  70.027  1.00  0.00    -0.221 C  
ENDROOT
BRANCH   2   3
HETATM    3  N   UNL     1     -10.737   8.971  70.210  1.00  0.00    -0.221 NA 
BRANCH   3   4
HETATM    4  C   UNL     1     -11.349   9.389  71.481  1.00  0.00    -0.394 C  
BRANCH   4   5
HETATM    5  C   UNL     1     -12.865   9.604  71.321  1.00  0.00    -0.350 C  
HETATM    6  H   UNL     1     -14.232  10.925  71.883  1.00  0.00     0.000 HD 
HETATM    7  O   UNL     1     -13.297  10.792  71.981  1.00  0.00    -0.447 OA 
ENDBRANCH   4   5
ENDBRANCH   3   4
BRANCH   3   8
HETATM    8  C   UNL     1     -10.311   9.913  69.284  1.00  0.00    -0.219 A  
HETATM    9  C   UNL     1      -7.044  11.673  68.439  1.00  0.00    -0.083 C  
HETATM   10  C   UNL     1     -11.136  10.402  68.264  1.00  0.00    -0.338 A  
HETATM   11  C   UNL     1     -10.666  11.319  67.311  1.00  0.00    -0.295 A  
HETATM   12  C   UNL     1      -8.997  10.395  69.313  1.00  0.00    -0.176 A  
HETATM   13  C   UNL     1      -9.336  11.759  67.325  1.00  0.00    -0.171 A  
HETATM   14  C   UNL     1      -8.493  11.280  68.340  1.00  0.00    -0.153 A  
BRANCH  13  15
HETATM   15  N   UNL     1      -8.841  12.711  66.412  1.00  0.00    -0.425 NA 
HETATM   16  H   UNL     1      -7.921  12.643  65.978  1.00  0.00     0.000 HD 
BRANCH  15  17
HETATM   17  N   UNL     1      -9.637  13.647  66.184  1.00  0.00    -0.432 NA 
HETATM   18  H   UNL     1     -10.411  13.574  65.523  1.00  0.00     0.000 HD 
BRANCH  17  19
HETATM   19  C   UNL     1      -9.373  14.776  66.904  1.00  0.00    -0.240 A  
HETATM   20  N   UNL     1      -8.885  14.867  68.132  1.00  0.00    -0.169 NA 
HETATM   21  C   UNL     1      -8.734  16.188  68.508  1.00  0.00    -0.200 A  
HETATM   22  C   UNL     1      -9.116  17.096  67.555  1.00  0.00    -0.225 A  
HETATM   23  N   UNL     1      -9.070  18.517  67.669  1.00  0.00    -0.279 N  
HETATM   24  S   UNL     1      -9.676  16.316  66.157  1.00  0.00    -0.346 SA 
HETATM   25  O   UNL     1      -8.632  18.971  68.735  1.00  0.00    -0.354 OA 
HETATM   26  O   UNL     1      -9.457  19.193  66.707  1.00  0.00    -0.305 OA 
ENDBRANCH  17  19
ENDBRANCH  15  17
ENDBRANCH  13  15
ENDBRANCH   3   8
ENDBRANCH   2   3
TORSDOF 7
ENDMDL
MODEL      117
REMARK 921   NORMALIZED FREE ENERGY PREDICTED BY IDOCK:   -4.37 KCAL/MOL
REMARK 922        TOTAL FREE ENERGY PREDICTED BY IDOCK:   -6.79 KCAL/MOL
REMARK 923 INTER-LIGAND FREE ENERGY PREDICTED BY IDOCK:   -6.15 KCAL/MOL
REMARK 924 INTRA-LIGAND FREE ENERGY PREDICTED BY IDOCK:   -0.63 KCAL/MOL
REMARK 927      BINDING AFFINITY PREDICTED BY RF-SCORE:    0.00 PKD
ROOT
HETATM    1  C   UNL     1     -11.102   5.745  70.131  1.00  0.00    -0.323 C  
HETATM    2  C   UNL     1     -10.968   6.272  68.710  1.00  0.00    -0.352 C  
ENDROOT
BRANCH   2   3
HETATM    3  N   UNL     1      -9.567   6.539  68.358  1.00  0.00    -0.123 NA 
BRANCH   3   4
HETATM    4  C   UNL     1      -8.635   5.405  68.266  1.00  0.00    -0.096 C  
BRANCH   4   5
HETATM    5  C   UNL     1      -7.301   5.727  68.963  1.00  0.00    -0.083 C  
HETATM    6  H   UNL     1      -5.378   5.823  68.490  1.00  0.00     0.000 HD 
HETATM    7  O   UNL     1      -6.202   5.624  68.060  1.00  0.00    -0.033 OA 
ENDBRANCH   4   5
ENDBRANCH   3   4
BRANCH   3   8
HETATM    8  C   UNL     1      -9.190   7.806  67.934  1.00  0.00    -0.137 A  
HETATM    9  C   UNL     1      -8.973   9.654  64.613  1.00  0.00    -0.274 C  
HETATM   10  C   UNL     1      -8.844   8.832  68.821  1.00  0.00    -0.134 A  
HETATM   11  C   UNL     1      -8.511  10.118  68.367  1.00  0.00    -0.118 A  
HETATM   12  C   UNL     1      -9.176   8.124  66.570  1.00  0.00    -0.237 A  
HETATM   13  C   UNL     1      -8.544  10.434  67.003  1.00  0.00    -0.130 A  
HETATM   14  C   UNL     1      -8.890   9.419  66.097  1.00  0.00    -0.178 A  
BRANCH  13  15
HETATM   15  N   UNL     1      -8.175  11.701  66.507  1.00  0.00    -0.299 NA 
HETATM   16  H   UNL     1      -7.478  11.833  65.775  1.00  0.00     0.000 HD 
BRANCH  15  17
HETATM   17  N   UNL     1      -8.783  12.648  67.051  1.00  0.00    -0.203 NA 
HETATM   18  H   UNL     1      -8.526  13.026  67.963  1.00  0.00     0.000 HD 
BRANCH  17  19
HETATM   19  C   UNL     1      -9.824  13.126  66.310  1.00  0.00    -0.283 A  
HETATM   20  N   UNL     1     -10.919  12.485  65.929  1.00  0.00    -0.271 NA 
HETATM   21  C   UNL     1     -11.754  13.318  65.209  1.00  0.00    -0.330 A  
HETATM   22  C   UNL     1     -11.280  14.592  65.045  1.00  0.00    -0.386 A  
HETATM   23  N   UNL     1     -11.928  15.657  64.350  1.00  0.00    -0.262 N  
HETATM   24  S   UNL     1      -9.769  14.784  65.791  1.00  0.00    -0.261 SA 
HETATM   25  O   UNL     1     -13.033  15.399  63.854  1.00  0.00    -0.469 OA 
HETATM   26  O   UNL     1     -11.355  16.753  64.295  1.00  0.00    -1.170 OA 
ENDBRANCH  17  19
ENDBRANCH  15  17
ENDBRANCH  13  15
ENDBRANCH   3   8
ENDBRANCH   2   3
TORSDOF 7
ENDMDL
MODEL      118
REMARK 921   NORMALIZED FREE ENERGY PREDICTED BY IDOCK:   -4.37 KCAL/MOL
REMARK 922        TOTAL FREE ENERGY PREDICTED BY IDOCK:   -6.78 KCAL/MOL
REMARK 923 INTER-LIGAND FREE ENERGY PREDICTED BY IDOCK:   -6.31 KCAL/MOL
REMARK 924 INTRA-LIGAND FREE ENERGY PREDICTED BY IDOCK:   -0.47 KCAL/MOL
REMARK 927      BINDING AFFINITY PREDICTED BY RF-SCORE:    0.00 PKD
ROOT
HETATM    1  C   UNL     1      -9.874   4.867  70.997  1.00  0.00    -0.266 C  
HETATM    2  C   UNL     1     -10.511   5.256  69.672  1.00  0.00    -0.250 C  
ENDROOT
BRANCH   2   3
HETATM    3  N   UNL     1      -9.652   6.164  68.901  1.00  0.00    -0.128 NA 
BRANCH   3   4
HETATM    4  C   UNL     1      -8.637   5.586  68.008  1.00  0.00    -0.100 C  
BRANCH   4   5
HETATM    5  C   UNL     1      -9.267   4.571  67.037  1.00  0.00    -0.134 C  
HETATM    6  H   UNL     1      -8.687   3.413  65.536  1.00  0.00     0.000 HD 
HETATM    7  O   UNL     1      -8.298   4.039  66.135  1.00  0.00    -0.107 OA 
ENDBRANCH   4   5
ENDBRANCH   3   4
BRANCH   3   8
HETATM    8  C   UNL     1      -9.931   7.524  68.874  1.00  0.00    -0.168 A  
HETATM    9  C   UNL     1     -11.617  10.043  71.176  1.00  0.00    -0.460 C  
HETATM   10  C   UNL     1      -9.486   8.369  67.851  1.00  0.00    -0.164 A  
HETATM   11  C   UNL     1      -9.742   9.750  67.871  1.00  0.00    -0.168 A  
HETATM   12  C   UNL     1     -10.655   8.122  69.912  1.00  0.00    -0.239 A  
HETATM   13  C   UNL     1     -10.429  10.342  68.938  1.00  0.00    -0.211 A  
HETATM   14  C   UNL     1     -10.883   9.510  69.974  1.00  0.00    -0.286 A  
BRANCH  13  15
HETATM   15  N   UNL     1     -10.742  11.716  68.972  1.00  0.00    -0.295 NA 
HETATM   16  H   UNL     1     -10.098  12.427  69.317  1.00  0.00     0.000 HD 
BRANCH  15  17
HETATM   17  N   UNL     1     -11.884  11.980  68.539  1.00  0.00    -0.338 NA 
HETATM   18  H   UNL     1     -12.728  11.511  68.868  1.00  0.00     0.000 HD 
BRANCH  17  19
HETATM   19  C   UNL     1     -11.894  12.954  67.583  1.00  0.00    -0.346 A  
HETATM   20  N   UNL     1     -11.766  14.262  67.748  1.00  0.00    -0.356 NA 
HETATM   21  C   UNL     1     -11.802  14.920  66.533  1.00  0.00    -0.140 A  
HETATM   22  C   UNL     1     -11.963  14.099  65.448  1.00  0.00    -0.381 A  
HETATM   23  N   UNL     1     -12.034  14.501  64.082  1.00  0.00    -0.380 N  
HETATM   24  S   UNL     1     -12.073  12.474  65.922  1.00  0.00    -0.232 SA 
HETATM   25  O   UNL     1     -11.932  15.715  63.858  1.00  0.00    -0.524 OA 
HETATM   26  O   UNL     1     -12.184  13.623  63.221  1.00  0.00    -0.637 OA 
ENDBRANCH  17  19
ENDBRANCH  15  17
ENDBRANCH  13  15
ENDBRANCH   3   8
ENDBRANCH   2   3
TORSDOF 7
ENDMDL
MODEL      119
REMARK 921   NORMALIZED FREE ENERGY PREDICTED BY IDOCK:   -4.37 KCAL/MOL
REMARK 922        TOTAL FREE ENERGY PREDICTED BY IDOCK:   -6.78 KCAL/MOL
REMARK 923 INTER-LIGAND FREE ENERGY PREDICTED BY IDOCK:   -6.20 KCAL/MOL
REMARK 924 INTRA-LIGAND FREE ENERGY PREDICTED BY IDOCK:   -0.58 KCAL/MOL
REMARK 927      BINDING AFFINITY PREDICTED BY RF-SCORE:    0.00 PKD
ROOT
HETATM    1  C   UNL     1     -10.778   3.195  73.823  1.00  0.00    -0.292 C  
HETATM    2  C   UNL     1     -10.406   2.738  72.421  1.00  0.00    -0.092 C  
ENDROOT
BRANCH   2   3
HETATM    3  N   UNL     1      -9.490   3.681  71.766  1.00  0.00    -0.130 NA 
BRANCH   3   4
HETATM    4  C   UNL     1      -8.097   3.268  71.540  1.00  0.00    -0.060 C  
BRANCH   4   5
HETATM    5  C   UNL     1      -7.115   4.220  72.245  1.00  0.00    -0.060 C  
HETATM    6  H   UNL     1      -6.736   4.842  74.089  1.00  0.00     0.000 HD 
HETATM    7  O   UNL     1      -7.341   4.255  73.653  1.00  0.00    -0.072 OA 
ENDBRANCH   4   5
ENDBRANCH   3   4
BRANCH   3   8
HETATM    8  C   UNL     1      -9.986   4.849  71.203  1.00  0.00    -0.208 A  
HETATM    9  C   UNL     1     -10.965   8.312  72.443  1.00  0.00    -0.438 C  
HETATM   10  C   UNL     1     -10.161   5.012  69.824  1.00  0.00    -0.337 A  
HETATM   11  C   UNL     1     -10.620   6.221  69.277  1.00  0.00    -0.332 A  
HETATM   12  C   UNL     1     -10.302   5.949  72.010  1.00  0.00    -0.250 A  
HETATM   13  C   UNL     1     -10.890   7.327  70.092  1.00  0.00    -0.256 A  
HETATM   14  C   UNL     1     -10.720   7.184  71.478  1.00  0.00    -0.245 A  
BRANCH  13  15
HETATM   15  N   UNL     1     -11.393   8.542  69.583  1.00  0.00    -0.435 NA 
HETATM   16  H   UNL     1     -12.089   9.106  70.070  1.00  0.00     0.000 HD 
BRANCH  15  17
HETATM   17  N   UNL     1     -10.905   8.861  68.478  1.00  0.00    -0.442 NA 
HETATM   18  H   UNL     1     -10.412   8.203  67.874  1.00  0.00     0.000 HD 
BRANCH  17  19
HETATM   19  C   UNL     1     -11.093  10.174  68.156  1.00  0.00    -0.230 A  
HETATM   20  N   UNL     1     -10.879  10.769  66.992  1.00  0.00    -0.267 NA 
HETATM   21  C   UNL     1     -11.213  12.108  67.053  1.00  0.00    -0.314 A  
HETATM   22  C   UNL     1     -11.677  12.522  68.273  1.00  0.00    -0.340 A  
HETATM   23  N   UNL     1     -12.093  13.842  68.621  1.00  0.00    -0.355 N  
HETATM   24  S   UNL     1     -11.709  11.240  69.383  1.00  0.00    -0.370 SA 
HETATM   25  O   UNL     1     -12.034  14.693  67.723  1.00  0.00    -0.348 OA 
HETATM   26  O   UNL     1     -12.486  14.045  69.778  1.00  0.00    -0.325 OA 
ENDBRANCH  17  19
ENDBRANCH  15  17
ENDBRANCH  13  15
ENDBRANCH   3   8
ENDBRANCH   2   3
TORSDOF 7
ENDMDL
MODEL      120
REMARK 921   NORMALIZED FREE ENERGY PREDICTED BY IDOCK:   -4.36 KCAL/MOL
REMARK 922        TOTAL FREE ENERGY PREDICTED BY IDOCK:   -6.78 KCAL/MOL
REMARK 923 INTER-LIGAND FREE ENERGY PREDICTED BY IDOCK:   -6.37 KCAL/MOL
REMARK 924 INTRA-LIGAND FREE ENERGY PREDICTED BY IDOCK:   -0.41 KCAL/MOL
REMARK 927      BINDING AFFINITY PREDICTED BY RF-SCORE:    0.00 PKD
ROOT
HETATM    1  C   UNL     1     -11.725  15.924  64.562  1.00  0.00    -0.161 C  
HETATM    2  C   UNL     1     -10.428  16.084  65.341  1.00  0.00    -0.392 C  
ENDROOT
BRANCH   2   3
HETATM    3  N   UNL     1     -10.600  15.749  66.760  1.00  0.00    -0.310 NA 
BRANCH   3   4
HETATM    4  C   UNL     1     -10.732  16.846  67.732  1.00  0.00    -0.315 C  
BRANCH   4   5
HETATM    5  C   UNL     1     -10.214  18.171  67.145  1.00  0.00    -0.367 C  
HETATM    6  H   UNL     1     -10.244  20.098  67.608  1.00  0.00     0.000 HD 
HETATM    7  O   UNL     1     -10.563  19.280  67.971  1.00  0.00    -0.396 OA 
ENDBRANCH   4   5
ENDBRANCH   3   4
BRANCH   3   8
HETATM    8  C   UNL     1     -10.830  14.433  67.138  1.00  0.00    -0.292 A  
HETATM    9  C   UNL     1     -12.183  12.640  70.211  1.00  0.00    -0.347 C  
HETATM   10  C   UNL     1     -10.653  13.352  66.268  1.00  0.00    -0.292 A  
HETATM   11  C   UNL     1     -10.937  12.034  66.661  1.00  0.00    -0.330 A  
HETATM   12  C   UNL     1     -11.295  14.134  68.425  1.00  0.00    -0.315 A  
HETATM   13  C   UNL     1     -11.444  11.754  67.937  1.00  0.00    -0.317 A  
HETATM   14  C   UNL     1     -11.630  12.826  68.824  1.00  0.00    -0.353 A  
BRANCH  13  15
HETATM   15  N   UNL     1     -11.700  10.441  68.381  1.00  0.00    -0.717 NA 
HETATM   16  H   UNL     1     -12.085  10.228  69.301  1.00  0.00     0.000 HD 
BRANCH  15  17
HETATM   17  N   UNL     1     -11.411   9.563  67.540  1.00  0.00    -0.278 NA 
HETATM   18  H   UNL     1     -11.828   9.521  66.610  1.00  0.00     0.000 HD 
BRANCH  17  19
HETATM   19  C   UNL     1     -10.483   8.666  67.984  1.00  0.00    -0.197 A  
HETATM   20  N   UNL     1      -9.416   8.897  68.735  1.00  0.00    -0.144 NA 
HETATM   21  C   UNL     1      -8.733   7.725  68.997  1.00  0.00    -0.135 A  
HETATM   22  C   UNL     1      -9.289   6.606  68.435  1.00  0.00    -0.123 A  
HETATM   23  N   UNL     1      -8.800   5.271  68.539  1.00  0.00    -0.097 N  
HETATM   24  S   UNL     1     -10.689   6.993  67.560  1.00  0.00    -0.280 SA 
HETATM   25  O   UNL     1      -7.773   5.110  69.213  1.00  0.00    -0.074 OA 
HETATM   26  O   UNL     1      -9.427   4.372  67.964  1.00  0.00    -0.140 OA 
ENDBRANCH  17  19
ENDBRANCH  15  17
ENDBRANCH  13  15
ENDBRANCH   3   8
ENDBRANCH   2   3
TORSDOF 7
ENDMDL
MODEL      121
REMARK 921   NORMALIZED FREE ENERGY PREDICTED BY IDOCK:   -4.35 KCAL/MOL
REMARK 922        TOTAL FREE ENERGY PREDICTED BY IDOCK:   -6.75 KCAL/MOL
REMARK 923 INTER-LIGAND FREE ENERGY PREDICTED BY IDOCK:   -6.44 KCAL/MOL
REMARK 924 INTRA-LIGAND FREE ENERGY PREDICTED BY IDOCK:   -0.32 KCAL/MOL
REMARK 927      BINDING AFFINITY PREDICTED BY RF-SCORE:    0.00 PKD
ROOT
HETATM    1  C   UNL     1      -6.834  11.081  67.259  1.00  0.00    -0.088 C  
HETATM    2  C   UNL     1      -7.149  10.790  65.799  1.00  0.00    -0.053 C  
ENDROOT
BRANCH   2   3
HETATM    3  N   UNL     1      -8.578  10.521  65.594  1.00  0.00    -0.170 NA 
BRANCH   3   4
HETATM    4  C   UNL     1      -8.983   9.192  65.111  1.00  0.00    -0.189 C  
BRANCH   4   5
HETATM    5  C   UNL     1      -7.923   8.601  64.164  1.00  0.00    -0.149 C  
HETATM    6  H   UNL     1      -7.873   7.539  62.490  1.00  0.00     0.000 HD 
HETATM    7  O   UNL     1      -8.526   7.903  63.075  1.00  0.00    -0.030 OA 
ENDBRANCH   4   5
ENDBRANCH   3   4
BRANCH   3   8
HETATM    8  C   UNL     1      -9.525  11.435  66.036  1.00  0.00    -0.223 A  
HETATM    9  C   UNL     1     -12.057  11.637  68.870  1.00  0.00    -0.253 C  
HETATM   10  C   UNL     1      -9.680  12.703  65.463  1.00  0.00    -0.110 A  
HETATM   11  C   UNL     1     -10.614  13.627  65.959  1.00  0.00    -0.290 A  
HETATM   12  C   UNL     1     -10.356  11.130  67.120  1.00  0.00    -0.249 A  
HETATM   13  C   UNL     1     -11.408  13.325  67.072  1.00  0.00    -0.312 A  
HETATM   14  C   UNL     1     -11.266  12.059  67.661  1.00  0.00    -0.343 A  
BRANCH  13  15
HETATM   15  N   UNL     1     -12.385  14.210  67.571  1.00  0.00    -0.560 NA 
HETATM   16  H   UNL     1     -13.380  13.986  67.596  1.00  0.00     0.000 HD 
BRANCH  15  17
HETATM   17  N   UNL     1     -11.917  15.294  67.978  1.00  0.00    -0.452 NA 
HETATM   18  H   UNL     1     -11.577  16.026  67.353  1.00  0.00     0.000 HD 
BRANCH  17  19
HETATM   19  C   UNL     1     -11.904  15.407  69.338  1.00  0.00    -0.351 A  
HETATM   20  N   UNL     1     -11.184  16.233  70.083  1.00  0.00    -0.363 NA 
HETATM   21  C   UNL     1     -11.468  16.064  71.425  1.00  0.00    -0.398 A  
HETATM   22  C   UNL     1     -12.405  15.101  71.689  1.00  0.00    -0.347 A  
HETATM   23  N   UNL     1     -12.889  14.716  72.975  1.00  0.00    -0.470 N  
HETATM   24  S   UNL     1     -12.960  14.377  70.258  1.00  0.00     0.080 SA 
HETATM   25  O   UNL     1     -12.417  15.323  73.946  1.00  0.00    -0.535 OA 
HETATM   26  O   UNL     1     -13.742  13.820  73.034  1.00  0.00    -0.581 OA 
ENDBRANCH  17  19
ENDBRANCH  15  17
ENDBRANCH  13  15
ENDBRANCH   3   8
ENDBRANCH   2   3
TORSDOF 7
ENDMDL
MODEL      122
REMARK 921   NORMALIZED FREE ENERGY PREDICTED BY IDOCK:   -4.34 KCAL/MOL
REMARK 922        TOTAL FREE ENERGY PREDICTED BY IDOCK:   -6.75 KCAL/MOL
REMARK 923 INTER-LIGAND FREE ENERGY PREDICTED BY IDOCK:   -6.05 KCAL/MOL
REMARK 924 INTRA-LIGAND FREE ENERGY PREDICTED BY IDOCK:   -0.70 KCAL/MOL
REMARK 927      BINDING AFFINITY PREDICTED BY RF-SCORE:    0.00 PKD
ROOT
HETATM    1  C   UNL     1     -10.864  16.628  67.263  1.00  0.00    -0.158 C  
HETATM    2  C   UNL     1     -10.695  15.964  65.905  1.00  0.00    -0.296 C  
ENDROOT
BRANCH   2   3
HETATM    3  N   UNL     1     -11.299  14.626  65.874  1.00  0.00    -0.337 NA 
BRANCH   3   4
HETATM    4  C   UNL     1     -12.309  14.332  64.846  1.00  0.00    -0.425 C  
BRANCH   4   5
HETATM    5  C   UNL     1     -11.833  13.211  63.906  1.00  0.00    -0.472 C  
HETATM    6  H   UNL     1     -12.635  11.755  62.825  1.00  0.00     0.000 HD 
HETATM    7  O   UNL     1     -12.929  12.448  63.405  1.00  0.00    -0.723 OA 
ENDBRANCH   4   5
ENDBRANCH   3   4
BRANCH   3   8
HETATM    8  C   UNL     1     -10.781  13.614  66.671  1.00  0.00    -0.280 A  
HETATM    9  C   UNL     1      -7.329  12.225  67.473  1.00  0.00    -0.137 C  
HETATM   10  C   UNL     1     -11.572  12.850  67.536  1.00  0.00    -0.409 A  
HETATM   11  C   UNL     1     -11.016  11.863  68.366  1.00  0.00    -0.273 A  
HETATM   12  C   UNL     1      -9.408  13.338  66.666  1.00  0.00    -0.247 A  
HETATM   13  C   UNL     1      -9.635  11.627  68.383  1.00  0.00    -0.195 A  
HETATM   14  C   UNL     1      -8.825  12.385  67.523  1.00  0.00    -0.181 A  
BRANCH  13  15
HETATM   15  N   UNL     1      -9.047  10.617  69.171  1.00  0.00    -0.298 NA 
HETATM   16  H   UNL     1      -8.522  10.808  70.024  1.00  0.00     0.000 HD 
BRANCH  15  17
HETATM   17  N   UNL     1      -9.228   9.465  68.723  1.00  0.00    -0.131 NA 
HETATM   18  H   UNL     1      -9.038   9.204  67.755  1.00  0.00     0.000 HD 
BRANCH  17  19
HETATM   19  C   UNL     1      -9.707   8.587  69.653  1.00  0.00    -0.179 A  
HETATM   20  N   UNL     1     -10.871   8.621  70.286  1.00  0.00    -0.234 NA 
HETATM   21  C   UNL     1     -11.002   7.539  71.136  1.00  0.00    -0.246 A  
HETATM   22  C   UNL     1      -9.927   6.690  71.145  1.00  0.00    -0.182 A  
HETATM   23  N   UNL     1      -9.789   5.502  71.921  1.00  0.00    -0.165 N  
HETATM   24  S   UNL     1      -8.717   7.225  70.082  1.00  0.00    -0.140 SA 
HETATM   25  O   UNL     1     -10.743   5.208  72.653  1.00  0.00    -0.216 OA 
HETATM   26  O   UNL     1      -8.743   4.847  71.808  1.00  0.00    -0.124 OA 
ENDBRANCH  17  19
ENDBRANCH  15  17
ENDBRANCH  13  15
ENDBRANCH   3   8
ENDBRANCH   2   3
TORSDOF 7
ENDMDL
MODEL      123
REMARK 921   NORMALIZED FREE ENERGY PREDICTED BY IDOCK:   -4.34 KCAL/MOL
REMARK 922        TOTAL FREE ENERGY PREDICTED BY IDOCK:   -6.74 KCAL/MOL
REMARK 923 INTER-LIGAND FREE ENERGY PREDICTED BY IDOCK:   -6.52 KCAL/MOL
REMARK 924 INTRA-LIGAND FREE ENERGY PREDICTED BY IDOCK:   -0.22 KCAL/MOL
REMARK 927      BINDING AFFINITY PREDICTED BY RF-SCORE:    0.00 PKD
ROOT
HETATM    1  C   UNL     1     -10.520   5.098  69.985  1.00  0.00    -0.305 C  
HETATM    2  C   UNL     1     -11.036   6.499  69.691  1.00  0.00    -0.376 C  
ENDROOT
BRANCH   2   3
HETATM    3  N   UNL     1      -9.976   7.507  69.819  1.00  0.00    -0.184 NA 
BRANCH   3   4
HETATM    4  C   UNL     1      -8.613   7.059  70.145  1.00  0.00    -0.140 C  
BRANCH   4   5
HETATM    5  C   UNL     1      -8.185   7.556  71.537  1.00  0.00    -0.103 C  
HETATM    6  H   UNL     1      -6.746   7.193  72.852  1.00  0.00     0.000 HD 
HETATM    7  O   UNL     1      -7.011   6.887  71.993  1.00  0.00    -0.067 OA 
ENDBRANCH   4   5
ENDBRANCH   3   4
BRANCH   3   8
HETATM    8  C   UNL     1     -10.223   8.822  69.447  1.00  0.00    -0.210 A  
HETATM    9  C   UNL     1      -9.991  10.875  66.251  1.00  0.00    -0.274 C  
HETATM   10  C   UNL     1     -10.779   9.766  70.318  1.00  0.00    -0.358 A  
HETATM   11  C   UNL     1     -11.061  11.076  69.902  1.00  0.00    -0.276 A  
HETATM   12  C   UNL     1      -9.951   9.254  68.143  1.00  0.00    -0.206 A  
HETATM   13  C   UNL     1     -10.826  11.483  68.582  1.00  0.00    -0.212 A  
HETATM   14  C   UNL     1     -10.269  10.550  67.693  1.00  0.00    -0.234 A  
BRANCH  13  15
HETATM   15  N   UNL     1     -11.056  12.801  68.141  1.00  0.00    -0.242 NA 
HETATM   16  H   UNL     1     -10.402  13.315  67.552  1.00  0.00     0.000 HD 
BRANCH  15  17
HETATM   17  N   UNL     1     -12.138  13.281  68.540  1.00  0.00    -0.298 NA 
HETATM   18  H   UNL     1     -13.043  13.021  68.147  1.00  0.00     0.000 HD 
BRANCH  17  19
HETATM   19  C   UNL     1     -11.995  14.184  69.553  1.00  0.00    -0.340 A  
HETATM   20  N   UNL     1     -11.348  15.340  69.531  1.00  0.00    -0.267 NA 
HETATM   21  C   UNL     1     -11.451  15.987  70.748  1.00  0.00    -0.414 A  
HETATM   22  C   UNL     1     -12.177  15.308  71.692  1.00  0.00    -0.365 A  
HETATM   23  N   UNL     1     -12.444  15.735  73.026  1.00  0.00    -0.421 N  
HETATM   24  S   UNL     1     -12.754  13.836  71.078  1.00  0.00    -0.323 SA 
HETATM   25  O   UNL     1     -11.978  16.833  73.358  1.00  0.00    -0.429 OA 
HETATM   26  O   UNL     1     -13.121  14.994  73.752  1.00  0.00    -0.478 OA 
ENDBRANCH  17  19
ENDBRANCH  15  17
ENDBRANCH  13  15
ENDBRANCH   3   8
ENDBRANCH   2   3
TORSDOF 7
ENDMDL
MODEL      124
REMARK 921   NORMALIZED FREE ENERGY PREDICTED BY IDOCK:   -4.33 KCAL/MOL
REMARK 922        TOTAL FREE ENERGY PREDICTED BY IDOCK:   -6.73 KCAL/MOL
REMARK 923 INTER-LIGAND FREE ENERGY PREDICTED BY IDOCK:   -6.09 KCAL/MOL
REMARK 924 INTRA-LIGAND FREE ENERGY PREDICTED BY IDOCK:   -0.64 KCAL/MOL
REMARK 927      BINDING AFFINITY PREDICTED BY RF-SCORE:    0.00 PKD
ROOT
HETATM    1  C   UNL     1      -9.377   3.897  67.362  1.00  0.00    -0.225 C  
HETATM    2  C   UNL     1     -10.284   5.106  67.186  1.00  0.00    -0.208 C  
ENDROOT
BRANCH   2   3
HETATM    3  N   UNL     1      -9.514   6.351  67.066  1.00  0.00    -0.134 NA 
BRANCH   3   4
HETATM    4  C   UNL     1      -8.405   6.404  66.101  1.00  0.00    -0.128 C  
BRANCH   4   5
HETATM    5  C   UNL     1      -7.099   6.848  66.782  1.00  0.00    -0.075 C  
HETATM    6  H   UNL     1      -5.606   6.017  67.788  1.00  0.00     0.000 HD 
HETATM    7  O   UNL     1      -6.413   5.743  67.367  1.00  0.00    -0.040 OA 
ENDBRANCH   4   5
ENDBRANCH   3   4
BRANCH   3   8
HETATM    8  C   UNL     1      -9.954   7.501  67.708  1.00  0.00    -0.171 A  
HETATM    9  C   UNL     1     -10.938  11.031  66.679  1.00  0.00    -0.253 C  
HETATM   10  C   UNL     1     -10.245   7.543  69.076  1.00  0.00    -0.208 A  
HETATM   11  C   UNL     1     -10.733   8.707  69.691  1.00  0.00    -0.204 A  
HETATM   12  C   UNL     1     -10.163   8.682  66.985  1.00  0.00    -0.360 A  
HETATM   13  C   UNL     1     -10.979   9.868  68.948  1.00  0.00    -0.179 A  
HETATM   14  C   UNL     1     -10.695   9.846  67.573  1.00  0.00    -0.333 A  
BRANCH  13  15
HETATM   15  N   UNL     1     -11.428  11.067  69.538  1.00  0.00    -0.271 NA 
HETATM   16  H   UNL     1     -10.966  11.965  69.398  1.00  0.00     0.000 HD 
BRANCH  15  17
HETATM   17  N   UNL     1     -12.445  10.925  70.249  1.00  0.00    -0.314 NA 
HETATM   18  H   UNL     1     -13.006  10.073  70.257  1.00  0.00     0.000 HD 
BRANCH  17  19
HETATM   19  C   UNL     1     -12.733  12.017  71.016  1.00  0.00    -0.241 A  
HETATM   20  N   UNL     1     -13.480  12.074  72.109  1.00  0.00    -0.396 NA 
HETATM   21  C   UNL     1     -13.514  13.358  72.617  1.00  0.00    -0.426 A  
HETATM   22  C   UNL     1     -12.790  14.272  71.898  1.00  0.00    -0.348 A  
HETATM   23  N   UNL     1     -12.646  15.661  72.190  1.00  0.00    -0.392 N  
HETATM   24  S   UNL     1     -12.043  13.545  70.560  1.00  0.00    -0.290 SA 
HETATM   25  O   UNL     1     -13.231  16.076  73.200  1.00  0.00    -0.533 OA 
HETATM   26  O   UNL     1     -11.951  16.349  71.430  1.00  0.00    -0.362 OA 
ENDBRANCH  17  19
ENDBRANCH  15  17
ENDBRANCH  13  15
ENDBRANCH   3   8
ENDBRANCH   2   3
TORSDOF 7
ENDMDL
MODEL      125
REMARK 921   NORMALIZED FREE ENERGY PREDICTED BY IDOCK:   -4.33 KCAL/MOL
REMARK 922        TOTAL FREE ENERGY PREDICTED BY IDOCK:   -6.73 KCAL/MOL
REMARK 923 INTER-LIGAND FREE ENERGY PREDICTED BY IDOCK:   -6.49 KCAL/MOL
REMARK 924 INTRA-LIGAND FREE ENERGY PREDICTED BY IDOCK:   -0.24 KCAL/MOL
REMARK 927      BINDING AFFINITY PREDICTED BY RF-SCORE:    0.00 PKD
ROOT
HETATM    1  C   UNL     1     -10.269   4.782  72.314  1.00  0.00    -0.252 C  
HETATM    2  C   UNL     1     -11.330   5.694  71.716  1.00  0.00    -0.111 C  
ENDROOT
BRANCH   2   3
HETATM    3  N   UNL     1     -10.885   6.290  70.450  1.00  0.00    -0.274 NA 
BRANCH   3   4
HETATM    4  C   UNL     1     -10.477   5.396  69.355  1.00  0.00    -0.261 C  
BRANCH   4   5
HETATM    5  C   UNL     1      -8.945   5.260  69.294  1.00  0.00    -0.103 C  
HETATM    6  H   UNL     1      -7.602   3.816  69.092  1.00  0.00     0.000 HD 
HETATM    7  O   UNL     1      -8.547   3.900  69.129  1.00  0.00    -0.075 OA 
ENDBRANCH   4   5
ENDBRANCH   3   4
BRANCH   3   8
HETATM    8  C   UNL     1     -11.038   7.653  70.235  1.00  0.00    -0.244 A  
HETATM    9  C   UNL     1     -13.108  10.470  71.739  1.00  0.00    -0.570 C  
HETATM   10  C   UNL     1     -10.254   8.370  69.323  1.00  0.00    -0.211 A  
HETATM   11  C   UNL     1     -10.397   9.757  69.159  1.00  0.00    -0.225 A  
HETATM   12  C   UNL     1     -11.979   8.387  70.967  1.00  0.00    -0.255 A  
HETATM   13  C   UNL     1     -11.312  10.486  69.929  1.00  0.00    -0.309 A  
HETATM   14  C   UNL     1     -12.106   9.785  70.850  1.00  0.00    -0.407 A  
BRANCH  13  15
HETATM   15  N   UNL     1     -11.513  11.871  69.762  1.00  0.00    -0.462 NA 
HETATM   16  H   UNL     1     -11.051  12.576  70.336  1.00  0.00     0.000 HD 
BRANCH  15  17
HETATM   17  N   UNL     1     -12.311  12.153  68.843  1.00  0.00    -0.041 NA 
HETATM   18  H   UNL     1     -13.241  11.741  68.764  1.00  0.00     0.000 HD 
BRANCH  17  19
HETATM   19  C   UNL     1     -11.820  13.065  67.953  1.00  0.00    -0.343 A  
HETATM   20  N   UNL     1     -11.840  13.008  66.630  1.00  0.00    -0.386 NA 
HETATM   21  C   UNL     1     -11.265  14.137  66.078  1.00  0.00    -0.319 A  
HETATM   22  C   UNL     1     -10.807  15.046  66.995  1.00  0.00    -0.311 A  
HETATM   23  N   UNL     1     -10.174  16.293  66.712  1.00  0.00    -0.274 N  
HETATM   24  S   UNL     1     -11.084  14.510  68.580  1.00  0.00    -0.269 SA 
HETATM   25  O   UNL     1     -10.035  16.581  65.515  1.00  0.00    -0.541 OA 
HETATM   26  O   UNL     1      -9.818  16.997  67.666  1.00  0.00    -0.247 OA 
ENDBRANCH  17  19
ENDBRANCH  15  17
ENDBRANCH  13  15
ENDBRANCH   3   8
ENDBRANCH   2   3
TORSDOF 7
ENDMDL
MODEL      126
REMARK 921   NORMALIZED FREE ENERGY PREDICTED BY IDOCK:   -4.32 KCAL/MOL
REMARK 922        TOTAL FREE ENERGY PREDICTED BY IDOCK:   -6.71 KCAL/MOL
REMARK 923 INTER-LIGAND FREE ENERGY PREDICTED BY IDOCK:   -5.97 KCAL/MOL
REMARK 924 INTRA-LIGAND FREE ENERGY PREDICTED BY IDOCK:   -0.74 KCAL/MOL
REMARK 927      BINDING AFFINITY PREDICTED BY RF-SCORE:    0.00 PKD
ROOT
HETATM    1  C   UNL     1     -13.074   9.219  71.717  1.00  0.00    -0.472 C  
HETATM    2  C   UNL     1     -11.778   8.649  72.272  1.00  0.00    -0.358 C  
ENDROOT
BRANCH   2   3
HETATM    3  N   UNL     1     -11.196   7.644  71.373  1.00  0.00    -0.243 NA 
BRANCH   3   4
HETATM    4  C   UNL     1     -11.318   6.222  71.732  1.00  0.00    -0.294 C  
BRANCH   4   5
HETATM    5  C   UNL     1     -10.594   5.922  73.056  1.00  0.00    -0.243 C  
HETATM    6  H   UNL     1     -10.949   4.934  74.738  1.00  0.00     0.000 HD 
HETATM    7  O   UNL     1     -11.396   5.119  73.921  1.00  0.00    -0.151 OA 
ENDBRANCH   4   5
ENDBRANCH   3   4
BRANCH   3   8
HETATM    8  C   UNL     1     -10.723   8.023  70.124  1.00  0.00    -0.244 A  
HETATM    9  C   UNL     1      -8.298  10.622  68.764  1.00  0.00    -0.144 C  
HETATM   10  C   UNL     1     -11.048   7.337  68.949  1.00  0.00     0.027 A  
HETATM   11  C   UNL     1     -10.518   7.713  67.704  1.00  0.00    -0.313 A  
HETATM   12  C   UNL     1      -9.851   9.111  69.995  1.00  0.00    -0.217 A  
HETATM   13  C   UNL     1      -9.613   8.776  67.596  1.00  0.00    -0.144 A  
HETATM   14  C   UNL     1      -9.273   9.476  68.764  1.00  0.00    -0.140 A  
BRANCH  13  15
HETATM   15  N   UNL     1      -9.094   9.209  66.359  1.00  0.00    -0.159 NA 
HETATM   16  H   UNL     1      -8.114   9.454  66.219  1.00  0.00     0.000 HD 
BRANCH  15  17
HETATM   17  N   UNL     1      -9.949   9.265  65.450  1.00  0.00    -0.384 NA 
HETATM   18  H   UNL     1     -10.391   8.439  65.047  1.00  0.00     0.000 HD 
BRANCH  17  19
HETATM   19  C   UNL     1     -10.236  10.538  65.047  1.00  0.00    -0.295 A  
HETATM   20  N   UNL     1      -9.843  11.152  63.941  1.00  0.00    -0.278 NA 
HETATM   21  C   UNL     1     -10.362  12.432  63.876  1.00  0.00    -0.423 A  
HETATM   22  C   UNL     1     -11.147  12.780  64.943  1.00  0.00    -0.292 A  
HETATM   23  N   UNL     1     -11.808  14.029  65.140  1.00  0.00    -0.348 N  
HETATM   24  S   UNL     1     -11.258  11.510  66.062  1.00  0.00    -0.095 SA 
HETATM   25  O   UNL     1     -11.661  14.877  64.249  1.00  0.00    -0.300 OA 
HETATM   26  O   UNL     1     -12.481  14.178  66.168  1.00  0.00    -0.466 OA 
ENDBRANCH  17  19
ENDBRANCH  15  17
ENDBRANCH  13  15
ENDBRANCH   3   8
ENDBRANCH   2   3
TORSDOF 7
ENDMDL
MODEL      127
REMARK 921   NORMALIZED FREE ENERGY PREDICTED BY IDOCK:   -4.32 KCAL/MOL
REMARK 922        TOTAL FREE ENERGY PREDICTED BY IDOCK:   -6.71 KCAL/MOL
REMARK 923 INTER-LIGAND FREE ENERGY PREDICTED BY IDOCK:   -6.16 KCAL/MOL
REMARK 924 INTRA-LIGAND FREE ENERGY PREDICTED BY IDOCK:   -0.56 KCAL/MOL
REMARK 927      BINDING AFFINITY PREDICTED BY RF-SCORE:    0.00 PKD
ROOT
HETATM    1  C   UNL     1     -13.782  14.749  72.106  1.00  0.00    -0.543 C  
HETATM    2  C   UNL     1     -12.717  13.772  71.630  1.00  0.00    -0.321 C  
ENDROOT
BRANCH   2   3
HETATM    3  N   UNL     1     -12.402  13.960  70.209  1.00  0.00    -0.343 NA 
BRANCH   3   4
HETATM    4  C   UNL     1     -12.324  15.331  69.680  1.00  0.00    -0.210 C  
BRANCH   4   5
HETATM    5  C   UNL     1     -11.202  16.127  70.368  1.00  0.00    -0.381 C  
HETATM    6  H   UNL     1      -9.221  16.108  70.452  1.00  0.00     0.000 HD 
HETATM    7  O   UNL     1      -9.914  15.617  70.027  1.00  0.00    -0.290 OA 
ENDBRANCH   4   5
ENDBRANCH   3   4
BRANCH   3   8
HETATM    8  C   UNL     1     -11.995  12.878  69.440  1.00  0.00    -0.269 A  
HETATM    9  C   UNL     1     -11.278  12.219  65.761  1.00  0.00    -0.378 C  
HETATM   10  C   UNL     1     -11.631  11.647  69.996  1.00  0.00    -0.338 A  
HETATM   11  C   UNL     1     -11.179  10.582  69.200  1.00  0.00    -0.314 A  
HETATM   12  C   UNL     1     -11.896  12.992  68.048  1.00  0.00    -0.391 A  
HETATM   13  C   UNL     1     -11.042  10.725  67.813  1.00  0.00    -0.318 A  
HETATM   14  C   UNL     1     -11.401  11.953  67.237  1.00  0.00    -0.393 A  
BRANCH  13  15
HETATM   15  N   UNL     1     -10.632   9.666  66.978  1.00  0.00    -0.226 NA 
HETATM   16  H   UNL     1     -11.123   9.408  66.122  1.00  0.00     0.000 HD 
BRANCH  15  17
HETATM   17  N   UNL     1      -9.611   9.074  67.385  1.00  0.00    -0.147 NA 
HETATM   18  H   UNL     1      -8.762   9.560  67.677  1.00  0.00     0.000 HD 
BRANCH  17  19
HETATM   19  C   UNL     1      -9.737   7.715  67.403  1.00  0.00    -0.161 A  
HETATM   20  N   UNL     1     -10.848   6.997  67.330  1.00  0.00    -0.301 NA 
HETATM   21  C   UNL     1     -10.565   5.644  67.354  1.00  0.00    -0.237 A  
HETATM   22  C   UNL     1      -9.231   5.346  67.450  1.00  0.00    -0.111 A  
HETATM   23  N   UNL     1      -8.654   4.042  67.495  1.00  0.00    -0.099 N  
HETATM   24  S   UNL     1      -8.291   6.756  67.513  1.00  0.00    -0.122 SA 
HETATM   25  O   UNL     1      -9.440   3.088  67.432  1.00  0.00    -0.198 OA 
HETATM   26  O   UNL     1      -7.422   3.952  67.584  1.00  0.00    -0.066 OA 
ENDBRANCH  17  19
ENDBRANCH  15  17
ENDBRANCH  13  15
ENDBRANCH   3   8
ENDBRANCH   2   3
TORSDOF 7
ENDMDL
MODEL      128
REMARK 921   NORMALIZED FREE ENERGY PREDICTED BY IDOCK:   -4.32 KCAL/MOL
REMARK 922        TOTAL FREE ENERGY PREDICTED BY IDOCK:   -6.71 KCAL/MOL
REMARK 923 INTER-LIGAND FREE ENERGY PREDICTED BY IDOCK:   -6.26 KCAL/MOL
REMARK 924 INTRA-LIGAND FREE ENERGY PREDICTED BY IDOCK:   -0.45 KCAL/MOL
REMARK 927      BINDING AFFINITY PREDICTED BY RF-SCORE:    0.00 PKD
ROOT
HETATM    1  C   UNL     1     -14.405  14.881  72.284  1.00  0.00    -0.522 C  
HETATM    2  C   UNL     1     -13.548  13.624  72.256  1.00  0.00    -0.571 C  
ENDROOT
BRANCH   2   3
HETATM    3  N   UNL     1     -12.818  13.490  70.989  1.00  0.00    -0.299 NA 
BRANCH   3   4
HETATM    4  C   UNL     1     -12.411  14.712  70.278  1.00  0.00    -0.346 C  
BRANCH   4   5
HETATM    5  C   UNL     1     -11.144  15.321  70.904  1.00  0.00    -0.301 C  
HETATM    6  H   UNL     1      -9.361  15.948  70.305  1.00  0.00     0.000 HD 
HETATM    7  O   UNL     1     -10.144  15.572  69.919  1.00  0.00    -0.286 OA 
ENDBRANCH   4   5
ENDBRANCH   3   4
BRANCH   3   8
HETATM    8  C   UNL     1     -12.357  12.245  70.584  1.00  0.00    -0.286 A  
HETATM    9  C   UNL     1     -10.792  10.769  67.444  1.00  0.00    -0.345 C  
HETATM   10  C   UNL     1     -12.299  11.141  71.442  1.00  0.00    -0.338 A  
HETATM   11  C   UNL     1     -11.784   9.905  71.020  1.00  0.00    -0.466 A  
HETATM   12  C   UNL     1     -11.887  12.051  69.280  1.00  0.00    -0.377 A  
HETATM   13  C   UNL     1     -11.276   9.737  69.726  1.00  0.00    -0.202 A  
HETATM   14  C   UNL     1     -11.325  10.833  68.850  1.00  0.00    -0.349 A  
BRANCH  13  15
HETATM   15  N   UNL     1     -10.792   8.501  69.253  1.00  0.00    -0.407 NA 
HETATM   16  H   UNL     1     -11.401   7.738  68.959  1.00  0.00     0.000 HD 
BRANCH  15  17
HETATM   17  N   UNL     1      -9.545   8.428  69.231  1.00  0.00    -0.162 NA 
HETATM   18  H   UNL     1      -8.984   8.696  68.422  1.00  0.00     0.000 HD 
BRANCH  17  19
HETATM   19  C   UNL     1      -9.004   7.955  70.391  1.00  0.00    -0.147 A  
HETATM   20  N   UNL     1      -9.260   6.808  71.004  1.00  0.00    -0.156 NA 
HETATM   21  C   UNL     1      -8.492   6.676  72.145  1.00  0.00    -0.112 A  
HETATM   22  C   UNL     1      -7.656   7.733  72.392  1.00  0.00    -0.089 A  
HETATM   23  N   UNL     1      -6.755   7.866  73.490  1.00  0.00    -0.087 N  
HETATM   24  S   UNL     1      -7.809   8.927  71.197  1.00  0.00    -0.119 SA 
HETATM   25  O   UNL     1      -6.723   6.924  74.294  1.00  0.00    -0.082 OA 
HETATM   26  O   UNL     1      -6.069   8.894  73.563  1.00  0.00    -0.212 OA 
ENDBRANCH  17  19
ENDBRANCH  15  17
ENDBRANCH  13  15
ENDBRANCH   3   8
ENDBRANCH   2   3
TORSDOF 7
ENDMDL
MODEL      129
REMARK 921   NORMALIZED FREE ENERGY PREDICTED BY IDOCK:   -4.30 KCAL/MOL
REMARK 922        TOTAL FREE ENERGY PREDICTED BY IDOCK:   -6.69 KCAL/MOL
REMARK 923 INTER-LIGAND FREE ENERGY PREDICTED BY IDOCK:   -6.14 KCAL/MOL
REMARK 924 INTRA-LIGAND FREE ENERGY PREDICTED BY IDOCK:   -0.55 KCAL/MOL
REMARK 927      BINDING AFFINITY PREDICTED BY RF-SCORE:    0.00 PKD
ROOT
HETATM    1  C   UNL     1      -9.017   8.515  66.079  1.00  0.00    -0.228 C  
HETATM    2  C   UNL     1     -10.345   8.191  66.746  1.00  0.00    -0.291 C  
ENDROOT
BRANCH   2   3
HETATM    3  N   UNL     1     -10.641   9.116  67.848  1.00  0.00    -0.236 NA 
BRANCH   3   4
HETATM    4  C   UNL     1     -10.652   8.593  69.223  1.00  0.00    -0.192 C  
BRANCH   4   5
HETATM    5  C   UNL     1     -10.430   7.070  69.238  1.00  0.00    -0.210 C  
HETATM    6  H   UNL     1     -11.315   5.460  69.984  1.00  0.00     0.000 HD 
HETATM    7  O   UNL     1     -11.451   6.400  69.974  1.00  0.00    -0.401 OA 
ENDBRANCH   4   5
ENDBRANCH   3   4
BRANCH   3   8
HETATM    8  C   UNL     1     -10.710  10.481  67.607  1.00  0.00    -0.275 A  
HETATM    9  C   UNL     1     -12.276  12.744  64.977  1.00  0.00    -0.527 C  
HETATM   10  C   UNL     1     -10.197  11.435  68.493  1.00  0.00    -0.216 A  
HETATM   11  C   UNL     1     -10.321  12.812  68.247  1.00  0.00    -0.248 A  
HETATM   12  C   UNL     1     -11.344  10.968  66.457  1.00  0.00     0.047 A  
HETATM   13  C   UNL     1     -10.996  13.286  67.115  1.00  0.00    -0.272 A  
HETATM   14  C   UNL     1     -11.519  12.345  66.215  1.00  0.00    -0.423 A  
BRANCH  13  15
HETATM   15  N   UNL     1     -11.103  14.659  66.814  1.00  0.00    -0.328 NA 
HETATM   16  H   UNL     1     -11.942  15.208  67.001  1.00  0.00     0.000 HD 
BRANCH  15  17
HETATM   17  N   UNL     1     -10.073  15.140  66.297  1.00  0.00    -0.268 NA 
HETATM   18  H   UNL     1      -9.653  14.771  65.443  1.00  0.00     0.000 HD 
BRANCH  17  19
HETATM   19  C   UNL     1      -9.563  16.205  66.981  1.00  0.00    -0.224 A  
HETATM   20  N   UNL     1     -10.206  17.052  67.771  1.00  0.00    -0.300 NA 
HETATM   21  C   UNL     1      -9.338  17.985  68.305  1.00  0.00    -0.295 A  
HETATM   22  C   UNL     1      -8.035  17.839  67.911  1.00  0.00    -0.233 A  
HETATM   23  N   UNL     1      -6.932  18.653  68.303  1.00  0.00    -0.239 N  
HETATM   24  S   UNL     1      -7.859  16.523  66.855  1.00  0.00    -0.258 SA 
HETATM   25  O   UNL     1      -7.181  19.580  69.087  1.00  0.00    -0.354 OA 
HETATM   26  O   UNL     1      -5.812  18.380  67.849  1.00  0.00    -0.166 OA 
ENDBRANCH  17  19
ENDBRANCH  15  17
ENDBRANCH  13  15
ENDBRANCH   3   8
ENDBRANCH   2   3
TORSDOF 7
ENDMDL
MODEL      130
REMARK 921   NORMALIZED FREE ENERGY PREDICTED BY IDOCK:   -4.27 KCAL/MOL
REMARK 922        TOTAL FREE ENERGY PREDICTED BY IDOCK:   -6.64 KCAL/MOL
REMARK 923 INTER-LIGAND FREE ENERGY PREDICTED BY IDOCK:   -5.87 KCAL/MOL
REMARK 924 INTRA-LIGAND FREE ENERGY PREDICTED BY IDOCK:   -0.77 KCAL/MOL
REMARK 927      BINDING AFFINITY PREDICTED BY RF-SCORE:    0.00 PKD
ROOT
HETATM    1  C   UNL     1      -9.305   4.433  70.295  1.00  0.00    -0.218 C  
HETATM    2  C   UNL     1      -9.240   5.871  70.789  1.00  0.00    -0.153 C  
ENDROOT
BRANCH   2   3
HETATM    3  N   UNL     1     -10.330   6.685  70.236  1.00  0.00    -0.198 NA 
BRANCH   3   4
HETATM    4  C   UNL     1     -11.621   6.708  70.942  1.00  0.00    -0.361 C  
BRANCH   4   5
HETATM    5  C   UNL     1     -11.702   7.902  71.909  1.00  0.00    -0.297 C  
HETATM    6  H   UNL     1     -11.454   8.248  73.846  1.00  0.00     0.000 HD 
HETATM    7  O   UNL     1     -11.404   7.511  73.248  1.00  0.00    -0.296 OA 
ENDBRANCH   4   5
ENDBRANCH   3   4
BRANCH   3   8
HETATM    8  C   UNL     1     -10.078   7.560  69.189  1.00  0.00    -0.192 A  
HETATM    9  C   UNL     1      -7.789  10.537  68.568  1.00  0.00    -0.111 C  
HETATM   10  C   UNL     1     -10.664   7.421  67.925  1.00  0.00    -0.217 A  
HETATM   11  C   UNL     1     -10.355   8.292  66.869  1.00  0.00    -0.391 A  
HETATM   12  C   UNL     1      -9.177   8.620  69.349  1.00  0.00    -0.150 A  
HETATM   13  C   UNL     1      -9.419   9.321  67.030  1.00  0.00    -0.159 A  
HETATM   14  C   UNL     1      -8.819   9.477  68.290  1.00  0.00    -0.124 A  
BRANCH  13  15
HETATM   15  N   UNL     1      -9.117  10.241  66.006  1.00  0.00    -0.156 NA 
HETATM   16  H   UNL     1      -8.164  10.495  65.747  1.00  0.00     0.000 HD 
BRANCH  15  17
HETATM   17  N   UNL     1     -10.127  10.715  65.445  1.00  0.00    -0.280 NA 
HETATM   18  H   UNL     1     -10.535  10.316  64.599  1.00  0.00     0.000 HD 
BRANCH  17  19
HETATM   19  C   UNL     1     -10.634  11.817  66.071  1.00  0.00    -0.260 A  
HETATM   20  N   UNL     1     -11.902  12.095  66.335  1.00  0.00    -0.607 NA 
HETATM   21  C   UNL     1     -12.014  13.298  67.007  1.00  0.00    -0.365 A  
HETATM   22  C   UNL     1     -10.821  13.927  67.246  1.00  0.00    -0.286 A  
HETATM   23  N   UNL     1     -10.636  15.173  67.916  1.00  0.00    -0.253 N  
HETATM   24  S   UNL     1      -9.520  13.027  66.633  1.00  0.00    -0.243 SA 
HETATM   25  O   UNL     1     -11.661  15.734  68.329  1.00  0.00    -0.361 OA 
HETATM   26  O   UNL     1      -9.482  15.602  68.046  1.00  0.00    -0.194 OA 
ENDBRANCH  17  19
ENDBRANCH  15  17
ENDBRANCH  13  15
ENDBRANCH   3   8
ENDBRANCH   2   3
TORSDOF 7
ENDMDL
MODEL      131
REMARK 921   NORMALIZED FREE ENERGY PREDICTED BY IDOCK:   -4.26 KCAL/MOL
REMARK 922        TOTAL FREE ENERGY PREDICTED BY IDOCK:   -6.64 KCAL/MOL
REMARK 923 INTER-LIGAND FREE ENERGY PREDICTED BY IDOCK:   -5.97 KCAL/MOL
REMARK 924 INTRA-LIGAND FREE ENERGY PREDICTED BY IDOCK:   -0.66 KCAL/MOL
REMARK 927      BINDING AFFINITY PREDICTED BY RF-SCORE:    0.00 PKD
ROOT
HETATM    1  C   UNL     1     -10.193   4.250  64.934  1.00  0.00    -0.193 C  
HETATM    2  C   UNL     1      -8.739   4.587  64.642  1.00  0.00    -0.147 C  
ENDROOT
BRANCH   2   3
HETATM    3  N   UNL     1      -8.160   5.446  65.683  1.00  0.00    -0.111 NA 
BRANCH   3   4
HETATM    4  C   UNL     1      -6.930   5.003  66.359  1.00  0.00    -0.067 C  
BRANCH   4   5
HETATM    5  C   UNL     1      -6.985   3.498  66.677  1.00  0.00    -0.054 C  
HETATM    6  H   UNL     1      -5.801   1.916  66.517  1.00  0.00     0.000 HD 
HETATM    7  O   UNL     1      -5.768   2.844  66.321  1.00  0.00    -0.020 OA 
ENDBRANCH   4   5
ENDBRANCH   3   4
BRANCH   3   8
HETATM    8  C   UNL     1      -8.654   6.728  65.877  1.00  0.00    -0.147 A  
HETATM    9  C   UNL     1     -10.322   8.645  68.711  1.00  0.00    -0.228 C  
HETATM   10  C   UNL     1      -8.525   7.744  64.922  1.00  0.00    -0.019 A  
HETATM   11  C   UNL     1      -8.994   9.045  65.162  1.00  0.00    -0.216 A  
HETATM   12  C   UNL     1      -9.284   7.073  67.079  1.00  0.00    -0.167 A  
HETATM   13  C   UNL     1      -9.582   9.388  66.386  1.00  0.00    -0.224 A  
HETATM   14  C   UNL     1      -9.720   8.383  67.357  1.00  0.00    -0.222 A  
BRANCH  13  15
HETATM   15  N   UNL     1     -10.102  10.672  66.646  1.00  0.00    -0.212 NA 
HETATM   16  H   UNL     1     -10.089  11.103  67.570  1.00  0.00     0.000 HD 
BRANCH  15  17
HETATM   17  N   UNL     1     -10.582  11.231  65.637  1.00  0.00    -0.259 NA 
HETATM   18  H   UNL     1     -11.039  10.722  64.881  1.00  0.00     0.000 HD 
BRANCH  17  19
HETATM   19  C   UNL     1     -10.435  12.588  65.644  1.00  0.00    -0.273 A  
HETATM   20  N   UNL     1      -9.566  13.313  66.333  1.00  0.00    -0.268 NA 
HETATM   21  C   UNL     1      -9.712  14.658  66.052  1.00  0.00    -0.312 A  
HETATM   22  C   UNL     1     -10.701  14.945  65.148  1.00  0.00    -0.411 A  
HETATM   23  N   UNL     1     -11.071  16.239  64.675  1.00  0.00    -0.377 N  
HETATM   24  S   UNL     1     -11.478  13.532  64.622  1.00  0.00    -0.375 SA 
HETATM   25  O   UNL     1     -10.424  17.195  65.123  1.00  0.00    -0.666 OA 
HETATM   26  O   UNL     1     -11.994  16.319  63.854  1.00  0.00    -1.003 OA 
ENDBRANCH  17  19
ENDBRANCH  15  17
ENDBRANCH  13  15
ENDBRANCH   3   8
ENDBRANCH   2   3
TORSDOF 7
ENDMDL
MODEL      132
REMARK 921   NORMALIZED FREE ENERGY PREDICTED BY IDOCK:   -4.24 KCAL/MOL
REMARK 922        TOTAL FREE ENERGY PREDICTED BY IDOCK:   -6.61 KCAL/MOL
REMARK 923 INTER-LIGAND FREE ENERGY PREDICTED BY IDOCK:   -6.44 KCAL/MOL
REMARK 924 INTRA-LIGAND FREE ENERGY PREDICTED BY IDOCK:   -0.17 KCAL/MOL
REMARK 927      BINDING AFFINITY PREDICTED BY RF-SCORE:    0.00 PKD
ROOT
HETATM    1  C   UNL     1      -9.345   7.418  67.931  1.00  0.00    -0.138 C  
HETATM    2  C   UNL     1     -10.528   8.011  67.180  1.00  0.00    -0.338 C  
ENDROOT
BRANCH   2   3
HETATM    3  N   UNL     1     -10.232   9.357  66.674  1.00  0.00    -0.258 NA 
BRANCH   3   4
HETATM    4  C   UNL     1      -9.643   9.493  65.333  1.00  0.00    -0.272 C  
BRANCH   4   5
HETATM    5  C   UNL     1      -8.292   8.761  65.246  1.00  0.00    -0.160 C  
HETATM    6  H   UNL     1      -6.433   9.020  65.886  1.00  0.00     0.000 HD 
HETATM    7  O   UNL     1      -7.267   9.471  65.940  1.00  0.00    -0.093 OA 
ENDBRANCH   4   5
ENDBRANCH   3   4
BRANCH   3   8
HETATM    8  C   UNL     1     -10.682  10.472  67.369  1.00  0.00    -0.281 A  
HETATM    9  C   UNL     1     -12.082  11.186  70.835  1.00  0.00    -0.427 C  
HETATM   10  C   UNL     1     -10.605  11.770  66.851  1.00  0.00    -0.270 A  
HETATM   11  C   UNL     1     -11.024  12.886  67.593  1.00  0.00    -0.274 A  
HETATM   12  C   UNL     1     -11.209  10.341  68.659  1.00  0.00    -0.263 A  
HETATM   13  C   UNL     1     -11.509  12.744  68.900  1.00  0.00    -0.305 A  
HETATM   14  C   UNL     1     -11.592  11.450  69.437  1.00  0.00    -0.391 A  
BRANCH  13  15
HETATM   15  N   UNL     1     -11.978  13.836  69.658  1.00  0.00    -0.324 NA 
HETATM   16  H   UNL     1     -12.944  14.162  69.629  1.00  0.00     0.000 HD 
BRANCH  15  17
HETATM   17  N   UNL     1     -11.099  14.366  70.370  1.00  0.00    -0.484 NA 
HETATM   18  H   UNL     1     -10.941  14.110  71.345  1.00  0.00     0.000 HD 
BRANCH  17  19
HETATM   19  C   UNL     1     -10.370  15.319  69.720  1.00  0.00    -0.254 A  
HETATM   20  N   UNL     1      -9.061  15.349  69.516  1.00  0.00    -0.259 NA 
HETATM   21  C   UNL     1      -8.700  16.469  68.792  1.00  0.00    -0.259 A  
HETATM   22  C   UNL     1      -9.745  17.287  68.453  1.00  0.00    -0.293 A  
HETATM   23  N   UNL     1      -9.667  18.503  67.711  1.00  0.00    -0.295 N  
HETATM   24  S   UNL     1     -11.216  16.674  69.034  1.00  0.00    -0.067 SA 
HETATM   25  O   UNL     1      -8.539  18.845  67.331  1.00  0.00    -0.270 OA 
HETATM   26  O   UNL     1     -10.716  19.123  67.493  1.00  0.00    -0.462 OA 
ENDBRANCH  17  19
ENDBRANCH  15  17
ENDBRANCH  13  15
ENDBRANCH   3   8
ENDBRANCH   2   3
TORSDOF 7
ENDMDL
MODEL      133
REMARK 921   NORMALIZED FREE ENERGY PREDICTED BY IDOCK:   -4.23 KCAL/MOL
REMARK 922        TOTAL FREE ENERGY PREDICTED BY IDOCK:   -6.59 KCAL/MOL
REMARK 923 INTER-LIGAND FREE ENERGY PREDICTED BY IDOCK:   -6.22 KCAL/MOL
REMARK 924 INTRA-LIGAND FREE ENERGY PREDICTED BY IDOCK:   -0.38 KCAL/MOL
REMARK 927      BINDING AFFINITY PREDICTED BY RF-SCORE:    0.00 PKD
ROOT
HETATM    1  C   UNL     1     -11.983  12.683  63.353  1.00  0.00    -0.613 C  
HETATM    2  C   UNL     1     -12.661  12.897  64.698  1.00  0.00    -0.391 C  
ENDROOT
BRANCH   2   3
HETATM    3  N   UNL     1     -11.725  13.416  65.703  1.00  0.00    -0.332 NA 
BRANCH   3   4
HETATM    4  C   UNL     1     -11.659  14.870  65.920  1.00  0.00    -0.228 C  
BRANCH   4   5
HETATM    5  C   UNL     1     -10.846  15.559  64.809  1.00  0.00    -0.363 C  
HETATM    6  H   UNL     1     -10.359  17.403  64.270  1.00  0.00     0.000 HD 
HETATM    7  O   UNL     1     -10.860  16.977  64.955  1.00  0.00    -0.678 OA 
ENDBRANCH   4   5
ENDBRANCH   3   4
BRANCH   3   8
HETATM    8  C   UNL     1     -11.069  12.540  66.557  1.00  0.00    -0.287 A  
HETATM    9  C   UNL     1     -10.182   8.838  66.565  1.00  0.00    -0.314 C  
HETATM   10  C   UNL     1     -10.434  12.958  67.732  1.00  0.00    -0.225 A  
HETATM   11  C   UNL     1      -9.738  12.057  68.555  1.00  0.00    -0.165 A  
HETATM   12  C   UNL     1     -10.985  11.176  66.249  1.00  0.00    -0.227 A  
HETATM   13  C   UNL     1      -9.625  10.704  68.212  1.00  0.00    -0.162 A  
HETATM   14  C   UNL     1     -10.254  10.266  67.036  1.00  0.00    -0.282 A  
BRANCH  13  15
HETATM   15  N   UNL     1      -8.971   9.764  69.034  1.00  0.00    -0.145 NA 
HETATM   16  H   UNL     1      -8.238   9.141  68.696  1.00  0.00     0.000 HD 
BRANCH  15  17
HETATM   17  N   UNL     1      -9.376   9.766  70.216  1.00  0.00    -0.346 NA 
HETATM   18  H   UNL     1      -9.552  10.621  70.744  1.00  0.00     0.000 HD 
BRANCH  17  19
HETATM   19  C   UNL     1      -9.560   8.516  70.733  1.00  0.00    -0.180 A  
HETATM   20  N   UNL     1      -9.808   8.181  71.990  1.00  0.00    -0.209 NA 
HETATM   21  C   UNL     1      -9.958   6.813  72.116  1.00  0.00    -0.162 A  
HETATM   22  C   UNL     1      -9.818   6.117  70.944  1.00  0.00    -0.182 A  
HETATM   23  N   UNL     1      -9.922   4.704  70.778  1.00  0.00    -0.218 N  
HETATM   24  S   UNL     1      -9.494   7.161  69.647  1.00  0.00    -0.150 SA 
HETATM   25  O   UNL     1     -10.172   4.045  71.797  1.00  0.00    -0.158 OA 
HETATM   26  O   UNL     1      -9.766   4.236  69.642  1.00  0.00    -0.200 OA 
ENDBRANCH  17  19
ENDBRANCH  15  17
ENDBRANCH  13  15
ENDBRANCH   3   8
ENDBRANCH   2   3
TORSDOF 7
ENDMDL
MODEL      134
REMARK 921   NORMALIZED FREE ENERGY PREDICTED BY IDOCK:   -4.23 KCAL/MOL
REMARK 922        TOTAL FREE ENERGY PREDICTED BY IDOCK:   -6.59 KCAL/MOL
REMARK 923 INTER-LIGAND FREE ENERGY PREDICTED BY IDOCK:   -5.86 KCAL/MOL
REMARK 924 INTRA-LIGAND FREE ENERGY PREDICTED BY IDOCK:   -0.73 KCAL/MOL
REMARK 927      BINDING AFFINITY PREDICTED BY RF-SCORE:    0.00 PKD
ROOT
HETATM    1  C   UNL     1      -6.613   9.170  67.337  1.00  0.00    -0.065 C  
HETATM    2  C   UNL     1      -7.152   7.997  66.531  1.00  0.00    -0.075 C  
ENDROOT
BRANCH   2   3
HETATM    3  N   UNL     1      -8.559   7.720  66.847  1.00  0.00    -0.127 NA 
BRANCH   3   4
HETATM    4  C   UNL     1      -8.936   6.357  67.252  1.00  0.00    -0.107 C  
BRANCH   4   5
HETATM    5  C   UNL     1      -7.787   5.667  68.008  1.00  0.00    -0.097 C  
HETATM    6  H   UNL     1      -6.973   5.718  69.815  1.00  0.00     0.000 HD 
HETATM    7  O   UNL     1      -7.682   6.143  69.348  1.00  0.00    -0.095 OA 
ENDBRANCH   4   5
ENDBRANCH   3   4
BRANCH   3   8
HETATM    8  C   UNL     1      -9.465   8.768  66.949  1.00  0.00    -0.177 A  
HETATM    9  C   UNL     1     -11.382  10.497  69.745  1.00  0.00    -0.367 C  
HETATM   10  C   UNL     1      -9.828   9.566  65.858  1.00  0.00    -0.360 A  
HETATM   11  C   UNL     1     -10.710  10.649  65.997  1.00  0.00    -0.127 A  
HETATM   12  C   UNL     1     -10.035   9.097  68.184  1.00  0.00    -0.206 A  
HETATM   13  C   UNL     1     -11.239  10.993  67.248  1.00  0.00    -0.258 A  
HETATM   14  C   UNL     1     -10.886  10.206  68.355  1.00  0.00    -0.284 A  
BRANCH  13  15
HETATM   15  N   UNL     1     -12.161  12.046  67.419  1.00  0.00    -0.520 NA 
HETATM   16  H   UNL     1     -12.773  12.126  68.230  1.00  0.00     0.000 HD 
BRANCH  15  17
HETATM   17  N   UNL     1     -12.157  12.872  66.481  1.00  0.00    -0.460 NA 
HETATM   18  H   UNL     1     -12.488  12.651  65.541  1.00  0.00     0.000 HD 
BRANCH  17  19
HETATM   19  C   UNL     1     -11.668  14.097  66.833  1.00  0.00    -0.414 A  
HETATM   20  N   UNL     1     -11.140  15.023  66.046  1.00  0.00    -0.336 NA 
HETATM   21  C   UNL     1     -10.783  16.143  66.772  1.00  0.00    -0.235 A  
HETATM   22  C   UNL     1     -11.041  16.055  68.115  1.00  0.00    -0.344 A  
HETATM   23  N   UNL     1     -10.778  17.054  69.098  1.00  0.00    -0.303 N  
HETATM   24  S   UNL     1     -11.742  14.560  68.506  1.00  0.00    -0.312 SA 
HETATM   25  O   UNL     1     -10.273  18.109  68.690  1.00  0.00    -0.378 OA 
HETATM   26  O   UNL     1     -11.075  16.809  70.275  1.00  0.00    -0.211 OA 
ENDBRANCH  17  19
ENDBRANCH  15  17
ENDBRANCH  13  15
ENDBRANCH   3   8
ENDBRANCH   2   3
TORSDOF 7
ENDMDL
MODEL      135
REMARK 921   NORMALIZED FREE ENERGY PREDICTED BY IDOCK:   -4.19 KCAL/MOL
REMARK 922        TOTAL FREE ENERGY PREDICTED BY IDOCK:   -6.54 KCAL/MOL
REMARK 923 INTER-LIGAND FREE ENERGY PREDICTED BY IDOCK:   -5.94 KCAL/MOL
REMARK 924 INTRA-LIGAND FREE ENERGY PREDICTED BY IDOCK:   -0.60 KCAL/MOL
REMARK 927      BINDING AFFINITY PREDICTED BY RF-SCORE:    0.00 PKD
ROOT
HETATM    1  C   UNL     1      -9.884   6.162  69.853  1.00  0.00    -0.205 C  
HETATM    2  C   UNL     1     -11.005   6.264  68.829  1.00  0.00    -0.352 C  
ENDROOT
BRANCH   2   3
HETATM    3  N   UNL     1     -10.486   6.509  67.477  1.00  0.00    -0.204 NA 
BRANCH   3   4
HETATM    4  C   UNL     1     -10.520   5.410  66.500  1.00  0.00    -0.294 C  
BRANCH   4   5
HETATM    5  C   UNL     1      -9.304   4.482  66.668  1.00  0.00    -0.149 C  
HETATM    6  H   UNL     1      -8.885   2.554  66.470  1.00  0.00     0.000 HD 
HETATM    7  O   UNL     1      -9.635   3.128  66.366  1.00  0.00    -0.097 OA 
ENDBRANCH   4   5
ENDBRANCH   3   4
BRANCH   3   8
HETATM    8  C   UNL     1     -10.159   7.800  67.085  1.00  0.00    -0.258 A  
HETATM    9  C   UNL     1      -7.942   9.402  64.438  1.00  0.00    -0.131 C  
HETATM   10  C   UNL     1     -10.760   8.937  67.637  1.00  0.00    -0.221 A  
HETATM   11  C   UNL     1     -10.444  10.229  67.189  1.00  0.00    -0.311 A  
HETATM   12  C   UNL     1      -9.218   8.017  66.071  1.00  0.00    -0.179 A  
HETATM   13  C   UNL     1      -9.534  10.430  66.144  1.00  0.00    -0.181 A  
HETATM   14  C   UNL     1      -8.921   9.302  65.576  1.00  0.00    -0.251 A  
BRANCH  13  15
HETATM   15  N   UNL     1      -9.161  11.714  65.697  1.00  0.00    -0.383 NA 
HETATM   16  H   UNL     1      -8.208  12.071  65.759  1.00  0.00     0.000 HD 
BRANCH  15  17
HETATM   17  N   UNL     1     -10.109  12.372  65.219  1.00  0.00    -0.297 NA 
HETATM   18  H   UNL     1     -10.781  11.983  64.558  1.00  0.00     0.000 HD 
BRANCH  17  19
HETATM   19  C   UNL     1     -10.159  13.661  65.666  1.00  0.00    -0.284 A  
HETATM   20  N   UNL     1     -10.162  14.775  64.948  1.00  0.00    -0.356 NA 
HETATM   21  C   UNL     1     -10.247  15.888  65.763  1.00  0.00    -0.365 A  
HETATM   22  C   UNL     1     -10.303  15.606  67.103  1.00  0.00    -0.285 A  
HETATM   23  N   UNL     1     -10.395  16.553  68.166  1.00  0.00    -0.283 N  
HETATM   24  S   UNL     1     -10.253  13.934  67.380  1.00  0.00    -0.253 SA 
HETATM   25  O   UNL     1     -10.435  17.747  67.840  1.00  0.00    -0.369 OA 
HETATM   26  O   UNL     1     -10.436  16.125  69.327  1.00  0.00    -0.229 OA 
ENDBRANCH  17  19
ENDBRANCH  15  17
ENDBRANCH  13  15
ENDBRANCH   3   8
ENDBRANCH   2   3
TORSDOF 7
ENDMDL
MODEL      136
REMARK 921   NORMALIZED FREE ENERGY PREDICTED BY IDOCK:   -4.19 KCAL/MOL
REMARK 922        TOTAL FREE ENERGY PREDICTED BY IDOCK:   -6.53 KCAL/MOL
REMARK 923 INTER-LIGAND FREE ENERGY PREDICTED BY IDOCK:   -5.84 KCAL/MOL
REMARK 924 INTRA-LIGAND FREE ENERGY PREDICTED BY IDOCK:   -0.69 KCAL/MOL
REMARK 927      BINDING AFFINITY PREDICTED BY RF-SCORE:    0.00 PKD
ROOT
HETATM    1  C   UNL     1      -7.088   9.117  66.598  1.00  0.00    -0.082 C  
HETATM    2  C   UNL     1      -8.113   8.584  65.608  1.00  0.00    -0.119 C  
ENDROOT
BRANCH   2   3
HETATM    3  N   UNL     1      -9.394   8.284  66.260  1.00  0.00    -0.204 NA 
BRANCH   3   4
HETATM    4  C   UNL     1      -9.794   6.876  66.413  1.00  0.00    -0.034 C  
BRANCH   4   5
HETATM    5  C   UNL     1      -8.633   6.028  66.962  1.00  0.00    -0.107 C  
HETATM    6  H   UNL     1      -7.711   5.737  68.693  1.00  0.00     0.000 HD 
HETATM    7  O   UNL     1      -8.427   6.260  68.354  1.00  0.00    -0.115 OA 
ENDBRANCH   4   5
ENDBRANCH   3   4
BRANCH   3   8
HETATM    8  C   UNL     1     -10.107   9.297  66.887  1.00  0.00    -0.256 A  
HETATM    9  C   UNL     1     -11.615   9.888  70.331  1.00  0.00    -0.356 C  
HETATM   10  C   UNL     1     -10.366  10.531  66.279  1.00  0.00    -0.276 A  
HETATM   11  C   UNL     1     -11.048  11.556  66.952  1.00  0.00    -0.366 A  
HETATM   12  C   UNL     1     -10.573   9.132  68.196  1.00  0.00    -0.235 A  
HETATM   13  C   UNL     1     -11.471  11.394  68.277  1.00  0.00    -0.299 A  
HETATM   14  C   UNL     1     -11.220  10.163  68.905  1.00  0.00    -0.220 A  
BRANCH  13  15
HETATM   15  N   UNL     1     -12.196  12.384  68.970  1.00  0.00    -0.103 NA 
HETATM   16  H   UNL     1     -13.215  12.397  69.022  1.00  0.00     0.000 HD 
BRANCH  15  17
HETATM   17  N   UNL     1     -11.473  13.245  69.515  1.00  0.00    -0.401 NA 
HETATM   18  H   UNL     1     -10.560  13.518  69.151  1.00  0.00     0.000 HD 
BRANCH  17  19
HETATM   19  C   UNL     1     -12.020  13.783  70.644  1.00  0.00    -0.266 A  
HETATM   20  N   UNL     1     -12.998  13.293  71.392  1.00  0.00    -0.343 NA 
HETATM   21  C   UNL     1     -13.256  14.119  72.470  1.00  0.00    -0.502 A  
HETATM   22  C   UNL     1     -12.469  15.238  72.528  1.00  0.00    -0.363 A  
HETATM   23  N   UNL     1     -12.515  16.258  73.525  1.00  0.00    -0.522 N  
HETATM   24  S   UNL     1     -11.378  15.288  71.230  1.00  0.00    -0.336 SA 
HETATM   25  O   UNL     1     -13.347  16.108  74.430  1.00  0.00    -0.213 OA 
HETATM   26  O   UNL     1     -11.727  17.208  73.425  1.00  0.00    -0.125 OA 
ENDBRANCH  17  19
ENDBRANCH  15  17
ENDBRANCH  13  15
ENDBRANCH   3   8
ENDBRANCH   2   3
TORSDOF 7
ENDMDL
MODEL      137
REMARK 921   NORMALIZED FREE ENERGY PREDICTED BY IDOCK:   -4.19 KCAL/MOL
REMARK 922        TOTAL FREE ENERGY PREDICTED BY IDOCK:   -6.53 KCAL/MOL
REMARK 923 INTER-LIGAND FREE ENERGY PREDICTED BY IDOCK:   -5.87 KCAL/MOL
REMARK 924 INTRA-LIGAND FREE ENERGY PREDICTED BY IDOCK:   -0.66 KCAL/MOL
REMARK 927      BINDING AFFINITY PREDICTED BY RF-SCORE:    0.00 PKD
ROOT
HETATM    1  C   UNL     1     -11.882  15.739  70.041  1.00  0.00    -0.365 C  
HETATM    2  C   UNL     1     -10.683  16.493  69.485  1.00  0.00    -0.321 C  
ENDROOT
BRANCH   2   3
HETATM    3  N   UNL     1     -10.672  16.490  68.017  1.00  0.00    -0.333 NA 
BRANCH   3   4
HETATM    4  C   UNL     1     -10.576  17.777  67.310  1.00  0.00    -0.316 C  
BRANCH   4   5
HETATM    5  C   UNL     1      -9.125  18.291  67.292  1.00  0.00    -0.256 C  
HETATM    6  H   UNL     1      -7.821  18.975  65.965  1.00  0.00     0.000 HD 
HETATM    7  O   UNL     1      -8.716  18.657  65.976  1.00  0.00    -0.491 OA 
ENDBRANCH   4   5
ENDBRANCH   3   4
BRANCH   3   8
HETATM    8  C   UNL     1     -10.556  15.291  67.327  1.00  0.00    -0.290 A  
HETATM    9  C   UNL     1     -12.443  13.516  64.539  1.00  0.00    -0.344 C  
HETATM   10  C   UNL     1      -9.485  14.409  67.513  1.00  0.00    -0.207 A  
HETATM   11  C   UNL     1      -9.367  13.224  66.769  1.00  0.00    -0.254 A  
HETATM   12  C   UNL     1     -11.511  14.926  66.370  1.00  0.00    -0.280 A  
HETATM   13  C   UNL     1     -10.306  12.893  65.784  1.00  0.00    -0.284 A  
HETATM   14  C   UNL     1     -11.387  13.765  65.582  1.00  0.00    -0.311 A  
BRANCH  13  15
HETATM   15  N   UNL     1     -10.244  11.693  65.048  1.00  0.00    -0.263 NA 
HETATM   16  H   UNL     1     -10.766  10.854  65.302  1.00  0.00     0.000 HD 
BRANCH  15  17
HETATM   17  N   UNL     1      -9.488  11.753  64.055  1.00  0.00    -0.477 NA 
HETATM   18  H   UNL     1      -9.305  12.617  63.544  1.00  0.00     0.000 HD 
BRANCH  17  19
HETATM   19  C   UNL     1      -8.931  10.553  63.719  1.00  0.00    -0.215 A  
HETATM   20  N   UNL     1      -9.201   9.792  62.669  1.00  0.00    -0.283 NA 
HETATM   21  C   UNL     1      -8.408   8.660  62.661  1.00  0.00    -0.187 A  
HETATM   22  C   UNL     1      -7.538   8.570  63.716  1.00  0.00    -0.130 A  
HETATM   23  N   UNL     1      -6.607   7.518  63.962  1.00  0.00    -0.052 N  
HETATM   24  S   UNL     1      -7.691   9.906  64.751  1.00  0.00    -0.142 SA 
HETATM   25  O   UNL     1      -6.580   6.600  63.130  1.00  0.00    -0.037 OA 
HETATM   26  O   UNL     1      -5.892   7.594  64.970  1.00  0.00    -0.037 OA 
ENDBRANCH  17  19
ENDBRANCH  15  17
ENDBRANCH  13  15
ENDBRANCH   3   8
ENDBRANCH   2   3
TORSDOF 7
ENDMDL
MODEL      138
REMARK 921   NORMALIZED FREE ENERGY PREDICTED BY IDOCK:   -4.19 KCAL/MOL
REMARK 922        TOTAL FREE ENERGY PREDICTED BY IDOCK:   -6.53 KCAL/MOL
REMARK 923 INTER-LIGAND FREE ENERGY PREDICTED BY IDOCK:   -5.85 KCAL/MOL
REMARK 924 INTRA-LIGAND FREE ENERGY PREDICTED BY IDOCK:   -0.69 KCAL/MOL
REMARK 927      BINDING AFFINITY PREDICTED BY RF-SCORE:    0.00 PKD
ROOT
HETATM    1  C   UNL     1     -10.732   5.656  69.399  1.00  0.00    -0.365 C  
HETATM    2  C   UNL     1     -10.754   5.966  67.910  1.00  0.00    -0.255 C  
ENDROOT
BRANCH   2   3
HETATM    3  N   UNL     1      -9.441   6.412  67.427  1.00  0.00    -0.115 NA 
BRANCH   3   4
HETATM    4  C   UNL     1      -8.432   5.397  67.090  1.00  0.00    -0.106 C  
BRANCH   4   5
HETATM    5  C   UNL     1      -9.039   4.280  66.222  1.00  0.00    -0.129 C  
HETATM    6  H   UNL     1      -9.568   4.007  64.331  1.00  0.00     0.000 HD 
HETATM    7  O   UNL     1      -9.194   4.696  64.867  1.00  0.00    -0.155 OA 
ENDBRANCH   4   5
ENDBRANCH   3   4
BRANCH   3   8
HETATM    8  C   UNL     1      -9.236   7.749  67.114  1.00  0.00    -0.146 A  
HETATM    9  C   UNL     1      -6.460  10.306  67.608  1.00  0.00    -0.058 C  
HETATM   10  C   UNL     1     -10.141   8.497  66.353  1.00  0.00    -0.271 A  
HETATM   11  C   UNL     1      -9.887   9.835  66.010  1.00  0.00    -0.342 A  
HETATM   12  C   UNL     1      -8.071   8.406  67.528  1.00  0.00    -0.110 A  
HETATM   13  C   UNL     1      -8.697  10.466  66.394  1.00  0.00    -0.141 A  
HETATM   14  C   UNL     1      -7.776   9.732  67.158  1.00  0.00    -0.095 A  
BRANCH  13  15
HETATM   15  N   UNL     1      -8.428  11.820  66.106  1.00  0.00    -0.385 NA 
HETATM   16  H   UNL     1      -7.549  12.278  66.348  1.00  0.00     0.000 HD 
BRANCH  15  17
HETATM   17  N   UNL     1      -9.367  12.404  65.526  1.00  0.00    -0.439 NA 
HETATM   18  H   UNL     1      -9.917  11.976  64.781  1.00  0.00     0.000 HD 
BRANCH  17  19
HETATM   19  C   UNL     1      -9.588  13.671  65.985  1.00  0.00    -0.166 A  
HETATM   20  N   UNL     1      -9.315  14.165  67.183  1.00  0.00    -0.227 NA 
HETATM   21  C   UNL     1      -9.664  15.500  67.258  1.00  0.00    -0.218 A  
HETATM   22  C   UNL     1     -10.207  16.010  66.108  1.00  0.00    -0.324 A  
HETATM   23  N   UNL     1     -10.654  17.349  65.901  1.00  0.00    -0.283 N  
HETATM   24  S   UNL     1     -10.295  14.827  64.896  1.00  0.00    -0.229 SA 
HETATM   25  O   UNL     1     -10.529  18.126  66.857  1.00  0.00    -0.368 OA 
HETATM   26  O   UNL     1     -11.124  17.643  64.794  1.00  0.00    -0.915 OA 
ENDBRANCH  17  19
ENDBRANCH  15  17
ENDBRANCH  13  15
ENDBRANCH   3   8
ENDBRANCH   2   3
TORSDOF 7
ENDMDL
MODEL      139
REMARK 921   NORMALIZED FREE ENERGY PREDICTED BY IDOCK:   -4.17 KCAL/MOL
REMARK 922        TOTAL FREE ENERGY PREDICTED BY IDOCK:   -6.51 KCAL/MOL
REMARK 923 INTER-LIGAND FREE ENERGY PREDICTED BY IDOCK:   -5.93 KCAL/MOL
REMARK 924 INTRA-LIGAND FREE ENERGY PREDICTED BY IDOCK:   -0.58 KCAL/MOL
REMARK 927      BINDING AFFINITY PREDICTED BY RF-SCORE:    0.00 PKD
ROOT
HETATM    1  C   UNL     1      -7.356   2.807  68.904  1.00  0.00    -0.048 C  
HETATM    2  C   UNL     1      -7.851   4.191  69.297  1.00  0.00    -0.057 C  
ENDROOT
BRANCH   2   3
HETATM    3  N   UNL     1      -9.158   4.132  69.963  1.00  0.00    -0.102 NA 
BRANCH   3   4
HETATM    4  C   UNL     1      -9.630   2.836  70.476  1.00  0.00    -0.088 C  
BRANCH   4   5
HETATM    5  C   UNL     1      -9.460   2.750  72.003  1.00  0.00    -0.127 C  
HETATM    6  H   UNL     1      -7.982   2.578  73.313  1.00  0.00     0.000 HD 
HETATM    7  O   UNL     1      -8.087   2.631  72.370  1.00  0.00    -0.054 OA 
ENDBRANCH   4   5
ENDBRANCH   3   4
BRANCH   3   8
HETATM    8  C   UNL     1      -9.832   5.306  70.271  1.00  0.00    -0.215 A  
HETATM    9  C   UNL     1      -9.296   8.265  72.604  1.00  0.00    -0.350 C  
HETATM   10  C   UNL     1     -10.985   5.719  69.595  1.00  0.00    -0.385 A  
HETATM   11  C   UNL     1     -11.621   6.935  69.894  1.00  0.00    -0.255 A  
HETATM   12  C   UNL     1      -9.350   6.161  71.270  1.00  0.00    -0.170 A  
HETATM   13  C   UNL     1     -11.103   7.801  70.866  1.00  0.00    -0.259 A  
HETATM   14  C   UNL     1      -9.946   7.405  71.554  1.00  0.00    -0.193 A  
BRANCH  13  15
HETATM   15  N   UNL     1     -11.737   9.008  71.223  1.00  0.00    -0.293 NA 
HETATM   16  H   UNL     1     -11.721   9.388  72.169  1.00  0.00     0.000 HD 
BRANCH  15  17
HETATM   17  N   UNL     1     -12.321   9.567  70.270  1.00  0.00    -0.456 NA 
HETATM   18  H   UNL     1     -12.754   9.055  69.502  1.00  0.00     0.000 HD 
BRANCH  17  19
HETATM   19  C   UNL     1     -12.323  10.930  70.355  1.00  0.00    -0.351 A  
HETATM   20  N   UNL     1     -11.905  11.805  69.453  1.00  0.00    -0.324 NA 
HETATM   21  C   UNL     1     -12.095  13.100  69.897  1.00  0.00    -0.287 A  
HETATM   22  C   UNL     1     -12.657  13.197  71.143  1.00  0.00    -0.314 A  
HETATM   23  N   UNL     1     -12.966  14.399  71.845  1.00  0.00    -0.332 N  
HETATM   24  S   UNL     1     -12.965  11.662  71.796  1.00  0.00    -0.266 SA 
HETATM   25  O   UNL     1     -12.705  15.461  71.262  1.00  0.00    -0.366 OA 
HETATM   26  O   UNL     1     -13.473  14.305  72.970  1.00  0.00    -0.644 OA 
ENDBRANCH  17  19
ENDBRANCH  15  17
ENDBRANCH  13  15
ENDBRANCH   3   8
ENDBRANCH   2   3
TORSDOF 7
ENDMDL
MODEL      140
REMARK 921   NORMALIZED FREE ENERGY PREDICTED BY IDOCK:   -4.17 KCAL/MOL
REMARK 922        TOTAL FREE ENERGY PREDICTED BY IDOCK:   -6.50 KCAL/MOL
REMARK 923 INTER-LIGAND FREE ENERGY PREDICTED BY IDOCK:   -5.82 KCAL/MOL
REMARK 924 INTRA-LIGAND FREE ENERGY PREDICTED BY IDOCK:   -0.68 KCAL/MOL
REMARK 927      BINDING AFFINITY PREDICTED BY RF-SCORE:    0.00 PKD
ROOT
HETATM    1  C   UNL     1      -7.722   3.021  69.676  1.00  0.00    -0.045 C  
HETATM    2  C   UNL     1      -8.376   4.364  69.389  1.00  0.00    -0.073 C  
ENDROOT
BRANCH   2   3
HETATM    3  N   UNL     1      -9.354   4.725  70.423  1.00  0.00    -0.139 NA 
BRANCH   3   4
HETATM    4  C   UNL     1      -9.703   3.724  71.443  1.00  0.00    -0.172 C  
BRANCH   4   5
HETATM    5  C   UNL     1      -9.269   4.188  72.844  1.00  0.00    -0.111 C  
HETATM    6  H   UNL     1     -10.103   4.996  74.452  1.00  0.00     0.000 HD 
HETATM    7  O   UNL     1     -10.370   4.709  73.587  1.00  0.00    -0.162 OA 
ENDBRANCH   4   5
ENDBRANCH   3   4
BRANCH   3   8
HETATM    8  C   UNL     1      -9.783   6.040  70.542  1.00  0.00    -0.174 A  
HETATM    9  C   UNL     1      -8.159   9.482  70.553  1.00  0.00    -0.199 C  
HETATM   10  C   UNL     1     -11.135   6.395  70.604  1.00  0.00    -0.376 A  
HETATM   11  C   UNL     1     -11.543   7.736  70.677  1.00  0.00    -0.233 A  
HETATM   12  C   UNL     1      -8.856   7.090  70.568  1.00  0.00    -0.154 A  
HETATM   13  C   UNL     1     -10.607   8.778  70.658  1.00  0.00    -0.215 A  
HETATM   14  C   UNL     1      -9.246   8.443  70.595  1.00  0.00    -0.177 A  
BRANCH  13  15
HETATM   15  N   UNL     1     -10.977  10.134  70.774  1.00  0.00    -0.366 NA 
HETATM   16  H   UNL     1     -10.425  10.821  71.286  1.00  0.00     0.000 HD 
BRANCH  15  17
HETATM   17  N   UNL     1     -12.046  10.412  70.189  1.00  0.00    -0.401 NA 
HETATM   18  H   UNL     1     -12.956  10.069  70.496  1.00  0.00     0.000 HD 
BRANCH  17  19
HETATM   19  C   UNL     1     -11.879  11.218  69.100  1.00  0.00    -0.355 A  
HETATM   20  N   UNL     1     -11.692  10.858  67.838  1.00  0.00    -0.574 NA 
HETATM   21  C   UNL     1     -11.590  11.967  67.019  1.00  0.00    -0.291 A  
HETATM   22  C   UNL     1     -11.698  13.167  67.672  1.00  0.00    -0.369 A  
HETATM   23  N   UNL     1     -11.631  14.463  67.081  1.00  0.00    -0.369 N  
HETATM   24  S   UNL     1     -11.930  12.939  69.336  1.00  0.00    -0.226 SA 
HETATM   25  O   UNL     1     -11.468  14.503  65.854  1.00  0.00    -0.339 OA 
HETATM   26  O   UNL     1     -11.747  15.449  67.822  1.00  0.00    -0.297 OA 
ENDBRANCH  17  19
ENDBRANCH  15  17
ENDBRANCH  13  15
ENDBRANCH   3   8
ENDBRANCH   2   3
TORSDOF 7
ENDMDL
MODEL      141
REMARK 921   NORMALIZED FREE ENERGY PREDICTED BY IDOCK:   -4.16 KCAL/MOL
REMARK 922        TOTAL FREE ENERGY PREDICTED BY IDOCK:   -6.49 KCAL/MOL
REMARK 923 INTER-LIGAND FREE ENERGY PREDICTED BY IDOCK:   -5.99 KCAL/MOL
REMARK 924 INTRA-LIGAND FREE ENERGY PREDICTED BY IDOCK:   -0.50 KCAL/MOL
REMARK 927      BINDING AFFINITY PREDICTED BY RF-SCORE:    0.00 PKD
ROOT
HETATM    1  C   UNL     1      -8.116  10.539  64.900  1.00  0.00    -0.086 C  
HETATM    2  C   UNL     1      -9.599  10.474  64.568  1.00  0.00    -0.302 C  
ENDROOT
BRANCH   2   3
HETATM    3  N   UNL     1     -10.417  11.126  65.599  1.00  0.00    -0.258 NA 
BRANCH   3   4
HETATM    4  C   UNL     1     -11.194  12.320  65.231  1.00  0.00    -0.328 C  
BRANCH   4   5
HETATM    5  C   UNL     1     -11.507  12.334  63.725  1.00  0.00    -0.466 C  
HETATM    6  H   UNL     1     -13.107  12.373  62.554  1.00  0.00     0.000 HD 
HETATM    7  O   UNL     1     -12.913  12.364  63.483  1.00  0.00    -0.750 OA 
ENDBRANCH   4   5
ENDBRANCH   3   4
BRANCH   3   8
HETATM    8  C   UNL     1     -10.600  10.510  66.830  1.00  0.00    -0.222 A  
HETATM    9  C   UNL     1     -11.982  11.503  70.235  1.00  0.00    -0.455 C  
HETATM   10  C   UNL     1     -10.341   9.152  67.045  1.00  0.00    -0.333 A  
HETATM   11  C   UNL     1     -10.579   8.543  68.288  1.00  0.00    -0.173 A  
HETATM   12  C   UNL     1     -11.098  11.235  67.920  1.00  0.00    -0.325 A  
HETATM   13  C   UNL     1     -11.118   9.270  69.357  1.00  0.00    -0.043 A  
HETATM   14  C   UNL     1     -11.386  10.634  69.160  1.00  0.00    -0.338 A  
BRANCH  13  15
HETATM   15  N   UNL     1     -11.330   8.703  70.630  1.00  0.00    -0.271 NA 
HETATM   16  H   UNL     1     -12.257   8.570  71.035  1.00  0.00     0.000 HD 
BRANCH  15  17
HETATM   17  N   UNL     1     -10.275   8.380  71.215  1.00  0.00    -0.201 NA 
HETATM   18  H   UNL     1      -9.551   9.051  71.473  1.00  0.00     0.000 HD 
BRANCH  17  19
HETATM   19  C   UNL     1     -10.183   7.044  71.479  1.00  0.00    -0.198 A  
HETATM   20  N   UNL     1      -9.681   6.092  70.706  1.00  0.00    -0.172 NA 
HETATM   21  C   UNL     1      -9.743   4.862  71.334  1.00  0.00    -0.175 A  
HETATM   22  C   UNL     1     -10.300   4.892  72.586  1.00  0.00    -0.197 A  
HETATM   23  N   UNL     1     -10.490   3.779  73.458  1.00  0.00    -0.162 N  
HETATM   24  S   UNL     1     -10.762   6.467  73.013  1.00  0.00    -0.270 SA 
HETATM   25  O   UNL     1     -10.103   2.679  73.040  1.00  0.00    -0.115 OA 
HETATM   26  O   UNL     1     -11.013   3.984  74.561  1.00  0.00    -0.151 OA 
ENDBRANCH  17  19
ENDBRANCH  15  17
ENDBRANCH  13  15
ENDBRANCH   3   8
ENDBRANCH   2   3
TORSDOF 7
ENDMDL
MODEL      142
REMARK 921   NORMALIZED FREE ENERGY PREDICTED BY IDOCK:   -4.15 KCAL/MOL
REMARK 922        TOTAL FREE ENERGY PREDICTED BY IDOCK:   -6.47 KCAL/MOL
REMARK 923 INTER-LIGAND FREE ENERGY PREDICTED BY IDOCK:   -6.09 KCAL/MOL
REMARK 924 INTRA-LIGAND FREE ENERGY PREDICTED BY IDOCK:   -0.38 KCAL/MOL
REMARK 927      BINDING AFFINITY PREDICTED BY RF-SCORE:    0.00 PKD
ROOT
HETATM    1  C   UNL     1      -9.825   4.769  69.445  1.00  0.00    -0.282 C  
HETATM    2  C   UNL     1     -10.468   5.765  70.399  1.00  0.00    -0.273 C  
ENDROOT
BRANCH   2   3
HETATM    3  N   UNL     1      -9.695   7.010  70.488  1.00  0.00    -0.176 NA 
BRANCH   3   4
HETATM    4  C   UNL     1      -8.252   6.926  70.760  1.00  0.00    -0.122 C  
BRANCH   4   5
HETATM    5  C   UNL     1      -7.935   7.355  72.204  1.00  0.00    -0.093 C  
HETATM    6  H   UNL     1      -8.444   6.822  74.044  1.00  0.00     0.000 HD 
HETATM    7  O   UNL     1      -8.640   6.558  73.153  1.00  0.00    -0.122 OA 
ENDBRANCH   4   5
ENDBRANCH   3   4
BRANCH   3   8
HETATM    8  C   UNL     1     -10.281   8.216  70.128  1.00  0.00    -0.199 A  
HETATM    9  C   UNL     1     -13.081  10.429  71.450  1.00  0.00    -0.512 C  
HETATM   10  C   UNL     1      -9.801   9.010  69.080  1.00  0.00    -0.178 A  
HETATM   11  C   UNL     1     -10.384  10.248  68.766  1.00  0.00    -0.211 A  
HETATM   12  C   UNL     1     -11.379   8.714  70.841  1.00  0.00    -0.314 A  
HETATM   13  C   UNL     1     -11.453  10.754  69.515  1.00  0.00    -0.294 A  
HETATM   14  C   UNL     1     -11.948   9.974  70.572  1.00  0.00    -0.357 A  
BRANCH  13  15
HETATM   15  N   UNL     1     -12.090  11.973  69.203  1.00  0.00    -0.239 NA 
HETATM   16  H   UNL     1     -12.967  12.027  68.686  1.00  0.00     0.000 HD 
BRANCH  15  17
HETATM   17  N   UNL     1     -11.478  12.979  69.620  1.00  0.00    -0.458 NA 
HETATM   18  H   UNL     1     -10.556  13.253  69.279  1.00  0.00     0.000 HD 
BRANCH  17  19
HETATM   19  C   UNL     1     -12.159  13.676  70.575  1.00  0.00    -0.339 A  
HETATM   20  N   UNL     1     -13.402  13.486  70.995  1.00  0.00    -0.079 NA 
HETATM   21  C   UNL     1     -13.727  14.381  71.997  1.00  0.00    -0.442 A  
HETATM   22  C   UNL     1     -12.722  15.251  72.328  1.00  0.00    -0.351 A  
HETATM   23  N   UNL     1     -12.777  16.274  73.321  1.00  0.00    -0.464 N  
HETATM   24  S   UNL     1     -11.336  14.971  71.391  1.00  0.00    -0.190 SA 
HETATM   25  O   UNL     1     -13.840  16.377  73.949  1.00  0.00    -0.210 OA 
HETATM   26  O   UNL     1     -11.772  16.976  73.493  1.00  0.00    -0.188 OA 
ENDBRANCH  17  19
ENDBRANCH  15  17
ENDBRANCH  13  15
ENDBRANCH   3   8
ENDBRANCH   2   3
TORSDOF 7
ENDMDL
MODEL      143
REMARK 921   NORMALIZED FREE ENERGY PREDICTED BY IDOCK:   -4.15 KCAL/MOL
REMARK 922        TOTAL FREE ENERGY PREDICTED BY IDOCK:   -6.47 KCAL/MOL
REMARK 923 INTER-LIGAND FREE ENERGY PREDICTED BY IDOCK:   -5.87 KCAL/MOL
REMARK 924 INTRA-LIGAND FREE ENERGY PREDICTED BY IDOCK:   -0.60 KCAL/MOL
REMARK 927      BINDING AFFINITY PREDICTED BY RF-SCORE:    0.00 PKD
ROOT
HETATM    1  C   UNL     1     -11.821  16.054  68.726  1.00  0.00    -0.210 C  
HETATM    2  C   UNL     1     -10.616  15.204  68.352  1.00  0.00    -0.238 C  
ENDROOT
BRANCH   2   3
HETATM    3  N   UNL     1     -11.017  13.947  67.707  1.00  0.00    -0.252 NA 
BRANCH   3   4
HETATM    4  C   UNL     1     -11.273  13.948  66.258  1.00  0.00    -0.309 C  
BRANCH   4   5
HETATM    5  C   UNL     1     -12.732  13.568  65.953  1.00  0.00    -0.321 C  
HETATM    6  H   UNL     1     -13.760  12.736  64.476  1.00  0.00     0.000 HD 
HETATM    7  O   UNL     1     -12.859  12.970  64.664  1.00  0.00    -0.700 OA 
ENDBRANCH   4   5
ENDBRANCH   3   4
BRANCH   3   8
HETATM    8  C   UNL     1     -10.960  12.756  68.417  1.00  0.00    -0.254 A  
HETATM    9  C   UNL     1     -13.048  11.035  71.094  1.00  0.00    -0.326 C  
HETATM   10  C   UNL     1     -10.001  11.767  68.165  1.00  0.00    -0.196 A  
HETATM   11  C   UNL     1      -9.995  10.551  68.867  1.00  0.00    -0.213 A  
HETATM   12  C   UNL     1     -11.905  12.475  69.411  1.00  0.00    -0.368 A  
HETATM   13  C   UNL     1     -10.972  10.265  69.828  1.00  0.00    -0.289 A  
HETATM   14  C   UNL     1     -11.943  11.244  70.094  1.00  0.00    -0.452 A  
BRANCH  13  15
HETATM   15  N   UNL     1     -10.972   9.074  70.582  1.00  0.00    -0.244 NA 
HETATM   16  H   UNL     1     -11.817   8.539  70.781  1.00  0.00     0.000 HD 
BRANCH  15  17
HETATM   17  N   UNL     1      -9.838   8.737  70.983  1.00  0.00    -0.209 NA 
HETATM   18  H   UNL     1      -8.979   9.198  70.683  1.00  0.00     0.000 HD 
BRANCH  17  19
HETATM   19  C   UNL     1      -9.858   7.692  71.861  1.00  0.00    -0.165 A  
HETATM   20  N   UNL     1     -10.672   7.504  72.889  1.00  0.00    -0.324 NA 
HETATM   21  C   UNL     1     -10.395   6.310  73.527  1.00  0.00    -0.255 A  
HETATM   22  C   UNL     1      -9.362   5.598  72.975  1.00  0.00    -0.140 A  
HETATM   23  N   UNL     1      -8.863   4.339  73.424  1.00  0.00    -0.094 N  
HETATM   24  S   UNL     1      -8.707   6.408  71.636  1.00  0.00    -0.132 SA 
HETATM   25  O   UNL     1      -9.428   3.840  74.406  1.00  0.00    -0.101 OA 
HETATM   26  O   UNL     1      -7.916   3.833  72.806  1.00  0.00    -0.078 OA 
ENDBRANCH  17  19
ENDBRANCH  15  17
ENDBRANCH  13  15
ENDBRANCH   3   8
ENDBRANCH   2   3
TORSDOF 7
ENDMDL
MODEL      144
REMARK 921   NORMALIZED FREE ENERGY PREDICTED BY IDOCK:   -4.13 KCAL/MOL
REMARK 922        TOTAL FREE ENERGY PREDICTED BY IDOCK:   -6.44 KCAL/MOL
REMARK 923 INTER-LIGAND FREE ENERGY PREDICTED BY IDOCK:   -5.84 KCAL/MOL
REMARK 924 INTRA-LIGAND FREE ENERGY PREDICTED BY IDOCK:   -0.60 KCAL/MOL
REMARK 927      BINDING AFFINITY PREDICTED BY RF-SCORE:    0.00 PKD
ROOT
HETATM    1  C   UNL     1      -6.023   8.957  66.976  1.00  0.00    -0.057 C  
HETATM    2  C   UNL     1      -7.323   9.036  67.762  1.00  0.00    -0.084 C  
ENDROOT
BRANCH   2   3
HETATM    3  N   UNL     1      -8.461   9.379  66.899  1.00  0.00    -0.126 NA 
BRANCH   3   4
HETATM    4  C   UNL     1      -9.007   8.343  66.008  1.00  0.00    -0.184 C  
BRANCH   4   5
HETATM    5  C   UNL     1      -8.365   8.418  64.612  1.00  0.00    -0.127 C  
HETATM    6  H   UNL     1      -7.198   7.297  63.466  1.00  0.00     0.000 HD 
HETATM    7  O   UNL     1      -7.595   7.252  64.328  1.00  0.00    -0.100 OA 
ENDBRANCH   4   5
ENDBRANCH   3   4
BRANCH   3   8
HETATM    8  C   UNL     1      -9.119  10.589  67.069  1.00  0.00    -0.143 A  
HETATM    9  C   UNL     1      -8.229  14.060  68.352  1.00  0.00    -0.150 C  
HETATM   10  C   UNL     1     -10.435  10.803  66.644  1.00  0.00    -0.302 A  
HETATM   11  C   UNL     1     -11.063  12.051  66.787  1.00  0.00    -0.353 A  
HETATM   12  C   UNL     1      -8.464  11.679  67.655  1.00  0.00    -0.142 A  
HETATM   13  C   UNL     1     -10.380  13.145  67.334  1.00  0.00    -0.239 A  
HETATM   14  C   UNL     1      -9.059  12.951  67.765  1.00  0.00    -0.197 A  
BRANCH  13  15
HETATM   15  N   UNL     1     -10.991  14.400  67.532  1.00  0.00    -0.286 NA 
HETATM   16  H   UNL     1     -11.258  14.752  68.451  1.00  0.00     0.000 HD 
BRANCH  15  17
HETATM   17  N   UNL     1     -11.176  15.039  66.474  1.00  0.00    -0.335 NA 
HETATM   18  H   UNL     1     -11.591  14.627  65.638  1.00  0.00     0.000 HD 
BRANCH  17  19
HETATM   19  C   UNL     1     -10.768  16.340  66.544  1.00  0.00    -0.187 A  
HETATM   20  N   UNL     1     -10.432  17.145  65.547  1.00  0.00    -0.619 NA 
HETATM   21  C   UNL     1     -10.099  18.401  66.018  1.00  0.00    -0.279 A  
HETATM   22  C   UNL     1     -10.182  18.538  67.379  1.00  0.00    -0.373 A  
HETATM   23  N   UNL     1      -9.899  19.715  68.133  1.00  0.00    -0.393 N  
HETATM   24  S   UNL     1     -10.683  17.091  68.109  1.00  0.00    -0.341 SA 
HETATM   25  O   UNL     1      -9.552  20.713  67.488  1.00  0.00    -0.421 OA 
HETATM   26  O   UNL     1     -10.025  19.664  69.364  1.00  0.00    -0.401 OA 
ENDBRANCH  17  19
ENDBRANCH  15  17
ENDBRANCH  13  15
ENDBRANCH   3   8
ENDBRANCH   2   3
TORSDOF 7
ENDMDL
MODEL      145
REMARK 921   NORMALIZED FREE ENERGY PREDICTED BY IDOCK:   -4.10 KCAL/MOL
REMARK 922        TOTAL FREE ENERGY PREDICTED BY IDOCK:   -6.40 KCAL/MOL
REMARK 923 INTER-LIGAND FREE ENERGY PREDICTED BY IDOCK:   -5.51 KCAL/MOL
REMARK 924 INTRA-LIGAND FREE ENERGY PREDICTED BY IDOCK:   -0.89 KCAL/MOL
REMARK 927      BINDING AFFINITY PREDICTED BY RF-SCORE:    0.00 PKD
ROOT
HETATM    1  C   UNL     1     -13.333  12.515  72.074  1.00  0.00    -0.528 C  
HETATM    2  C   UNL     1     -12.633  11.795  70.931  1.00  0.00    -0.289 C  
ENDROOT
BRANCH   2   3
HETATM    3  N   UNL     1     -12.236  10.432  71.309  1.00  0.00    -0.380 NA 
BRANCH   3   4
HETATM    4  C   UNL     1     -13.044   9.714  72.307  1.00  0.00    -0.382 C  
BRANCH   4   5
HETATM    5  C   UNL     1     -14.035   8.753  71.628  1.00  0.00    -0.394 C  
HETATM    6  H   UNL     1     -14.187   6.810  71.264  1.00  0.00     0.000 HD 
HETATM    7  O   UNL     1     -13.576   7.403  71.683  1.00  0.00    -0.370 OA 
ENDBRANCH   4   5
ENDBRANCH   3   4
BRANCH   3   8
HETATM    8  C   UNL     1     -11.242   9.777  70.595  1.00  0.00    -0.334 A  
HETATM    9  C   UNL     1     -10.205   9.482  66.945  1.00  0.00    -0.317 C  
HETATM   10  C   UNL     1     -10.216   9.052  71.212  1.00  0.00    -0.384 A  
HETATM   11  C   UNL     1      -9.197   8.438  70.468  1.00  0.00    -0.165 A  
HETATM   12  C   UNL     1     -11.207   9.850  69.197  1.00  0.00    -0.151 A  
HETATM   13  C   UNL     1      -9.149   8.555  69.073  1.00  0.00    -0.146 A  
HETATM   14  C   UNL     1     -10.168   9.280  68.435  1.00  0.00    -0.231 A  
BRANCH  13  15
HETATM   15  N   UNL     1      -8.166   7.917  68.290  1.00  0.00    -0.123 NA 
HETATM   16  H   UNL     1      -7.595   8.407  67.601  1.00  0.00     0.000 HD 
BRANCH  15  17
HETATM   17  N   UNL     1      -8.060   6.693  68.520  1.00  0.00    -0.118 NA 
HETATM   18  H   UNL     1      -7.541   6.317  69.313  1.00  0.00     0.000 HD 
BRANCH  17  19
HETATM   19  C   UNL     1      -8.704   5.908  67.608  1.00  0.00    -0.104 A  
HETATM   20  N   UNL     1      -9.737   5.102  67.808  1.00  0.00    -0.141 NA 
HETATM   21  C   UNL     1     -10.124   4.494  66.629  1.00  0.00    -0.209 A  
HETATM   22  C   UNL     1      -9.374   4.843  65.537  1.00  0.00    -0.157 A  
HETATM   23  N   UNL     1      -9.547   4.373  64.202  1.00  0.00    -0.111 N  
HETATM   24  S   UNL     1      -8.158   5.948  65.958  1.00  0.00    -0.120 SA 
HETATM   25  O   UNL     1     -10.476   3.575  64.014  1.00  0.00    -0.230 OA 
HETATM   26  O   UNL     1      -8.775   4.792  63.329  1.00  0.00    -0.128 OA 
ENDBRANCH  17  19
ENDBRANCH  15  17
ENDBRANCH  13  15
ENDBRANCH   3   8
ENDBRANCH   2   3
TORSDOF 7
ENDMDL
MODEL      146
REMARK 921   NORMALIZED FREE ENERGY PREDICTED BY IDOCK:   -4.09 KCAL/MOL
REMARK 922        TOTAL FREE ENERGY PREDICTED BY IDOCK:   -6.40 KCAL/MOL
REMARK 923 INTER-LIGAND FREE ENERGY PREDICTED BY IDOCK:   -5.71 KCAL/MOL
REMARK 924 INTRA-LIGAND FREE ENERGY PREDICTED BY IDOCK:   -0.69 KCAL/MOL
REMARK 927      BINDING AFFINITY PREDICTED BY RF-SCORE:    0.00 PKD
ROOT
HETATM    1  C   UNL     1     -10.314  14.493  65.703  1.00  0.00    -0.367 C  
HETATM    2  C   UNL     1     -11.276  13.977  66.763  1.00  0.00    -0.315 C  
ENDROOT
BRANCH   2   3
HETATM    3  N   UNL     1     -10.576  13.614  68.002  1.00  0.00    -0.244 NA 
BRANCH   3   4
HETATM    4  C   UNL     1      -9.889  14.673  68.758  1.00  0.00    -0.227 C  
BRANCH   4   5
HETATM    5  C   UNL     1     -10.889  15.718  69.282  1.00  0.00    -0.255 C  
HETATM    6  H   UNL     1     -11.819  16.145  70.980  1.00  0.00     0.000 HD 
HETATM    7  O   UNL     1     -11.201  15.500  70.656  1.00  0.00    -0.294 OA 
ENDBRANCH   4   5
ENDBRANCH   3   4
BRANCH   3   8
HETATM    8  C   UNL     1     -10.733  12.344  68.540  1.00  0.00    -0.238 A  
HETATM    9  C   UNL     1     -13.024  10.688  71.088  1.00  0.00    -0.483 C  
HETATM   10  C   UNL     1     -10.001  11.237  68.095  1.00  0.00    -0.191 A  
HETATM   11  C   UNL     1     -10.212   9.953  68.624  1.00  0.00    -0.197 A  
HETATM   12  C   UNL     1     -11.678  12.110  69.546  1.00  0.00    -0.402 A  
HETATM   13  C   UNL     1     -11.192   9.725  69.599  1.00  0.00    -0.178 A  
HETATM   14  C   UNL     1     -11.937  10.823  70.056  1.00  0.00    -0.427 A  
BRANCH  13  15
HETATM   15  N   UNL     1     -11.402   8.459  70.183  1.00  0.00    -0.441 NA 
HETATM   16  H   UNL     1     -11.608   8.329  71.173  1.00  0.00     0.000 HD 
BRANCH  15  17
HETATM   17  N   UNL     1     -11.311   7.513  69.372  1.00  0.00    -0.441 NA 
HETATM   18  H   UNL     1     -11.697   7.547  68.428  1.00  0.00     0.000 HD 
BRANCH  17  19
HETATM   19  C   UNL     1     -10.647   6.430  69.869  1.00  0.00    -0.243 A  
HETATM   20  N   UNL     1     -11.017   5.625  70.854  1.00  0.00    -0.232 NA 
HETATM   21  C   UNL     1     -10.087   4.622  71.050  1.00  0.00    -0.175 A  
HETATM   22  C   UNL     1      -9.007   4.678  70.208  1.00  0.00    -0.096 A  
HETATM   23  N   UNL     1      -7.901   3.777  70.184  1.00  0.00    -0.047 N  
HETATM   24  S   UNL     1      -9.129   5.992  69.143  1.00  0.00    -0.123 SA 
HETATM   25  O   UNL     1      -7.928   2.849  71.003  1.00  0.00    -0.052 OA 
HETATM   26  O   UNL     1      -7.005   3.975  69.353  1.00  0.00    -0.044 OA 
ENDBRANCH  17  19
ENDBRANCH  15  17
ENDBRANCH  13  15
ENDBRANCH   3   8
ENDBRANCH   2   3
TORSDOF 7
ENDMDL
MODEL      147
REMARK 921   NORMALIZED FREE ENERGY PREDICTED BY IDOCK:   -4.08 KCAL/MOL
REMARK 922        TOTAL FREE ENERGY PREDICTED BY IDOCK:   -6.38 KCAL/MOL
REMARK 923 INTER-LIGAND FREE ENERGY PREDICTED BY IDOCK:   -5.69 KCAL/MOL
REMARK 924 INTRA-LIGAND FREE ENERGY PREDICTED BY IDOCK:   -0.69 KCAL/MOL
REMARK 927      BINDING AFFINITY PREDICTED BY RF-SCORE:    0.00 PKD
ROOT
HETATM    1  C   UNL     1     -10.840   4.256  64.653  1.00  0.00    -0.097 C  
HETATM    2  C   UNL     1      -9.652   4.800  65.431  1.00  0.00    -0.140 C  
ENDROOT
BRANCH   2   3
HETATM    3  N   UNL     1      -9.874   4.732  66.881  1.00  0.00    -0.187 NA 
BRANCH   3   4
HETATM    4  C   UNL     1      -9.498   3.502  67.595  1.00  0.00    -0.183 C  
BRANCH   4   5
HETATM    5  C   UNL     1      -8.059   3.591  68.131  1.00  0.00    -0.078 C  
HETATM    6  H   UNL     1      -7.123   3.428  69.871  1.00  0.00     0.000 HD 
HETATM    7  O   UNL     1      -8.011   3.374  69.540  1.00  0.00    -0.050 OA 
ENDBRANCH   4   5
ENDBRANCH   3   4
BRANCH   3   8
HETATM    8  C   UNL     1     -10.244   5.874  67.579  1.00  0.00    -0.190 A  
HETATM    9  C   UNL     1     -11.869   6.654  70.931  1.00  0.00    -0.434 C  
HETATM   10  C   UNL     1      -9.953   7.166  67.128  1.00  0.00    -0.270 A  
HETATM   11  C   UNL     1     -10.297   8.303  67.877  1.00  0.00    -0.278 A  
HETATM   12  C   UNL     1     -10.905   5.772  68.809  1.00  0.00    -0.285 A  
HETATM   13  C   UNL     1     -10.919   8.185  69.126  1.00  0.00     0.089 A  
HETATM   14  C   UNL     1     -11.218   6.897  69.596  1.00  0.00    -0.289 A  
BRANCH  13  15
HETATM   15  N   UNL     1     -11.318   9.304  69.886  1.00  0.00    -0.423 NA 
HETATM   16  H   UNL     1     -10.902   9.545  70.785  1.00  0.00     0.000 HD 
BRANCH  15  17
HETATM   17  N   UNL     1     -12.229   9.972  69.352  1.00  0.00    -0.326 NA 
HETATM   18  H   UNL     1     -12.999   9.551  68.831  1.00  0.00     0.000 HD 
BRANCH  17  19
HETATM   19  C   UNL     1     -12.096  11.318  69.531  1.00  0.00    -0.317 A  
HETATM   20  N   UNL     1     -12.244  12.012  70.651  1.00  0.00    -0.371 NA 
HETATM   21  C   UNL     1     -12.002  13.355  70.435  1.00  0.00    -0.285 A  
HETATM   22  C   UNL     1     -11.673  13.672  69.143  1.00  0.00    -0.329 A  
HETATM   23  N   UNL     1     -11.373  14.972  68.637  1.00  0.00    -0.281 N  
HETATM   24  S   UNL     1     -11.658  12.291  68.159  1.00  0.00    -0.353 SA 
HETATM   25  O   UNL     1     -11.406  15.903  69.453  1.00  0.00    -0.303 OA 
HETATM   26  O   UNL     1     -11.096  15.081  67.435  1.00  0.00    -0.307 OA 
ENDBRANCH  17  19
ENDBRANCH  15  17
ENDBRANCH  13  15
ENDBRANCH   3   8
ENDBRANCH   2   3
TORSDOF 7
ENDMDL
MODEL      148
REMARK 921   NORMALIZED FREE ENERGY PREDICTED BY IDOCK:   -4.08 KCAL/MOL
REMARK 922        TOTAL FREE ENERGY PREDICTED BY IDOCK:   -6.38 KCAL/MOL
REMARK 923 INTER-LIGAND FREE ENERGY PREDICTED BY IDOCK:   -6.80 KCAL/MOL
REMARK 924 INTRA-LIGAND FREE ENERGY PREDICTED BY IDOCK:    0.43 KCAL/MOL
REMARK 927      BINDING AFFINITY PREDICTED BY RF-SCORE:    0.00 PKD
ROOT
HETATM    1  C   UNL     1      -5.407  16.002  70.934  1.00  0.00    -0.085 C  
HETATM    2  C   UNL     1      -5.611  14.531  70.603  1.00  0.00    -0.154 C  
ENDROOT
BRANCH   2   3
HETATM    3  N   UNL     1      -5.934  14.332  69.185  1.00  0.00    -0.089 NA 
BRANCH   3   4
HETATM    4  C   UNL     1      -5.304  13.212  68.469  1.00  0.00    -0.069 C  
BRANCH   4   5
HETATM    5  C   UNL     1      -5.203  11.967  69.368  1.00  0.00    -0.057 C  
HETATM    6  H   UNL     1      -6.184  10.267  69.645  1.00  0.00     0.000 HD 
HETATM    7  O   UNL     1      -6.246  11.035  69.091  1.00  0.00    -0.043 OA 
ENDBRANCH   4   5
ENDBRANCH   3   4
BRANCH   3   8
HETATM    8  C   UNL     1      -6.957  15.064  68.599  1.00  0.00    -0.110 A  
HETATM    9  C   UNL     1     -10.456  16.196  69.582  1.00  0.00    -0.291 C  
HETATM   10  C   UNL     1      -6.823  15.698  67.358  1.00  0.00    -0.231 A  
HETATM   11  C   UNL     1      -7.857  16.472  66.809  1.00  0.00    -0.296 A  
HETATM   12  C   UNL     1      -8.181  15.231  69.259  1.00  0.00    -0.244 A  
HETATM   13  C   UNL     1      -9.059  16.667  67.501  1.00  0.00    -0.202 A  
HETATM   14  C   UNL     1      -9.214  16.040  68.747  1.00  0.00    -0.224 A  
BRANCH  13  15
HETATM   15  N   UNL     1     -10.135  17.401  66.962  1.00  0.00    -0.303 NA 
HETATM   16  H   UNL     1     -10.795  17.927  67.535  1.00  0.00     0.000 HD 
BRANCH  15  17
HETATM   17  N   UNL     1     -10.204  17.347  65.716  1.00  0.00    -0.599 NA 
HETATM   18  H   UNL     1      -9.734  18.011  65.101  1.00  0.00     0.000 HD 
BRANCH  17  19
HETATM   19  C   UNL     1     -10.968  16.314  65.255  1.00  0.00    -0.236 A  
HETATM   20  N   UNL     1     -11.692  16.264  64.147  1.00  0.00    -0.904 NA 
HETATM   21  C   UNL     1     -12.307  15.033  64.014  1.00  0.00    -0.023 A  
HETATM   22  C   UNL     1     -12.044  14.155  65.032  1.00  0.00    -0.421 A  
HETATM   23  N   UNL     1     -12.541  12.823  65.153  1.00  0.00    -0.507 N  
HETATM   24  S   UNL     1     -11.016  14.848  66.189  1.00  0.00    -0.336 SA 
HETATM   25  O   UNL     1     -13.276  12.423  64.241  1.00  0.00    -0.769 OA 
HETATM   26  O   UNL     1     -12.203  12.162  66.145  1.00  0.00    -0.611 OA 
ENDBRANCH  17  19
ENDBRANCH  15  17
ENDBRANCH  13  15
ENDBRANCH   3   8
ENDBRANCH   2   3
TORSDOF 7
ENDMDL
MODEL      149
REMARK 921   NORMALIZED FREE ENERGY PREDICTED BY IDOCK:   -4.07 KCAL/MOL
REMARK 922        TOTAL FREE ENERGY PREDICTED BY IDOCK:   -6.36 KCAL/MOL
REMARK 923 INTER-LIGAND FREE ENERGY PREDICTED BY IDOCK:   -5.77 KCAL/MOL
REMARK 924 INTRA-LIGAND FREE ENERGY PREDICTED BY IDOCK:   -0.58 KCAL/MOL
REMARK 927      BINDING AFFINITY PREDICTED BY RF-SCORE:    0.00 PKD
ROOT
HETATM    1  C   UNL     1      -7.328   4.278  63.900  1.00  0.00    -0.055 C  
HETATM    2  C   UNL     1      -7.340   4.974  65.253  1.00  0.00    -0.072 C  
ENDROOT
BRANCH   2   3
HETATM    3  N   UNL     1      -8.704   5.312  65.679  1.00  0.00    -0.142 NA 
BRANCH   3   4
HETATM    4  C   UNL     1      -9.591   4.226  66.127  1.00  0.00    -0.194 C  
BRANCH   4   5
HETATM    5  C   UNL     1      -8.809   3.162  66.916  1.00  0.00    -0.143 C  
HETATM    6  H   UNL     1      -8.946   2.224  68.657  1.00  0.00     0.000 HD 
HETATM    7  O   UNL     1      -9.428   2.881  68.170  1.00  0.00    -0.205 OA 
ENDBRANCH   4   5
ENDBRANCH   3   4
BRANCH   3   8
HETATM    8  C   UNL     1      -9.071   6.641  65.840  1.00  0.00    -0.029 A  
HETATM    9  C   UNL     1      -8.186   9.965  64.211  1.00  0.00    -0.161 C  
HETATM   10  C   UNL     1     -10.070   7.050  66.730  1.00  0.00    -0.270 A  
HETATM   11  C   UNL     1     -10.455   8.396  66.840  1.00  0.00    -0.359 A  
HETATM   12  C   UNL     1      -8.465   7.643  65.073  1.00  0.00    -0.027 A  
HETATM   13  C   UNL     1      -9.871   9.382  66.034  1.00  0.00    -0.296 A  
HETATM   14  C   UNL     1      -8.867   8.991  65.134  1.00  0.00    -0.224 A  
BRANCH  13  15
HETATM   15  N   UNL     1     -10.200  10.748  66.147  1.00  0.00    -0.244 NA 
HETATM   16  H   UNL     1      -9.606  11.429  66.619  1.00  0.00     0.000 HD 
BRANCH  15  17
HETATM   17  N   UNL     1     -11.290  11.045  65.613  1.00  0.00     0.123 NA 
HETATM   18  H   UNL     1     -12.010  10.357  65.393  1.00  0.00     0.000 HD 
BRANCH  17  19
HETATM   19  C   UNL     1     -11.425  12.378  65.352  1.00  0.00    -0.358 A  
HETATM   20  N   UNL     1     -12.499  13.022  64.919  1.00  0.00    -0.548 NA 
HETATM   21  C   UNL     1     -12.249  14.375  64.799  1.00  0.00    -0.446 A  
HETATM   22  C   UNL     1     -10.976  14.750  65.140  1.00  0.00    -0.393 A  
HETATM   23  N   UNL     1     -10.444  16.073  65.113  1.00  0.00    -0.364 N  
HETATM   24  S   UNL     1     -10.054  13.411  65.624  1.00  0.00    -0.243 SA 
HETATM   25  O   UNL     1     -11.217  16.971  64.752  1.00  0.00    -0.806 OA 
HETATM   26  O   UNL     1      -9.265  16.236  65.455  1.00  0.00    -0.316 OA 
ENDBRANCH  17  19
ENDBRANCH  15  17
ENDBRANCH  13  15
ENDBRANCH   3   8
ENDBRANCH   2   3
TORSDOF 7
ENDMDL
MODEL      150
REMARK 921   NORMALIZED FREE ENERGY PREDICTED BY IDOCK:   -4.06 KCAL/MOL
REMARK 922        TOTAL FREE ENERGY PREDICTED BY IDOCK:   -6.36 KCAL/MOL
REMARK 923 INTER-LIGAND FREE ENERGY PREDICTED BY IDOCK:   -5.81 KCAL/MOL
REMARK 924 INTRA-LIGAND FREE ENERGY PREDICTED BY IDOCK:   -0.54 KCAL/MOL
REMARK 927      BINDING AFFINITY PREDICTED BY RF-SCORE:    0.00 PKD
ROOT
HETATM    1  C   UNL     1     -11.588  15.640  68.045  1.00  0.00    -0.245 C  
HETATM    2  C   UNL     1     -10.546  14.611  67.637  1.00  0.00    -0.256 C  
ENDROOT
BRANCH   2   3
HETATM    3  N   UNL     1     -11.005  13.790  66.509  1.00  0.00    -0.297 NA 
BRANCH   3   4
HETATM    4  C   UNL     1     -12.065  14.319  65.637  1.00  0.00    -0.393 C  
BRANCH   4   5
HETATM    5  C   UNL     1     -11.473  14.924  64.351  1.00  0.00    -0.247 C  
HETATM    6  H   UNL     1     -11.881  16.403  63.096  1.00  0.00     0.000 HD 
HETATM    7  O   UNL     1     -12.246  16.029  63.889  1.00  0.00    -0.883 OA 
ENDBRANCH   4   5
ENDBRANCH   3   4
BRANCH   3   8
HETATM    8  C   UNL     1     -10.314  12.635  66.167  1.00  0.00    -0.256 A  
HETATM    9  C   UNL     1      -7.065  10.950  67.211  1.00  0.00    -0.097 C  
HETATM   10  C   UNL     1     -10.827  11.677  65.285  1.00  0.00    -0.340 A  
HETATM   11  C   UNL     1     -10.129  10.495  64.992  1.00  0.00    -0.390 A  
HETATM   12  C   UNL     1      -9.064  12.360  66.735  1.00  0.00    -0.212 A  
HETATM   13  C   UNL     1      -8.900  10.212  65.601  1.00  0.00    -0.165 A  
HETATM   14  C   UNL     1      -8.369  11.160  66.490  1.00  0.00    -0.166 A  
BRANCH  13  15
HETATM   15  N   UNL     1      -8.150   9.057  65.299  1.00  0.00    -0.120 NA 
HETATM   16  H   UNL     1      -7.144   9.071  65.134  1.00  0.00     0.000 HD 
BRANCH  15  17
HETATM   17  N   UNL     1      -8.836   8.014  65.253  1.00  0.00    -0.383 NA 
HETATM   18  H   UNL     1      -9.071   7.538  64.381  1.00  0.00     0.000 HD 
BRANCH  17  19
HETATM   19  C   UNL     1      -9.241   7.571  66.479  1.00  0.00    -0.174 A  
HETATM   20  N   UNL     1     -10.470   7.271  66.874  1.00  0.00    -0.306 NA 
HETATM   21  C   UNL     1     -10.474   6.832  68.185  1.00  0.00    -0.211 A  
HETATM   22  C   UNL     1      -9.239   6.806  68.778  1.00  0.00    -0.130 A  
HETATM   23  N   UNL     1      -8.946   6.399  70.113  1.00  0.00    -0.153 N  
HETATM   24  S   UNL     1      -8.034   7.332  67.706  1.00  0.00    -0.115 SA 
HETATM   25  O   UNL     1      -9.907   6.025  70.799  1.00  0.00    -0.175 OA 
HETATM   26  O   UNL     1      -7.768   6.438  70.491  1.00  0.00    -0.100 OA 
ENDBRANCH  17  19
ENDBRANCH  15  17
ENDBRANCH  13  15
ENDBRANCH   3   8
ENDBRANCH   2   3
TORSDOF 7
ENDMDL
MODEL      151
REMARK 921   NORMALIZED FREE ENERGY PREDICTED BY IDOCK:   -4.04 KCAL/MOL
REMARK 922        TOTAL FREE ENERGY PREDICTED BY IDOCK:   -6.32 KCAL/MOL
REMARK 923 INTER-LIGAND FREE ENERGY PREDICTED BY IDOCK:   -5.80 KCAL/MOL
REMARK 924 INTRA-LIGAND FREE ENERGY PREDICTED BY IDOCK:   -0.52 KCAL/MOL
REMARK 927      BINDING AFFINITY PREDICTED BY RF-SCORE:    0.00 PKD
ROOT
HETATM    1  C   UNL     1      -9.647   5.762  70.459  1.00  0.00    -0.214 C  
HETATM    2  C   UNL     1     -10.234   5.056  69.246  1.00  0.00    -0.174 C  
ENDROOT
BRANCH   2   3
HETATM    3  N   UNL     1      -9.371   5.192  68.066  1.00  0.00    -0.116 NA 
BRANCH   3   4
HETATM    4  C   UNL     1      -8.711   3.990  67.534  1.00  0.00    -0.105 C  
BRANCH   4   5
HETATM    5  C   UNL     1      -8.628   2.885  68.601  1.00  0.00    -0.075 C  
HETATM    6  H   UNL     1      -9.580   1.207  69.060  1.00  0.00     0.000 HD 
HETATM    7  O   UNL     1      -9.631   1.890  68.402  1.00  0.00    -0.198 OA 
ENDBRANCH   4   5
ENDBRANCH   3   4
BRANCH   3   8
HETATM    8  C   UNL     1      -9.343   6.389  67.364  1.00  0.00    -0.116 A  
HETATM    9  C   UNL     1      -7.028   8.058  64.845  1.00  0.00    -0.063 C  
HETATM   10  C   UNL     1     -10.391   7.316  67.401  1.00  0.00    -0.330 A  
HETATM   11  C   UNL     1     -10.358   8.497  66.644  1.00  0.00    -0.303 A  
HETATM   12  C   UNL     1      -8.255   6.705  66.541  1.00  0.00    -0.114 A  
HETATM   13  C   UNL     1      -9.283   8.780  65.791  1.00  0.00    -0.206 A  
HETATM   14  C   UNL     1      -8.223   7.862  65.739  1.00  0.00    -0.130 A  
BRANCH  13  15
HETATM   15  N   UNL     1      -9.196   9.975  65.049  1.00  0.00    -0.205 NA 
HETATM   16  H   UNL     1      -8.566  10.739  65.294  1.00  0.00     0.000 HD 
BRANCH  15  17
HETATM   17  N   UNL     1      -9.964  10.010  64.065  1.00  0.00    -0.474 NA 
HETATM   18  H   UNL     1     -10.060   9.238  63.404  1.00  0.00     0.000 HD 
BRANCH  17  19
HETATM   19  C   UNL     1     -10.661  11.179  63.956  1.00  0.00    -0.368 A  
HETATM   20  N   UNL     1     -11.616  11.483  63.089  1.00  0.00    -0.081 NA 
HETATM   21  C   UNL     1     -12.098  12.758  63.314  1.00  0.00    -0.439 A  
HETATM   22  C   UNL     1     -11.497  13.417  64.354  1.00  0.00    -0.384 A  
HETATM   23  N   UNL     1     -11.793  14.737  64.808  1.00  0.00    -0.423 N  
HETATM   24  S   UNL     1     -10.307  12.454  65.083  1.00  0.00    -0.290 SA 
HETATM   25  O   UNL     1     -12.690  15.340  64.202  1.00  0.00    -0.651 OA 
HETATM   26  O   UNL     1     -11.150  15.183  65.767  1.00  0.00    -0.342 OA 
ENDBRANCH  17  19
ENDBRANCH  15  17
ENDBRANCH  13  15
ENDBRANCH   3   8
ENDBRANCH   2   3
TORSDOF 7
ENDMDL
MODEL      152
REMARK 921   NORMALIZED FREE ENERGY PREDICTED BY IDOCK:   -4.04 KCAL/MOL
REMARK 922        TOTAL FREE ENERGY PREDICTED BY IDOCK:   -6.32 KCAL/MOL
REMARK 923 INTER-LIGAND FREE ENERGY PREDICTED BY IDOCK:   -5.69 KCAL/MOL
REMARK 924 INTRA-LIGAND FREE ENERGY PREDICTED BY IDOCK:   -0.64 KCAL/MOL
REMARK 927      BINDING AFFINITY PREDICTED BY RF-SCORE:    0.00 PKD
ROOT
HETATM    1  C   UNL     1      -6.914   3.171  68.109  1.00  0.00    -0.049 C  
HETATM    2  C   UNL     1      -7.179   4.668  68.055  1.00  0.00    -0.065 C  
ENDROOT
BRANCH   2   3
HETATM    3  N   UNL     1      -8.600   4.977  68.259  1.00  0.00    -0.102 NA 
BRANCH   3   4
HETATM    4  C   UNL     1      -9.453   3.972  68.913  1.00  0.00    -0.167 C  
BRANCH   4   5
HETATM    5  C   UNL     1      -9.736   4.353  70.377  1.00  0.00    -0.214 C  
HETATM    6  H   UNL     1      -8.704   4.866  71.991  1.00  0.00     0.000 HD 
HETATM    7  O   UNL     1      -8.530   4.630  71.087  1.00  0.00    -0.103 OA 
ENDBRANCH   4   5
ENDBRANCH   3   4
BRANCH   3   8
HETATM    8  C   UNL     1      -9.072   6.260  68.019  1.00  0.00    -0.112 A  
HETATM    9  C   UNL     1      -7.737   9.806  68.386  1.00  0.00    -0.081 C  
HETATM   10  C   UNL     1     -10.307   6.513  67.411  1.00  0.00    -0.263 A  
HETATM   11  C   UNL     1     -10.740   7.820  67.136  1.00  0.00    -0.337 A  
HETATM   12  C   UNL     1      -8.294   7.377  68.349  1.00  0.00    -0.125 A  
HETATM   13  C   UNL     1      -9.933   8.926  67.432  1.00  0.00    -0.209 A  
HETATM   14  C   UNL     1      -8.689   8.693  68.041  1.00  0.00    -0.141 A  
BRANCH  13  15
HETATM   15  N   UNL     1     -10.352  10.253  67.210  1.00  0.00    -0.218 NA 
HETATM   16  H   UNL     1     -10.575  10.902  67.965  1.00  0.00     0.000 HD 
BRANCH  15  17
HETATM   17  N   UNL     1     -10.423  10.560  66.001  1.00  0.00    -0.197 NA 
HETATM   18  H   UNL     1     -10.475   9.869  65.252  1.00  0.00     0.000 HD 
BRANCH  17  19
HETATM   19  C   UNL     1     -10.425  11.907  65.778  1.00  0.00    -0.256 A  
HETATM   20  N   UNL     1      -9.514  12.797  66.145  1.00  0.00    -0.210 NA 
HETATM   21  C   UNL     1      -9.859  14.063  65.711  1.00  0.00    -0.256 A  
HETATM   22  C   UNL     1     -11.039  14.124  65.018  1.00  0.00    -0.370 A  
HETATM   23  N   UNL     1     -11.636  15.291  64.456  1.00  0.00    -0.368 N  
HETATM   24  S   UNL     1     -11.752  12.590  64.888  1.00  0.00    -0.376 SA 
HETATM   25  O   UNL     1     -11.017  16.353  64.607  1.00  0.00    -0.707 OA 
HETATM   26  O   UNL     1     -12.713  15.167  63.858  1.00  0.00    -0.759 OA 
ENDBRANCH  17  19
ENDBRANCH  15  17
ENDBRANCH  13  15
ENDBRANCH   3   8
ENDBRANCH   2   3
TORSDOF 7
ENDMDL
MODEL      153
REMARK 921   NORMALIZED FREE ENERGY PREDICTED BY IDOCK:   -4.03 KCAL/MOL
REMARK 922        TOTAL FREE ENERGY PREDICTED BY IDOCK:   -6.31 KCAL/MOL
REMARK 923 INTER-LIGAND FREE ENERGY PREDICTED BY IDOCK:   -5.84 KCAL/MOL
REMARK 924 INTRA-LIGAND FREE ENERGY PREDICTED BY IDOCK:   -0.47 KCAL/MOL
REMARK 927      BINDING AFFINITY PREDICTED BY RF-SCORE:    0.00 PKD
ROOT
HETATM    1  C   UNL     1     -10.195  20.314  68.057  1.00  0.00    -0.424 C  
HETATM    2  C   UNL     1      -9.715  20.330  66.614  1.00  0.00    -0.414 C  
ENDROOT
BRANCH   2   3
HETATM    3  N   UNL     1      -8.815  19.205  66.327  1.00  0.00    -0.393 NA 
BRANCH   3   4
HETATM    4  C   UNL     1      -7.410  19.493  65.998  1.00  0.00    -0.295 C  
BRANCH   4   5
HETATM    5  C   UNL     1      -6.619  19.895  67.255  1.00  0.00    -0.204 C  
HETATM    6  H   UNL     1      -5.554  21.441  67.893  1.00  0.00     0.000 HD 
HETATM    7  O   UNL     1      -6.043  21.192  67.117  1.00  0.00    -0.258 OA 
ENDBRANCH   4   5
ENDBRANCH   3   4
BRANCH   3   8
HETATM    8  C   UNL     1      -9.239  17.904  66.557  1.00  0.00    -0.273 A  
HETATM    9  C   UNL     1      -8.828  15.312  69.314  1.00  0.00    -0.242 C  
HETATM   10  C   UNL     1     -10.119  17.230  65.701  1.00  0.00    -0.069 A  
HETATM   11  C   UNL     1     -10.569  15.930  65.981  1.00  0.00    -0.331 A  
HETATM   12  C   UNL     1      -8.823  17.212  67.700  1.00  0.00    -0.218 A  
HETATM   13  C   UNL     1     -10.178  15.266  67.151  1.00  0.00    -0.252 A  
HETATM   14  C   UNL     1      -9.298  15.926  68.023  1.00  0.00    -0.201 A  
BRANCH  13  15
HETATM   15  N   UNL     1     -10.575  13.946  67.444  1.00  0.00    -0.266 NA 
HETATM   16  H   UNL     1     -10.832  13.634  68.381  1.00  0.00     0.000 HD 
BRANCH  15  17
HETATM   17  N   UNL     1     -10.583  13.193  66.447  1.00  0.00    -0.283 NA 
HETATM   18  H   UNL     1     -10.632  13.536  65.488  1.00  0.00     0.000 HD 
BRANCH  17  19
HETATM   19  C   UNL     1     -10.518  11.866  66.764  1.00  0.00    -0.221 A  
HETATM   20  N   UNL     1     -11.213  11.210  67.681  1.00  0.00    -0.303 NA 
HETATM   21  C   UNL     1     -10.883   9.869  67.686  1.00  0.00    -0.257 A  
HETATM   22  C   UNL     1      -9.930   9.516  66.767  1.00  0.00    -0.233 A  
HETATM   23  N   UNL     1      -9.401   8.209  66.550  1.00  0.00    -0.192 N  
HETATM   24  S   UNL     1      -9.419  10.861  65.868  1.00  0.00    -0.218 SA 
HETATM   25  O   UNL     1      -9.859   7.304  67.261  1.00  0.00    -0.148 OA 
HETATM   26  O   UNL     1      -8.538   8.065  65.674  1.00  0.00    -0.146 OA 
ENDBRANCH  17  19
ENDBRANCH  15  17
ENDBRANCH  13  15
ENDBRANCH   3   8
ENDBRANCH   2   3
TORSDOF 7
ENDMDL
MODEL      154
REMARK 921   NORMALIZED FREE ENERGY PREDICTED BY IDOCK:   -4.03 KCAL/MOL
REMARK 922        TOTAL FREE ENERGY PREDICTED BY IDOCK:   -6.31 KCAL/MOL
REMARK 923 INTER-LIGAND FREE ENERGY PREDICTED BY IDOCK:   -5.89 KCAL/MOL
REMARK 924 INTRA-LIGAND FREE ENERGY PREDICTED BY IDOCK:   -0.43 KCAL/MOL
REMARK 927      BINDING AFFINITY PREDICTED BY RF-SCORE:    0.00 PKD
ROOT
HETATM    1  C   UNL     1      -7.301   4.045  63.573  1.00  0.00    -0.051 C  
HETATM    2  C   UNL     1      -7.494   4.790  64.885  1.00  0.00    -0.076 C  
ENDROOT
BRANCH   2   3
HETATM    3  N   UNL     1      -8.908   4.839  65.279  1.00  0.00    -0.144 NA 
BRANCH   3   4
HETATM    4  C   UNL     1      -9.727   3.627  65.122  1.00  0.00    -0.157 C  
BRANCH   4   5
HETATM    5  C   UNL     1     -10.698   3.764  63.937  1.00  0.00    -0.243 C  
HETATM    6  H   UNL     1     -11.773   2.576  62.769  1.00  0.00     0.000 HD 
HETATM    7  O   UNL     1     -11.173   2.492  63.501  1.00  0.00    -0.288 OA 
ENDBRANCH   4   5
ENDBRANCH   3   4
BRANCH   3   8
HETATM    8  C   UNL     1      -9.398   5.944  65.963  1.00  0.00    -0.097 A  
HETATM    9  C   UNL     1      -8.571   9.653  66.170  1.00  0.00    -0.138 C  
HETATM   10  C   UNL     1     -10.538   5.890  66.774  1.00  0.00    -0.368 A  
HETATM   11  C   UNL     1     -11.039   7.032  67.418  1.00  0.00    -0.265 A  
HETATM   12  C   UNL     1      -8.777   7.192  65.836  1.00  0.00    -0.146 A  
HETATM   13  C   UNL     1     -10.433   8.283  67.246  1.00  0.00    -0.303 A  
HETATM   14  C   UNL     1      -9.290   8.358  66.436  1.00  0.00    -0.274 A  
BRANCH  13  15
HETATM   15  N   UNL     1     -10.883   9.443  67.910  1.00  0.00    -0.466 NA 
HETATM   16  H   UNL     1     -10.978  10.348  67.450  1.00  0.00     0.000 HD 
BRANCH  15  17
HETATM   17  N   UNL     1     -11.154   9.256  69.115  1.00  0.00    -0.440 NA 
HETATM   18  H   UNL     1     -11.054   8.351  69.576  1.00  0.00     0.000 HD 
BRANCH  17  19
HETATM   19  C   UNL     1     -11.596  10.377  69.756  1.00  0.00    -0.269 A  
HETATM   20  N   UNL     1     -12.151  10.467  70.956  1.00  0.00    -0.357 NA 
HETATM   21  C   UNL     1     -12.442  11.781  71.268  1.00  0.00    -0.246 A  
HETATM   22  C   UNL     1     -12.108  12.683  70.294  1.00  0.00    -0.294 A  
HETATM   23  N   UNL     1     -12.292  14.097  70.345  1.00  0.00    -0.339 N  
HETATM   24  S   UNL     1     -11.415  11.908  68.953  1.00  0.00    -0.328 SA 
HETATM   25  O   UNL     1     -12.799  14.549  71.380  1.00  0.00    -0.300 OA 
HETATM   26  O   UNL     1     -11.932  14.769  69.369  1.00  0.00    -0.299 OA 
ENDBRANCH  17  19
ENDBRANCH  15  17
ENDBRANCH  13  15
ENDBRANCH   3   8
ENDBRANCH   2   3
TORSDOF 7
ENDMDL
MODEL      155
REMARK 921   NORMALIZED FREE ENERGY PREDICTED BY IDOCK:   -4.01 KCAL/MOL
REMARK 922        TOTAL FREE ENERGY PREDICTED BY IDOCK:   -6.28 KCAL/MOL
REMARK 923 INTER-LIGAND FREE ENERGY PREDICTED BY IDOCK:   -5.92 KCAL/MOL
REMARK 924 INTRA-LIGAND FREE ENERGY PREDICTED BY IDOCK:   -0.35 KCAL/MOL
REMARK 927      BINDING AFFINITY PREDICTED BY RF-SCORE:    0.00 PKD
ROOT
HETATM    1  C   UNL     1     -10.566   6.501  68.438  1.00  0.00    -0.296 C  
HETATM    2  C   UNL     1     -10.762   7.218  67.111  1.00  0.00    -0.343 C  
ENDROOT
BRANCH   2   3
HETATM    3  N   UNL     1      -9.542   7.913  66.683  1.00  0.00    -0.212 NA 
BRANCH   3   4
HETATM    4  C   UNL     1      -8.351   7.113  66.359  1.00  0.00    -0.125 C  
BRANCH   4   5
HETATM    5  C   UNL     1      -8.696   5.978  65.379  1.00  0.00    -0.083 C  
HETATM    6  H   UNL     1      -8.077   4.138  64.979  1.00  0.00     0.000 HD 
HETATM    7  O   UNL     1      -7.864   4.838  65.584  1.00  0.00    -0.093 OA 
ENDBRANCH   4   5
ENDBRANCH   3   4
BRANCH   3   8
HETATM    8  C   UNL     1      -9.582   9.273  66.403  1.00  0.00    -0.238 A  
HETATM    9  C   UNL     1     -10.004  11.443  63.305  1.00  0.00    -0.431 C  
HETATM   10  C   UNL     1      -9.555  10.254  67.401  1.00  0.00    -0.183 A  
HETATM   11  C   UNL     1      -9.644  11.621  67.094  1.00  0.00    -0.185 A  
HETATM   12  C   UNL     1      -9.691   9.724  65.082  1.00  0.00    -0.338 A  
HETATM   13  C   UNL     1      -9.796  12.056  65.771  1.00  0.00    -0.242 A  
HETATM   14  C   UNL     1      -9.827  11.087  64.756  1.00  0.00    -0.329 A  
BRANCH  13  15
HETATM   15  N   UNL     1      -9.846  13.421  65.421  1.00  0.00    -0.509 NA 
HETATM   16  H   UNL     1      -9.024  13.954  65.139  1.00  0.00     0.000 HD 
BRANCH  15  17
HETATM   17  N   UNL     1     -10.991  13.914  65.491  1.00  0.00    -0.295 NA 
HETATM   18  H   UNL     1     -11.619  13.984  64.690  1.00  0.00     0.000 HD 
BRANCH  17  19
HETATM   19  C   UNL     1     -11.323  14.350  66.741  1.00  0.00    -0.352 A  
HETATM   20  N   UNL     1     -12.271  13.887  67.543  1.00  0.00    -0.315 NA 
HETATM   21  C   UNL     1     -12.283  14.575  68.742  1.00  0.00    -0.138 A  
HETATM   22  C   UNL     1     -11.340  15.564  68.838  1.00  0.00    -0.324 A  
HETATM   23  N   UNL     1     -11.124  16.427  69.953  1.00  0.00    -0.347 N  
HETATM   24  S   UNL     1     -10.407  15.660  67.424  1.00  0.00    -0.281 SA 
HETATM   25  O   UNL     1     -11.861  16.255  70.934  1.00  0.00    -0.341 OA 
HETATM   26  O   UNL     1     -10.223  17.272  69.873  1.00  0.00     0.076 OA 
ENDBRANCH  17  19
ENDBRANCH  15  17
ENDBRANCH  13  15
ENDBRANCH   3   8
ENDBRANCH   2   3
TORSDOF 7
ENDMDL
MODEL      156
REMARK 921   NORMALIZED FREE ENERGY PREDICTED BY IDOCK:   -4.00 KCAL/MOL
REMARK 922        TOTAL FREE ENERGY PREDICTED BY IDOCK:   -6.27 KCAL/MOL
REMARK 923 INTER-LIGAND FREE ENERGY PREDICTED BY IDOCK:   -6.14 KCAL/MOL
REMARK 924 INTRA-LIGAND FREE ENERGY PREDICTED BY IDOCK:   -0.13 KCAL/MOL
REMARK 927      BINDING AFFINITY PREDICTED BY RF-SCORE:    0.00 PKD
ROOT
HETATM    1  C   UNL     1      -8.891   9.066  62.331  1.00  0.00    -0.177 C  
HETATM    2  C   UNL     1      -7.737   9.117  63.321  1.00  0.00    -0.115 C  
ENDROOT
BRANCH   2   3
HETATM    3  N   UNL     1      -8.200   8.957  64.705  1.00  0.00    -0.155 NA 
BRANCH   3   4
HETATM    4  C   UNL     1      -7.532   7.964  65.561  1.00  0.00    -0.079 C  
BRANCH   4   5
HETATM    5  C   UNL     1      -6.402   8.611  66.380  1.00  0.00    -0.061 C  
HETATM    6  H   UNL     1      -4.592   9.354  66.061  1.00  0.00     0.000 HD 
HETATM    7  O   UNL     1      -5.290   8.955  65.556  1.00  0.00    -0.037 OA 
ENDBRANCH   4   5
ENDBRANCH   3   4
BRANCH   3   8
HETATM    8  C   UNL     1      -9.110   9.859  65.240  1.00  0.00    -0.211 A  
HETATM    9  C   UNL     1     -10.617  13.199  64.210  1.00  0.00    -0.432 C  
HETATM   10  C   UNL     1      -9.821   9.610  66.419  1.00  0.00    -0.309 A  
HETATM   11  C   UNL     1     -10.770  10.519  66.914  1.00  0.00    -0.281 A  
HETATM   12  C   UNL     1      -9.385  11.065  64.584  1.00  0.00    -0.235 A  
HETATM   13  C   UNL     1     -11.067  11.701  66.224  1.00  0.00    -0.290 A  
HETATM   14  C   UNL     1     -10.365  11.968  65.038  1.00  0.00    -0.318 A  
BRANCH  13  15
HETATM   15  N   UNL     1     -11.981  12.656  66.712  1.00  0.00    -0.519 NA 
HETATM   16  H   UNL     1     -12.594  13.203  66.107  1.00  0.00     0.000 HD 
BRANCH  15  17
HETATM   17  N   UNL     1     -11.970  12.770  67.956  1.00  0.00    -0.323 NA 
HETATM   18  H   UNL     1     -12.162  11.993  68.590  1.00  0.00     0.000 HD 
BRANCH  17  19
HETATM   19  C   UNL     1     -11.677  14.031  68.388  1.00  0.00    -0.354 A  
HETATM   20  N   UNL     1     -11.795  14.524  69.612  1.00  0.00    -0.299 NA 
HETATM   21  C   UNL     1     -11.372  15.839  69.657  1.00  0.00    -0.334 A  
HETATM   22  C   UNL     1     -10.937  16.337  68.457  1.00  0.00    -0.345 A  
HETATM   23  N   UNL     1     -10.447  17.654  68.212  1.00  0.00    -0.380 N  
HETATM   24  S   UNL     1     -11.046  15.168  67.234  1.00  0.00    -0.320 SA 
HETATM   25  O   UNL     1     -10.406  18.418  69.186  1.00  0.00    -0.257 OA 
HETATM   26  O   UNL     1     -10.094  17.941  67.060  1.00  0.00    -0.311 OA 
ENDBRANCH  17  19
ENDBRANCH  15  17
ENDBRANCH  13  15
ENDBRANCH   3   8
ENDBRANCH   2   3
TORSDOF 7
ENDMDL
MODEL      157
REMARK 921   NORMALIZED FREE ENERGY PREDICTED BY IDOCK:   -4.00 KCAL/MOL
REMARK 922        TOTAL FREE ENERGY PREDICTED BY IDOCK:   -6.26 KCAL/MOL
REMARK 923 INTER-LIGAND FREE ENERGY PREDICTED BY IDOCK:   -6.39 KCAL/MOL
REMARK 924 INTRA-LIGAND FREE ENERGY PREDICTED BY IDOCK:    0.13 KCAL/MOL
REMARK 927      BINDING AFFINITY PREDICTED BY RF-SCORE:    0.00 PKD
ROOT
HETATM    1  C   UNL     1      -9.990  11.384  67.129  1.00  0.00    -0.217 C  
HETATM    2  C   UNL     1     -11.482  11.580  67.358  1.00  0.00    -0.274 C  
ENDROOT
BRANCH   2   3
HETATM    3  N   UNL     1     -11.755  12.203  68.660  1.00  0.00    -0.315 NA 
BRANCH   3   4
HETATM    4  C   UNL     1     -12.205  11.347  69.769  1.00  0.00    -0.265 C  
BRANCH   4   5
HETATM    5  C   UNL     1     -11.507   9.977  69.730  1.00  0.00    -0.184 C  
HETATM    6  H   UNL     1     -11.124   8.483  70.976  1.00  0.00     0.000 HD 
HETATM    7  O   UNL     1     -11.555   9.329  70.999  1.00  0.00    -0.276 OA 
ENDBRANCH   4   5
ENDBRANCH   3   4
BRANCH   3   8
HETATM    8  C   UNL     1     -11.405  13.528  68.881  1.00  0.00    -0.289 A  
HETATM    9  C   UNL     1     -11.916  16.093  71.646  1.00  0.00    -0.528 C  
HETATM   10  C   UNL     1     -10.585  14.252  68.008  1.00  0.00    -0.238 A  
HETATM   11  C   UNL     1     -10.208  15.577  68.279  1.00  0.00    -0.222 A  
HETATM   12  C   UNL     1     -11.840  14.195  70.033  1.00  0.00    -0.388 A  
HETATM   13  C   UNL     1     -10.614  16.218  69.457  1.00  0.00    -0.314 A  
HETATM   14  C   UNL     1     -11.436  15.507  70.346  1.00  0.00    -0.364 A  
BRANCH  13  15
HETATM   15  N   UNL     1     -10.291  17.560  69.741  1.00  0.00    -0.076 NA 
HETATM   16  H   UNL     1      -9.621  17.832  70.460  1.00  0.00     0.000 HD 
BRANCH  15  17
HETATM   17  N   UNL     1     -10.903  18.384  69.029  1.00  0.00    -0.003 NA 
HETATM   18  H   UNL     1     -11.864  18.675  69.212  1.00  0.00     0.000 HD 
BRANCH  17  19
HETATM   19  C   UNL     1     -10.165  18.857  67.983  1.00  0.00    -0.388 A  
HETATM   20  N   UNL     1     -10.582  19.173  66.766  1.00  0.00    -0.431 NA 
HETATM   21  C   UNL     1      -9.537  19.643  65.993  1.00  0.00    -0.318 A  
HETATM   22  C   UNL     1      -8.327  19.675  66.634  1.00  0.00    -0.321 A  
HETATM   23  N   UNL     1      -7.085  20.111  66.083  1.00  0.00    -0.267 N  
HETATM   24  S   UNL     1      -8.464  19.117  68.230  1.00  0.00    -0.342 SA 
HETATM   25  O   UNL     1      -7.111  20.507  64.910  1.00  0.00    -0.199 OA 
HETATM   26  O   UNL     1      -6.080  20.074  66.806  1.00  0.00    -0.174 OA 
ENDBRANCH  17  19
ENDBRANCH  15  17
ENDBRANCH  13  15
ENDBRANCH   3   8
ENDBRANCH   2   3
TORSDOF 7
ENDMDL
MODEL      158
REMARK 921   NORMALIZED FREE ENERGY PREDICTED BY IDOCK:   -4.00 KCAL/MOL
REMARK 922        TOTAL FREE ENERGY PREDICTED BY IDOCK:   -6.26 KCAL/MOL
REMARK 923 INTER-LIGAND FREE ENERGY PREDICTED BY IDOCK:   -5.47 KCAL/MOL
REMARK 924 INTRA-LIGAND FREE ENERGY PREDICTED BY IDOCK:   -0.79 KCAL/MOL
REMARK 927      BINDING AFFINITY PREDICTED BY RF-SCORE:    0.00 PKD
ROOT
HETATM    1  C   UNL     1     -12.498   6.732  71.603  1.00  0.00    -0.398 C  
HETATM    2  C   UNL     1     -11.261   5.894  71.889  1.00  0.00    -0.264 C  
ENDROOT
BRANCH   2   3
HETATM    3  N   UNL     1     -10.447   5.695  70.683  1.00  0.00    -0.253 NA 
BRANCH   3   4
HETATM    4  C   UNL     1      -9.933   4.348  70.393  1.00  0.00    -0.183 C  
BRANCH   4   5
HETATM    5  C   UNL     1      -8.396   4.343  70.332  1.00  0.00    -0.073 C  
HETATM    6  H   UNL     1      -6.875   4.940  71.455  1.00  0.00     0.000 HD 
HETATM    7  O   UNL     1      -7.824   4.943  71.492  1.00  0.00    -0.098 OA 
ENDBRANCH   4   5
ENDBRANCH   3   4
BRANCH   3   8
HETATM    8  C   UNL     1     -10.337   6.714  69.747  1.00  0.00    -0.193 A  
HETATM    9  C   UNL     1      -8.560  10.072  69.517  1.00  0.00    -0.197 C  
HETATM   10  C   UNL     1     -10.890   6.629  68.464  1.00  0.00    -0.319 A  
HETATM   11  C   UNL     1     -10.725   7.655  67.520  1.00  0.00    -0.280 A  
HETATM   12  C   UNL     1      -9.620   7.880  70.045  1.00  0.00    -0.168 A  
HETATM   13  C   UNL     1      -9.968   8.795  67.817  1.00  0.00    -0.194 A  
HETATM   14  C   UNL     1      -9.404   8.899  69.098  1.00  0.00    -0.148 A  
BRANCH  13  15
HETATM   15  N   UNL     1      -9.816   9.864  66.910  1.00  0.00    -0.189 NA 
HETATM   16  H   UNL     1      -8.914  10.153  66.534  1.00  0.00     0.000 HD 
BRANCH  15  17
HETATM   17  N   UNL     1     -10.893  10.423  66.611  1.00  0.00    -0.130 NA 
HETATM   18  H   UNL     1     -11.580  10.010  65.980  1.00  0.00     0.000 HD 
BRANCH  17  19
HETATM   19  C   UNL     1     -11.062  11.638  67.209  1.00  0.00    -0.290 A  
HETATM   20  N   UNL     1     -11.534  11.894  68.420  1.00  0.00    -0.273 NA 
HETATM   21  C   UNL     1     -11.529  13.252  68.675  1.00  0.00    -0.304 A  
HETATM   22  C   UNL     1     -11.052  14.021  67.646  1.00  0.00    -0.282 A  
HETATM   23  N   UNL     1     -10.932  15.442  67.633  1.00  0.00    -0.309 N  
HETATM   24  S   UNL     1     -10.595  13.060  66.325  1.00  0.00    -0.274 SA 
HETATM   25  O   UNL     1     -11.289  16.036  68.660  1.00  0.00    -0.349 OA 
HETATM   26  O   UNL     1     -10.479  15.981  66.614  1.00  0.00    -0.300 OA 
ENDBRANCH  17  19
ENDBRANCH  15  17
ENDBRANCH  13  15
ENDBRANCH   3   8
ENDBRANCH   2   3
TORSDOF 7
ENDMDL
MODEL      159
REMARK 921   NORMALIZED FREE ENERGY PREDICTED BY IDOCK:   -3.99 KCAL/MOL
REMARK 922        TOTAL FREE ENERGY PREDICTED BY IDOCK:   -6.24 KCAL/MOL
REMARK 923 INTER-LIGAND FREE ENERGY PREDICTED BY IDOCK:   -5.58 KCAL/MOL
REMARK 924 INTRA-LIGAND FREE ENERGY PREDICTED BY IDOCK:   -0.66 KCAL/MOL
REMARK 927      BINDING AFFINITY PREDICTED BY RF-SCORE:    0.00 PKD
ROOT
HETATM    1  C   UNL     1      -6.948   4.004  67.288  1.00  0.00    -0.059 C  
HETATM    2  C   UNL     1      -8.375   3.489  67.173  1.00  0.00    -0.092 C  
ENDROOT
BRANCH   2   3
HETATM    3  N   UNL     1      -9.218   4.394  66.382  1.00  0.00    -0.132 NA 
BRANCH   3   4
HETATM    4  C   UNL     1      -9.701   3.940  65.068  1.00  0.00    -0.192 C  
BRANCH   4   5
HETATM    5  C   UNL     1      -8.674   4.247  63.965  1.00  0.00    -0.127 C  
HETATM    6  H   UNL     1      -7.115   3.363  63.117  1.00  0.00     0.000 HD 
HETATM    7  O   UNL     1      -7.749   3.174  63.798  1.00  0.00    -0.070 OA 
ENDBRANCH   4   5
ENDBRANCH   3   4
BRANCH   3   8
HETATM    8  C   UNL     1      -9.703   5.563  66.952  1.00  0.00    -0.150 A  
HETATM    9  C   UNL     1     -11.538   6.523  70.145  1.00  0.00    -0.466 C  
HETATM   10  C   UNL     1      -9.487   6.827  66.391  1.00  0.00    -0.166 A  
HETATM   11  C   UNL     1      -9.948   7.999  67.013  1.00  0.00    -0.324 A  
HETATM   12  C   UNL     1     -10.413   5.525  68.158  1.00  0.00    -0.231 A  
HETATM   13  C   UNL     1     -10.619   7.949  68.242  1.00  0.00    -0.109 A  
HETATM   14  C   UNL     1     -10.844   6.690  68.821  1.00  0.00    -0.321 A  
BRANCH  13  15
HETATM   15  N   UNL     1     -11.133   9.099  68.873  1.00  0.00    -0.439 NA 
HETATM   16  H   UNL     1     -12.089   9.163  69.224  1.00  0.00     0.000 HD 
BRANCH  15  17
HETATM   17  N   UNL     1     -10.308  10.033  68.962  1.00  0.00    -0.194 NA 
HETATM   18  H   UNL     1      -9.444   9.965  69.500  1.00  0.00     0.000 HD 
BRANCH  17  19
HETATM   19  C   UNL     1     -10.672  11.152  68.271  1.00  0.00    -0.196 A  
HETATM   20  N   UNL     1     -11.891  11.531  67.914  1.00  0.00    -0.614 NA 
HETATM   21  C   UNL     1     -11.856  12.741  67.246  1.00  0.00    -0.350 A  
HETATM   22  C   UNL     1     -10.601  13.271  67.097  1.00  0.00    -0.258 A  
HETATM   23  N   UNL     1     -10.268  14.499  66.454  1.00  0.00    -0.279 N  
HETATM   24  S   UNL     1      -9.426  12.265  67.794  1.00  0.00    -0.204 SA 
HETATM   25  O   UNL     1     -11.213  15.153  65.992  1.00  0.00    -0.338 OA 
HETATM   26  O   UNL     1      -9.076  14.831  66.407  1.00  0.00    -0.271 OA 
ENDBRANCH  17  19
ENDBRANCH  15  17
ENDBRANCH  13  15
ENDBRANCH   3   8
ENDBRANCH   2   3
TORSDOF 7
ENDMDL
MODEL      160
REMARK 921   NORMALIZED FREE ENERGY PREDICTED BY IDOCK:   -3.98 KCAL/MOL
REMARK 922        TOTAL FREE ENERGY PREDICTED BY IDOCK:   -6.24 KCAL/MOL
REMARK 923 INTER-LIGAND FREE ENERGY PREDICTED BY IDOCK:   -6.43 KCAL/MOL
REMARK 924 INTRA-LIGAND FREE ENERGY PREDICTED BY IDOCK:    0.19 KCAL/MOL
REMARK 927      BINDING AFFINITY PREDICTED BY RF-SCORE:    0.00 PKD
ROOT
HETATM    1  C   UNL     1     -13.682   9.389  72.567  1.00  0.00    -0.419 C  
HETATM    2  C   UNL     1     -13.215   9.154  71.138  1.00  0.00    -0.149 C  
ENDROOT
BRANCH   2   3
HETATM    3  N   UNL     1     -11.826   9.589  70.941  1.00  0.00    -0.296 NA 
BRANCH   3   4
HETATM    4  C   UNL     1     -10.740   8.662  71.294  1.00  0.00    -0.254 C  
BRANCH   4   5
HETATM    5  C   UNL     1     -11.121   7.209  70.957  1.00  0.00    -0.260 C  
HETATM    6  H   UNL     1     -10.226   5.445  70.826  1.00  0.00     0.000 HD 
HETATM    7  O   UNL     1      -9.992   6.341  71.034  1.00  0.00    -0.179 OA 
ENDBRANCH   4   5
ENDBRANCH   3   4
BRANCH   3   8
HETATM    8  C   UNL     1     -11.561  10.767  70.256  1.00  0.00    -0.338 A  
HETATM    9  C   UNL     1     -12.603  14.417  70.533  1.00  0.00    -0.417 C  
HETATM   10  C   UNL     1     -10.632  10.844  69.212  1.00  0.00    -0.251 A  
HETATM   11  C   UNL     1     -10.347  12.058  68.567  1.00  0.00    -0.228 A  
HETATM   12  C   UNL     1     -12.201  11.959  70.617  1.00  0.00    -0.424 A  
HETATM   13  C   UNL     1     -10.962  13.251  68.967  1.00  0.00    -0.206 A  
HETATM   14  C   UNL     1     -11.896  13.194  70.013  1.00  0.00    -0.360 A  
BRANCH  13  15
HETATM   15  N   UNL     1     -10.734  14.480  68.315  1.00  0.00    -0.236 NA 
HETATM   16  H   UNL     1      -9.926  15.072  68.506  1.00  0.00     0.000 HD 
BRANCH  15  17
HETATM   17  N   UNL     1     -11.615  14.774  67.480  1.00  0.00    -0.358 NA 
HETATM   18  H   UNL     1     -12.219  15.592  67.569  1.00  0.00     0.000 HD 
BRANCH  17  19
HETATM   19  C   UNL     1     -11.694  13.898  66.436  1.00  0.00    -0.383 A  
HETATM   20  N   UNL     1     -12.764  13.263  65.981  1.00  0.00    -0.350 NA 
HETATM   21  C   UNL     1     -12.446  12.478  64.889  1.00  0.00    -0.450 A  
HETATM   22  C   UNL     1     -11.126  12.521  64.525  1.00  0.00    -0.317 A  
HETATM   23  N   UNL     1     -10.519  11.816  63.443  1.00  0.00    -0.423 N  
HETATM   24  S   UNL     1     -10.243  13.550  65.544  1.00  0.00    -0.278 SA 
HETATM   25  O   UNL     1     -11.267  11.102  62.762  1.00  0.00     0.369 OA 
HETATM   26  O   UNL     1      -9.305  11.969  63.253  1.00  0.00    -0.224 OA 
ENDBRANCH  17  19
ENDBRANCH  15  17
ENDBRANCH  13  15
ENDBRANCH   3   8
ENDBRANCH   2   3
TORSDOF 7
ENDMDL
MODEL      161
REMARK 921   NORMALIZED FREE ENERGY PREDICTED BY IDOCK:   -3.95 KCAL/MOL
REMARK 922        TOTAL FREE ENERGY PREDICTED BY IDOCK:   -6.19 KCAL/MOL
REMARK 923 INTER-LIGAND FREE ENERGY PREDICTED BY IDOCK:   -5.68 KCAL/MOL
REMARK 924 INTRA-LIGAND FREE ENERGY PREDICTED BY IDOCK:   -0.52 KCAL/MOL
REMARK 927      BINDING AFFINITY PREDICTED BY RF-SCORE:    0.00 PKD
ROOT
HETATM    1  C   UNL     1     -12.751   7.395  71.561  1.00  0.00    -0.409 C  
HETATM    2  C   UNL     1     -11.264   7.713  71.550  1.00  0.00    -0.246 C  
ENDROOT
BRANCH   2   3
HETATM    3  N   UNL     1     -10.775   7.980  70.191  1.00  0.00    -0.242 NA 
BRANCH   3   4
HETATM    4  C   UNL     1     -10.835   6.898  69.195  1.00  0.00    -0.228 C  
BRANCH   4   5
HETATM    5  C   UNL     1      -9.596   5.991  69.288  1.00  0.00    -0.136 C  
HETATM    6  H   UNL     1      -8.886   4.586  70.494  1.00  0.00     0.000 HD 
HETATM    7  O   UNL     1      -9.651   5.147  70.437  1.00  0.00    -0.163 OA 
ENDBRANCH   4   5
ENDBRANCH   3   4
BRANCH   3   8
HETATM    8  C   UNL     1     -10.451   9.276  69.814  1.00  0.00    -0.222 A  
HETATM    9  C   UNL     1      -7.290  11.160  68.842  1.00  0.00    -0.110 C  
HETATM   10  C   UNL     1     -11.415  10.269  69.606  1.00  0.00    -0.297 A  
HETATM   11  C   UNL     1     -11.064  11.560  69.179  1.00  0.00    -0.316 A  
HETATM   12  C   UNL     1      -9.117   9.638  69.586  1.00  0.00    -0.224 A  
HETATM   13  C   UNL     1      -9.730  11.895  68.913  1.00  0.00     0.058 A  
HETATM   14  C   UNL     1      -8.749  10.912  69.114  1.00  0.00    -0.055 A  
BRANCH  13  15
HETATM   15  N   UNL     1      -9.336  13.192  68.525  1.00  0.00    -0.371 NA 
HETATM   16  H   UNL     1      -8.579  13.704  68.977  1.00  0.00     0.000 HD 
BRANCH  15  17
HETATM   17  N   UNL     1     -10.003  13.654  67.574  1.00  0.00    -0.227 NA 
HETATM   18  H   UNL     1     -10.373  13.076  66.819  1.00  0.00     0.000 HD 
BRANCH  17  19
HETATM   19  C   UNL     1     -10.189  15.004  67.643  1.00  0.00    -0.236 A  
HETATM   20  N   UNL     1     -11.074  15.671  68.368  1.00  0.00    -0.309 NA 
HETATM   21  C   UNL     1     -10.935  17.034  68.187  1.00  0.00    -0.263 A  
HETATM   22  C   UNL     1      -9.940  17.392  67.316  1.00  0.00    -0.302 A  
HETATM   23  N   UNL     1      -9.574  18.719  66.942  1.00  0.00    -0.298 N  
HETATM   24  S   UNL     1      -9.148  16.026  66.697  1.00  0.00    -0.280 SA 
HETATM   25  O   UNL     1     -10.219  19.637  67.467  1.00  0.00    -0.377 OA 
HETATM   26  O   UNL     1      -8.646  18.865  66.136  1.00  0.00    -0.423 OA 
ENDBRANCH  17  19
ENDBRANCH  15  17
ENDBRANCH  13  15
ENDBRANCH   3   8
ENDBRANCH   2   3
TORSDOF 7
ENDMDL
MODEL      162
REMARK 921   NORMALIZED FREE ENERGY PREDICTED BY IDOCK:   -3.95 KCAL/MOL
REMARK 922        TOTAL FREE ENERGY PREDICTED BY IDOCK:   -6.19 KCAL/MOL
REMARK 923 INTER-LIGAND FREE ENERGY PREDICTED BY IDOCK:   -5.58 KCAL/MOL
REMARK 924 INTRA-LIGAND FREE ENERGY PREDICTED BY IDOCK:   -0.61 KCAL/MOL
REMARK 927      BINDING AFFINITY PREDICTED BY RF-SCORE:    0.00 PKD
ROOT
HETATM    1  C   UNL     1      -9.330   3.731  67.510  1.00  0.00    -0.238 C  
HETATM    2  C   UNL     1      -9.756   4.864  68.431  1.00  0.00    -0.151 C  
ENDROOT
BRANCH   2   3
HETATM    3  N   UNL     1      -8.875   6.032  68.302  1.00  0.00    -0.112 NA 
BRANCH   3   4
HETATM    4  C   UNL     1      -7.607   5.880  67.571  1.00  0.00    -0.093 C  
BRANCH   4   5
HETATM    5  C   UNL     1      -6.441   5.602  68.536  1.00  0.00    -0.043 C  
HETATM    6  H   UNL     1      -4.736   4.590  68.533  1.00  0.00     0.000 HD 
HETATM    7  O   UNL     1      -5.456   4.762  67.938  1.00  0.00    -0.011 OA 
ENDBRANCH   4   5
ENDBRANCH   3   4
BRANCH   3   8
HETATM    8  C   UNL     1      -9.325   7.286  68.691  1.00  0.00    -0.138 A  
HETATM    9  C   UNL     1      -8.528  10.901  67.808  1.00  0.00    -0.124 C  
HETATM   10  C   UNL     1     -10.401   7.468  69.568  1.00  0.00    -0.216 A  
HETATM   11  C   UNL     1     -10.867   8.748  69.908  1.00  0.00    -0.211 A  
HETATM   12  C   UNL     1      -8.730   8.445  68.179  1.00  0.00    -0.143 A  
HETATM   13  C   UNL     1     -10.290   9.898  69.355  1.00  0.00    -0.222 A  
HETATM   14  C   UNL     1      -9.210   9.736  68.472  1.00  0.00    -0.134 A  
BRANCH  13  15
HETATM   15  N   UNL     1     -10.702  11.199  69.706  1.00  0.00    -0.462 NA 
HETATM   16  H   UNL     1     -10.166  11.807  70.324  1.00  0.00     0.000 HD 
BRANCH  15  17
HETATM   17  N   UNL     1     -11.787  11.537  69.188  1.00  0.00    -0.324 NA 
HETATM   18  H   UNL     1     -12.694  11.233  69.542  1.00  0.00     0.000 HD 
BRANCH  17  19
HETATM   19  C   UNL     1     -11.644  12.351  68.101  1.00  0.00    -0.341 A  
HETATM   20  N   UNL     1     -11.955  12.092  66.840  1.00  0.00    -0.609 NA 
HETATM   21  C   UNL     1     -11.686  13.181  66.031  1.00  0.00    -0.379 A  
HETATM   22  C   UNL     1     -11.165  14.262  66.691  1.00  0.00    -0.334 A  
HETATM   23  N   UNL     1     -10.796  15.513  66.113  1.00  0.00    -0.317 N  
HETATM   24  S   UNL     1     -10.998  13.946  68.349  1.00  0.00    -0.264 SA 
HETATM   25  O   UNL     1     -10.973  15.630  64.893  1.00  0.00    -0.422 OA 
HETATM   26  O   UNL     1     -10.336  16.388  66.859  1.00  0.00    -0.293 OA 
ENDBRANCH  17  19
ENDBRANCH  15  17
ENDBRANCH  13  15
ENDBRANCH   3   8
ENDBRANCH   2   3
TORSDOF 7
ENDMDL
MODEL      163
REMARK 921   NORMALIZED FREE ENERGY PREDICTED BY IDOCK:   -3.94 KCAL/MOL
REMARK 922        TOTAL FREE ENERGY PREDICTED BY IDOCK:   -6.18 KCAL/MOL
REMARK 923 INTER-LIGAND FREE ENERGY PREDICTED BY IDOCK:   -6.17 KCAL/MOL
REMARK 924 INTRA-LIGAND FREE ENERGY PREDICTED BY IDOCK:   -0.01 KCAL/MOL
REMARK 927      BINDING AFFINITY PREDICTED BY RF-SCORE:    0.00 PKD
ROOT
HETATM    1  C   UNL     1      -8.940   9.298  62.756  1.00  0.00    -0.139 C  
HETATM    2  C   UNL     1      -7.769   9.069  63.700  1.00  0.00    -0.122 C  
ENDROOT
BRANCH   2   3
HETATM    3  N   UNL     1      -8.210   8.520  64.989  1.00  0.00    -0.151 NA 
BRANCH   3   4
HETATM    4  C   UNL     1      -7.502   7.352  65.537  1.00  0.00    -0.088 C  
BRANCH   4   5
HETATM    5  C   UNL     1      -6.522   6.766  64.506  1.00  0.00    -0.042 C  
HETATM    6  H   UNL     1      -6.392   5.166  63.342  1.00  0.00     0.000 HD 
HETATM    7  O   UNL     1      -6.996   5.528  63.978  1.00  0.00    -0.045 OA 
ENDBRANCH   4   5
ENDBRANCH   3   4
BRANCH   3   8
HETATM    8  C   UNL     1      -9.139   9.211  65.755  1.00  0.00    -0.213 A  
HETATM    9  C   UNL     1     -11.297  12.318  65.337  1.00  0.00    -0.389 C  
HETATM   10  C   UNL     1      -9.585   8.756  67.001  1.00  0.00    -0.236 A  
HETATM   11  C   UNL     1     -10.560   9.450  67.734  1.00  0.00    -0.317 A  
HETATM   12  C   UNL     1      -9.706  10.401  65.282  1.00  0.00    -0.339 A  
HETATM   13  C   UNL     1     -11.151  10.615  67.229  1.00  0.00    -0.243 A  
HETATM   14  C   UNL     1     -10.718  11.087  65.980  1.00  0.00    -0.242 A  
BRANCH  13  15
HETATM   15  N   UNL     1     -12.101  11.361  67.955  1.00  0.00    -0.615 NA 
HETATM   16  H   UNL     1     -12.841  11.906  67.512  1.00  0.00     0.000 HD 
BRANCH  15  17
HETATM   17  N   UNL     1     -11.951  11.292  69.193  1.00  0.00    -0.342 NA 
HETATM   18  H   UNL     1     -11.916  10.409  69.703  1.00  0.00     0.000 HD 
BRANCH  17  19
HETATM   19  C   UNL     1     -11.838  12.510  69.799  1.00  0.00    -0.310 A  
HETATM   20  N   UNL     1     -11.177  13.576  69.373  1.00  0.00    -0.225 NA 
HETATM   21  C   UNL     1     -11.321  14.631  70.254  1.00  0.00    -0.202 A  
HETATM   22  C   UNL     1     -12.093  14.353  71.351  1.00  0.00    -0.326 A  
HETATM   23  N   UNL     1     -12.409  15.248  72.416  1.00  0.00    -0.345 N  
HETATM   24  S   UNL     1     -12.663  12.756  71.309  1.00  0.00    -0.169 SA 
HETATM   25  O   UNL     1     -11.943  16.392  72.332  1.00  0.00    -0.530 OA 
HETATM   26  O   UNL     1     -13.124  14.831  73.337  1.00  0.00    -0.538 OA 
ENDBRANCH  17  19
ENDBRANCH  15  17
ENDBRANCH  13  15
ENDBRANCH   3   8
ENDBRANCH   2   3
TORSDOF 7
ENDMDL
MODEL      164
REMARK 921   NORMALIZED FREE ENERGY PREDICTED BY IDOCK:   -3.94 KCAL/MOL
REMARK 922        TOTAL FREE ENERGY PREDICTED BY IDOCK:   -6.17 KCAL/MOL
REMARK 923 INTER-LIGAND FREE ENERGY PREDICTED BY IDOCK:   -5.66 KCAL/MOL
REMARK 924 INTRA-LIGAND FREE ENERGY PREDICTED BY IDOCK:   -0.52 KCAL/MOL
REMARK 927      BINDING AFFINITY PREDICTED BY RF-SCORE:    0.00 PKD
ROOT
HETATM    1  C   UNL     1     -14.411  14.787  71.990  1.00  0.00    -0.642 C  
HETATM    2  C   UNL     1     -13.357  13.702  71.825  1.00  0.00    -0.388 C  
ENDROOT
BRANCH   2   3
HETATM    3  N   UNL     1     -12.620  13.847  70.564  1.00  0.00    -0.331 NA 
BRANCH   3   4
HETATM    4  C   UNL     1     -12.187  15.191  70.150  1.00  0.00    -0.352 C  
BRANCH   4   5
HETATM    5  C   UNL     1     -10.748  15.477  70.613  1.00  0.00    -0.233 C  
HETATM    6  H   UNL     1      -8.924  15.483  69.835  1.00  0.00     0.000 HD 
HETATM    7  O   UNL     1      -9.813  15.307  69.550  1.00  0.00    -0.234 OA 
ENDBRANCH   4   5
ENDBRANCH   3   4
BRANCH   3   8
HETATM    8  C   UNL     1     -12.176  12.719  69.888  1.00  0.00    -0.175 A  
HETATM    9  C   UNL     1     -10.857  11.926  66.406  1.00  0.00    -0.318 C  
HETATM   10  C   UNL     1     -12.031  11.472  70.506  1.00  0.00    -0.439 A  
HETATM   11  C   UNL     1     -11.535  10.357  69.811  1.00  0.00    -0.348 A  
HETATM   12  C   UNL     1     -11.813  12.796  68.537  1.00  0.00    -0.345 A  
HETATM   13  C   UNL     1     -11.135  10.459  68.473  1.00  0.00    -0.266 A  
HETATM   14  C   UNL     1     -11.272  11.702  67.835  1.00  0.00    -0.334 A  
BRANCH  13  15
HETATM   15  N   UNL     1     -10.674   9.352  67.731  1.00  0.00    -0.407 NA 
HETATM   16  H   UNL     1     -11.286   8.764  67.167  1.00  0.00     0.000 HD 
BRANCH  15  17
HETATM   17  N   UNL     1      -9.444   9.160  67.832  1.00  0.00    -0.140 NA 
HETATM   18  H   UNL     1      -8.879   9.541  68.592  1.00  0.00     0.000 HD 
BRANCH  17  19
HETATM   19  C   UNL     1      -8.927   8.392  66.829  1.00  0.00    -0.145 A  
HETATM   20  N   UNL     1      -9.329   7.196  66.425  1.00  0.00    -0.166 NA 
HETATM   21  C   UNL     1      -8.567   6.752  65.361  1.00  0.00    -0.047 A  
HETATM   22  C   UNL     1      -7.584   7.620  64.966  1.00  0.00    -0.097 A  
HETATM   23  N   UNL     1      -6.655   7.424  63.901  1.00  0.00    -0.051 N  
HETATM   24  S   UNL     1      -7.586   9.023  65.920  1.00  0.00    -0.095 SA 
HETATM   25  O   UNL     1      -6.757   6.365  63.268  1.00  0.00    -0.039 OA 
HETATM   26  O   UNL     1      -5.825   8.316  63.678  1.00  0.00    -0.068 OA 
ENDBRANCH  17  19
ENDBRANCH  15  17
ENDBRANCH  13  15
ENDBRANCH   3   8
ENDBRANCH   2   3
TORSDOF 7
ENDMDL
MODEL      165
REMARK 921   NORMALIZED FREE ENERGY PREDICTED BY IDOCK:   -3.93 KCAL/MOL
REMARK 922        TOTAL FREE ENERGY PREDICTED BY IDOCK:   -6.17 KCAL/MOL
REMARK 923 INTER-LIGAND FREE ENERGY PREDICTED BY IDOCK:   -5.67 KCAL/MOL
REMARK 924 INTRA-LIGAND FREE ENERGY PREDICTED BY IDOCK:   -0.50 KCAL/MOL
REMARK 927      BINDING AFFINITY PREDICTED BY RF-SCORE:    0.00 PKD
ROOT
HETATM    1  C   UNL     1      -7.401  13.509  67.848  1.00  0.00    -0.149 C  
HETATM    2  C   UNL     1      -8.265  14.541  67.139  1.00  0.00    -0.188 C  
ENDROOT
BRANCH   2   3
HETATM    3  N   UNL     1      -9.681  14.151  67.131  1.00  0.00    -0.241 NA 
BRANCH   3   4
HETATM    4  C   UNL     1     -10.692  15.173  66.817  1.00  0.00    -0.311 C  
BRANCH   4   5
HETATM    5  C   UNL     1     -10.779  15.418  65.300  1.00  0.00    -0.421 C  
HETATM    6  H   UNL     1     -11.030  16.951  64.068  1.00  0.00     0.000 HD 
HETATM    7  O   UNL     1     -10.976  16.800  65.004  1.00  0.00    -0.584 OA 
ENDBRANCH   4   5
ENDBRANCH   3   4
BRANCH   3   8
HETATM    8  C   UNL     1     -10.031  12.811  67.222  1.00  0.00    -0.219 A  
HETATM    9  C   UNL     1     -11.864  10.600  69.720  1.00  0.00    -0.377 C  
HETATM   10  C   UNL     1      -9.804  11.895  66.188  1.00  0.00    -0.254 A  
HETATM   11  C   UNL     1     -10.210  10.555  66.288  1.00  0.00    -0.296 A  
HETATM   12  C   UNL     1     -10.672  12.320  68.366  1.00  0.00    -0.255 A  
HETATM   13  C   UNL     1     -10.890  10.088  67.420  1.00  0.00    -0.249 A  
HETATM   14  C   UNL     1     -11.128  10.991  68.467  1.00  0.00    -0.297 A  
BRANCH  13  15
HETATM   15  N   UNL     1     -11.274   8.740  67.573  1.00  0.00    -0.186 NA 
HETATM   16  H   UNL     1     -11.933   8.425  68.284  1.00  0.00     0.000 HD 
BRANCH  15  17
HETATM   17  N   UNL     1     -10.729   7.969  66.755  1.00  0.00    -0.401 NA 
HETATM   18  H   UNL     1     -10.743   8.123  65.747  1.00  0.00     0.000 HD 
BRANCH  17  19
HETATM   19  C   UNL     1     -10.114   6.899  67.339  1.00  0.00    -0.183 A  
HETATM   20  N   UNL     1      -9.049   6.236  66.912  1.00  0.00    -0.125 NA 
HETATM   21  C   UNL     1      -8.710   5.227  67.793  1.00  0.00    -0.103 A  
HETATM   22  C   UNL     1      -9.528   5.130  68.888  1.00  0.00    -0.134 A  
HETATM   23  N   UNL     1      -9.415   4.188  69.953  1.00  0.00    -0.177 N  
HETATM   24  S   UNL     1     -10.750   6.306  68.844  1.00  0.00    -0.332 SA 
HETATM   25  O   UNL     1      -8.475   3.384  69.880  1.00  0.00    -0.051 OA 
HETATM   26  O   UNL     1     -10.245   4.240  70.870  1.00  0.00    -0.140 OA 
ENDBRANCH  17  19
ENDBRANCH  15  17
ENDBRANCH  13  15
ENDBRANCH   3   8
ENDBRANCH   2   3
TORSDOF 7
ENDMDL
MODEL      166
REMARK 921   NORMALIZED FREE ENERGY PREDICTED BY IDOCK:   -3.92 KCAL/MOL
REMARK 922        TOTAL FREE ENERGY PREDICTED BY IDOCK:   -6.15 KCAL/MOL
REMARK 923 INTER-LIGAND FREE ENERGY PREDICTED BY IDOCK:   -6.05 KCAL/MOL
REMARK 924 INTRA-LIGAND FREE ENERGY PREDICTED BY IDOCK:   -0.10 KCAL/MOL
REMARK 927      BINDING AFFINITY PREDICTED BY RF-SCORE:    0.00 PKD
ROOT
HETATM    1  C   UNL     1      -9.385   7.772  73.476  1.00  0.00    -0.351 C  
HETATM    2  C   UNL     1     -10.572   7.061  72.844  1.00  0.00    -0.272 C  
ENDROOT
BRANCH   2   3
HETATM    3  N   UNL     1     -10.431   6.959  71.386  1.00  0.00    -0.209 NA 
BRANCH   3   4
HETATM    4  C   UNL     1     -10.794   5.693  70.729  1.00  0.00    -0.224 C  
BRANCH   4   5
HETATM    5  C   UNL     1      -9.746   5.294  69.676  1.00  0.00    -0.182 C  
HETATM    6  H   UNL     1      -9.538   5.363  67.706  1.00  0.00     0.000 HD 
HETATM    7  O   UNL     1     -10.185   5.609  68.356  1.00  0.00    -0.164 OA 
ENDBRANCH   4   5
ENDBRANCH   3   4
BRANCH   3   8
HETATM    8  C   UNL     1     -10.150   8.093  70.636  1.00  0.00    -0.194 A  
HETATM    9  C   UNL     1      -7.030   9.999  69.576  1.00  0.00    -0.078 C  
HETATM   10  C   UNL     1     -11.135   8.810  69.947  1.00  0.00    -0.129 A  
HETATM   11  C   UNL     1     -10.817   9.927  69.158  1.00  0.00    -0.248 A  
HETATM   12  C   UNL     1      -8.833   8.552  70.507  1.00  0.00    -0.168 A  
HETATM   13  C   UNL     1      -9.491  10.349  69.003  1.00  0.00    -0.197 A  
HETATM   14  C   UNL     1      -8.488   9.642  69.685  1.00  0.00    -0.181 A  
BRANCH  13  15
HETATM   15  N   UNL     1      -9.139  11.490  68.254  1.00  0.00    -0.180 NA 
HETATM   16  H   UNL     1      -9.230  12.441  68.610  1.00  0.00     0.000 HD 
BRANCH  15  17
HETATM   17  N   UNL     1      -8.706  11.226  67.113  1.00  0.00    -0.147 NA 
HETATM   18  H   UNL     1      -7.862  10.676  66.949  1.00  0.00     0.000 HD 
BRANCH  17  19
HETATM   19  C   UNL     1      -9.469  11.742  66.105  1.00  0.00    -0.226 A  
HETATM   20  N   UNL     1      -9.347  11.538  64.802  1.00  0.00    -0.110 NA 
HETATM   21  C   UNL     1     -10.327  12.216  64.102  1.00  0.00    -0.354 A  
HETATM   22  C   UNL     1     -11.188  12.938  64.887  1.00  0.00    -0.300 A  
HETATM   23  N   UNL     1     -12.287  13.728  64.438  1.00  0.00    -0.376 N  
HETATM   24  S   UNL     1     -10.793  12.785  66.529  1.00  0.00    -0.261 SA 
HETATM   25  O   UNL     1     -12.484  13.755  63.215  1.00  0.00    -0.819 OA 
HETATM   26  O   UNL     1     -12.967  14.320  65.287  1.00  0.00    -0.679 OA 
ENDBRANCH  17  19
ENDBRANCH  15  17
ENDBRANCH  13  15
ENDBRANCH   3   8
ENDBRANCH   2   3
TORSDOF 7
ENDMDL
MODEL      167
REMARK 921   NORMALIZED FREE ENERGY PREDICTED BY IDOCK:   -3.92 KCAL/MOL
REMARK 922        TOTAL FREE ENERGY PREDICTED BY IDOCK:   -6.15 KCAL/MOL
REMARK 923 INTER-LIGAND FREE ENERGY PREDICTED BY IDOCK:   -5.61 KCAL/MOL
REMARK 924 INTRA-LIGAND FREE ENERGY PREDICTED BY IDOCK:   -0.54 KCAL/MOL
REMARK 927      BINDING AFFINITY PREDICTED BY RF-SCORE:    0.00 PKD
ROOT
HETATM    1  C   UNL     1     -10.396   3.895  64.700  1.00  0.00    -0.213 C  
HETATM    2  C   UNL     1      -9.335   4.600  65.532  1.00  0.00    -0.158 C  
ENDROOT
BRANCH   2   3
HETATM    3  N   UNL     1      -9.360   4.158  66.932  1.00  0.00    -0.160 NA 
BRANCH   3   4
HETATM    4  C   UNL     1      -8.504   3.030  67.330  1.00  0.00    -0.093 C  
BRANCH   4   5
HETATM    5  C   UNL     1      -7.018   3.428  67.309  1.00  0.00    -0.057 C  
HETATM    6  H   UNL     1      -5.275   2.590  66.873  1.00  0.00     0.000 HD 
HETATM    7  O   UNL     1      -6.192   2.345  66.886  1.00  0.00    -0.023 OA 
ENDBRANCH   4   5
ENDBRANCH   3   4
BRANCH   3   8
HETATM    8  C   UNL     1     -10.025   4.917  67.886  1.00  0.00    -0.123 A  
HETATM    9  C   UNL     1     -10.323   4.938  71.680  1.00  0.00    -0.241 C  
HETATM   10  C   UNL     1     -10.764   6.061  67.565  1.00  0.00    -0.383 A  
HETATM   11  C   UNL     1     -11.388   6.838  68.554  1.00  0.00    -0.056 A  
HETATM   12  C   UNL     1      -9.949   4.579  69.242  1.00  0.00    -0.192 A  
HETATM   13  C   UNL     1     -11.268   6.513  69.911  1.00  0.00    -0.395 A  
HETATM   14  C   UNL     1     -10.529   5.369  70.253  1.00  0.00    -0.355 A  
BRANCH  13  15
HETATM   15  N   UNL     1     -11.916   7.243  70.928  1.00  0.00    -0.396 NA 
HETATM   16  H   UNL     1     -12.868   7.048  71.234  1.00  0.00     0.000 HD 
BRANCH  15  17
HETATM   17  N   UNL     1     -11.212   8.152  71.417  1.00  0.00    -0.248 NA 
HETATM   18  H   UNL     1     -10.390   7.972  71.994  1.00  0.00     0.000 HD 
BRANCH  17  19
HETATM   19  C   UNL     1     -11.647   9.408  71.105  1.00  0.00    -0.345 A  
HETATM   20  N   UNL     1     -12.700  10.051  71.587  1.00  0.00    -0.401 NA 
HETATM   21  C   UNL     1     -12.797  11.318  71.044  1.00  0.00    -0.300 A  
HETATM   22  C   UNL     1     -11.810  11.626  70.144  1.00  0.00    -0.344 A  
HETATM   23  N   UNL     1     -11.662  12.854  69.434  1.00  0.00    -0.309 N  
HETATM   24  S   UNL     1     -10.730  10.332  69.953  1.00  0.00    -0.291 SA 
HETATM   25  O   UNL     1     -12.507  13.729  69.663  1.00  0.00    -0.281 OA 
HETATM   26  O   UNL     1     -10.708  12.965  68.652  1.00  0.00    -0.246 OA 
ENDBRANCH  17  19
ENDBRANCH  15  17
ENDBRANCH  13  15
ENDBRANCH   3   8
ENDBRANCH   2   3
TORSDOF 7
ENDMDL
MODEL      168
REMARK 921   NORMALIZED FREE ENERGY PREDICTED BY IDOCK:   -3.90 KCAL/MOL
REMARK 922        TOTAL FREE ENERGY PREDICTED BY IDOCK:   -6.12 KCAL/MOL
REMARK 923 INTER-LIGAND FREE ENERGY PREDICTED BY IDOCK:   -5.95 KCAL/MOL
REMARK 924 INTRA-LIGAND FREE ENERGY PREDICTED BY IDOCK:   -0.17 KCAL/MOL
REMARK 927      BINDING AFFINITY PREDICTED BY RF-SCORE:    0.00 PKD
ROOT
HETATM    1  C   UNL     1      -7.996   7.111  72.256  1.00  0.00    -0.101 C  
HETATM    2  C   UNL     1      -8.944   8.046  72.993  1.00  0.00    -0.248 C  
ENDROOT
BRANCH   2   3
HETATM    3  N   UNL     1     -10.300   7.998  72.430  1.00  0.00    -0.263 NA 
BRANCH   3   4
HETATM    4  C   UNL     1     -11.229   6.966  72.917  1.00  0.00    -0.217 C  
BRANCH   4   5
HETATM    5  C   UNL     1     -11.262   5.758  71.964  1.00  0.00    -0.247 C  
HETATM    6  H   UNL     1     -11.570   5.411  70.036  1.00  0.00     0.000 HD 
HETATM    7  O   UNL     1     -11.549   6.157  70.625  1.00  0.00    -0.321 OA 
ENDBRANCH   4   5
ENDBRANCH   3   4
BRANCH   3   8
HETATM    8  C   UNL     1     -10.745   9.025  71.609  1.00  0.00    -0.371 A  
HETATM    9  C   UNL     1     -13.481  11.668  71.731  1.00  0.00    -0.190 C  
HETATM   10  C   UNL     1     -10.095   9.384  70.423  1.00  0.00    -0.310 A  
HETATM   11  C   UNL     1     -10.539  10.458  69.634  1.00  0.00    -0.289 A  
HETATM   12  C   UNL     1     -11.868   9.783  71.964  1.00  0.00    -0.021 A  
HETATM   13  C   UNL     1     -11.637  11.235  70.024  1.00  0.00    -0.321 A  
HETATM   14  C   UNL     1     -12.302  10.891  71.212  1.00  0.00    -0.448 A  
BRANCH  13  15
HETATM   15  N   UNL     1     -12.137  12.292  69.237  1.00  0.00    -0.221 NA 
HETATM   16  H   UNL     1     -13.127  12.532  69.189  1.00  0.00     0.000 HD 
BRANCH  15  17
HETATM   17  N   UNL     1     -11.253  12.906  68.604  1.00  0.00    -0.263 NA 
HETATM   18  H   UNL     1     -10.558  13.503  69.052  1.00  0.00     0.000 HD 
BRANCH  17  19
HETATM   19  C   UNL     1     -11.305  12.702  67.255  1.00  0.00    -0.318 A  
HETATM   20  N   UNL     1     -12.206  13.152  66.395  1.00  0.00    -0.386 NA 
HETATM   21  C   UNL     1     -11.903  12.753  65.107  1.00  0.00    -0.391 A  
HETATM   22  C   UNL     1     -10.767  11.994  65.001  1.00  0.00    -0.296 A  
HETATM   23  N   UNL     1     -10.218  11.449  63.803  1.00  0.00    -0.342 N  
HETATM   24  S   UNL     1     -10.044  11.759  66.518  1.00  0.00    -0.208 SA 
HETATM   25  O   UNL     1     -10.829  11.696  62.754  1.00  0.00     0.031 OA 
HETATM   26  O   UNL     1      -9.179  10.781  63.887  1.00  0.00    -0.210 OA 
ENDBRANCH  17  19
ENDBRANCH  15  17
ENDBRANCH  13  15
ENDBRANCH   3   8
ENDBRANCH   2   3
TORSDOF 7
ENDMDL
MODEL      169
REMARK 921   NORMALIZED FREE ENERGY PREDICTED BY IDOCK:   -3.89 KCAL/MOL
REMARK 922        TOTAL FREE ENERGY PREDICTED BY IDOCK:   -6.10 KCAL/MOL
REMARK 923 INTER-LIGAND FREE ENERGY PREDICTED BY IDOCK:   -5.58 KCAL/MOL
REMARK 924 INTRA-LIGAND FREE ENERGY PREDICTED BY IDOCK:   -0.52 KCAL/MOL
REMARK 927      BINDING AFFINITY PREDICTED BY RF-SCORE:    0.00 PKD
ROOT
HETATM    1  C   UNL     1     -11.728  15.950  68.258  1.00  0.00    -0.191 C  
HETATM    2  C   UNL     1     -11.038  14.603  68.416  1.00  0.00    -0.257 C  
ENDROOT
BRANCH   2   3
HETATM    3  N   UNL     1     -11.246  13.744  67.243  1.00  0.00    -0.301 NA 
BRANCH   3   4
HETATM    4  C   UNL     1     -11.623  14.373  65.967  1.00  0.00    -0.363 C  
BRANCH   4   5
HETATM    5  C   UNL     1     -10.401  15.008  65.281  1.00  0.00    -0.395 C  
HETATM    6  H   UNL     1      -9.936  16.716  64.389  1.00  0.00     0.000 HD 
HETATM    7  O   UNL     1     -10.690  16.324  64.813  1.00  0.00    -0.680 OA 
ENDBRANCH   4   5
ENDBRANCH   3   4
BRANCH   3   8
HETATM    8  C   UNL     1     -10.901  12.401  67.299  1.00  0.00    -0.243 A  
HETATM    9  C   UNL     1      -9.480  10.022  69.908  1.00  0.00    -0.221 C  
HETATM   10  C   UNL     1     -11.137  11.512  66.244  1.00  0.00    -0.321 A  
HETATM   11  C   UNL     1     -10.821  10.148  66.343  1.00  0.00     0.006 A  
HETATM   12  C   UNL     1     -10.322  11.863  68.455  1.00  0.00    -0.216 A  
HETATM   13  C   UNL     1     -10.283   9.615  67.522  1.00  0.00    -0.220 A  
HETATM   14  C   UNL     1     -10.039  10.491  68.592  1.00  0.00    -0.190 A  
BRANCH  13  15
HETATM   15  N   UNL     1      -9.913   8.260  67.643  1.00  0.00    -0.177 NA 
HETATM   16  H   UNL     1      -8.943   7.945  67.646  1.00  0.00     0.000 HD 
BRANCH  15  17
HETATM   17  N   UNL     1     -10.886   7.484  67.746  1.00  0.00    -0.479 NA 
HETATM   18  H   UNL     1     -11.764   7.618  67.244  1.00  0.00     0.000 HD 
BRANCH  17  19
HETATM   19  C   UNL     1     -10.662   6.438  68.594  1.00  0.00    -0.285 A  
HETATM   20  N   UNL     1     -11.029   6.321  69.862  1.00  0.00    -0.333 NA 
HETATM   21  C   UNL     1     -10.641   5.099  70.378  1.00  0.00    -0.154 A  
HETATM   22  C   UNL     1      -9.974   4.295  69.492  1.00  0.00    -0.057 A  
HETATM   23  N   UNL     1      -9.460   2.990  69.749  1.00  0.00    -0.147 N  
HETATM   24  S   UNL     1      -9.814   5.050  67.981  1.00  0.00    -0.133 SA 
HETATM   25  O   UNL     1      -9.646   2.539  70.888  1.00  0.00    -0.147 OA 
HETATM   26  O   UNL     1      -8.878   2.398  68.830  1.00  0.00    -0.076 OA 
ENDBRANCH  17  19
ENDBRANCH  15  17
ENDBRANCH  13  15
ENDBRANCH   3   8
ENDBRANCH   2   3
TORSDOF 7
ENDMDL
MODEL      170
REMARK 921   NORMALIZED FREE ENERGY PREDICTED BY IDOCK:   -3.87 KCAL/MOL
REMARK 922        TOTAL FREE ENERGY PREDICTED BY IDOCK:   -6.08 KCAL/MOL
REMARK 923 INTER-LIGAND FREE ENERGY PREDICTED BY IDOCK:   -5.50 KCAL/MOL
REMARK 924 INTRA-LIGAND FREE ENERGY PREDICTED BY IDOCK:   -0.58 KCAL/MOL
REMARK 927      BINDING AFFINITY PREDICTED BY RF-SCORE:    0.00 PKD
ROOT
HETATM    1  C   UNL     1      -9.340  14.130  66.965  1.00  0.00    -0.253 C  
HETATM    2  C   UNL     1     -10.702  13.900  66.327  1.00  0.00    -0.285 C  
ENDROOT
BRANCH   2   3
HETATM    3  N   UNL     1     -10.745  12.638  65.577  1.00  0.00    -0.269 NA 
BRANCH   3   4
HETATM    4  C   UNL     1     -10.727  12.691  64.107  1.00  0.00    -0.406 C  
BRANCH   4   5
HETATM    5  C   UNL     1     -12.154  12.777  63.539  1.00  0.00    -0.559 C  
HETATM    6  H   UNL     1     -13.451  14.185  63.020  1.00  0.00     0.000 HD 
HETATM    7  O   UNL     1     -12.570  14.131  63.371  1.00  0.00    -0.818 OA 
ENDBRANCH   4   5
ENDBRANCH   3   4
BRANCH   3   8
HETATM    8  C   UNL     1     -10.607  11.430  66.246  1.00  0.00    -0.263 A  
HETATM    9  C   UNL     1      -8.815   8.127  65.639  1.00  0.00    -0.160 C  
HETATM   10  C   UNL     1     -11.124  11.208  67.528  1.00  0.00    -0.353 A  
HETATM   11  C   UNL     1     -10.930   9.992  68.202  1.00  0.00    -0.289 A  
HETATM   12  C   UNL     1      -9.895  10.373  65.665  1.00  0.00    -0.321 A  
HETATM   13  C   UNL     1     -10.178   8.959  67.627  1.00  0.00    -0.237 A  
HETATM   14  C   UNL     1      -9.650   9.163  66.342  1.00  0.00    -0.309 A  
BRANCH  13  15
HETATM   15  N   UNL     1      -9.999   7.710  68.255  1.00  0.00    -0.170 NA 
HETATM   16  H   UNL     1     -10.546   6.883  68.018  1.00  0.00     0.000 HD 
BRANCH  15  17
HETATM   17  N   UNL     1      -9.106   7.713  69.129  1.00  0.00    -0.142 NA 
HETATM   18  H   UNL     1      -8.854   8.543  69.667  1.00  0.00     0.000 HD 
BRANCH  17  19
HETATM   19  C   UNL     1      -8.500   6.502  69.295  1.00  0.00    -0.127 A  
HETATM   20  N   UNL     1      -7.205   6.223  69.255  1.00  0.00    -0.083 NA 
HETATM   21  C   UNL     1      -6.981   4.881  69.496  1.00  0.00    -0.054 A  
HETATM   22  C   UNL     1      -8.117   4.147  69.717  1.00  0.00    -0.055 A  
HETATM   23  N   UNL     1      -8.184   2.749  69.990  1.00  0.00    -0.041 N  
HETATM   24  S   UNL     1      -9.502   5.121  69.627  1.00  0.00    -0.158 SA 
HETATM   25  O   UNL     1      -7.105   2.144  70.041  1.00  0.00    -0.033 OA 
HETATM   26  O   UNL     1      -9.300   2.240  70.164  1.00  0.00    -0.116 OA 
ENDBRANCH  17  19
ENDBRANCH  15  17
ENDBRANCH  13  15
ENDBRANCH   3   8
ENDBRANCH   2   3
TORSDOF 7
ENDMDL
MODEL      171
REMARK 921   NORMALIZED FREE ENERGY PREDICTED BY IDOCK:   -3.81 KCAL/MOL
REMARK 922        TOTAL FREE ENERGY PREDICTED BY IDOCK:   -5.99 KCAL/MOL
REMARK 923 INTER-LIGAND FREE ENERGY PREDICTED BY IDOCK:   -5.52 KCAL/MOL
REMARK 924 INTRA-LIGAND FREE ENERGY PREDICTED BY IDOCK:   -0.47 KCAL/MOL
REMARK 927      BINDING AFFINITY PREDICTED BY RF-SCORE:    0.00 PKD
ROOT
HETATM    1  C   UNL     1     -10.554  13.285  65.974  1.00  0.00    -0.292 C  
HETATM    2  C   UNL     1     -10.923  12.814  67.374  1.00  0.00    -0.253 C  
ENDROOT
BRANCH   2   3
HETATM    3  N   UNL     1      -9.858  11.999  67.972  1.00  0.00    -0.193 NA 
BRANCH   3   4
HETATM    4  C   UNL     1      -8.463  12.274  67.593  1.00  0.00    -0.166 C  
BRANCH   4   5
HETATM    5  C   UNL     1      -7.882  13.431  68.424  1.00  0.00    -0.138 C  
HETATM    6  H   UNL     1      -7.222  15.276  68.121  1.00  0.00     0.000 HD 
HETATM    7  O   UNL     1      -7.581  14.562  67.609  1.00  0.00    -0.149 OA 
ENDBRANCH   4   5
ENDBRANCH   3   4
BRANCH   3   8
HETATM    8  C   UNL     1     -10.154  11.130  69.013  1.00  0.00    -0.155 A  
HETATM    9  C   UNL     1     -13.132  10.455  71.285  1.00  0.00    -0.494 C  
HETATM   10  C   UNL     1      -9.283  10.113  69.423  1.00  0.00    -0.229 A  
HETATM   11  C   UNL     1      -9.627   9.217  70.448  1.00  0.00    -0.292 A  
HETATM   12  C   UNL     1     -11.379  11.216  69.684  1.00  0.00    -0.366 A  
HETATM   13  C   UNL     1     -10.874   9.287  71.081  1.00  0.00    -0.337 A  
HETATM   14  C   UNL     1     -11.761  10.299  70.683  1.00  0.00    -0.438 A  
BRANCH  13  15
HETATM   15  N   UNL     1     -11.236   8.433  72.142  1.00  0.00    -0.335 NA 
HETATM   16  H   UNL     1     -10.938   8.583  73.106  1.00  0.00     0.000 HD 
BRANCH  15  17
HETATM   17  N   UNL     1     -11.956   7.475  71.790  1.00  0.00    -0.290 NA 
HETATM   18  H   UNL     1     -12.970   7.544  71.693  1.00  0.00     0.000 HD 
BRANCH  17  19
HETATM   19  C   UNL     1     -11.259   6.327  71.547  1.00  0.00    -0.290 A  
HETATM   20  N   UNL     1     -10.981   5.772  70.377  1.00  0.00    -0.291 NA 
HETATM   21  C   UNL     1     -10.230   4.624  70.540  1.00  0.00    -0.141 A  
HETATM   22  C   UNL     1      -9.945   4.313  71.844  1.00  0.00    -0.185 A  
HETATM   23  N   UNL     1      -9.192   3.193  72.305  1.00  0.00    -0.100 N  
HETATM   24  S   UNL     1     -10.613   5.455  72.905  1.00  0.00    -0.249 SA 
HETATM   25  O   UNL     1      -8.746   2.432  71.436  1.00  0.00    -0.062 OA 
HETATM   26  O   UNL     1      -9.029   3.061  73.526  1.00  0.00    -0.079 OA 
ENDBRANCH  17  19
ENDBRANCH  15  17
ENDBRANCH  13  15
ENDBRANCH   3   8
ENDBRANCH   2   3
TORSDOF 7
ENDMDL
MODEL      172
REMARK 921   NORMALIZED FREE ENERGY PREDICTED BY IDOCK:   -3.80 KCAL/MOL
REMARK 922        TOTAL FREE ENERGY PREDICTED BY IDOCK:   -5.98 KCAL/MOL
REMARK 923 INTER-LIGAND FREE ENERGY PREDICTED BY IDOCK:   -5.89 KCAL/MOL
REMARK 924 INTRA-LIGAND FREE ENERGY PREDICTED BY IDOCK:   -0.09 KCAL/MOL
REMARK 927      BINDING AFFINITY PREDICTED BY RF-SCORE:    0.00 PKD
ROOT
HETATM    1  C   UNL     1      -7.039  16.365  69.277  1.00  0.00    -0.222 C  
HETATM    2  C   UNL     1      -7.269  17.562  68.368  1.00  0.00    -0.226 C  
ENDROOT
BRANCH   2   3
HETATM    3  N   UNL     1      -8.697  17.875  68.231  1.00  0.00    -0.269 NA 
BRANCH   3   4
HETATM    4  C   UNL     1      -9.108  19.287  68.183  1.00  0.00    -0.331 C  
BRANCH   4   5
HETATM    5  C   UNL     1      -8.228  20.086  67.205  1.00  0.00    -0.326 C  
HETATM    6  H   UNL     1      -7.838  20.116  65.262  1.00  0.00     0.000 HD 
HETATM    7  O   UNL     1      -8.381  19.623  65.865  1.00  0.00    -0.390 OA 
ENDBRANCH   4   5
ENDBRANCH   3   4
BRANCH   3   8
HETATM    8  C   UNL     1      -9.605  16.861  67.956  1.00  0.00    -0.247 A  
HETATM    9  C   UNL     1     -12.384  15.061  69.834  1.00  0.00    -0.315 C  
HETATM   10  C   UNL     1      -9.735  16.282  66.689  1.00  0.00    -0.266 A  
HETATM   11  C   UNL     1     -10.694  15.290  66.426  1.00  0.00    -0.318 A  
HETATM   12  C   UNL     1     -10.472  16.394  68.952  1.00  0.00    -0.285 A  
HETATM   13  C   UNL     1     -11.584  14.863  67.420  1.00  0.00    -0.332 A  
HETATM   14  C   UNL     1     -11.470  15.434  68.698  1.00  0.00    -0.357 A  
BRANCH  13  15
HETATM   15  N   UNL     1     -12.529  13.841  67.205  1.00  0.00    -0.396 NA 
HETATM   16  H   UNL     1     -13.380  13.973  66.658  1.00  0.00     0.000 HD 
BRANCH  15  17
HETATM   17  N   UNL     1     -12.227  12.757  67.749  1.00  0.00    -0.251 NA 
HETATM   18  H   UNL     1     -12.800  12.313  68.466  1.00  0.00     0.000 HD 
BRANCH  17  19
HETATM   19  C   UNL     1     -11.056  12.225  67.291  1.00  0.00    -0.275 A  
HETATM   20  N   UNL     1     -10.778  11.789  66.071  1.00  0.00    -0.270 NA 
HETATM   21  C   UNL     1      -9.473  11.343  65.991  1.00  0.00    -0.223 A  
HETATM   22  C   UNL     1      -8.767  11.442  67.162  1.00  0.00    -0.155 A  
HETATM   23  N   UNL     1      -7.408  11.060  67.369  1.00  0.00    -0.100 N  
HETATM   24  S   UNL     1      -9.723  12.098  68.399  1.00  0.00    -0.159 SA 
HETATM   25  O   UNL     1      -6.808  10.601  66.387  1.00  0.00    -0.112 OA 
HETATM   26  O   UNL     1      -6.923  11.216  68.497  1.00  0.00    -0.064 OA 
ENDBRANCH  17  19
ENDBRANCH  15  17
ENDBRANCH  13  15
ENDBRANCH   3   8
ENDBRANCH   2   3
TORSDOF 7
ENDMDL
MODEL      173
REMARK 921   NORMALIZED FREE ENERGY PREDICTED BY IDOCK:   -3.80 KCAL/MOL
REMARK 922        TOTAL FREE ENERGY PREDICTED BY IDOCK:   -5.98 KCAL/MOL
REMARK 923 INTER-LIGAND FREE ENERGY PREDICTED BY IDOCK:   -5.82 KCAL/MOL
REMARK 924 INTRA-LIGAND FREE ENERGY PREDICTED BY IDOCK:   -0.16 KCAL/MOL
REMARK 927      BINDING AFFINITY PREDICTED BY RF-SCORE:    0.00 PKD
ROOT
HETATM    1  C   UNL     1      -6.304   8.401  64.354  1.00  0.00    -0.066 C  
HETATM    2  C   UNL     1      -7.764   8.016  64.174  1.00  0.00    -0.129 C  
ENDROOT
BRANCH   2   3
HETATM    3  N   UNL     1      -8.601   8.530  65.266  1.00  0.00    -0.176 NA 
BRANCH   3   4
HETATM    4  C   UNL     1      -8.943   7.628  66.377  1.00  0.00    -0.167 C  
BRANCH   4   5
HETATM    5  C   UNL     1      -7.929   6.475  66.485  1.00  0.00    -0.109 C  
HETATM    6  H   UNL     1      -7.930   4.497  66.358  1.00  0.00     0.000 HD 
HETATM    7  O   UNL     1      -8.555   5.209  66.291  1.00  0.00    -0.112 OA 
ENDBRANCH   4   5
ENDBRANCH   3   4
BRANCH   3   8
HETATM    8  C   UNL     1      -8.892   9.886  65.336  1.00  0.00    -0.168 A  
HETATM    9  C   UNL     1     -10.969  12.372  63.338  1.00  0.00    -0.442 C  
HETATM   10  C   UNL     1      -8.463  10.700  66.391  1.00  0.00    -0.152 A  
HETATM   11  C   UNL     1      -8.810  12.058  66.462  1.00  0.00    -0.172 A  
HETATM   12  C   UNL     1      -9.674  10.497  64.349  1.00  0.00    -0.388 A  
HETATM   13  C   UNL     1      -9.630  12.647  65.491  1.00  0.00    -0.013 A  
HETATM   14  C   UNL     1     -10.071  11.846  64.425  1.00  0.00    -0.310 A  
BRANCH  13  15
HETATM   15  N   UNL     1      -9.964  14.016  65.506  1.00  0.00    -0.477 NA 
HETATM   16  H   UNL     1      -9.287  14.757  65.325  1.00  0.00     0.000 HD 
BRANCH  15  17
HETATM   17  N   UNL     1     -11.166  14.236  65.764  1.00  0.00    -0.312 NA 
HETATM   18  H   UNL     1     -11.916  14.107  65.083  1.00  0.00     0.000 HD 
BRANCH  17  19
HETATM   19  C   UNL     1     -11.382  14.664  67.042  1.00  0.00    -0.355 A  
HETATM   20  N   UNL     1     -11.279  15.896  67.519  1.00  0.00    -0.233 NA 
HETATM   21  C   UNL     1     -11.604  15.934  68.861  1.00  0.00    -0.388 A  
HETATM   22  C   UNL     1     -11.950  14.721  69.396  1.00  0.00    -0.303 A  
HETATM   23  N   UNL     1     -12.329  14.466  70.747  1.00  0.00    -0.323 N  
HETATM   24  S   UNL     1     -11.878  13.494  68.228  1.00  0.00    -0.352 SA 
HETATM   25  O   UNL     1     -12.355  15.443  71.507  1.00  0.00    -0.316 OA 
HETATM   26  O   UNL     1     -12.612  13.303  71.065  1.00  0.00    -0.356 OA 
ENDBRANCH  17  19
ENDBRANCH  15  17
ENDBRANCH  13  15
ENDBRANCH   3   8
ENDBRANCH   2   3
TORSDOF 7
ENDMDL
MODEL      174
REMARK 921   NORMALIZED FREE ENERGY PREDICTED BY IDOCK:   -3.79 KCAL/MOL
REMARK 922        TOTAL FREE ENERGY PREDICTED BY IDOCK:   -5.97 KCAL/MOL
REMARK 923 INTER-LIGAND FREE ENERGY PREDICTED BY IDOCK:   -5.74 KCAL/MOL
REMARK 924 INTRA-LIGAND FREE ENERGY PREDICTED BY IDOCK:   -0.22 KCAL/MOL
REMARK 927      BINDING AFFINITY PREDICTED BY RF-SCORE:    0.00 PKD
ROOT
HETATM    1  C   UNL     1      -6.701   7.398  72.243  1.00  0.00    -0.058 C  
HETATM    2  C   UNL     1      -6.832   6.095  71.468  1.00  0.00    -0.067 C  
ENDROOT
BRANCH   2   3
HETATM    3  N   UNL     1      -7.813   6.205  70.381  1.00  0.00    -0.104 NA 
BRANCH   3   4
HETATM    4  C   UNL     1      -7.868   5.137  69.370  1.00  0.00    -0.080 C  
BRANCH   4   5
HETATM    5  C   UNL     1      -8.270   5.697  67.994  1.00  0.00    -0.100 C  
HETATM    6  H   UNL     1      -7.377   6.272  66.320  1.00  0.00     0.000 HD 
HETATM    7  O   UNL     1      -7.130   5.926  67.169  1.00  0.00    -0.067 OA 
ENDBRANCH   4   5
ENDBRANCH   3   4
BRANCH   3   8
HETATM    8  C   UNL     1      -8.789   7.192  70.425  1.00  0.00    -0.151 A  
HETATM    9  C   UNL     1     -12.354   7.492  71.723  1.00  0.00    -0.357 C  
HETATM   10  C   UNL     1      -8.559   8.506  70.003  1.00  0.00    -0.134 A  
HETATM   11  C   UNL     1      -9.548   9.497  70.102  1.00  0.00    -0.290 A  
HETATM   12  C   UNL     1     -10.060   6.912  70.942  1.00  0.00    -0.207 A  
HETATM   13  C   UNL     1     -10.801   9.214  70.662  1.00  0.00    -0.264 A  
HETATM   14  C   UNL     1     -11.051   7.901  71.093  1.00  0.00    -0.278 A  
BRANCH  13  15
HETATM   15  N   UNL     1     -11.833  10.171  70.739  1.00  0.00    -0.324 NA 
HETATM   16  H   UNL     1     -12.120  10.614  71.611  1.00  0.00     0.000 HD 
BRANCH  15  17
HETATM   17  N   UNL     1     -12.362  10.425  69.636  1.00  0.00    -0.546 NA 
HETATM   18  H   UNL     1     -12.904   9.742  69.106  1.00  0.00     0.000 HD 
BRANCH  17  19
HETATM   19  C   UNL     1     -12.147  11.703  69.208  1.00  0.00    -0.259 A  
HETATM   20  N   UNL     1     -11.910  12.123  67.974  1.00  0.00    -0.465 NA 
HETATM   21  C   UNL     1     -11.770  13.498  67.938  1.00  0.00    -0.357 A  
HETATM   22  C   UNL     1     -11.900  14.113  69.155  1.00  0.00    -0.341 A  
HETATM   23  N   UNL     1     -11.804  15.512  69.414  1.00  0.00    -0.364 N  
HETATM   24  S   UNL     1     -12.202  12.983  70.384  1.00  0.00    -0.236 SA 
HETATM   25  O   UNL     1     -11.590  16.241  68.436  1.00  0.00    -0.327 OA 
HETATM   26  O   UNL     1     -11.946  15.902  70.581  1.00  0.00    -0.364 OA 
ENDBRANCH  17  19
ENDBRANCH  15  17
ENDBRANCH  13  15
ENDBRANCH   3   8
ENDBRANCH   2   3
TORSDOF 7
ENDMDL
MODEL      175
REMARK 921   NORMALIZED FREE ENERGY PREDICTED BY IDOCK:   -3.76 KCAL/MOL
REMARK 922        TOTAL FREE ENERGY PREDICTED BY IDOCK:   -5.93 KCAL/MOL
REMARK 923 INTER-LIGAND FREE ENERGY PREDICTED BY IDOCK:   -5.70 KCAL/MOL
REMARK 924 INTRA-LIGAND FREE ENERGY PREDICTED BY IDOCK:   -0.23 KCAL/MOL
REMARK 927      BINDING AFFINITY PREDICTED BY RF-SCORE:    0.00 PKD
ROOT
HETATM    1  C   UNL     1      -6.822  16.716  68.152  1.00  0.00    -0.149 C  
HETATM    2  C   UNL     1      -7.414  17.675  67.130  1.00  0.00    -0.193 C  
ENDROOT
BRANCH   2   3
HETATM    3  N   UNL     1      -8.872  17.789  67.272  1.00  0.00    -0.235 NA 
BRANCH   3   4
HETATM    4  C   UNL     1      -9.552  18.939  66.655  1.00  0.00    -0.336 C  
BRANCH   4   5
HETATM    5  C   UNL     1      -9.545  20.156  67.596  1.00  0.00    -0.402 C  
HETATM    6  H   UNL     1      -8.357  21.687  68.015  1.00  0.00     0.000 HD 
HETATM    7  O   UNL     1      -8.361  20.935  67.435  1.00  0.00    -0.252 OA 
ENDBRANCH   4   5
ENDBRANCH   3   4
BRANCH   3   8
HETATM    8  C   UNL     1      -9.600  16.735  67.805  1.00  0.00    -0.241 A  
HETATM    9  C   UNL     1     -11.548  16.064  71.006  1.00  0.00    -0.472 C  
HETATM   10  C   UNL     1      -9.863  15.558  67.095  1.00  0.00    -0.236 A  
HETATM   11  C   UNL     1     -10.642  14.525  67.640  1.00  0.00    -0.251 A  
HETATM   12  C   UNL     1     -10.145  16.826  69.092  1.00  0.00    -0.280 A  
HETATM   13  C   UNL     1     -11.217  14.648  68.912  1.00  0.00    -0.267 A  
HETATM   14  C   UNL     1     -10.966  15.822  69.640  1.00  0.00    -0.306 A  
BRANCH  13  15
HETATM   15  N   UNL     1     -11.969  13.616  69.508  1.00  0.00    -0.330 NA 
HETATM   16  H   UNL     1     -12.986  13.637  69.582  1.00  0.00     0.000 HD 
BRANCH  15  17
HETATM   17  N   UNL     1     -11.271  12.673  69.938  1.00  0.00    -0.477 NA 
HETATM   18  H   UNL     1     -10.827  12.679  70.856  1.00  0.00     0.000 HD 
BRANCH  17  19
HETATM   19  C   UNL     1     -11.158  11.633  69.060  1.00  0.00    -0.241 A  
HETATM   20  N   UNL     1     -11.956  11.328  68.047  1.00  0.00    -0.641 NA 
HETATM   21  C   UNL     1     -11.495  10.213  67.373  1.00  0.00     0.513 A  
HETATM   22  C   UNL     1     -10.344   9.675  67.887  1.00  0.00    -0.224 A  
HETATM   23  N   UNL     1      -9.648   8.531  67.396  1.00  0.00    -0.153 N  
HETATM   24  S   UNL     1      -9.806  10.555  69.234  1.00  0.00    -0.173 SA 
HETATM   25  O   UNL     1     -10.132   7.977  66.400  1.00  0.00    -0.227 OA 
HETATM   26  O   UNL     1      -8.618   8.177  67.984  1.00  0.00    -0.128 OA 
ENDBRANCH  17  19
ENDBRANCH  15  17
ENDBRANCH  13  15
ENDBRANCH   3   8
ENDBRANCH   2   3
TORSDOF 7
ENDMDL
MODEL      176
REMARK 921   NORMALIZED FREE ENERGY PREDICTED BY IDOCK:   -3.76 KCAL/MOL
REMARK 922        TOTAL FREE ENERGY PREDICTED BY IDOCK:   -5.92 KCAL/MOL
REMARK 923 INTER-LIGAND FREE ENERGY PREDICTED BY IDOCK:   -5.47 KCAL/MOL
REMARK 924 INTRA-LIGAND FREE ENERGY PREDICTED BY IDOCK:   -0.46 KCAL/MOL
REMARK 927      BINDING AFFINITY PREDICTED BY RF-SCORE:    0.00 PKD
ROOT
HETATM    1  C   UNL     1      -6.300  11.173  69.599  1.00  0.00    -0.119 C  
HETATM    2  C   UNL     1      -7.741  10.688  69.560  1.00  0.00    -0.106 C  
ENDROOT
BRANCH   2   3
HETATM    3  N   UNL     1      -8.339  10.866  68.231  1.00  0.00    -0.123 NA 
BRANCH   3   4
HETATM    4  C   UNL     1      -8.559   9.677  67.392  1.00  0.00    -0.125 C  
BRANCH   4   5
HETATM    5  C   UNL     1      -7.301   9.338  66.573  1.00  0.00    -0.092 C  
HETATM    6  H   UNL     1      -6.709   9.418  64.682  1.00  0.00     0.000 HD 
HETATM    7  O   UNL     1      -7.485   9.627  65.188  1.00  0.00    -0.105 OA 
ENDBRANCH   4   5
ENDBRANCH   3   4
BRANCH   3   8
HETATM    8  C   UNL     1      -8.861  12.099  67.865  1.00  0.00    -0.177 A  
HETATM    9  C   UNL     1     -10.470  13.607  64.763  1.00  0.00    -0.436 C  
HETATM   10  C   UNL     1      -8.984  13.166  68.762  1.00  0.00     0.161 A  
HETATM   11  C   UNL     1      -9.559  14.389  68.379  1.00  0.00    -0.219 A  
HETATM   12  C   UNL     1      -9.328  12.316  66.563  1.00  0.00    -0.230 A  
HETATM   13  C   UNL     1     -10.062  14.577  67.086  1.00  0.00    -0.252 A  
HETATM   14  C   UNL     1      -9.948  13.518  66.172  1.00  0.00    -0.310 A  
BRANCH  13  15
HETATM   15  N   UNL     1     -10.606  15.804  66.653  1.00  0.00    -0.310 NA 
HETATM   16  H   UNL     1     -10.813  16.009  65.676  1.00  0.00     0.000 HD 
BRANCH  15  17
HETATM   17  N   UNL     1     -10.808  16.616  67.581  1.00  0.00    -0.300 NA 
HETATM   18  H   UNL     1     -11.438  16.427  68.361  1.00  0.00     0.000 HD 
BRANCH  17  19
HETATM   19  C   UNL     1     -10.107  17.780  67.451  1.00  0.00    -0.338 A  
HETATM   20  N   UNL     1     -10.542  18.951  67.010  1.00  0.00    -0.429 NA 
HETATM   21  C   UNL     1      -9.536  19.898  67.051  1.00  0.00    -0.388 A  
HETATM   22  C   UNL     1      -8.337  19.433  67.523  1.00  0.00    -0.291 A  
HETATM   23  N   UNL     1      -7.135  20.185  67.675  1.00  0.00    -0.270 N  
HETATM   24  S   UNL     1      -8.436  17.790  67.932  1.00  0.00    -0.251 SA 
HETATM   25  O   UNL     1      -7.187  21.380  67.353  1.00  0.00    -0.535 OA 
HETATM   26  O   UNL     1      -6.135  19.605  68.119  1.00  0.00    -0.220 OA 
ENDBRANCH  17  19
ENDBRANCH  15  17
ENDBRANCH  13  15
ENDBRANCH   3   8
ENDBRANCH   2   3
TORSDOF 7
ENDMDL
MODEL      177
REMARK 921   NORMALIZED FREE ENERGY PREDICTED BY IDOCK:   -3.75 KCAL/MOL
REMARK 922        TOTAL FREE ENERGY PREDICTED BY IDOCK:   -5.92 KCAL/MOL
REMARK 923 INTER-LIGAND FREE ENERGY PREDICTED BY IDOCK:   -6.15 KCAL/MOL
REMARK 924 INTRA-LIGAND FREE ENERGY PREDICTED BY IDOCK:    0.23 KCAL/MOL
REMARK 927      BINDING AFFINITY PREDICTED BY RF-SCORE:    0.00 PKD
ROOT
HETATM    1  C   UNL     1      -9.216   5.371  74.545  1.00  0.00    -0.124 C  
HETATM    2  C   UNL     1      -9.158   6.667  73.750  1.00  0.00    -0.149 C  
ENDROOT
BRANCH   2   3
HETATM    3  N   UNL     1      -9.608   6.476  72.365  1.00  0.00    -0.146 NA 
BRANCH   3   4
HETATM    4  C   UNL     1      -9.455   5.148  71.751  1.00  0.00    -0.149 C  
BRANCH   4   5
HETATM    5  C   UNL     1      -8.046   4.971  71.158  1.00  0.00    -0.109 C  
HETATM    6  H   UNL     1      -6.528   3.707  71.321  1.00  0.00     0.000 HD 
HETATM    7  O   UNL     1      -7.397   3.817  71.687  1.00  0.00    -0.048 OA 
ENDBRANCH   4   5
ENDBRANCH   3   4
BRANCH   3   8
HETATM    8  C   UNL     1     -10.336   7.473  71.731  1.00  0.00    -0.192 A  
HETATM    9  C   UNL     1     -10.635   8.847  68.194  1.00  0.00    -0.211 C  
HETATM   10  C   UNL     1     -11.324   8.221  72.380  1.00  0.00    -0.457 A  
HETATM   11  C   UNL     1     -12.079   9.192  71.703  1.00  0.00    -0.432 A  
HETATM   12  C   UNL     1     -10.130   7.749  70.374  1.00  0.00    -0.194 A  
HETATM   13  C   UNL     1     -11.892   9.428  70.334  1.00  0.00    -0.090 A  
HETATM   14  C   UNL     1     -10.906   8.686  69.665  1.00  0.00    -0.163 A  
BRANCH  13  15
HETATM   15  N   UNL     1     -12.601  10.423  69.631  1.00  0.00    -0.620 NA 
HETATM   16  H   UNL     1     -13.618  10.451  69.576  1.00  0.00     0.000 HD 
BRANCH  15  17
HETATM   17  N   UNL     1     -11.863  11.269  69.082  1.00  0.00    -0.332 NA 
HETATM   18  H   UNL     1     -11.306  11.069  68.251  1.00  0.00     0.000 HD 
BRANCH  17  19
HETATM   19  C   UNL     1     -11.872  12.486  69.701  1.00  0.00    -0.314 A  
HETATM   20  N   UNL     1     -11.293  13.609  69.302  1.00  0.00    -0.270 NA 
HETATM   21  C   UNL     1     -11.552  14.639  70.187  1.00  0.00    -0.282 A  
HETATM   22  C   UNL     1     -12.328  14.284  71.259  1.00  0.00    -0.363 A  
HETATM   23  N   UNL     1     -12.750  15.138  72.321  1.00  0.00    -0.319 N  
HETATM   24  S   UNL     1     -12.757  12.645  71.188  1.00  0.00    -0.152 SA 
HETATM   25  O   UNL     1     -12.382  16.319  72.259  1.00  0.00    -0.462 OA 
HETATM   26  O   UNL     1     -13.453  14.652  73.217  1.00  0.00    -0.570 OA 
ENDBRANCH  17  19
ENDBRANCH  15  17
ENDBRANCH  13  15
ENDBRANCH   3   8
ENDBRANCH   2   3
TORSDOF 7
ENDMDL
MODEL      178
REMARK 921   NORMALIZED FREE ENERGY PREDICTED BY IDOCK:   -3.75 KCAL/MOL
REMARK 922        TOTAL FREE ENERGY PREDICTED BY IDOCK:   -5.91 KCAL/MOL
REMARK 923 INTER-LIGAND FREE ENERGY PREDICTED BY IDOCK:   -5.89 KCAL/MOL
REMARK 924 INTRA-LIGAND FREE ENERGY PREDICTED BY IDOCK:   -0.03 KCAL/MOL
REMARK 927      BINDING AFFINITY PREDICTED BY RF-SCORE:    0.00 PKD
ROOT
HETATM    1  C   UNL     1      -7.372   7.307  67.113  1.00  0.00    -0.094 C  
HETATM    2  C   UNL     1      -8.605   7.274  66.223  1.00  0.00    -0.142 C  
ENDROOT
BRANCH   2   3
HETATM    3  N   UNL     1      -8.708   8.480  65.391  1.00  0.00    -0.176 NA 
BRANCH   3   4
HETATM    4  C   UNL     1      -8.069   8.478  64.066  1.00  0.00    -0.156 C  
BRANCH   4   5
HETATM    5  C   UNL     1      -7.820   7.042  63.573  1.00  0.00    -0.109 C  
HETATM    6  H   UNL     1      -6.274   5.897  63.093  1.00  0.00     0.000 HD 
HETATM    7  O   UNL     1      -6.428   6.784  63.397  1.00  0.00    -0.041 OA 
ENDBRANCH   4   5
ENDBRANCH   3   4
BRANCH   3   8
HETATM    8  C   UNL     1      -9.554   9.513  65.771  1.00  0.00    -0.270 A  
HETATM    9  C   UNL     1     -11.518  10.468  68.889  1.00  0.00    -0.292 C  
HETATM   10  C   UNL     1      -9.808  10.623  64.958  1.00  0.00    -0.353 A  
HETATM   11  C   UNL     1     -10.631  11.677  65.386  1.00  0.00    -0.331 A  
HETATM   12  C   UNL     1     -10.171   9.500  67.028  1.00  0.00    -0.321 A  
HETATM   13  C   UNL     1     -11.207  11.673  66.662  1.00  0.00    -0.299 A  
HETATM   14  C   UNL     1     -10.963  10.568  67.493  1.00  0.00    -0.365 A  
BRANCH  13  15
HETATM   15  N   UNL     1     -12.072  12.692  67.109  1.00  0.00    -0.470 NA 
HETATM   16  H   UNL     1     -12.987  12.869  66.695  1.00  0.00     0.000 HD 
BRANCH  15  17
HETATM   17  N   UNL     1     -11.612  13.357  68.061  1.00  0.00    -0.313 NA 
HETATM   18  H   UNL     1     -11.997  13.321  69.005  1.00  0.00     0.000 HD 
BRANCH  17  19
HETATM   19  C   UNL     1     -10.546  14.138  67.717  1.00  0.00    -0.243 A  
HETATM   20  N   UNL     1      -9.259  13.895  67.913  1.00  0.00    -0.190 NA 
HETATM   21  C   UNL     1      -8.480  14.915  67.401  1.00  0.00    -0.195 A  
HETATM   22  C   UNL     1      -9.189  15.933  66.820  1.00  0.00    -0.240 A  
HETATM   23  N   UNL     1      -8.650  17.106  66.213  1.00  0.00    -0.258 N  
HETATM   24  S   UNL     1     -10.858  15.639  66.898  1.00  0.00    -0.237 SA 
HETATM   25  O   UNL     1      -7.415  17.205  66.207  1.00  0.00    -0.280 OA 
HETATM   26  O   UNL     1      -9.438  17.931  65.733  1.00  0.00    -0.511 OA 
ENDBRANCH  17  19
ENDBRANCH  15  17
ENDBRANCH  13  15
ENDBRANCH   3   8
ENDBRANCH   2   3
TORSDOF 7
ENDMDL
MODEL      179
REMARK 921   NORMALIZED FREE ENERGY PREDICTED BY IDOCK:   -3.72 KCAL/MOL
REMARK 922        TOTAL FREE ENERGY PREDICTED BY IDOCK:   -5.87 KCAL/MOL
REMARK 923 INTER-LIGAND FREE ENERGY PREDICTED BY IDOCK:   -5.75 KCAL/MOL
REMARK 924 INTRA-LIGAND FREE ENERGY PREDICTED BY IDOCK:   -0.12 KCAL/MOL
REMARK 927      BINDING AFFINITY PREDICTED BY RF-SCORE:    0.00 PKD
ROOT
HETATM    1  C   UNL     1     -12.148  13.738  65.584  1.00  0.00    -0.444 C  
HETATM    2  C   UNL     1     -12.002  13.501  67.080  1.00  0.00    -0.394 C  
ENDROOT
BRANCH   2   3
HETATM    3  N   UNL     1     -10.813  12.695  67.390  1.00  0.00    -0.238 NA 
BRANCH   3   4
HETATM    4  C   UNL     1      -9.560  12.984  66.675  1.00  0.00    -0.259 C  
BRANCH   4   5
HETATM    5  C   UNL     1      -8.820  14.173  67.313  1.00  0.00    -0.218 C  
HETATM    6  H   UNL     1      -8.232  15.993  66.791  1.00  0.00     0.000 HD 
HETATM    7  O   UNL     1      -8.689  15.259  66.398  1.00  0.00    -0.291 OA 
ENDBRANCH   4   5
ENDBRANCH   3   4
BRANCH   3   8
HETATM    8  C   UNL     1     -10.831  11.822  68.468  1.00  0.00    -0.224 A  
HETATM    9  C   UNL     1     -12.989  11.296  71.560  1.00  0.00    -0.520 C  
HETATM   10  C   UNL     1      -9.953  10.738  68.582  1.00  0.00    -0.189 A  
HETATM   11  C   UNL     1     -10.023   9.842  69.660  1.00  0.00    -0.244 A  
HETATM   12  C   UNL     1     -11.775  11.975  69.491  1.00  0.00    -0.408 A  
HETATM   13  C   UNL     1     -11.000   9.981  70.654  1.00  0.00    -0.322 A  
HETATM   14  C   UNL     1     -11.891  11.062  70.557  1.00  0.00    -0.464 A  
BRANCH  13  15
HETATM   15  N   UNL     1     -11.073   9.127  71.773  1.00  0.00    -0.370 NA 
HETATM   16  H   UNL     1     -10.894   9.441  72.727  1.00  0.00     0.000 HD 
BRANCH  15  17
HETATM   17  N   UNL     1     -11.377   7.951  71.485  1.00  0.00    -0.251 NA 
HETATM   18  H   UNL     1     -12.276   7.690  71.078  1.00  0.00     0.000 HD 
BRANCH  17  19
HETATM   19  C   UNL     1     -10.394   7.047  71.767  1.00  0.00    -0.197 A  
HETATM   20  N   UNL     1     -10.528   5.783  72.142  1.00  0.00    -0.205 NA 
HETATM   21  C   UNL     1      -9.294   5.184  72.310  1.00  0.00    -0.138 A  
HETATM   22  C   UNL     1      -8.226   6.006  72.063  1.00  0.00    -0.107 A  
HETATM   23  N   UNL     1      -6.846   5.657  72.156  1.00  0.00    -0.073 N  
HETATM   24  S   UNL     1      -8.740   7.558  71.611  1.00  0.00    -0.117 SA 
HETATM   25  O   UNL     1      -6.594   4.490  72.486  1.00  0.00    -0.041 OA 
HETATM   26  O   UNL     1      -6.004   6.527  71.898  1.00  0.00    -0.036 OA 
ENDBRANCH  17  19
ENDBRANCH  15  17
ENDBRANCH  13  15
ENDBRANCH   3   8
ENDBRANCH   2   3
TORSDOF 7
ENDMDL
MODEL      180
REMARK 921   NORMALIZED FREE ENERGY PREDICTED BY IDOCK:   -3.72 KCAL/MOL
REMARK 922        TOTAL FREE ENERGY PREDICTED BY IDOCK:   -5.87 KCAL/MOL
REMARK 923 INTER-LIGAND FREE ENERGY PREDICTED BY IDOCK:   -5.18 KCAL/MOL
REMARK 924 INTRA-LIGAND FREE ENERGY PREDICTED BY IDOCK:   -0.69 KCAL/MOL
REMARK 927      BINDING AFFINITY PREDICTED BY RF-SCORE:    0.00 PKD
ROOT
HETATM    1  C   UNL     1      -6.227   3.123  63.127  1.00  0.00    -0.014 C  
HETATM    2  C   UNL     1      -6.672   3.341  64.566  1.00  0.00    -0.036 C  
ENDROOT
BRANCH   2   3
HETATM    3  N   UNL     1      -8.023   3.911  64.637  1.00  0.00    -0.085 NA 
BRANCH   3   4
HETATM    4  C   UNL     1      -9.177   3.000  64.585  1.00  0.00    -0.144 C  
BRANCH   4   5
HETATM    5  C   UNL     1     -10.172   3.429  63.492  1.00  0.00    -0.208 C  
HETATM    6  H   UNL     1     -11.477   2.572  62.271  1.00  0.00     0.000 HD 
HETATM    7  O   UNL     1     -10.863   2.307  62.945  1.00  0.00    -0.171 OA 
ENDBRANCH   4   5
ENDBRANCH   3   4
BRANCH   3   8
HETATM    8  C   UNL     1      -8.192   5.255  64.944  1.00  0.00    -0.136 A  
HETATM    9  C   UNL     1      -7.456   8.586  63.256  1.00  0.00    -0.109 C  
HETATM   10  C   UNL     1      -8.859   5.692  66.094  1.00  0.00    -0.142 A  
HETATM   11  C   UNL     1      -9.057   7.057  66.358  1.00  0.00    -0.189 A  
HETATM   12  C   UNL     1      -7.723   6.247  64.075  1.00  0.00    -0.104 A  
HETATM   13  C   UNL     1      -8.621   8.037  65.458  1.00  0.00    -0.135 A  
HETATM   14  C   UNL     1      -7.951   7.619  64.297  1.00  0.00    -0.112 A  
BRANCH  13  15
HETATM   15  N   UNL     1      -8.764   9.417  65.709  1.00  0.00    -0.150 NA 
HETATM   16  H   UNL     1      -8.010  10.090  65.577  1.00  0.00     0.000 HD 
BRANCH  15  17
HETATM   17  N   UNL     1      -9.903   9.737  66.110  1.00  0.00    -0.244 NA 
HETATM   18  H   UNL     1     -10.364   9.286  66.901  1.00  0.00     0.000 HD 
BRANCH  17  19
HETATM   19  C   UNL     1     -10.472  10.747  65.390  1.00  0.00    -0.202 A  
HETATM   20  N   UNL     1     -10.567  10.859  64.073  1.00  0.00    -0.333 NA 
HETATM   21  C   UNL     1     -11.236  12.016  63.723  1.00  0.00    -0.440 A  
HETATM   22  C   UNL     1     -11.644  12.780  64.785  1.00  0.00    -0.325 A  
HETATM   23  N   UNL     1     -12.351  14.017  64.720  1.00  0.00    -0.423 N  
HETATM   24  S   UNL     1     -11.198  12.067  66.258  1.00  0.00    -0.349 SA 
HETATM   25  O   UNL     1     -12.631  14.434  63.588  1.00  0.00    -0.817 OA 
HETATM   26  O   UNL     1     -12.643  14.580  65.784  1.00  0.00    -0.315 OA 
ENDBRANCH  17  19
ENDBRANCH  15  17
ENDBRANCH  13  15
ENDBRANCH   3   8
ENDBRANCH   2   3
TORSDOF 7
ENDMDL
MODEL      181
REMARK 921   NORMALIZED FREE ENERGY PREDICTED BY IDOCK:   -3.72 KCAL/MOL
REMARK 922        TOTAL FREE ENERGY PREDICTED BY IDOCK:   -5.86 KCAL/MOL
REMARK 923 INTER-LIGAND FREE ENERGY PREDICTED BY IDOCK:   -5.33 KCAL/MOL
REMARK 924 INTRA-LIGAND FREE ENERGY PREDICTED BY IDOCK:   -0.54 KCAL/MOL
REMARK 927      BINDING AFFINITY PREDICTED BY RF-SCORE:    0.00 PKD
ROOT
HETATM    1  C   UNL     1     -10.342  19.836  68.336  1.00  0.00    -0.513 C  
HETATM    2  C   UNL     1      -9.366  20.243  67.242  1.00  0.00    -0.407 C  
ENDROOT
BRANCH   2   3
HETATM    3  N   UNL     1      -8.045  19.633  67.437  1.00  0.00    -0.279 NA 
BRANCH   3   4
HETATM    4  C   UNL     1      -6.924  20.494  67.844  1.00  0.00    -0.294 C  
BRANCH   4   5
HETATM    5  C   UNL     1      -6.280  21.178  66.626  1.00  0.00    -0.302 C  
HETATM    6  H   UNL     1      -6.180  20.903  64.665  1.00  0.00     0.000 HD 
HETATM    7  O   UNL     1      -6.577  20.481  65.417  1.00  0.00    -0.253 OA 
ENDBRANCH   4   5
ENDBRANCH   3   4
BRANCH   3   8
HETATM    8  C   UNL     1      -7.912  18.251  67.427  1.00  0.00    -0.231 A  
HETATM    9  C   UNL     1      -6.505  15.595  69.762  1.00  0.00    -0.169 C  
HETATM   10  C   UNL     1      -8.445  17.445  66.414  1.00  0.00    -0.292 A  
HETATM   11  C   UNL     1      -8.338  16.046  66.452  1.00  0.00    -0.344 A  
HETATM   12  C   UNL     1      -7.256  17.592  68.474  1.00  0.00    -0.242 A  
HETATM   13  C   UNL     1      -7.717  15.397  67.527  1.00  0.00    -0.181 A  
HETATM   14  C   UNL     1      -7.177  16.188  68.554  1.00  0.00    -0.144 A  
BRANCH  13  15
HETATM   15  N   UNL     1      -7.553  13.998  67.579  1.00  0.00    -0.178 NA 
HETATM   16  H   UNL     1      -6.953  13.531  68.258  1.00  0.00     0.000 HD 
BRANCH  15  17
HETATM   17  N   UNL     1      -8.212  13.385  66.712  1.00  0.00    -0.406 NA 
HETATM   18  H   UNL     1      -8.847  13.849  66.062  1.00  0.00     0.000 HD 
BRANCH  17  19
HETATM   19  C   UNL     1      -8.003  12.036  66.719  1.00  0.00    -0.060 A  
HETATM   20  N   UNL     1      -6.847  11.389  66.743  1.00  0.00    -0.140 NA 
HETATM   21  C   UNL     1      -7.047  10.022  66.768  1.00  0.00    -0.091 A  
HETATM   22  C   UNL     1      -8.362   9.641  66.760  1.00  0.00    -0.117 A  
HETATM   23  N   UNL     1      -8.860   8.304  66.781  1.00  0.00    -0.134 N  
HETATM   24  S   UNL     1      -9.390  10.989  66.720  1.00  0.00    -0.185 SA 
HETATM   25  O   UNL     1      -8.013   7.401  66.820  1.00  0.00    -0.110 OA 
HETATM   26  O   UNL     1     -10.087   8.136  66.768  1.00  0.00    -0.254 OA 
ENDBRANCH  17  19
ENDBRANCH  15  17
ENDBRANCH  13  15
ENDBRANCH   3   8
ENDBRANCH   2   3
TORSDOF 7
ENDMDL
MODEL      182
REMARK 921   NORMALIZED FREE ENERGY PREDICTED BY IDOCK:   -3.71 KCAL/MOL
REMARK 922        TOTAL FREE ENERGY PREDICTED BY IDOCK:   -5.86 KCAL/MOL
REMARK 923 INTER-LIGAND FREE ENERGY PREDICTED BY IDOCK:   -5.46 KCAL/MOL
REMARK 924 INTRA-LIGAND FREE ENERGY PREDICTED BY IDOCK:   -0.40 KCAL/MOL
REMARK 927      BINDING AFFINITY PREDICTED BY RF-SCORE:    0.00 PKD
ROOT
HETATM    1  C   UNL     1     -12.470  12.975  65.442  1.00  0.00    -0.531 C  
HETATM    2  C   UNL     1     -11.141  13.551  65.908  1.00  0.00    -0.284 C  
ENDROOT
BRANCH   2   3
HETATM    3  N   UNL     1     -10.689  12.932  67.161  1.00  0.00    -0.251 NA 
BRANCH   3   4
HETATM    4  C   UNL     1     -10.625  13.762  68.374  1.00  0.00    -0.253 C  
BRANCH   4   5
HETATM    5  C   UNL     1     -12.036  14.103  68.886  1.00  0.00    -0.341 C  
HETATM    6  H   UNL     1     -13.081  13.913  70.560  1.00  0.00     0.000 HD 
HETATM    7  O   UNL     1     -12.210  13.703  70.243  1.00  0.00    -0.330 OA 
ENDBRANCH   4   5
ENDBRANCH   3   4
BRANCH   3   8
HETATM    8  C   UNL     1     -10.519  11.556  67.232  1.00  0.00    -0.212 A  
HETATM    9  C   UNL     1     -10.879   8.864  69.898  1.00  0.00    -0.219 C  
HETATM   10  C   UNL     1     -10.215  10.771  66.114  1.00  0.00    -0.308 A  
HETATM   11  C   UNL     1     -10.095   9.375  66.204  1.00  0.00    -0.324 A  
HETATM   12  C   UNL     1     -10.686  10.881  68.447  1.00  0.00    -0.240 A  
HETATM   13  C   UNL     1     -10.308   8.708  67.417  1.00  0.00    -0.284 A  
HETATM   14  C   UNL     1     -10.615   9.478  68.550  1.00  0.00    -0.247 A  
BRANCH  13  15
HETATM   15  N   UNL     1     -10.154   7.313  67.555  1.00  0.00    -0.176 NA 
HETATM   16  H   UNL     1      -9.572   6.884  68.274  1.00  0.00     0.000 HD 
BRANCH  15  17
HETATM   17  N   UNL     1     -10.797   6.653  66.712  1.00  0.00    -0.537 NA 
HETATM   18  H   UNL     1     -11.736   6.906  66.403  1.00  0.00     0.000 HD 
BRANCH  17  19
HETATM   19  C   UNL     1     -10.124   5.562  66.243  1.00  0.00    -0.145 A  
HETATM   20  N   UNL     1     -10.615   4.512  65.603  1.00  0.00    -0.262 NA 
HETATM   21  C   UNL     1      -9.611   3.623  65.267  1.00  0.00    -0.160 A  
HETATM   22  C   UNL     1      -8.357   4.009  65.661  1.00  0.00    -0.109 A  
HETATM   23  N   UNL     1      -7.142   3.293  65.449  1.00  0.00    -0.061 N  
HETATM   24  S   UNL     1      -8.401   5.501  66.467  1.00  0.00    -0.110 SA 
HETATM   25  O   UNL     1      -7.235   2.219  64.839  1.00  0.00    -0.055 OA 
HETATM   26  O   UNL     1      -6.090   3.787  65.875  1.00  0.00    -0.026 OA 
ENDBRANCH  17  19
ENDBRANCH  15  17
ENDBRANCH  13  15
ENDBRANCH   3   8
ENDBRANCH   2   3
TORSDOF 7
ENDMDL
MODEL      183
REMARK 921   NORMALIZED FREE ENERGY PREDICTED BY IDOCK:   -3.71 KCAL/MOL
REMARK 922        TOTAL FREE ENERGY PREDICTED BY IDOCK:   -5.86 KCAL/MOL
REMARK 923 INTER-LIGAND FREE ENERGY PREDICTED BY IDOCK:   -5.58 KCAL/MOL
REMARK 924 INTRA-LIGAND FREE ENERGY PREDICTED BY IDOCK:   -0.27 KCAL/MOL
REMARK 927      BINDING AFFINITY PREDICTED BY RF-SCORE:    0.00 PKD
ROOT
HETATM    1  C   UNL     1     -11.758  13.814  64.683  1.00  0.00    -0.417 C  
HETATM    2  C   UNL     1     -12.355  13.840  66.082  1.00  0.00    -0.452 C  
ENDROOT
BRANCH   2   3
HETATM    3  N   UNL     1     -11.457  13.227  67.068  1.00  0.00    -0.322 NA 
BRANCH   3   4
HETATM    4  C   UNL     1     -11.903  12.012  67.768  1.00  0.00    -0.238 C  
BRANCH   4   5
HETATM    5  C   UNL     1     -11.627  12.111  69.279  1.00  0.00    -0.318 C  
HETATM    6  H   UNL     1     -11.599  10.905  70.853  1.00  0.00     0.000 HD 
HETATM    7  O   UNL     1     -11.770  10.845  69.920  1.00  0.00    -0.277 OA 
ENDBRANCH   4   5
ENDBRANCH   3   4
BRANCH   3   8
HETATM    8  C   UNL     1     -10.148  13.673  67.185  1.00  0.00    -0.245 A  
HETATM    9  C   UNL     1      -6.695  12.083  67.376  1.00  0.00    -0.131 C  
HETATM   10  C   UNL     1      -9.804  15.030  67.163  1.00  0.00    -0.233 A  
HETATM   11  C   UNL     1      -8.467  15.453  67.236  1.00  0.00    -0.214 A  
HETATM   12  C   UNL     1      -9.092  12.760  67.295  1.00  0.00    -0.200 A  
HETATM   13  C   UNL     1      -7.418  14.527  67.301  1.00  0.00    -0.097 A  
HETATM   14  C   UNL     1      -7.743  13.162  67.324  1.00  0.00    -0.107 A  
BRANCH  13  15
HETATM   15  N   UNL     1      -6.068  14.916  67.419  1.00  0.00    -0.327 NA 
HETATM   16  H   UNL     1      -5.387  14.801  66.669  1.00  0.00     0.000 HD 
BRANCH  15  17
HETATM   17  N   UNL     1      -5.786  15.414  68.529  1.00  0.00    -0.092 NA 
HETATM   18  H   UNL     1      -5.671  14.859  69.378  1.00  0.00     0.000 HD 
BRANCH  17  19
HETATM   19  C   UNL     1      -5.647  16.772  68.500  1.00  0.00    -0.126 A  
HETATM   20  N   UNL     1      -5.290  17.534  67.477  1.00  0.00    -0.126 NA 
HETATM   21  C   UNL     1      -5.288  18.870  67.834  1.00  0.00    -0.174 A  
HETATM   22  C   UNL     1      -5.642  19.110  69.135  1.00  0.00    -0.203 A  
HETATM   23  N   UNL     1      -5.726  20.383  69.772  1.00  0.00    -0.321 N  
HETATM   24  S   UNL     1      -5.990  17.664  69.951  1.00  0.00    -0.172 SA 
HETATM   25  O   UNL     1      -5.458  21.369  69.071  1.00  0.00    -0.245 OA 
HETATM   26  O   UNL     1      -6.063  20.421  70.962  1.00  0.00    -0.545 OA 
ENDBRANCH  17  19
ENDBRANCH  15  17
ENDBRANCH  13  15
ENDBRANCH   3   8
ENDBRANCH   2   3
TORSDOF 7
ENDMDL
MODEL      184
REMARK 921   NORMALIZED FREE ENERGY PREDICTED BY IDOCK:   -3.71 KCAL/MOL
REMARK 922        TOTAL FREE ENERGY PREDICTED BY IDOCK:   -5.85 KCAL/MOL
REMARK 923 INTER-LIGAND FREE ENERGY PREDICTED BY IDOCK:   -5.16 KCAL/MOL
REMARK 924 INTRA-LIGAND FREE ENERGY PREDICTED BY IDOCK:   -0.69 KCAL/MOL
REMARK 927      BINDING AFFINITY PREDICTED BY RF-SCORE:    0.00 PKD
ROOT
HETATM    1  C   UNL     1     -10.832   5.511  70.500  1.00  0.00    -0.266 C  
HETATM    2  C   UNL     1      -9.341   5.672  70.752  1.00  0.00    -0.163 C  
ENDROOT
BRANCH   2   3
HETATM    3  N   UNL     1      -9.038   6.933  71.441  1.00  0.00    -0.148 NA 
BRANCH   3   4
HETATM    4  C   UNL     1      -8.767   6.900  72.886  1.00  0.00    -0.122 C  
BRANCH   4   5
HETATM    5  C   UNL     1     -10.043   7.192  73.695  1.00  0.00    -0.346 C  
HETATM    6  H   UNL     1     -11.547   6.175  74.492  1.00  0.00     0.000 HD 
HETATM    7  O   UNL     1     -10.760   5.995  73.993  1.00  0.00    -0.229 OA 
ENDBRANCH   4   5
ENDBRANCH   3   4
BRANCH   3   8
HETATM    8  C   UNL     1      -8.822   8.090  70.703  1.00  0.00    -0.143 A  
HETATM    9  C   UNL     1      -5.911   9.655  68.814  1.00  0.00    -0.042 C  
HETATM   10  C   UNL     1      -9.841   9.000  70.402  1.00  0.00    -0.242 A  
HETATM   11  C   UNL     1      -9.605  10.138  69.615  1.00  0.00    -0.237 A  
HETATM   12  C   UNL     1      -7.551   8.377  70.189  1.00  0.00    -0.070 A  
HETATM   13  C   UNL     1      -8.339  10.391  69.071  1.00  0.00    -0.150 A  
HETATM   14  C   UNL     1      -7.304   9.489  69.360  1.00  0.00    -0.084 A  
BRANCH  13  15
HETATM   15  N   UNL     1      -8.055  11.544  68.313  1.00  0.00    -0.141 NA 
HETATM   16  H   UNL     1      -7.547  11.520  67.428  1.00  0.00     0.000 HD 
BRANCH  15  17
HETATM   17  N   UNL     1      -8.484  12.599  68.827  1.00  0.00    -0.357 NA 
HETATM   18  H   UNL     1      -8.326  12.848  69.803  1.00  0.00     0.000 HD 
BRANCH  17  19
HETATM   19  C   UNL     1      -9.182  13.386  67.957  1.00  0.00    -0.209 A  
HETATM   20  N   UNL     1      -9.505  14.664  68.091  1.00  0.00    -0.206 NA 
HETATM   21  C   UNL     1     -10.195  15.118  66.983  1.00  0.00    -0.262 A  
HETATM   22  C   UNL     1     -10.396  14.171  66.013  1.00  0.00    -0.309 A  
HETATM   23  N   UNL     1     -11.073  14.358  64.771  1.00  0.00    -0.394 N  
HETATM   24  S   UNL     1      -9.722  12.681  66.463  1.00  0.00    -0.259 SA 
HETATM   25  O   UNL     1     -11.515  15.493  64.549  1.00  0.00    -0.408 OA 
HETATM   26  O   UNL     1     -11.166  13.390  64.005  1.00  0.00    -0.369 OA 
ENDBRANCH  17  19
ENDBRANCH  15  17
ENDBRANCH  13  15
ENDBRANCH   3   8
ENDBRANCH   2   3
TORSDOF 7
ENDMDL
MODEL      185
REMARK 921   NORMALIZED FREE ENERGY PREDICTED BY IDOCK:   -3.69 KCAL/MOL
REMARK 922        TOTAL FREE ENERGY PREDICTED BY IDOCK:   -5.83 KCAL/MOL
REMARK 923 INTER-LIGAND FREE ENERGY PREDICTED BY IDOCK:   -5.18 KCAL/MOL
REMARK 924 INTRA-LIGAND FREE ENERGY PREDICTED BY IDOCK:   -0.65 KCAL/MOL
REMARK 927      BINDING AFFINITY PREDICTED BY RF-SCORE:    0.00 PKD
ROOT
HETATM    1  C   UNL     1      -6.243   8.280  67.173  1.00  0.00    -0.056 C  
HETATM    2  C   UNL     1      -6.551   7.217  66.130  1.00  0.00    -0.052 C  
ENDROOT
BRANCH   2   3
HETATM    3  N   UNL     1      -7.962   7.246  65.724  1.00  0.00    -0.115 NA 
BRANCH   3   4
HETATM    4  C   UNL     1      -8.743   6.001  65.800  1.00  0.00    -0.151 C  
BRANCH   4   5
HETATM    5  C   UNL     1      -8.311   5.149  67.006  1.00  0.00    -0.107 C  
HETATM    6  H   UNL     1      -7.408   3.415  67.336  1.00  0.00     0.000 HD 
HETATM    7  O   UNL     1      -7.675   3.941  66.592  1.00  0.00    -0.087 OA 
ENDBRANCH   4   5
ENDBRANCH   3   4
BRANCH   3   8
HETATM    8  C   UNL     1      -8.584   8.460  65.467  1.00  0.00    -0.176 A  
HETATM    9  C   UNL     1      -8.616  11.000  62.632  1.00  0.00    -0.260 C  
HETATM   10  C   UNL     1      -9.543   9.018  66.321  1.00  0.00    -0.327 A  
HETATM   11  C   UNL     1     -10.191  10.225  66.014  1.00  0.00    -0.298 A  
HETATM   12  C   UNL     1      -8.295   9.173  64.297  1.00  0.00    -0.178 A  
HETATM   13  C   UNL     1      -9.924  10.905  64.819  1.00  0.00    -0.307 A  
HETATM   14  C   UNL     1      -8.966  10.361  63.948  1.00  0.00    -0.247 A  
BRANCH  13  15
HETATM   15  N   UNL     1     -10.523  12.140  64.497  1.00  0.00    -0.287 NA 
HETATM   16  H   UNL     1     -10.447  12.575  63.578  1.00  0.00     0.000 HD 
BRANCH  15  17
HETATM   17  N   UNL     1     -11.156  12.651  65.446  1.00  0.00    -0.285 NA 
HETATM   18  H   UNL     1     -11.961  12.205  65.885  1.00  0.00     0.000 HD 
BRANCH  17  19
HETATM   19  C   UNL     1     -10.666  13.863  65.839  1.00  0.00    -0.286 A  
HETATM   20  N   UNL     1     -10.215  14.848  65.077  1.00  0.00    -0.369 NA 
HETATM   21  C   UNL     1      -9.826  15.929  65.845  1.00  0.00    -0.351 A  
HETATM   22  C   UNL     1      -9.984  15.752  67.195  1.00  0.00    -0.242 A  
HETATM   23  N   UNL     1      -9.669  16.694  68.218  1.00  0.00    -0.237 N  
HETATM   24  S   UNL     1     -10.626  14.220  67.540  1.00  0.00    -0.262 SA 
HETATM   25  O   UNL     1      -9.215  17.784  67.843  1.00  0.00    -0.256 OA 
HETATM   26  O   UNL     1      -9.873  16.369  69.395  1.00  0.00    -0.244 OA 
ENDBRANCH  17  19
ENDBRANCH  15  17
ENDBRANCH  13  15
ENDBRANCH   3   8
ENDBRANCH   2   3
TORSDOF 7
ENDMDL
MODEL      186
REMARK 921   NORMALIZED FREE ENERGY PREDICTED BY IDOCK:   -3.68 KCAL/MOL
REMARK 922        TOTAL FREE ENERGY PREDICTED BY IDOCK:   -5.81 KCAL/MOL
REMARK 923 INTER-LIGAND FREE ENERGY PREDICTED BY IDOCK:   -5.23 KCAL/MOL
REMARK 924 INTRA-LIGAND FREE ENERGY PREDICTED BY IDOCK:   -0.58 KCAL/MOL
REMARK 927      BINDING AFFINITY PREDICTED BY RF-SCORE:    0.00 PKD
ROOT
HETATM    1  C   UNL     1     -11.599  16.050  68.531  1.00  0.00    -0.316 C  
HETATM    2  C   UNL     1     -10.206  15.445  68.441  1.00  0.00    -0.221 C  
ENDROOT
BRANCH   2   3
HETATM    3  N   UNL     1     -10.198  14.216  67.636  1.00  0.00    -0.239 NA 
BRANCH   3   4
HETATM    4  C   UNL     1      -9.998  14.326  66.183  1.00  0.00    -0.314 C  
BRANCH   4   5
HETATM    5  C   UNL     1     -11.135  13.631  65.414  1.00  0.00    -0.298 C  
HETATM    6  H   UNL     1     -11.373  12.649  63.708  1.00  0.00     0.000 HD 
HETATM    7  O   UNL     1     -10.672  13.078  64.183  1.00  0.00    -0.389 OA 
ENDBRANCH   4   5
ENDBRANCH   3   4
BRANCH   3   8
HETATM    8  C   UNL     1     -10.182  12.978  68.264  1.00  0.00    -0.246 A  
HETATM    9  C   UNL     1     -12.639  10.861  70.256  1.00  0.00    -0.342 C  
HETATM   10  C   UNL     1      -9.094  12.101  68.186  1.00  0.00    -0.196 A  
HETATM   11  C   UNL     1      -9.122  10.835  68.791  1.00  0.00    -0.180 A  
HETATM   12  C   UNL     1     -11.296  12.533  68.986  1.00  0.00    -0.342 A  
HETATM   13  C   UNL     1     -10.259  10.385  69.473  1.00  0.00    -0.231 A  
HETATM   14  C   UNL     1     -11.362  11.249  69.562  1.00  0.00    -0.362 A  
BRANCH  13  15
HETATM   15  N   UNL     1     -10.308   9.138  70.129  1.00  0.00    -0.200 NA 
HETATM   16  H   UNL     1     -11.143   8.786  70.597  1.00  0.00     0.000 HD 
BRANCH  15  17
HETATM   17  N   UNL     1      -9.231   8.507  70.084  1.00  0.00    -0.153 NA 
HETATM   18  H   UNL     1      -8.386   8.808  70.570  1.00  0.00     0.000 HD 
BRANCH  17  19
HETATM   19  C   UNL     1      -9.293   7.375  69.323  1.00  0.00    -0.154 A  
HETATM   20  N   UNL     1      -9.270   7.277  68.002  1.00  0.00    -0.132 NA 
HETATM   21  C   UNL     1      -9.327   5.955  67.604  1.00  0.00    -0.107 A  
HETATM   22  C   UNL     1      -9.396   5.055  68.634  1.00  0.00    -0.130 A  
HETATM   23  N   UNL     1      -9.464   3.635  68.518  1.00  0.00    -0.166 N  
HETATM   24  S   UNL     1      -9.392   5.843  70.136  1.00  0.00    -0.158 SA 
HETATM   25  O   UNL     1      -9.450   3.174  67.369  1.00  0.00    -0.203 OA 
HETATM   26  O   UNL     1      -9.524   2.966  69.558  1.00  0.00    -0.149 OA 
ENDBRANCH  17  19
ENDBRANCH  15  17
ENDBRANCH  13  15
ENDBRANCH   3   8
ENDBRANCH   2   3
TORSDOF 7
ENDMDL
MODEL      187
REMARK 921   NORMALIZED FREE ENERGY PREDICTED BY IDOCK:   -3.66 KCAL/MOL
REMARK 922        TOTAL FREE ENERGY PREDICTED BY IDOCK:   -5.78 KCAL/MOL
REMARK 923 INTER-LIGAND FREE ENERGY PREDICTED BY IDOCK:   -5.23 KCAL/MOL
REMARK 924 INTRA-LIGAND FREE ENERGY PREDICTED BY IDOCK:   -0.55 KCAL/MOL
REMARK 927      BINDING AFFINITY PREDICTED BY RF-SCORE:    0.00 PKD
ROOT
HETATM    1  C   UNL     1      -9.653  16.794  66.685  1.00  0.00    -0.274 C  
HETATM    2  C   UNL     1     -10.875  16.019  67.151  1.00  0.00    -0.239 C  
ENDROOT
BRANCH   2   3
HETATM    3  N   UNL     1     -11.015  14.743  66.438  1.00  0.00    -0.326 NA 
BRANCH   3   4
HETATM    4  C   UNL     1     -11.017  14.754  64.967  1.00  0.00    -0.414 C  
BRANCH   4   5
HETATM    5  C   UNL     1     -12.412  14.416  64.413  1.00  0.00    -0.312 C  
HETATM    6  H   UNL     1     -13.216  13.858  62.688  1.00  0.00     0.000 HD 
HETATM    7  O   UNL     1     -12.356  14.067  63.031  1.00  0.00    -0.566 OA 
ENDBRANCH   4   5
ENDBRANCH   3   4
BRANCH   3   8
HETATM    8  C   UNL     1     -10.947  13.546  67.139  1.00  0.00    -0.291 A  
HETATM    9  C   UNL     1     -10.239   9.899  66.314  1.00  0.00    -0.282 C  
HETATM   10  C   UNL     1     -11.063  13.476  68.532  1.00  0.00    -0.300 A  
HETATM   11  C   UNL     1     -10.944  12.258  69.221  1.00  0.00    -0.155 A  
HETATM   12  C   UNL     1     -10.717  12.340  66.467  1.00  0.00    -0.279 A  
HETATM   13  C   UNL     1     -10.670  11.066  68.540  1.00  0.00    -0.202 A  
HETATM   14  C   UNL     1     -10.549  11.116  67.142  1.00  0.00    -0.286 A  
BRANCH  13  15
HETATM   15  N   UNL     1     -10.587   9.819  69.193  1.00  0.00    -0.211 NA 
HETATM   16  H   UNL     1     -10.999   8.965  68.820  1.00  0.00     0.000 HD 
BRANCH  15  17
HETATM   17  N   UNL     1      -9.960   9.861  70.273  1.00  0.00    -0.350 NA 
HETATM   18  H   UNL     1     -10.179  10.520  71.021  1.00  0.00     0.000 HD 
BRANCH  17  19
HETATM   19  C   UNL     1      -8.954   8.943  70.357  1.00  0.00    -0.182 A  
HETATM   20  N   UNL     1      -8.023   8.834  71.293  1.00  0.00    -0.135 NA 
HETATM   21  C   UNL     1      -7.193   7.757  71.043  1.00  0.00    -0.054 A  
HETATM   22  C   UNL     1      -7.502   7.055  69.908  1.00  0.00    -0.090 A  
HETATM   23  N   UNL     1      -6.821   5.906  69.408  1.00  0.00    -0.060 N  
HETATM   24  S   UNL     1      -8.846   7.727  69.120  1.00  0.00    -0.138 SA 
HETATM   25  O   UNL     1      -5.860   5.501  70.075  1.00  0.00    -0.018 OA 
HETATM   26  O   UNL     1      -7.235   5.392  68.360  1.00  0.00    -0.068 OA 
ENDBRANCH  17  19
ENDBRANCH  15  17
ENDBRANCH  13  15
ENDBRANCH   3   8
ENDBRANCH   2   3
TORSDOF 7
ENDMDL
MODEL      188
REMARK 921   NORMALIZED FREE ENERGY PREDICTED BY IDOCK:   -3.66 KCAL/MOL
REMARK 922        TOTAL FREE ENERGY PREDICTED BY IDOCK:   -5.78 KCAL/MOL
REMARK 923 INTER-LIGAND FREE ENERGY PREDICTED BY IDOCK:   -6.10 KCAL/MOL
REMARK 924 INTRA-LIGAND FREE ENERGY PREDICTED BY IDOCK:    0.33 KCAL/MOL
REMARK 927      BINDING AFFINITY PREDICTED BY RF-SCORE:    0.00 PKD
ROOT
HETATM    1  C   UNL     1      -6.007   8.007  72.211  1.00  0.00    -0.044 C  
HETATM    2  C   UNL     1      -7.483   8.334  72.038  1.00  0.00    -0.100 C  
ENDROOT
BRANCH   2   3
HETATM    3  N   UNL     1      -7.946   8.052  70.673  1.00  0.00    -0.093 NA 
BRANCH   3   4
HETATM    4  C   UNL     1      -7.390   6.887  69.966  1.00  0.00    -0.082 C  
BRANCH   4   5
HETATM    5  C   UNL     1      -6.026   7.221  69.336  1.00  0.00    -0.030 C  
HETATM    6  H   UNL     1      -5.093   8.809  68.602  1.00  0.00     0.000 HD 
HETATM    7  O   UNL     1      -5.934   8.602  68.991  1.00  0.00    -0.042 OA 
ENDBRANCH   4   5
ENDBRANCH   3   4
BRANCH   3   8
HETATM    8  C   UNL     1      -9.022   8.754  70.148  1.00  0.00    -0.166 A  
HETATM    9  C   UNL     1     -12.242  10.279  71.489  1.00  0.00    -0.449 C  
HETATM   10  C   UNL     1      -9.078   9.172  68.814  1.00  0.00    -0.136 A  
HETATM   11  C   UNL     1     -10.157   9.922  68.320  1.00  0.00    -0.185 A  
HETATM   12  C   UNL     1     -10.103   9.113  70.964  1.00  0.00    -0.373 A  
HETATM   13  C   UNL     1     -11.210  10.310  69.157  1.00  0.00    -0.215 A  
HETATM   14  C   UNL     1     -11.172   9.903  70.500  1.00  0.00    -0.399 A  
BRANCH  13  15
HETATM   15  N   UNL     1     -12.330  11.026  68.687  1.00  0.00    -0.737 NA 
HETATM   16  H   UNL     1     -13.238  11.011  69.152  1.00  0.00     0.000 HD 
BRANCH  15  17
HETATM   17  N   UNL     1     -12.106  11.679  67.647  1.00  0.00    -0.573 NA 
HETATM   18  H   UNL     1     -12.279  11.315  66.710  1.00  0.00     0.000 HD 
BRANCH  17  19
HETATM   19  C   UNL     1     -11.607  12.928  67.882  1.00  0.00    -0.345 A  
HETATM   20  N   UNL     1     -10.819  13.654  67.102  1.00  0.00    -0.283 NA 
HETATM   21  C   UNL     1     -10.548  14.880  67.678  1.00  0.00    -0.264 A  
HETATM   22  C   UNL     1     -11.133  15.074  68.902  1.00  0.00    -0.266 A  
HETATM   23  N   UNL     1     -11.027  16.238  69.719  1.00  0.00    -0.343 N  
HETATM   24  S   UNL     1     -12.043  13.720  69.366  1.00  0.00    -0.290 SA 
HETATM   25  O   UNL     1     -10.342  17.167  69.270  1.00  0.00    -0.313 OA 
HETATM   26  O   UNL     1     -11.623  16.247  70.804  1.00  0.00    -0.377 OA 
ENDBRANCH  17  19
ENDBRANCH  15  17
ENDBRANCH  13  15
ENDBRANCH   3   8
ENDBRANCH   2   3
TORSDOF 7
ENDMDL
MODEL      189
REMARK 921   NORMALIZED FREE ENERGY PREDICTED BY IDOCK:   -3.64 KCAL/MOL
REMARK 922        TOTAL FREE ENERGY PREDICTED BY IDOCK:   -5.76 KCAL/MOL
REMARK 923 INTER-LIGAND FREE ENERGY PREDICTED BY IDOCK:   -5.33 KCAL/MOL
REMARK 924 INTRA-LIGAND FREE ENERGY PREDICTED BY IDOCK:   -0.43 KCAL/MOL
REMARK 927      BINDING AFFINITY PREDICTED BY RF-SCORE:    0.00 PKD
ROOT
HETATM    1  C   UNL     1     -11.486   2.333  73.298  1.00  0.00    -0.177 C  
HETATM    2  C   UNL     1     -10.036   2.384  72.841  1.00  0.00    -0.136 C  
ENDROOT
BRANCH   2   3
HETATM    3  N   UNL     1      -9.563   3.765  72.683  1.00  0.00    -0.128 NA 
BRANCH   3   4
HETATM    4  C   UNL     1      -8.446   4.228  73.522  1.00  0.00    -0.093 C  
BRANCH   4   5
HETATM    5  C   UNL     1      -8.626   5.704  73.917  1.00  0.00    -0.118 C  
HETATM    6  H   UNL     1      -7.732   7.440  73.573  1.00  0.00     0.000 HD 
HETATM    7  O   UNL     1      -7.622   6.529  73.329  1.00  0.00    -0.092 OA 
ENDBRANCH   4   5
ENDBRANCH   3   4
BRANCH   3   8
HETATM    8  C   UNL     1     -10.032   4.542  71.632  1.00  0.00    -0.196 A  
HETATM    9  C   UNL     1     -12.515   7.394  71.201  1.00  0.00    -0.343 C  
HETATM   10  C   UNL     1      -9.518   4.452  70.334  1.00  0.00    -0.245 A  
HETATM   11  C   UNL     1      -9.978   5.282  69.299  1.00  0.00    -0.285 A  
HETATM   12  C   UNL     1     -11.036   5.495  71.845  1.00  0.00    -0.264 A  
HETATM   13  C   UNL     1     -10.951   6.261  69.536  1.00  0.00    -0.379 A  
HETATM   14  C   UNL     1     -11.479   6.368  70.833  1.00  0.00    -0.406 A  
BRANCH  13  15
HETATM   15  N   UNL     1     -11.468   7.082  68.514  1.00  0.00    -0.354 NA 
HETATM   16  H   UNL     1     -12.466   7.191  68.335  1.00  0.00     0.000 HD 
BRANCH  15  17
HETATM   17  N   UNL     1     -10.586   7.665  67.847  1.00  0.00    -0.369 NA 
HETATM   18  H   UNL     1      -9.927   7.173  67.243  1.00  0.00     0.000 HD 
BRANCH  17  19
HETATM   19  C   UNL     1     -10.589   9.021  68.003  1.00  0.00    -0.186 A  
HETATM   20  N   UNL     1     -10.804   9.715  69.111  1.00  0.00    -0.214 NA 
HETATM   21  C   UNL     1     -10.699  11.072  68.872  1.00  0.00    -0.211 A  
HETATM   22  C   UNL     1     -10.406  11.398  67.573  1.00  0.00    -0.195 A  
HETATM   23  N   UNL     1     -10.239  12.712  67.044  1.00  0.00    -0.225 N  
HETATM   24  S   UNL     1     -10.254  10.008  66.613  1.00  0.00    -0.208 SA 
HETATM   25  O   UNL     1     -10.365  13.649  67.845  1.00  0.00    -0.239 OA 
HETATM   26  O   UNL     1      -9.977  12.829  65.840  1.00  0.00    -0.267 OA 
ENDBRANCH  17  19
ENDBRANCH  15  17
ENDBRANCH  13  15
ENDBRANCH   3   8
ENDBRANCH   2   3
TORSDOF 7
ENDMDL
MODEL      190
REMARK 921   NORMALIZED FREE ENERGY PREDICTED BY IDOCK:   -3.64 KCAL/MOL
REMARK 922        TOTAL FREE ENERGY PREDICTED BY IDOCK:   -5.75 KCAL/MOL
REMARK 923 INTER-LIGAND FREE ENERGY PREDICTED BY IDOCK:   -5.89 KCAL/MOL
REMARK 924 INTRA-LIGAND FREE ENERGY PREDICTED BY IDOCK:    0.13 KCAL/MOL
REMARK 927      BINDING AFFINITY PREDICTED BY RF-SCORE:    0.00 PKD
ROOT
HETATM    1  C   UNL     1     -14.379  14.425  71.979  1.00  0.00    -0.636 C  
HETATM    2  C   UNL     1     -13.667  13.083  72.060  1.00  0.00    -0.353 C  
ENDROOT
BRANCH   2   3
HETATM    3  N   UNL     1     -12.653  12.941  71.007  1.00  0.00    -0.345 NA 
BRANCH   3   4
HETATM    4  C   UNL     1     -11.951  14.146  70.537  1.00  0.00    -0.323 C  
BRANCH   4   5
HETATM    5  C   UNL     1     -12.253  14.418  69.052  1.00  0.00    -0.198 C  
HETATM    6  H   UNL     1     -11.268  14.993  67.431  1.00  0.00     0.000 HD 
HETATM    7  O   UNL     1     -11.082  14.825  68.347  1.00  0.00    -0.245 OA 
ENDBRANCH   4   5
ENDBRANCH   3   4
BRANCH   3   8
HETATM    8  C   UNL     1     -12.234  11.677  70.614  1.00  0.00    -0.366 A  
HETATM    9  C   UNL     1     -10.789  10.102  67.465  1.00  0.00    -0.349 C  
HETATM   10  C   UNL     1     -12.184  10.587  71.492  1.00  0.00    -0.385 A  
HETATM   11  C   UNL     1     -11.712   9.330  71.081  1.00  0.00    -0.394 A  
HETATM   12  C   UNL     1     -11.802  11.446  69.302  1.00  0.00    -0.417 A  
HETATM   13  C   UNL     1     -11.242   9.126  69.777  1.00  0.00    -0.056 A  
HETATM   14  C   UNL     1     -11.284  10.206  68.882  1.00  0.00    -0.220 A  
BRANCH  13  15
HETATM   15  N   UNL     1     -10.802   7.868  69.317  1.00  0.00    -0.402 NA 
HETATM   16  H   UNL     1     -11.439   7.121  69.041  1.00  0.00     0.000 HD 
BRANCH  15  17
HETATM   17  N   UNL     1      -9.558   7.756  69.280  1.00  0.00    -0.159 NA 
HETATM   18  H   UNL     1      -8.925   8.404  69.749  1.00  0.00     0.000 HD 
BRANCH  17  19
HETATM   19  C   UNL     1      -9.128   6.684  68.552  1.00  0.00    -0.128 A  
HETATM   20  N   UNL     1      -8.210   6.661  67.597  1.00  0.00    -0.121 NA 
HETATM   21  C   UNL     1      -8.033   5.378  67.114  1.00  0.00    -0.101 A  
HETATM   22  C   UNL     1      -8.826   4.433  67.708  1.00  0.00    -0.109 A  
HETATM   23  N   UNL     1      -8.855   3.038  67.411  1.00  0.00    -0.126 N  
HETATM   24  S   UNL     1      -9.821   5.127  68.895  1.00  0.00    -0.175 SA 
HETATM   25  O   UNL     1      -8.075   2.646  66.532  1.00  0.00    -0.080 OA 
HETATM   26  O   UNL     1      -9.638   2.321  68.047  1.00  0.00    -0.199 OA 
ENDBRANCH  17  19
ENDBRANCH  15  17
ENDBRANCH  13  15
ENDBRANCH   3   8
ENDBRANCH   2   3
TORSDOF 7
ENDMDL
MODEL      191
REMARK 921   NORMALIZED FREE ENERGY PREDICTED BY IDOCK:   -3.63 KCAL/MOL
REMARK 922        TOTAL FREE ENERGY PREDICTED BY IDOCK:   -5.74 KCAL/MOL
REMARK 923 INTER-LIGAND FREE ENERGY PREDICTED BY IDOCK:   -4.96 KCAL/MOL
REMARK 924 INTRA-LIGAND FREE ENERGY PREDICTED BY IDOCK:   -0.79 KCAL/MOL
REMARK 927      BINDING AFFINITY PREDICTED BY RF-SCORE:    0.00 PKD
ROOT
HETATM    1  C   UNL     1     -13.372  12.168  72.077  1.00  0.00    -0.470 C  
HETATM    2  C   UNL     1     -12.631  11.214  71.152  1.00  0.00    -0.409 C  
ENDROOT
BRANCH   2   3
HETATM    3  N   UNL     1     -12.411   9.906  71.784  1.00  0.00    -0.390 NA 
BRANCH   3   4
HETATM    4  C   UNL     1     -13.540   9.252  72.463  1.00  0.00    -0.413 C  
BRANCH   4   5
HETATM    5  C   UNL     1     -14.367   8.411  71.475  1.00  0.00    -0.408 C  
HETATM    6  H   UNL     1     -14.759   6.496  71.139  1.00  0.00     0.000 HD 
HETATM    7  O   UNL     1     -14.248   7.016  71.749  1.00  0.00    -0.371 OA 
ENDBRANCH   4   5
ENDBRANCH   3   4
BRANCH   3   8
HETATM    8  C   UNL     1     -11.220   9.226  71.570  1.00  0.00    -0.386 A  
HETATM    9  C   UNL     1      -8.143   9.669  69.373  1.00  0.00    -0.118 C  
HETATM   10  C   UNL     1     -10.840   8.107  72.320  1.00  0.00    -0.388 A  
HETATM   11  C   UNL     1      -9.608   7.465  72.115  1.00  0.00    -0.177 A  
HETATM   12  C   UNL     1     -10.315   9.665  70.596  1.00  0.00    -0.365 A  
HETATM   13  C   UNL     1      -8.693   7.942  71.167  1.00  0.00    -0.136 A  
HETATM   14  C   UNL     1      -9.056   9.064  70.405  1.00  0.00    -0.242 A  
BRANCH  13  15
HETATM   15  N   UNL     1      -7.467   7.298  70.904  1.00  0.00    -0.075 NA 
HETATM   16  H   UNL     1      -6.576   7.791  70.862  1.00  0.00     0.000 HD 
BRANCH  15  17
HETATM   17  N   UNL     1      -7.577   6.067  70.725  1.00  0.00    -0.091 NA 
HETATM   18  H   UNL     1      -7.951   5.431  71.431  1.00  0.00     0.000 HD 
BRANCH  17  19
HETATM   19  C   UNL     1      -7.150   5.652  69.497  1.00  0.00    -0.064 A  
HETATM   20  N   UNL     1      -6.066   4.948  69.204  1.00  0.00    -0.028 NA 
HETATM   21  C   UNL     1      -5.989   4.703  67.846  1.00  0.00    -0.027 A  
HETATM   22  C   UNL     1      -7.020   5.231  67.115  1.00  0.00    -0.065 A  
HETATM   23  N   UNL     1      -7.198   5.133  65.703  1.00  0.00    -0.067 N  
HETATM   24  S   UNL     1      -8.120   6.052  68.112  1.00  0.00    -0.110 SA 
HETATM   25  O   UNL     1      -6.334   4.500  65.081  1.00  0.00    -0.033 OA 
HETATM   26  O   UNL     1      -8.192   5.673  65.200  1.00  0.00    -0.124 OA 
ENDBRANCH  17  19
ENDBRANCH  15  17
ENDBRANCH  13  15
ENDBRANCH   3   8
ENDBRANCH   2   3
TORSDOF 7
ENDMDL
MODEL      192
REMARK 921   NORMALIZED FREE ENERGY PREDICTED BY IDOCK:   -3.63 KCAL/MOL
REMARK 922        TOTAL FREE ENERGY PREDICTED BY IDOCK:   -5.74 KCAL/MOL
REMARK 923 INTER-LIGAND FREE ENERGY PREDICTED BY IDOCK:   -5.19 KCAL/MOL
REMARK 924 INTRA-LIGAND FREE ENERGY PREDICTED BY IDOCK:   -0.55 KCAL/MOL
REMARK 927      BINDING AFFINITY PREDICTED BY RF-SCORE:    0.00 PKD
ROOT
HETATM    1  C   UNL     1     -12.207  12.646  70.648  1.00  0.00    -0.373 C  
HETATM    2  C   UNL     1     -12.427  13.893  69.804  1.00  0.00    -0.188 C  
ENDROOT
BRANCH   2   3
HETATM    3  N   UNL     1     -11.187  14.334  69.152  1.00  0.00    -0.260 NA 
BRANCH   3   4
HETATM    4  C   UNL     1     -10.458  15.477  69.724  1.00  0.00    -0.301 C  
BRANCH   4   5
HETATM    5  C   UNL     1     -11.379  16.332  70.613  1.00  0.00    -0.297 C  
HETATM    6  H   UNL     1     -11.924  16.416  72.517  1.00  0.00     0.000 HD 
HETATM    7  O   UNL     1     -11.356  15.889  71.968  1.00  0.00    -0.343 OA 
ENDBRANCH   4   5
ENDBRANCH   3   4
BRANCH   3   8
HETATM    8  C   UNL     1     -10.623  13.564  68.144  1.00  0.00    -0.245 A  
HETATM    9  C   UNL     1     -11.731  12.191  64.772  1.00  0.00    -0.390 C  
HETATM   10  C   UNL     1      -9.283  13.160  68.157  1.00  0.00    -0.215 A  
HETATM   11  C   UNL     1      -8.725  12.422  67.102  1.00  0.00    -0.195 A  
HETATM   12  C   UNL     1     -11.382  13.185  67.030  1.00  0.00    -0.349 A  
HETATM   13  C   UNL     1      -9.484  12.086  65.974  1.00  0.00    -0.219 A  
HETATM   14  C   UNL     1     -10.830  12.484  65.941  1.00  0.00    -0.302 A  
BRANCH  13  15
HETATM   15  N   UNL     1      -8.970  11.309  64.916  1.00  0.00    -0.381 NA 
HETATM   16  H   UNL     1      -9.533  11.005  64.122  1.00  0.00     0.000 HD 
BRANCH  15  17
HETATM   17  N   UNL     1      -7.759  11.030  65.043  1.00  0.00    -0.312 NA 
HETATM   18  H   UNL     1      -7.075  11.678  65.433  1.00  0.00     0.000 HD 
BRANCH  17  19
HETATM   19  C   UNL     1      -7.440   9.776  64.609  1.00  0.00    -0.134 A  
HETATM   20  N   UNL     1      -6.469   9.420  63.780  1.00  0.00    -0.092 NA 
HETATM   21  C   UNL     1      -6.447   8.050  63.603  1.00  0.00    -0.071 A  
HETATM   22  C   UNL     1      -7.412   7.373  64.302  1.00  0.00    -0.098 A  
HETATM   23  N   UNL     1      -7.623   5.962  64.309  1.00  0.00    -0.081 N  
HETATM   24  S   UNL     1      -8.376   8.438  65.204  1.00  0.00    -0.154 SA 
HETATM   25  O   UNL     1      -6.849   5.285  63.618  1.00  0.00    -0.043 OA 
HETATM   26  O   UNL     1      -8.547   5.512  64.999  1.00  0.00    -0.149 OA 
ENDBRANCH  17  19
ENDBRANCH  15  17
ENDBRANCH  13  15
ENDBRANCH   3   8
ENDBRANCH   2   3
TORSDOF 7
ENDMDL
MODEL      193
REMARK 921   NORMALIZED FREE ENERGY PREDICTED BY IDOCK:   -3.63 KCAL/MOL
REMARK 922        TOTAL FREE ENERGY PREDICTED BY IDOCK:   -5.74 KCAL/MOL
REMARK 923 INTER-LIGAND FREE ENERGY PREDICTED BY IDOCK:   -5.25 KCAL/MOL
REMARK 924 INTRA-LIGAND FREE ENERGY PREDICTED BY IDOCK:   -0.48 KCAL/MOL
REMARK 927      BINDING AFFINITY PREDICTED BY RF-SCORE:    0.00 PKD
ROOT
HETATM    1  C   UNL     1     -11.144   6.276  68.790  1.00  0.00    -0.424 C  
HETATM    2  C   UNL     1      -9.834   6.836  69.324  1.00  0.00    -0.155 C  
ENDROOT
BRANCH   2   3
HETATM    3  N   UNL     1      -8.852   7.040  68.250  1.00  0.00    -0.127 NA 
BRANCH   3   4
HETATM    4  C   UNL     1      -8.076   5.883  67.777  1.00  0.00    -0.105 C  
BRANCH   4   5
HETATM    5  C   UNL     1      -7.565   5.038  68.958  1.00  0.00    -0.072 C  
HETATM    6  H   UNL     1      -5.831   4.377  69.655  1.00  0.00     0.000 HD 
HETATM    7  O   UNL     1      -6.146   4.898  68.926  1.00  0.00    -0.027 OA 
ENDBRANCH   4   5
ENDBRANCH   3   4
BRANCH   3   8
HETATM    8  C   UNL     1      -8.807   8.251  67.573  1.00  0.00    -0.135 A  
HETATM    9  C   UNL     1      -8.791   9.382  63.939  1.00  0.00    -0.205 C  
HETATM   10  C   UNL     1      -8.855   9.487  68.226  1.00  0.00    -0.124 A  
HETATM   11  C   UNL     1      -8.855  10.698  67.515  1.00  0.00    -0.132 A  
HETATM   12  C   UNL     1      -8.748   8.281  66.175  1.00  0.00    -0.174 A  
HETATM   13  C   UNL     1      -8.840  10.713  66.114  1.00  0.00    -0.168 A  
HETATM   14  C   UNL     1      -8.793   9.482  65.441  1.00  0.00    -0.213 A  
BRANCH  13  15
HETATM   15  N   UNL     1      -8.796  11.908  65.368  1.00  0.00    -0.360 NA 
HETATM   16  H   UNL     1      -7.931  12.407  65.164  1.00  0.00     0.000 HD 
BRANCH  15  17
HETATM   17  N   UNL     1      -9.918  12.297  64.980  1.00  0.00    -0.380 NA 
HETATM   18  H   UNL     1     -10.295  12.083  64.056  1.00  0.00     0.000 HD 
BRANCH  17  19
HETATM   19  C   UNL     1     -10.592  13.035  65.910  1.00  0.00    -0.275 A  
HETATM   20  N   UNL     1     -11.814  12.835  66.382  1.00  0.00    -0.402 NA 
HETATM   21  C   UNL     1     -12.137  13.784  67.334  1.00  0.00    -0.343 A  
HETATM   22  C   UNL     1     -11.151  14.705  67.573  1.00  0.00    -0.313 A  
HETATM   23  N   UNL     1     -11.209  15.790  68.498  1.00  0.00    -0.335 N  
HETATM   24  S   UNL     1      -9.787  14.406  66.611  1.00  0.00    -0.289 SA 
HETATM   25  O   UNL     1     -12.254  15.901  69.153  1.00  0.00    -0.264 OA 
HETATM   26  O   UNL     1     -10.223  16.533  68.589  1.00  0.00    -0.235 OA 
ENDBRANCH  17  19
ENDBRANCH  15  17
ENDBRANCH  13  15
ENDBRANCH   3   8
ENDBRANCH   2   3
TORSDOF 7
ENDMDL
MODEL      194
REMARK 921   NORMALIZED FREE ENERGY PREDICTED BY IDOCK:   -3.58 KCAL/MOL
REMARK 922        TOTAL FREE ENERGY PREDICTED BY IDOCK:   -5.68 KCAL/MOL
REMARK 923 INTER-LIGAND FREE ENERGY PREDICTED BY IDOCK:   -5.21 KCAL/MOL
REMARK 924 INTRA-LIGAND FREE ENERGY PREDICTED BY IDOCK:   -0.47 KCAL/MOL
REMARK 927      BINDING AFFINITY PREDICTED BY RF-SCORE:    0.00 PKD
ROOT
HETATM    1  C   UNL     1      -5.841  10.316  68.764  1.00  0.00    -0.041 C  
HETATM    2  C   UNL     1      -7.091   9.462  68.913  1.00  0.00    -0.068 C  
ENDROOT
BRANCH   2   3
HETATM    3  N   UNL     1      -7.845   9.377  67.656  1.00  0.00    -0.095 NA 
BRANCH   3   4
HETATM    4  C   UNL     1      -7.891   8.089  66.947  1.00  0.00    -0.103 C  
BRANCH   4   5
HETATM    5  C   UNL     1      -6.650   7.903  66.055  1.00  0.00    -0.049 C  
HETATM    6  H   UNL     1      -6.218   7.878  64.121  1.00  0.00     0.000 HD 
HETATM    7  O   UNL     1      -6.983   7.992  64.671  1.00  0.00    -0.068 OA 
ENDBRANCH   4   5
ENDBRANCH   3   4
BRANCH   3   8
HETATM    8  C   UNL     1      -8.651  10.435  67.260  1.00  0.00    -0.126 A  
HETATM    9  C   UNL     1     -10.877  11.245  64.280  1.00  0.00    -0.398 C  
HETATM   10  C   UNL     1      -8.896  11.548  68.072  1.00  0.00    -0.158 A  
HETATM   11  C   UNL     1      -9.754  12.583  67.666  1.00  0.00    -0.196 A  
HETATM   12  C   UNL     1      -9.296  10.411  66.017  1.00  0.00    -0.219 A  
HETATM   13  C   UNL     1     -10.426  12.525  66.438  1.00  0.00    -0.247 A  
HETATM   14  C   UNL     1     -10.194  11.416  65.610  1.00  0.00    -0.298 A  
BRANCH  13  15
HETATM   15  N   UNL     1     -11.260  13.565  65.979  1.00  0.00    -0.294 NA 
HETATM   16  H   UNL     1     -11.545  13.663  65.005  1.00  0.00     0.000 HD 
BRANCH  15  17
HETATM   17  N   UNL     1     -11.617  14.354  66.879  1.00  0.00    -0.373 NA 
HETATM   18  H   UNL     1     -12.230  14.084  67.648  1.00  0.00     0.000 HD 
BRANCH  17  19
HETATM   19  C   UNL     1     -11.108  15.613  66.735  1.00  0.00    -0.169 A  
HETATM   20  N   UNL     1     -10.659  16.191  65.631  1.00  0.00    -0.369 NA 
HETATM   21  C   UNL     1     -10.247  17.486  65.885  1.00  0.00    -0.242 A  
HETATM   22  C   UNL     1     -10.384  17.880  67.190  1.00  0.00    -0.367 A  
HETATM   23  N   UNL     1     -10.042  19.154  67.733  1.00  0.00    -0.360 N  
HETATM   24  S   UNL     1     -11.037  16.635  68.139  1.00  0.00    -0.198 SA 
HETATM   25  O   UNL     1      -9.583  19.986  66.939  1.00  0.00    -0.359 OA 
HETATM   26  O   UNL     1     -10.231  19.343  68.942  1.00  0.00    -0.410 OA 
ENDBRANCH  17  19
ENDBRANCH  15  17
ENDBRANCH  13  15
ENDBRANCH   3   8
ENDBRANCH   2   3
TORSDOF 7
ENDMDL
MODEL      195
REMARK 921   NORMALIZED FREE ENERGY PREDICTED BY IDOCK:   -3.56 KCAL/MOL
REMARK 922        TOTAL FREE ENERGY PREDICTED BY IDOCK:   -5.65 KCAL/MOL
REMARK 923 INTER-LIGAND FREE ENERGY PREDICTED BY IDOCK:   -4.96 KCAL/MOL
REMARK 924 INTRA-LIGAND FREE ENERGY PREDICTED BY IDOCK:   -0.68 KCAL/MOL
REMARK 927      BINDING AFFINITY PREDICTED BY RF-SCORE:    0.00 PKD
ROOT
HETATM    1  C   UNL     1      -5.918   3.902  63.893  1.00  0.00    -0.014 C  
HETATM    2  C   UNL     1      -6.910   4.095  65.031  1.00  0.00    -0.050 C  
ENDROOT
BRANCH   2   3
HETATM    3  N   UNL     1      -8.044   4.936  64.626  1.00  0.00    -0.105 NA 
BRANCH   3   4
HETATM    4  C   UNL     1      -8.812   4.557  63.430  1.00  0.00    -0.132 C  
BRANCH   4   5
HETATM    5  C   UNL     1      -9.770   3.391  63.734  1.00  0.00    -0.145 C  
HETATM    6  H   UNL     1     -11.723   3.099  63.913  1.00  0.00     0.000 HD 
HETATM    7  O   UNL     1     -11.131   3.818  63.726  1.00  0.00    -0.278 OA 
ENDBRANCH   4   5
ENDBRANCH   3   4
BRANCH   3   8
HETATM    8  C   UNL     1      -8.493   5.945  65.468  1.00  0.00    -0.154 A  
HETATM    9  C   UNL     1      -7.497   9.534  66.250  1.00  0.00    -0.097 C  
HETATM   10  C   UNL     1      -9.646   5.823  66.251  1.00  0.00    -0.159 A  
HETATM   11  C   UNL     1     -10.104   6.876  67.059  1.00  0.00    -0.287 A  
HETATM   12  C   UNL     1      -7.812   7.166  65.539  1.00  0.00    -0.115 A  
HETATM   13  C   UNL     1      -9.438   8.108  67.087  1.00  0.00    -0.161 A  
HETATM   14  C   UNL     1      -8.280   8.250  66.307  1.00  0.00    -0.112 A  
BRANCH  13  15
HETATM   15  N   UNL     1      -9.844   9.172  67.917  1.00  0.00    -0.162 NA 
HETATM   16  H   UNL     1      -9.211   9.655  68.555  1.00  0.00     0.000 HD 
BRANCH  15  17
HETATM   17  N   UNL     1     -11.052   9.467  67.799  1.00  0.00    -0.494 NA 
HETATM   18  H   UNL     1     -11.793   8.769  67.731  1.00  0.00     0.000 HD 
BRANCH  17  19
HETATM   19  C   UNL     1     -11.286  10.811  67.769  1.00  0.00    -0.316 A  
HETATM   20  N   UNL     1     -11.919  11.551  68.667  1.00  0.00    -0.488 NA 
HETATM   21  C   UNL     1     -11.931  12.881  68.293  1.00  0.00    -0.254 A  
HETATM   22  C   UNL     1     -11.305  13.141  67.102  1.00  0.00    -0.316 A  
HETATM   23  N   UNL     1     -11.165  14.415  66.476  1.00  0.00    -0.332 N  
HETATM   24  S   UNL     1     -10.681  11.720  66.416  1.00  0.00    -0.277 SA 
HETATM   25  O   UNL     1     -11.653  15.381  67.077  1.00  0.00    -0.194 OA 
HETATM   26  O   UNL     1     -10.567  14.471  65.393  1.00  0.00    -0.322 OA 
ENDBRANCH  17  19
ENDBRANCH  15  17
ENDBRANCH  13  15
ENDBRANCH   3   8
ENDBRANCH   2   3
TORSDOF 7
ENDMDL
MODEL      196
REMARK 921   NORMALIZED FREE ENERGY PREDICTED BY IDOCK:   -3.54 KCAL/MOL
REMARK 922        TOTAL FREE ENERGY PREDICTED BY IDOCK:   -5.62 KCAL/MOL
REMARK 923 INTER-LIGAND FREE ENERGY PREDICTED BY IDOCK:   -4.98 KCAL/MOL
REMARK 924 INTRA-LIGAND FREE ENERGY PREDICTED BY IDOCK:   -0.64 KCAL/MOL
REMARK 927      BINDING AFFINITY PREDICTED BY RF-SCORE:    0.00 PKD
ROOT
HETATM    1  C   UNL     1      -8.226   7.856  62.896  1.00  0.00    -0.067 C  
HETATM    2  C   UNL     1      -7.369   8.245  64.091  1.00  0.00    -0.098 C  
ENDROOT
BRANCH   2   3
HETATM    3  N   UNL     1      -8.166   8.884  65.146  1.00  0.00    -0.133 NA 
BRANCH   3   4
HETATM    4  C   UNL     1      -8.905  10.115  64.825  1.00  0.00    -0.195 C  
BRANCH   4   5
HETATM    5  C   UNL     1     -10.035  10.363  65.839  1.00  0.00    -0.255 C  
HETATM    6  H   UNL     1     -10.527  11.727  67.191  1.00  0.00     0.000 HD 
HETATM    7  O   UNL     1      -9.830  11.574  66.564  1.00  0.00    -0.195 OA 
ENDBRANCH   4   5
ENDBRANCH   3   4
BRANCH   3   8
HETATM    8  C   UNL     1      -8.368   8.229  66.353  1.00  0.00    -0.117 A  
HETATM    9  C   UNL     1     -10.441   5.282  67.582  1.00  0.00    -0.176 C  
HETATM   10  C   UNL     1      -7.652   8.540  67.515  1.00  0.00    -0.098 A  
HETATM   11  C   UNL     1      -7.843   7.830  68.711  1.00  0.00    -0.123 A  
HETATM   12  C   UNL     1      -9.293   7.181  66.447  1.00  0.00    -0.190 A  
HETATM   13  C   UNL     1      -8.739   6.756  68.779  1.00  0.00    -0.125 A  
HETATM   14  C   UNL     1      -9.466   6.427  67.624  1.00  0.00    -0.120 A  
BRANCH  13  15
HETATM   15  N   UNL     1      -8.988   6.049  69.973  1.00  0.00    -0.144 NA 
HETATM   16  H   UNL     1      -9.092   5.035  70.010  1.00  0.00     0.000 HD 
BRANCH  15  17
HETATM   17  N   UNL     1      -9.070   6.782  70.981  1.00  0.00    -0.155 NA 
HETATM   18  H   UNL     1      -8.260   7.065  71.533  1.00  0.00     0.000 HD 
BRANCH  17  19
HETATM   19  C   UNL     1     -10.346   7.168  71.274  1.00  0.00    -0.198 A  
HETATM   20  N   UNL     1     -11.410   6.400  71.458  1.00  0.00    -0.282 NA 
HETATM   21  C   UNL     1     -12.522   7.162  71.763  1.00  0.00    -0.350 A  
HETATM   22  C   UNL     1     -12.291   8.512  71.803  1.00  0.00    -0.338 A  
HETATM   23  N   UNL     1     -13.249   9.530  72.090  1.00  0.00    -0.435 N  
HETATM   24  S   UNL     1     -10.668   8.866  71.459  1.00  0.00    -0.353 SA 
HETATM   25  O   UNL     1     -14.401   9.149  72.336  1.00  0.00    -0.463 OA 
HETATM   26  O   UNL     1     -12.869  10.708  72.084  1.00  0.00    -0.371 OA 
ENDBRANCH  17  19
ENDBRANCH  15  17
ENDBRANCH  13  15
ENDBRANCH   3   8
ENDBRANCH   2   3
TORSDOF 7
ENDMDL
MODEL      197
REMARK 921   NORMALIZED FREE ENERGY PREDICTED BY IDOCK:   -3.54 KCAL/MOL
REMARK 922        TOTAL FREE ENERGY PREDICTED BY IDOCK:   -5.61 KCAL/MOL
REMARK 923 INTER-LIGAND FREE ENERGY PREDICTED BY IDOCK:   -4.98 KCAL/MOL
REMARK 924 INTRA-LIGAND FREE ENERGY PREDICTED BY IDOCK:   -0.63 KCAL/MOL
REMARK 927      BINDING AFFINITY PREDICTED BY RF-SCORE:    0.00 PKD
ROOT
HETATM    1  C   UNL     1     -14.085  13.406  72.156  1.00  0.00    -0.441 C  
HETATM    2  C   UNL     1     -12.586  13.160  72.076  1.00  0.00     0.047 C  
ENDROOT
BRANCH   2   3
HETATM    3  N   UNL     1     -12.187  12.658  70.754  1.00  0.00    -0.331 NA 
BRANCH   3   4
HETATM    4  C   UNL     1     -12.005  13.623  69.659  1.00  0.00    -0.343 C  
BRANCH   4   5
HETATM    5  C   UNL     1     -11.241  14.869  70.141  1.00  0.00    -0.239 C  
HETATM    6  H   UNL     1      -9.612  15.883  69.641  1.00  0.00     0.000 HD 
HETATM    7  O   UNL     1     -10.084  15.114  69.344  1.00  0.00    -0.234 OA 
ENDBRANCH   4   5
ENDBRANCH   3   4
BRANCH   3   8
HETATM    8  C   UNL     1     -11.802  11.332  70.604  1.00  0.00    -0.267 A  
HETATM    9  C   UNL     1     -11.647   8.236  72.812  1.00  0.00    -0.326 C  
HETATM   10  C   UNL     1     -11.417  10.789  69.373  1.00  0.00    -0.366 A  
HETATM   11  C   UNL     1     -11.078   9.433  69.240  1.00  0.00    -0.068 A  
HETATM   12  C   UNL     1     -11.820  10.459  71.698  1.00  0.00    -0.041 A  
HETATM   13  C   UNL     1     -11.143   8.560  70.333  1.00  0.00    -0.231 A  
HETATM   14  C   UNL     1     -11.528   9.087  71.576  1.00  0.00    -0.407 A  
BRANCH  13  15
HETATM   15  N   UNL     1     -10.768   7.204  70.246  1.00  0.00    -0.231 NA 
HETATM   16  H   UNL     1     -10.292   6.707  70.999  1.00  0.00     0.000 HD 
BRANCH  15  17
HETATM   17  N   UNL     1     -11.075   6.669  69.160  1.00  0.00    -0.448 NA 
HETATM   18  H   UNL     1     -11.771   7.058  68.523  1.00  0.00     0.000 HD 
BRANCH  17  19
HETATM   19  C   UNL     1     -10.390   5.516  68.906  1.00  0.00    -0.218 A  
HETATM   20  N   UNL     1     -10.150   4.949  67.733  1.00  0.00    -0.131 NA 
HETATM   21  C   UNL     1      -9.400   3.799  67.884  1.00  0.00    -0.186 A  
HETATM   22  C   UNL     1      -9.078   3.498  69.181  1.00  0.00    -0.140 A  
HETATM   23  N   UNL     1      -8.316   2.378  69.630  1.00  0.00    -0.044 N  
HETATM   24  S   UNL     1      -9.708   4.653  70.252  1.00  0.00    -0.241 SA 
HETATM   25  O   UNL     1      -7.900   1.608  68.754  1.00  0.00    -0.046 OA 
HETATM   26  O   UNL     1      -8.118   2.256  70.846  1.00  0.00    -0.048 OA 
ENDBRANCH  17  19
ENDBRANCH  15  17
ENDBRANCH  13  15
ENDBRANCH   3   8
ENDBRANCH   2   3
TORSDOF 7
ENDMDL
MODEL      198
REMARK 921   NORMALIZED FREE ENERGY PREDICTED BY IDOCK:   -3.52 KCAL/MOL
REMARK 922        TOTAL FREE ENERGY PREDICTED BY IDOCK:   -5.59 KCAL/MOL
REMARK 923 INTER-LIGAND FREE ENERGY PREDICTED BY IDOCK:   -4.77 KCAL/MOL
REMARK 924 INTRA-LIGAND FREE ENERGY PREDICTED BY IDOCK:   -0.82 KCAL/MOL
REMARK 927      BINDING AFFINITY PREDICTED BY RF-SCORE:    0.00 PKD
ROOT
HETATM    1  C   UNL     1     -12.515   8.882  71.712  1.00  0.00    -0.425 C  
HETATM    2  C   UNL     1     -11.098   8.360  71.900  1.00  0.00    -0.308 C  
ENDROOT
BRANCH   2   3
HETATM    3  N   UNL     1     -10.514   7.903  70.632  1.00  0.00    -0.211 NA 
BRANCH   3   4
HETATM    4  C   UNL     1     -10.684   6.494  70.245  1.00  0.00    -0.255 C  
BRANCH   4   5
HETATM    5  C   UNL     1      -9.940   5.560  71.216  1.00  0.00    -0.192 C  
HETATM    6  H   UNL     1     -10.307   3.897  72.232  1.00  0.00     0.000 HD 
HETATM    7  O   UNL     1     -10.765   4.474  71.633  1.00  0.00    -0.001 OA 
ENDBRANCH   4   5
ENDBRANCH   3   4
BRANCH   3   8
HETATM    8  C   UNL     1      -9.990   8.827  69.739  1.00  0.00    -0.190 A  
HETATM    9  C   UNL     1      -6.881  11.014  69.535  1.00  0.00    -0.133 C  
HETATM   10  C   UNL     1     -10.576   9.099  68.497  1.00  0.00    -0.209 A  
HETATM   11  C   UNL     1      -9.999  10.004  67.592  1.00  0.00    -0.214 A  
HETATM   12  C   UNL     1      -8.806   9.512  70.038  1.00  0.00    -0.246 A  
HETATM   13  C   UNL     1      -8.791  10.649  67.885  1.00  0.00    -0.131 A  
HETATM   14  C   UNL     1      -8.187  10.389  69.126  1.00  0.00    -0.157 A  
BRANCH  13  15
HETATM   15  N   UNL     1      -8.205  11.596  67.020  1.00  0.00    -0.164 NA 
HETATM   16  H   UNL     1      -7.271  11.489  66.626  1.00  0.00     0.000 HD 
BRANCH  15  17
HETATM   17  N   UNL     1      -8.940  12.578  66.783  1.00  0.00    -0.242 NA 
HETATM   18  H   UNL     1      -9.806  12.512  66.247  1.00  0.00     0.000 HD 
BRANCH  17  19
HETATM   19  C   UNL     1      -8.473  13.748  67.309  1.00  0.00    -0.194 A  
HETATM   20  N   UNL     1      -7.217  14.092  67.551  1.00  0.00    -0.179 NA 
HETATM   21  C   UNL     1      -7.145  15.373  68.063  1.00  0.00    -0.125 A  
HETATM   22  C   UNL     1      -8.358  15.994  68.210  1.00  0.00    -0.164 A  
HETATM   23  N   UNL     1      -8.583  17.310  68.712  1.00  0.00    -0.261 N  
HETATM   24  S   UNL     1      -9.626  14.986  67.708  1.00  0.00    -0.203 SA 
HETATM   25  O   UNL     1      -7.578  17.956  69.038  1.00  0.00    -0.243 OA 
HETATM   26  O   UNL     1      -9.750  17.718  68.780  1.00  0.00    -0.319 OA 
ENDBRANCH  17  19
ENDBRANCH  15  17
ENDBRANCH  13  15
ENDBRANCH   3   8
ENDBRANCH   2   3
TORSDOF 7
ENDMDL
MODEL      199
REMARK 921   NORMALIZED FREE ENERGY PREDICTED BY IDOCK:   -3.50 KCAL/MOL
REMARK 922        TOTAL FREE ENERGY PREDICTED BY IDOCK:   -5.56 KCAL/MOL
REMARK 923 INTER-LIGAND FREE ENERGY PREDICTED BY IDOCK:   -4.89 KCAL/MOL
REMARK 924 INTRA-LIGAND FREE ENERGY PREDICTED BY IDOCK:   -0.67 KCAL/MOL
REMARK 927      BINDING AFFINITY PREDICTED BY RF-SCORE:    0.00 PKD
ROOT
HETATM    1  C   UNL     1      -9.167   7.622  73.668  1.00  0.00    -0.339 C  
HETATM    2  C   UNL     1     -10.533   6.953  73.635  1.00  0.00    -0.369 C  
ENDROOT
BRANCH   2   3
HETATM    3  N   UNL     1     -11.059   6.855  72.268  1.00  0.00    -0.241 NA 
BRANCH   3   4
HETATM    4  C   UNL     1     -12.004   7.881  71.801  1.00  0.00    -0.298 C  
BRANCH   4   5
HETATM    5  C   UNL     1     -13.441   7.333  71.762  1.00  0.00    -0.300 C  
HETATM    6  H   UNL     1     -15.287   8.022  71.982  1.00  0.00     0.000 HD 
HETATM    7  O   UNL     1     -14.400   8.360  72.006  1.00  0.00    -0.433 OA 
ENDBRANCH   4   5
ENDBRANCH   3   4
BRANCH   3   8
HETATM    8  C   UNL     1     -10.521   5.930  71.384  1.00  0.00    -0.236 A  
HETATM    9  C   UNL     1      -9.502   2.264  71.505  1.00  0.00    -0.204 C  
HETATM   10  C   UNL     1     -10.302   6.212  70.030  1.00  0.00    -0.267 A  
HETATM   11  C   UNL     1      -9.800   5.243  69.147  1.00  0.00    -0.257 A  
HETATM   12  C   UNL     1     -10.205   4.635  71.814  1.00  0.00    -0.242 A  
HETATM   13  C   UNL     1      -9.529   3.939  69.582  1.00  0.00    -0.193 A  
HETATM   14  C   UNL     1      -9.744   3.636  70.935  1.00  0.00    -0.229 A  
BRANCH  13  15
HETATM   15  N   UNL     1      -8.985   2.953  68.734  1.00  0.00    -0.117 NA 
HETATM   16  H   UNL     1      -8.123   2.451  68.944  1.00  0.00     0.000 HD 
BRANCH  15  17
HETATM   17  N   UNL     1      -9.659   2.754  67.702  1.00  0.00    -0.357 NA 
HETATM   18  H   UNL     1     -10.641   2.477  67.720  1.00  0.00     0.000 HD 
BRANCH  17  19
HETATM   19  C   UNL     1      -8.957   2.942  66.546  1.00  0.00    -0.152 A  
HETATM   20  N   UNL     1      -7.789   2.418  66.205  1.00  0.00    -0.079 NA 
HETATM   21  C   UNL     1      -7.414   2.827  64.939  1.00  0.00    -0.071 A  
HETATM   22  C   UNL     1      -8.307   3.668  64.328  1.00  0.00    -0.090 A  
HETATM   23  N   UNL     1      -8.180   4.242  63.028  1.00  0.00    -0.082 N  
HETATM   24  S   UNL     1      -9.645   3.969  65.325  1.00  0.00    -0.196 SA 
HETATM   25  O   UNL     1      -7.162   3.940  62.389  1.00  0.00    -0.035 OA 
HETATM   26  O   UNL     1      -9.084   4.986  62.627  1.00  0.00    -0.103 OA 
ENDBRANCH  17  19
ENDBRANCH  15  17
ENDBRANCH  13  15
ENDBRANCH   3   8
ENDBRANCH   2   3
TORSDOF 7
ENDMDL
MODEL      200
REMARK 921   NORMALIZED FREE ENERGY PREDICTED BY IDOCK:   -3.49 KCAL/MOL
REMARK 922        TOTAL FREE ENERGY PREDICTED BY IDOCK:   -5.55 KCAL/MOL
REMARK 923 INTER-LIGAND FREE ENERGY PREDICTED BY IDOCK:   -5.58 KCAL/MOL
REMARK 924 INTRA-LIGAND FREE ENERGY PREDICTED BY IDOCK:    0.03 KCAL/MOL
REMARK 927      BINDING AFFINITY PREDICTED BY RF-SCORE:    0.00 PKD
ROOT
HETATM    1  C   UNL     1     -10.402  13.136  68.229  1.00  0.00    -0.256 C  
HETATM    2  C   UNL     1     -11.787  13.062  67.604  1.00  0.00    -0.351 C  
ENDROOT
BRANCH   2   3
HETATM    3  N   UNL     1     -11.771  12.323  66.334  1.00  0.00    -0.526 NA 
BRANCH   3   4
HETATM    4  C   UNL     1     -12.477  12.896  65.178  1.00  0.00    -0.501 C  
BRANCH   4   5
HETATM    5  C   UNL     1     -11.929  14.291  64.829  1.00  0.00    -0.440 C  
HETATM    6  H   UNL     1     -12.122  15.629  63.379  1.00  0.00     0.000 HD 
HETATM    7  O   UNL     1     -12.460  14.769  63.595  1.00  0.00    -0.726 OA 
ENDBRANCH   4   5
ENDBRANCH   3   4
BRANCH   3   8
HETATM    8  C   UNL     1     -10.946  11.217  66.187  1.00  0.00    -0.191 A  
HETATM    9  C   UNL     1      -8.014  10.238  63.965  1.00  0.00    -0.126 C  
HETATM   10  C   UNL     1     -11.004  10.108  67.037  1.00  0.00    -0.162 A  
HETATM   11  C   UNL     1     -10.126   9.022  66.895  1.00  0.00    -0.338 A  
HETATM   12  C   UNL     1      -9.974  11.185  65.178  1.00  0.00    -0.323 A  
HETATM   13  C   UNL     1      -9.130   9.022  65.909  1.00  0.00    -0.212 A  
HETATM   14  C   UNL     1      -9.055  10.127  65.047  1.00  0.00    -0.245 A  
BRANCH  13  15
HETATM   15  N   UNL     1      -8.259   7.932  65.709  1.00  0.00    -0.123 NA 
HETATM   16  H   UNL     1      -7.612   7.596  66.422  1.00  0.00     0.000 HD 
BRANCH  15  17
HETATM   17  N   UNL     1      -8.356   7.416  64.575  1.00  0.00    -0.352 NA 
HETATM   18  H   UNL     1      -8.556   7.954  63.732  1.00  0.00     0.000 HD 
BRANCH  17  19
HETATM   19  C   UNL     1      -8.171   6.064  64.573  1.00  0.00    -0.095 A  
HETATM   20  N   UNL     1      -7.381   5.349  63.784  1.00  0.00    -0.050 NA 
HETATM   21  C   UNL     1      -7.446   4.006  64.106  1.00  0.00    -0.070 A  
HETATM   22  C   UNL     1      -8.294   3.711  65.140  1.00  0.00    -0.097 A  
HETATM   23  N   UNL     1      -8.557   2.418  65.681  1.00  0.00    -0.109 N  
HETATM   24  S   UNL     1      -9.036   5.113  65.742  1.00  0.00    -0.155 SA 
HETATM   25  O   UNL     1      -7.948   1.471  65.166  1.00  0.00    -0.070 OA 
HETATM   26  O   UNL     1      -9.357   2.329  66.622  1.00  0.00    -0.060 OA 
ENDBRANCH  17  19
ENDBRANCH  15  17
ENDBRANCH  13  15
ENDBRANCH   3   8
ENDBRANCH   2   3
TORSDOF 7
ENDMDL
MODEL      201
REMARK 921   NORMALIZED FREE ENERGY PREDICTED BY IDOCK:   -3.48 KCAL/MOL
REMARK 922        TOTAL FREE ENERGY PREDICTED BY IDOCK:   -5.53 KCAL/MOL
REMARK 923 INTER-LIGAND FREE ENERGY PREDICTED BY IDOCK:   -5.04 KCAL/MOL
REMARK 924 INTRA-LIGAND FREE ENERGY PREDICTED BY IDOCK:   -0.50 KCAL/MOL
REMARK 927      BINDING AFFINITY PREDICTED BY RF-SCORE:    0.00 PKD
ROOT
HETATM    1  C   UNL     1      -7.450   8.947  62.397  1.00  0.00    -0.103 C  
HETATM    2  C   UNL     1      -7.437  10.195  63.268  1.00  0.00    -0.139 C  
ENDROOT
BRANCH   2   3
HETATM    3  N   UNL     1      -8.594  10.239  64.172  1.00  0.00    -0.183 NA 
BRANCH   3   4
HETATM    4  C   UNL     1      -9.927  10.480  63.599  1.00  0.00    -0.234 C  
BRANCH   4   5
HETATM    5  C   UNL     1     -10.121  11.967  63.254  1.00  0.00    -0.396 C  
HETATM    6  H   UNL     1     -10.645  13.638  64.183  1.00  0.00     0.000 HD 
HETATM    7  O   UNL     1     -10.525  12.720  64.395  1.00  0.00    -0.346 OA 
ENDBRANCH   4   5
ENDBRANCH   3   4
BRANCH   3   8
HETATM    8  C   UNL     1      -8.448   9.866  65.501  1.00  0.00    -0.140 A  
HETATM    9  C   UNL     1      -7.516  11.588  68.765  1.00  0.00    -0.119 C  
HETATM   10  C   UNL     1      -8.757   8.583  65.968  1.00  0.00    -0.188 A  
HETATM   11  C   UNL     1      -8.645   8.246  67.326  1.00  0.00    -0.124 A  
HETATM   12  C   UNL     1      -8.011  10.793  66.455  1.00  0.00    -0.144 A  
HETATM   13  C   UNL     1      -8.249   9.195  68.276  1.00  0.00    -0.116 A  
HETATM   14  C   UNL     1      -7.936  10.488  67.828  1.00  0.00    -0.106 A  
BRANCH  13  15
HETATM   15  N   UNL     1      -8.084   8.881  69.641  1.00  0.00    -0.101 NA 
HETATM   16  H   UNL     1      -7.727   9.545  70.327  1.00  0.00     0.000 HD 
BRANCH  15  17
HETATM   17  N   UNL     1      -8.417   7.712  69.929  1.00  0.00    -0.135 NA 
HETATM   18  H   UNL     1      -7.767   6.926  69.911  1.00  0.00     0.000 HD 
BRANCH  17  19
HETATM   19  C   UNL     1      -9.733   7.587  70.269  1.00  0.00    -0.179 A  
HETATM   20  N   UNL     1     -10.552   6.579  70.008  1.00  0.00    -0.213 NA 
HETATM   21  C   UNL     1     -11.806   6.810  70.542  1.00  0.00    -0.362 A  
HETATM   22  C   UNL     1     -11.929   8.003  71.205  1.00  0.00    -0.277 A  
HETATM   23  N   UNL     1     -13.100   8.499  71.851  1.00  0.00    -0.346 N  
HETATM   24  S   UNL     1     -10.472   8.871  71.179  1.00  0.00    -0.294 SA 
HETATM   25  O   UNL     1     -14.101   7.771  71.812  1.00  0.00    -0.391 OA 
HETATM   26  O   UNL     1     -13.038   9.604  72.406  1.00  0.00    -0.403 OA 
ENDBRANCH  17  19
ENDBRANCH  15  17
ENDBRANCH  13  15
ENDBRANCH   3   8
ENDBRANCH   2   3
TORSDOF 7
ENDMDL
MODEL      202
REMARK 921   NORMALIZED FREE ENERGY PREDICTED BY IDOCK:   -3.46 KCAL/MOL
REMARK 922        TOTAL FREE ENERGY PREDICTED BY IDOCK:   -5.50 KCAL/MOL
REMARK 923 INTER-LIGAND FREE ENERGY PREDICTED BY IDOCK:   -5.06 KCAL/MOL
REMARK 924 INTRA-LIGAND FREE ENERGY PREDICTED BY IDOCK:   -0.44 KCAL/MOL
REMARK 927      BINDING AFFINITY PREDICTED BY RF-SCORE:    0.00 PKD
ROOT
HETATM    1  C   UNL     1     -10.753  15.691  71.386  1.00  0.00     0.230 C  
HETATM    2  C   UNL     1     -12.231  15.804  71.040  1.00  0.00    -0.418 C  
ENDROOT
BRANCH   2   3
HETATM    3  N   UNL     1     -12.757  14.549  70.486  1.00  0.00    -0.353 NA 
BRANCH   3   4
HETATM    4  C   UNL     1     -13.919  13.924  71.138  1.00  0.00     0.143 C  
BRANCH   4   5
HETATM    5  C   UNL     1     -13.495  13.140  72.392  1.00  0.00    -0.543 C  
HETATM    6  H   UNL     1     -12.929  11.297  72.855  1.00  0.00     0.000 HD 
HETATM    7  O   UNL     1     -13.191  11.782  72.081  1.00  0.00    -0.498 OA 
ENDBRANCH   4   5
ENDBRANCH   3   4
BRANCH   3   8
HETATM    8  C   UNL     1     -12.289  14.081  69.266  1.00  0.00    -0.171 A  
HETATM    9  C   UNL     1     -10.866  15.609  66.084  1.00  0.00    -0.264 C  
HETATM   10  C   UNL     1     -12.156  12.718  68.977  1.00  0.00    -0.188 A  
HETATM   11  C   UNL     1     -11.636  12.271  67.752  1.00  0.00    -0.416 A  
HETATM   12  C   UNL     1     -11.888  14.976  68.268  1.00  0.00    -0.295 A  
HETATM   13  C   UNL     1     -11.197  13.178  66.779  1.00  0.00    -0.299 A  
HETATM   14  C   UNL     1     -11.321  14.550  67.051  1.00  0.00    -0.359 A  
BRANCH  13  15
HETATM   15  N   UNL     1     -10.710  12.767  65.522  1.00  0.00    -0.273 NA 
HETATM   16  H   UNL     1     -11.287  12.740  64.681  1.00  0.00     0.000 HD 
BRANCH  15  17
HETATM   17  N   UNL     1      -9.505  12.439  65.535  1.00  0.00    -0.439 NA 
HETATM   18  H   UNL     1      -8.747  13.102  65.703  1.00  0.00     0.000 HD 
BRANCH  17  19
HETATM   19  C   UNL     1      -9.297  11.110  65.305  1.00  0.00    -0.219 A  
HETATM   20  N   UNL     1      -9.689  10.082  66.042  1.00  0.00    -0.222 NA 
HETATM   21  C   UNL     1      -9.309   8.886  65.464  1.00  0.00    -0.145 A  
HETATM   22  C   UNL     1      -8.623   9.018  64.285  1.00  0.00    -0.148 A  
HETATM   23  N   UNL     1      -8.113   7.960  63.476  1.00  0.00    -0.121 N  
HETATM   24  S   UNL     1      -8.435  10.651  63.867  1.00  0.00     0.008 SA 
HETATM   25  O   UNL     1      -8.321   6.808  63.879  1.00  0.00     0.022 OA 
HETATM   26  O   UNL     1      -7.512   8.258  62.435  1.00  0.00    -0.095 OA 
ENDBRANCH  17  19
ENDBRANCH  15  17
ENDBRANCH  13  15
ENDBRANCH   3   8
ENDBRANCH   2   3
TORSDOF 7
ENDMDL
MODEL      203
REMARK 921   NORMALIZED FREE ENERGY PREDICTED BY IDOCK:   -3.43 KCAL/MOL
REMARK 922        TOTAL FREE ENERGY PREDICTED BY IDOCK:   -5.46 KCAL/MOL
REMARK 923 INTER-LIGAND FREE ENERGY PREDICTED BY IDOCK:   -4.82 KCAL/MOL
REMARK 924 INTRA-LIGAND FREE ENERGY PREDICTED BY IDOCK:   -0.64 KCAL/MOL
REMARK 927      BINDING AFFINITY PREDICTED BY RF-SCORE:    0.00 PKD
ROOT
HETATM    1  C   UNL     1     -11.989  11.260  68.461  1.00  0.00    -0.288 C  
HETATM    2  C   UNL     1     -11.663  11.561  69.916  1.00  0.00    -0.343 C  
ENDROOT
BRANCH   2   3
HETATM    3  N   UNL     1     -11.504  10.331  70.704  1.00  0.00    -0.329 NA 
BRANCH   3   4
HETATM    4  C   UNL     1     -12.437  10.078  71.813  1.00  0.00    -0.383 C  
BRANCH   4   5
HETATM    5  C   UNL     1     -13.819   9.652  71.286  1.00  0.00    -0.076 C  
HETATM    6  H   UNL     1     -15.204   8.298  71.713  1.00  0.00     0.000 HD 
HETATM    7  O   UNL     1     -14.351   8.562  72.038  1.00  0.00    -0.430 OA 
ENDBRANCH   4   5
ENDBRANCH   3   4
BRANCH   3   8
HETATM    8  C   UNL     1     -10.620   9.348  70.281  1.00  0.00    -0.250 A  
HETATM    9  C   UNL     1     -10.762   5.600  69.636  1.00  0.00    -0.398 C  
HETATM   10  C   UNL     1      -9.314   9.630  69.863  1.00  0.00    -0.256 A  
HETATM   11  C   UNL     1      -8.455   8.623  69.395  1.00  0.00    -0.126 A  
HETATM   12  C   UNL     1     -11.022   8.008  70.221  1.00  0.00    -0.242 A  
HETATM   13  C   UNL     1      -8.886   7.293  69.299  1.00  0.00    -0.136 A  
HETATM   14  C   UNL     1     -10.193   6.990  69.713  1.00  0.00    -0.213 A  
BRANCH  13  15
HETATM   15  N   UNL     1      -8.039   6.249  68.876  1.00  0.00    -0.109 NA 
HETATM   16  H   UNL     1      -7.784   5.461  69.470  1.00  0.00     0.000 HD 
BRANCH  15  17
HETATM   17  N   UNL     1      -7.630   6.381  67.702  1.00  0.00    -0.099 NA 
HETATM   18  H   UNL     1      -7.099   7.193  67.384  1.00  0.00     0.000 HD 
BRANCH  17  19
HETATM   19  C   UNL     1      -7.961   5.337  66.888  1.00  0.00    -0.101 A  
HETATM   20  N   UNL     1      -7.287   4.215  66.683  1.00  0.00    -0.075 NA 
HETATM   21  C   UNL     1      -7.960   3.388  65.804  1.00  0.00    -0.092 A  
HETATM   22  C   UNL     1      -9.146   3.895  65.343  1.00  0.00    -0.143 A  
HETATM   23  N   UNL     1     -10.044   3.263  64.433  1.00  0.00    -0.148 N  
HETATM   24  S   UNL     1      -9.453   5.428  66.001  1.00  0.00    -0.117 SA 
HETATM   25  O   UNL     1      -9.717   2.139  64.027  1.00  0.00    -0.132 OA 
HETATM   26  O   UNL     1     -11.078   3.866  64.118  1.00  0.00    -0.333 OA 
ENDBRANCH  17  19
ENDBRANCH  15  17
ENDBRANCH  13  15
ENDBRANCH   3   8
ENDBRANCH   2   3
TORSDOF 7
ENDMDL
MODEL      204
REMARK 921   NORMALIZED FREE ENERGY PREDICTED BY IDOCK:   -3.43 KCAL/MOL
REMARK 922        TOTAL FREE ENERGY PREDICTED BY IDOCK:   -5.45 KCAL/MOL
REMARK 923 INTER-LIGAND FREE ENERGY PREDICTED BY IDOCK:   -5.03 KCAL/MOL
REMARK 924 INTRA-LIGAND FREE ENERGY PREDICTED BY IDOCK:   -0.43 KCAL/MOL
REMARK 927      BINDING AFFINITY PREDICTED BY RF-SCORE:    0.00 PKD
ROOT
HETATM    1  C   UNL     1      -8.388   3.603  69.528  1.00  0.00    -0.077 C  
HETATM    2  C   UNL     1      -8.054   4.964  70.119  1.00  0.00    -0.073 C  
ENDROOT
BRANCH   2   3
HETATM    3  N   UNL     1      -9.113   5.442  71.018  1.00  0.00    -0.142 NA 
BRANCH   3   4
HETATM    4  C   UNL     1      -9.459   4.629  72.194  1.00  0.00    -0.140 C  
BRANCH   4   5
HETATM    5  C   UNL     1      -8.942   5.280  73.489  1.00  0.00    -0.121 C  
HETATM    6  H   UNL     1      -7.204   5.581  74.394  1.00  0.00     0.000 HD 
HETATM    7  O   UNL     1      -7.523   5.179  73.595  1.00  0.00    -0.089 OA 
ENDBRANCH   4   5
ENDBRANCH   3   4
BRANCH   3   8
HETATM    8  C   UNL     1      -9.628   6.721  70.862  1.00  0.00    -0.168 A  
HETATM    9  C   UNL     1      -8.252  10.166  70.009  1.00  0.00    -0.060 C  
HETATM   10  C   UNL     1     -10.998   7.000  70.918  1.00  0.00    -0.282 A  
HETATM   11  C   UNL     1     -11.497   8.296  70.710  1.00  0.00    -0.268 A  
HETATM   12  C   UNL     1      -8.778   7.803  70.600  1.00  0.00    -0.139 A  
HETATM   13  C   UNL     1     -10.639   9.360  70.406  1.00  0.00    -0.261 A  
HETATM   14  C   UNL     1      -9.261   9.101  70.344  1.00  0.00    -0.271 A  
BRANCH  13  15
HETATM   15  N   UNL     1     -11.099  10.681  70.234  1.00  0.00    -0.425 NA 
HETATM   16  H   UNL     1     -10.744  11.470  70.774  1.00  0.00     0.000 HD 
BRANCH  15  17
HETATM   17  N   UNL     1     -11.982  10.793  69.358  1.00  0.00    -0.452 NA 
HETATM   18  H   UNL     1     -12.976  10.656  69.545  1.00  0.00     0.000 HD 
BRANCH  17  19
HETATM   19  C   UNL     1     -11.492  11.118  68.126  1.00  0.00    -0.303 A  
HETATM   20  N   UNL     1     -11.520  12.296  67.520  1.00  0.00    -0.324 NA 
HETATM   21  C   UNL     1     -10.897  12.232  66.288  1.00  0.00    -0.278 A  
HETATM   22  C   UNL     1     -10.401  10.996  65.966  1.00  0.00    -0.254 A  
HETATM   23  N   UNL     1      -9.715  10.642  64.767  1.00  0.00    -0.264 N  
HETATM   24  S   UNL     1     -10.702   9.875  67.203  1.00  0.00    -0.156 SA 
HETATM   25  O   UNL     1      -9.545  11.548  63.940  1.00  0.00    -0.238 OA 
HETATM   26  O   UNL     1      -9.332   9.471  64.636  1.00  0.00    -0.240 OA 
ENDBRANCH  17  19
ENDBRANCH  15  17
ENDBRANCH  13  15
ENDBRANCH   3   8
ENDBRANCH   2   3
TORSDOF 7
ENDMDL
MODEL      205
REMARK 921   NORMALIZED FREE ENERGY PREDICTED BY IDOCK:   -3.40 KCAL/MOL
REMARK 922        TOTAL FREE ENERGY PREDICTED BY IDOCK:   -5.42 KCAL/MOL
REMARK 923 INTER-LIGAND FREE ENERGY PREDICTED BY IDOCK:   -5.16 KCAL/MOL
REMARK 924 INTRA-LIGAND FREE ENERGY PREDICTED BY IDOCK:   -0.27 KCAL/MOL
REMARK 927      BINDING AFFINITY PREDICTED BY RF-SCORE:    0.00 PKD
ROOT
HETATM    1  C   UNL     1      -7.562   7.018  70.886  1.00  0.00    -0.086 C  
HETATM    2  C   UNL     1      -8.399   8.087  71.571  1.00  0.00    -0.116 C  
ENDROOT
BRANCH   2   3
HETATM    3  N   UNL     1      -9.583   8.442  70.778  1.00  0.00    -0.167 NA 
BRANCH   3   4
HETATM    4  C   UNL     1     -10.906   8.010  71.255  1.00  0.00    -0.232 C  
BRANCH   4   5
HETATM    5  C   UNL     1     -11.478   6.892  70.365  1.00  0.00    -0.338 C  
HETATM    6  H   UNL     1     -10.921   5.845  68.776  1.00  0.00     0.000 HD 
HETATM    7  O   UNL     1     -10.569   6.535  69.325  1.00  0.00    -0.205 OA 
ENDBRANCH   4   5
ENDBRANCH   3   4
BRANCH   3   8
HETATM    8  C   UNL     1      -9.465   9.328  69.716  1.00  0.00    -0.191 A  
HETATM    9  C   UNL     1     -11.214  12.508  68.566  1.00  0.00    -0.322 C  
HETATM   10  C   UNL     1      -8.446   9.237  68.761  1.00  0.00    -0.129 A  
HETATM   11  C   UNL     1      -8.321  10.175  67.724  1.00  0.00    -0.114 A  
HETATM   12  C   UNL     1     -10.361  10.395  69.578  1.00  0.00    -0.264 A  
HETATM   13  C   UNL     1      -9.199  11.262  67.623  1.00  0.00    -0.156 A  
HETATM   14  C   UNL     1     -10.227  11.371  68.572  1.00  0.00    -0.216 A  
BRANCH  13  15
HETATM   15  N   UNL     1      -9.131  12.198  66.571  1.00  0.00    -0.224 NA 
HETATM   16  H   UNL     1      -9.848  12.281  65.851  1.00  0.00     0.000 HD 
BRANCH  15  17
HETATM   17  N   UNL     1      -8.108  12.915  66.604  1.00  0.00    -0.386 NA 
HETATM   18  H   UNL     1      -7.161  12.540  66.551  1.00  0.00     0.000 HD 
BRANCH  17  19
HETATM   19  C   UNL     1      -8.379  14.248  66.719  1.00  0.00     0.060 A  
HETATM   20  N   UNL     1      -7.779  15.140  67.493  1.00  0.00    -0.165 NA 
HETATM   21  C   UNL     1      -8.321  16.398  67.309  1.00  0.00    -0.177 A  
HETATM   22  C   UNL     1      -9.339  16.448  66.394  1.00  0.00    -0.292 A  
HETATM   23  N   UNL     1     -10.077  17.606  66.006  1.00  0.00    -0.293 N  
HETATM   24  S   UNL     1      -9.646  14.916  65.734  1.00  0.00    -0.200 SA 
HETATM   25  O   UNL     1      -9.755  18.672  66.550  1.00  0.00    -0.322 OA 
HETATM   26  O   UNL     1     -10.971  17.474  65.160  1.00  0.00    -0.621 OA 
ENDBRANCH  17  19
ENDBRANCH  15  17
ENDBRANCH  13  15
ENDBRANCH   3   8
ENDBRANCH   2   3
TORSDOF 7
ENDMDL
MODEL      206
REMARK 921   NORMALIZED FREE ENERGY PREDICTED BY IDOCK:   -3.40 KCAL/MOL
REMARK 922        TOTAL FREE ENERGY PREDICTED BY IDOCK:   -5.42 KCAL/MOL
REMARK 923 INTER-LIGAND FREE ENERGY PREDICTED BY IDOCK:   -5.72 KCAL/MOL
REMARK 924 INTRA-LIGAND FREE ENERGY PREDICTED BY IDOCK:    0.30 KCAL/MOL
REMARK 927      BINDING AFFINITY PREDICTED BY RF-SCORE:    0.00 PKD
ROOT
HETATM    1  C   UNL     1     -10.871  15.876  70.019  1.00  0.00    -0.356 C  
HETATM    2  C   UNL     1     -12.371  15.672  70.173  1.00  0.00    -0.336 C  
ENDROOT
BRANCH   2   3
HETATM    3  N   UNL     1     -12.694  14.304  70.598  1.00  0.00    -0.345 NA 
BRANCH   3   4
HETATM    4  C   UNL     1     -13.862  14.093  71.467  1.00  0.00    -0.309 C  
BRANCH   4   5
HETATM    5  C   UNL     1     -13.597  14.620  72.888  1.00  0.00    -0.359 C  
HETATM    6  H   UNL     1     -13.678  16.349  73.857  1.00  0.00     0.000 HD 
HETATM    7  O   UNL     1     -13.841  16.023  72.980  1.00  0.00    -0.592 OA 
ENDBRANCH   4   5
ENDBRANCH   3   4
BRANCH   3   8
HETATM    8  C   UNL     1     -12.026  13.227  70.031  1.00  0.00    -0.329 A  
HETATM    9  C   UNL     1      -9.926  12.610  66.918  1.00  0.00    -0.232 C  
HETATM   10  C   UNL     1     -11.920  11.982  70.662  1.00  0.00    -0.257 A  
HETATM   11  C   UNL     1     -11.200  10.923  70.088  1.00  0.00    -0.317 A  
HETATM   12  C   UNL     1     -11.387  13.359  68.793  1.00  0.00    -0.332 A  
HETATM   13  C   UNL     1     -10.528  11.083  68.869  1.00  0.00    -0.204 A  
HETATM   14  C   UNL     1     -10.621  12.324  68.221  1.00  0.00    -0.243 A  
BRANCH  13  15
HETATM   15  N   UNL     1      -9.832  10.030  68.242  1.00  0.00    -0.144 NA 
HETATM   16  H   UNL     1     -10.212   9.496  67.461  1.00  0.00     0.000 HD 
BRANCH  15  17
HETATM   17  N   UNL     1      -8.704   9.814  68.734  1.00  0.00    -0.124 NA 
HETATM   18  H   UNL     1      -7.858  10.291  68.422  1.00  0.00     0.000 HD 
BRANCH  17  19
HETATM   19  C   UNL     1      -8.711   8.878  69.727  1.00  0.00    -0.139 A  
HETATM   20  N   UNL     1      -8.212   8.981  70.951  1.00  0.00    -0.173 NA 
HETATM   21  C   UNL     1      -8.439   7.826  71.675  1.00  0.00    -0.111 A  
HETATM   22  C   UNL     1      -9.109   6.848  70.989  1.00  0.00    -0.155 A  
HETATM   23  N   UNL     1      -9.477   5.562  71.485  1.00  0.00    -0.147 N  
HETATM   24  S   UNL     1      -9.477   7.350  69.411  1.00  0.00    -0.154 SA 
HETATM   25  O   UNL     1      -9.163   5.312  72.657  1.00  0.00    -0.135 OA 
HETATM   26  O   UNL     1     -10.083   4.794  70.726  1.00  0.00    -0.225 OA 
ENDBRANCH  17  19
ENDBRANCH  15  17
ENDBRANCH  13  15
ENDBRANCH   3   8
ENDBRANCH   2   3
TORSDOF 7
ENDMDL
MODEL      207
REMARK 921   NORMALIZED FREE ENERGY PREDICTED BY IDOCK:   -3.39 KCAL/MOL
REMARK 922        TOTAL FREE ENERGY PREDICTED BY IDOCK:   -5.40 KCAL/MOL
REMARK 923 INTER-LIGAND FREE ENERGY PREDICTED BY IDOCK:   -4.98 KCAL/MOL
REMARK 924 INTRA-LIGAND FREE ENERGY PREDICTED BY IDOCK:   -0.42 KCAL/MOL
REMARK 927      BINDING AFFINITY PREDICTED BY RF-SCORE:    0.00 PKD
ROOT
HETATM    1  C   UNL     1     -10.992   5.651  69.936  1.00  0.00    -0.309 C  
HETATM    2  C   UNL     1     -10.767   5.765  71.437  1.00  0.00    -0.256 C  
ENDROOT
BRANCH   2   3
HETATM    3  N   UNL     1     -10.725   7.165  71.876  1.00  0.00    -0.214 NA 
BRANCH   3   4
HETATM    4  C   UNL     1     -10.710   7.451  73.319  1.00  0.00    -0.391 C  
BRANCH   4   5
HETATM    5  C   UNL     1      -9.610   6.644  74.031  1.00  0.00    -0.233 C  
HETATM    6  H   UNL     1      -7.749   6.924  74.655  1.00  0.00     0.000 HD 
HETATM    7  O   UNL     1      -8.428   7.421  74.215  1.00  0.00    -0.179 OA 
ENDBRANCH   4   5
ENDBRANCH   3   4
BRANCH   3   8
HETATM    8  C   UNL     1     -10.506   8.175  70.949  1.00  0.00    -0.202 A  
HETATM    9  C   UNL     1      -7.599   9.368  68.801  1.00  0.00    -0.079 C  
HETATM   10  C   UNL     1     -11.522   9.028  70.502  1.00  0.00    -0.248 A  
HETATM   11  C   UNL     1     -11.284  10.012  69.529  1.00  0.00    -0.254 A  
HETATM   12  C   UNL     1      -9.238   8.360  70.386  1.00  0.00    -0.161 A  
HETATM   13  C   UNL     1     -10.020  10.156  68.941  1.00  0.00    -0.199 A  
HETATM   14  C   UNL     1      -8.989   9.310  69.376  1.00  0.00    -0.147 A  
BRANCH  13  15
HETATM   15  N   UNL     1      -9.734  11.160  67.994  1.00  0.00    -0.171 NA 
HETATM   16  H   UNL     1      -8.833  11.243  67.523  1.00  0.00     0.000 HD 
BRANCH  15  17
HETATM   17  N   UNL     1     -10.688  11.938  67.785  1.00  0.00    -0.200 NA 
HETATM   18  H   UNL     1     -11.665  11.644  67.814  1.00  0.00     0.000 HD 
BRANCH  17  19
HETATM   19  C   UNL     1     -10.300  13.219  67.515  1.00  0.00    -0.229 A  
HETATM   20  N   UNL     1     -11.055  14.237  67.128  1.00  0.00    -0.302 NA 
HETATM   21  C   UNL     1     -10.299  15.384  66.980  1.00  0.00    -0.280 A  
HETATM   22  C   UNL     1      -8.966  15.224  67.254  1.00  0.00    -0.195 A  
HETATM   23  N   UNL     1      -7.958  16.231  67.186  1.00  0.00    -0.169 N  
HETATM   24  S   UNL     1      -8.622  13.626  67.708  1.00  0.00    -0.197 SA 
HETATM   25  O   UNL     1      -8.332  17.364  66.852  1.00  0.00    -0.214 OA 
HETATM   26  O   UNL     1      -6.795  15.914  67.468  1.00  0.00    -0.150 OA 
ENDBRANCH  17  19
ENDBRANCH  15  17
ENDBRANCH  13  15
ENDBRANCH   3   8
ENDBRANCH   2   3
TORSDOF 7
ENDMDL
MODEL      208
REMARK 921   NORMALIZED FREE ENERGY PREDICTED BY IDOCK:   -3.38 KCAL/MOL
REMARK 922        TOTAL FREE ENERGY PREDICTED BY IDOCK:   -5.39 KCAL/MOL
REMARK 923 INTER-LIGAND FREE ENERGY PREDICTED BY IDOCK:   -5.99 KCAL/MOL
REMARK 924 INTRA-LIGAND FREE ENERGY PREDICTED BY IDOCK:    0.60 KCAL/MOL
REMARK 927      BINDING AFFINITY PREDICTED BY RF-SCORE:    0.00 PKD
ROOT
HETATM    1  C   UNL     1      -5.284   8.688  66.556  1.00  0.00    -0.034 C  
HETATM    2  C   UNL     1      -6.453   8.596  67.525  1.00  0.00    -0.058 C  
ENDROOT
BRANCH   2   3
HETATM    3  N   UNL     1      -7.242   9.834  67.545  1.00  0.00    -0.089 NA 
BRANCH   3   4
HETATM    4  C   UNL     1      -6.771  10.983  66.756  1.00  0.00    -0.128 C  
BRANCH   4   5
HETATM    5  C   UNL     1      -6.465  12.189  67.662  1.00  0.00    -0.110 C  
HETATM    6  H   UNL     1      -5.361  13.834  67.600  1.00  0.00     0.000 HD 
HETATM    7  O   UNL     1      -5.550  13.090  67.041  1.00  0.00    -0.312 OA 
ENDBRANCH   4   5
ENDBRANCH   3   4
BRANCH   3   8
HETATM    8  C   UNL     1      -8.498   9.845  68.136  1.00  0.00    -0.114 A  
HETATM    9  C   UNL     1      -9.959   8.946  71.534  1.00  0.00    -0.391 C  
HETATM   10  C   UNL     1      -9.632  10.362  67.499  1.00  0.00    -0.178 A  
HETATM   11  C   UNL     1     -10.882  10.404  68.137  1.00  0.00    -0.311 A  
HETATM   12  C   UNL     1      -8.676   9.362  69.438  1.00  0.00    -0.157 A  
HETATM   13  C   UNL     1     -11.036   9.957  69.455  1.00  0.00    -0.217 A  
HETATM   14  C   UNL     1      -9.910   9.437  70.112  1.00  0.00    -0.272 A  
BRANCH  13  15
HETATM   15  N   UNL     1     -12.283   9.944  70.113  1.00  0.00    -0.485 NA 
HETATM   16  H   UNL     1     -13.150   9.656  69.659  1.00  0.00     0.000 HD 
BRANCH  15  17
HETATM   17  N   UNL     1     -12.225  10.319  71.303  1.00  0.00    -0.376 NA 
HETATM   18  H   UNL     1     -11.856   9.737  72.055  1.00  0.00     0.000 HD 
BRANCH  17  19
HETATM   19  C   UNL     1     -12.703  11.583  71.502  1.00  0.00    -0.334 A  
HETATM   20  N   UNL     1     -13.533  12.003  72.445  1.00  0.00    -0.219 NA 
HETATM   21  C   UNL     1     -13.762  13.361  72.331  1.00  0.00    -0.597 A  
HETATM   22  C   UNL     1     -13.102  13.963  71.292  1.00  0.00    -0.315 A  
HETATM   23  N   UNL     1     -13.152  15.345  70.940  1.00  0.00    -0.475 N  
HETATM   24  S   UNL     1     -12.171  12.840  70.426  1.00  0.00    -0.209 SA 
HETATM   25  O   UNL     1     -13.858  16.070  71.653  1.00  0.00    -0.272 OA 
HETATM   26  O   UNL     1     -12.490  15.724  69.965  1.00  0.00    -0.337 OA 
ENDBRANCH  17  19
ENDBRANCH  15  17
ENDBRANCH  13  15
ENDBRANCH   3   8
ENDBRANCH   2   3
TORSDOF 7
ENDMDL
MODEL      209
REMARK 921   NORMALIZED FREE ENERGY PREDICTED BY IDOCK:   -3.36 KCAL/MOL
REMARK 922        TOTAL FREE ENERGY PREDICTED BY IDOCK:   -5.36 KCAL/MOL
REMARK 923 INTER-LIGAND FREE ENERGY PREDICTED BY IDOCK:   -4.72 KCAL/MOL
REMARK 924 INTRA-LIGAND FREE ENERGY PREDICTED BY IDOCK:   -0.64 KCAL/MOL
REMARK 927      BINDING AFFINITY PREDICTED BY RF-SCORE:    0.00 PKD
ROOT
HETATM    1  C   UNL     1     -11.535   6.402  70.257  1.00  0.00    -0.468 C  
HETATM    2  C   UNL     1     -11.200   7.784  69.715  1.00  0.00    -0.007 C  
ENDROOT
BRANCH   2   3
HETATM    3  N   UNL     1     -10.024   7.753  68.836  1.00  0.00    -0.177 NA 
BRANCH   3   4
HETATM    4  C   UNL     1      -9.383   6.457  68.562  1.00  0.00    -0.122 C  
BRANCH   4   5
HETATM    5  C   UNL     1      -9.867   5.873  67.223  1.00  0.00    -0.138 C  
HETATM    6  H   UNL     1      -9.139   5.556  65.406  1.00  0.00     0.000 HD 
HETATM    7  O   UNL     1      -8.841   5.916  66.233  1.00  0.00    -0.133 OA 
ENDBRANCH   4   5
ENDBRANCH   3   4
BRANCH   3   8
HETATM    8  C   UNL     1      -9.656   8.891  68.132  1.00  0.00    -0.145 A  
HETATM    9  C   UNL     1     -11.234  11.138  65.496  1.00  0.00     0.021 C  
HETATM   10  C   UNL     1      -8.463   9.582  68.376  1.00  0.00    -0.119 A  
HETATM   11  C   UNL     1      -8.136  10.757  67.682  1.00  0.00    -0.114 A  
HETATM   12  C   UNL     1     -10.502   9.426  67.153  1.00  0.00    -0.315 A  
HETATM   13  C   UNL     1      -9.012  11.306  66.736  1.00  0.00    -0.171 A  
HETATM   14  C   UNL     1     -10.214  10.628  66.479  1.00  0.00    -0.288 A  
BRANCH  13  15
HETATM   15  N   UNL     1      -8.699  12.459  65.990  1.00  0.00    -0.387 NA 
HETATM   16  H   UNL     1      -9.007  12.604  65.028  1.00  0.00     0.000 HD 
BRANCH  15  17
HETATM   17  N   UNL     1      -8.006  13.289  66.617  1.00  0.00    -0.235 NA 
HETATM   18  H   UNL     1      -7.053  13.100  66.927  1.00  0.00     0.000 HD 
BRANCH  17  19
HETATM   19  C   UNL     1      -8.647  14.471  66.849  1.00  0.00    -0.179 A  
HETATM   20  N   UNL     1      -8.852  15.469  66.002  1.00  0.00    -0.245 NA 
HETATM   21  C   UNL     1      -9.564  16.490  66.604  1.00  0.00    -0.258 A  
HETATM   22  C   UNL     1      -9.893  16.256  67.913  1.00  0.00    -0.237 A  
HETATM   23  N   UNL     1     -10.621  17.129  68.775  1.00  0.00    -0.349 N  
HETATM   24  S   UNL     1      -9.317  14.747  68.429  1.00  0.00    -0.202 SA 
HETATM   25  O   UNL     1     -10.999  18.201  68.283  1.00  0.00    -0.138 OA 
HETATM   26  O   UNL     1     -10.831  16.761  69.938  1.00  0.00    -0.309 OA 
ENDBRANCH  17  19
ENDBRANCH  15  17
ENDBRANCH  13  15
ENDBRANCH   3   8
ENDBRANCH   2   3
TORSDOF 7
ENDMDL
MODEL      210
REMARK 921   NORMALIZED FREE ENERGY PREDICTED BY IDOCK:   -3.35 KCAL/MOL
REMARK 922        TOTAL FREE ENERGY PREDICTED BY IDOCK:   -5.35 KCAL/MOL
REMARK 923 INTER-LIGAND FREE ENERGY PREDICTED BY IDOCK:   -4.48 KCAL/MOL
REMARK 924 INTRA-LIGAND FREE ENERGY PREDICTED BY IDOCK:   -0.87 KCAL/MOL
REMARK 927      BINDING AFFINITY PREDICTED BY RF-SCORE:    0.00 PKD
ROOT
HETATM    1  C   UNL     1     -11.450  11.904  63.588  1.00  0.00    -0.551 C  
HETATM    2  C   UNL     1     -10.226  11.954  64.490  1.00  0.00    -0.282 C  
ENDROOT
BRANCH   2   3
HETATM    3  N   UNL     1     -10.473  11.294  65.779  1.00  0.00    -0.252 NA 
BRANCH   3   4
HETATM    4  C   UNL     1     -11.450  11.893  66.702  1.00  0.00    -0.314 C  
BRANCH   4   5
HETATM    5  C   UNL     1     -10.766  12.871  67.674  1.00  0.00    -0.223 C  
HETATM    6  H   UNL     1     -10.516  13.068  69.630  1.00  0.00     0.000 HD 
HETATM    7  O   UNL     1     -10.938  12.465  69.030  1.00  0.00    -0.236 OA 
ENDBRANCH   4   5
ENDBRANCH   3   4
BRANCH   3   8
HETATM    8  C   UNL     1      -9.942  10.036  66.025  1.00  0.00    -0.267 A  
HETATM    9  C   UNL     1     -11.098   6.837  67.733  1.00  0.00    -0.285 C  
HETATM   10  C   UNL     1      -8.702   9.624  65.523  1.00  0.00    -0.176 A  
HETATM   11  C   UNL     1      -8.208   8.329  65.748  1.00  0.00    -0.123 A  
HETATM   12  C   UNL     1     -10.661   9.094  66.772  1.00  0.00    -0.207 A  
HETATM   13  C   UNL     1      -8.958   7.383  66.459  1.00  0.00    -0.159 A  
HETATM   14  C   UNL     1     -10.205   7.777  66.970  1.00  0.00    -0.375 A  
BRANCH  13  15
HETATM   15  N   UNL     1      -8.476   6.089  66.741  1.00  0.00    -0.109 NA 
HETATM   16  H   UNL     1      -8.938   5.239  66.418  1.00  0.00     0.000 HD 
BRANCH  15  17
HETATM   17  N   UNL     1      -7.430   6.082  67.424  1.00  0.00    -0.081 NA 
HETATM   18  H   UNL     1      -6.496   6.097  67.015  1.00  0.00     0.000 HD 
BRANCH  17  19
HETATM   19  C   UNL     1      -7.657   6.051  68.770  1.00  0.00    -0.091 A  
HETATM   20  N   UNL     1      -7.345   6.969  69.672  1.00  0.00    -0.083 NA 
HETATM   21  C   UNL     1      -7.761   6.585  70.933  1.00  0.00    -0.101 A  
HETATM   22  C   UNL     1      -8.388   5.368  70.976  1.00  0.00    -0.119 A  
HETATM   23  N   UNL     1      -8.918   4.726  72.135  1.00  0.00    -0.126 N  
HETATM   24  S   UNL     1      -8.473   4.667  69.434  1.00  0.00    -0.082 SA 
HETATM   25  O   UNL     1      -8.806   5.340  73.205  1.00  0.00    -0.120 OA 
HETATM   26  O   UNL     1      -9.455   3.619  71.996  1.00  0.00    -0.118 OA 
ENDBRANCH  17  19
ENDBRANCH  15  17
ENDBRANCH  13  15
ENDBRANCH   3   8
ENDBRANCH   2   3
TORSDOF 7
ENDMDL
MODEL      211
REMARK 921   NORMALIZED FREE ENERGY PREDICTED BY IDOCK:   -3.33 KCAL/MOL
REMARK 922        TOTAL FREE ENERGY PREDICTED BY IDOCK:   -5.33 KCAL/MOL
REMARK 923 INTER-LIGAND FREE ENERGY PREDICTED BY IDOCK:   -5.35 KCAL/MOL
REMARK 924 INTRA-LIGAND FREE ENERGY PREDICTED BY IDOCK:    0.03 KCAL/MOL
REMARK 927      BINDING AFFINITY PREDICTED BY RF-SCORE:    0.00 PKD
ROOT
HETATM    1  C   UNL     1      -7.416  13.536  67.856  1.00  0.00    -0.153 C  
HETATM    2  C   UNL     1      -8.343  14.513  67.149  1.00  0.00    -0.202 C  
ENDROOT
BRANCH   2   3
HETATM    3  N   UNL     1      -9.754  14.136  67.307  1.00  0.00    -0.231 NA 
BRANCH   3   4
HETATM    4  C   UNL     1     -10.790  15.111  66.935  1.00  0.00    -0.317 C  
BRANCH   4   5
HETATM    5  C   UNL     1     -10.962  15.181  65.408  1.00  0.00    -0.374 C  
HETATM    6  H   UNL     1     -10.924  13.938  63.864  1.00  0.00     0.000 HD 
HETATM    7  O   UNL     1     -10.818  13.895  64.806  1.00  0.00    -0.376 OA 
ENDBRANCH   4   5
ENDBRANCH   3   4
BRANCH   3   8
HETATM    8  C   UNL     1     -10.089  12.823  67.612  1.00  0.00    -0.220 A  
HETATM    9  C   UNL     1     -11.767  11.003  70.503  1.00  0.00    -0.416 C  
HETATM   10  C   UNL     1      -9.915  11.767  66.711  1.00  0.00    -0.224 A  
HETATM   11  C   UNL     1     -10.306  10.456  67.027  1.00  0.00    -0.295 A  
HETATM   12  C   UNL     1     -10.663  12.505  68.849  1.00  0.00    -0.202 A  
HETATM   13  C   UNL     1     -10.919  10.160  68.251  1.00  0.00    -0.248 A  
HETATM   14  C   UNL     1     -11.104  11.207  69.168  1.00  0.00    -0.306 A  
BRANCH  13  15
HETATM   15  N   UNL     1     -11.286   8.849  68.620  1.00  0.00    -0.318 NA 
HETATM   16  H   UNL     1     -11.902   8.642  69.406  1.00  0.00     0.000 HD 
BRANCH  15  17
HETATM   17  N   UNL     1     -10.784   7.966  67.893  1.00  0.00    -0.442 NA 
HETATM   18  H   UNL     1     -10.821   7.994  66.874  1.00  0.00     0.000 HD 
BRANCH  17  19
HETATM   19  C   UNL     1     -10.180   6.961  68.592  1.00  0.00    -0.173 A  
HETATM   20  N   UNL     1     -10.750   6.040  69.355  1.00  0.00    -0.298 NA 
HETATM   21  C   UNL     1      -9.805   5.176  69.876  1.00  0.00    -0.219 A  
HETATM   22  C   UNL     1      -8.516   5.454  69.503  1.00  0.00    -0.100 A  
HETATM   23  N   UNL     1      -7.347   4.733  69.888  1.00  0.00    -0.054 N  
HETATM   24  S   UNL     1      -8.452   6.809  68.486  1.00  0.00    -0.122 SA 
HETATM   25  O   UNL     1      -7.521   3.754  70.626  1.00  0.00    -0.040 OA 
HETATM   26  O   UNL     1      -6.253   5.123  69.459  1.00  0.00    -0.024 OA 
ENDBRANCH  17  19
ENDBRANCH  15  17
ENDBRANCH  13  15
ENDBRANCH   3   8
ENDBRANCH   2   3
TORSDOF 7
ENDMDL
MODEL      212
REMARK 921   NORMALIZED FREE ENERGY PREDICTED BY IDOCK:   -3.33 KCAL/MOL
REMARK 922        TOTAL FREE ENERGY PREDICTED BY IDOCK:   -5.32 KCAL/MOL
REMARK 923 INTER-LIGAND FREE ENERGY PREDICTED BY IDOCK:   -4.61 KCAL/MOL
REMARK 924 INTRA-LIGAND FREE ENERGY PREDICTED BY IDOCK:   -0.71 KCAL/MOL
REMARK 927      BINDING AFFINITY PREDICTED BY RF-SCORE:    0.00 PKD
ROOT
HETATM    1  C   UNL     1     -10.484   2.613  73.951  1.00  0.00    -0.229 C  
HETATM    2  C   UNL     1     -10.051   2.504  72.497  1.00  0.00    -0.162 C  
ENDROOT
BRANCH   2   3
HETATM    3  N   UNL     1      -9.216   3.642  72.091  1.00  0.00    -0.110 NA 
BRANCH   3   4
HETATM    4  C   UNL     1      -7.753   3.506  72.170  1.00  0.00    -0.059 C  
BRANCH   4   5
HETATM    5  C   UNL     1      -7.196   4.231  73.408  1.00  0.00    -0.074 C  
HETATM    6  H   UNL     1      -5.998   3.827  74.936  1.00  0.00     0.000 HD 
HETATM    7  O   UNL     1      -6.342   3.381  74.172  1.00  0.00    -0.022 OA 
ENDBRANCH   4   5
ENDBRANCH   3   4
BRANCH   3   8
HETATM    8  C   UNL     1      -9.795   4.738  71.466  1.00  0.00    -0.187 A  
HETATM    9  C   UNL     1     -11.024   8.184  72.514  1.00  0.00    -0.439 C  
HETATM   10  C   UNL     1      -9.981   4.810  70.080  1.00  0.00    -0.321 A  
HETATM   11  C   UNL     1     -10.527   5.949  69.468  1.00  0.00    -0.346 A  
HETATM   12  C   UNL     1     -10.190   5.855  72.211  1.00  0.00    -0.222 A  
HETATM   13  C   UNL     1     -10.877   7.077  70.221  1.00  0.00    -0.254 A  
HETATM   14  C   UNL     1     -10.697   7.024  71.612  1.00  0.00    -0.244 A  
BRANCH  13  15
HETATM   15  N   UNL     1     -11.467   8.221  69.647  1.00  0.00    -0.364 NA 
HETATM   16  H   UNL     1     -12.189   8.770  70.112  1.00  0.00     0.000 HD 
BRANCH  15  17
HETATM   17  N   UNL     1     -11.020   8.498  68.513  1.00  0.00    -0.436 NA 
HETATM   18  H   UNL     1     -11.163   7.904  67.696  1.00  0.00     0.000 HD 
BRANCH  17  19
HETATM   19  C   UNL     1     -10.324   9.671  68.472  1.00  0.00    -0.205 A  
HETATM   20  N   UNL     1     -10.803  10.903  68.385  1.00  0.00    -0.204 NA 
HETATM   21  C   UNL     1      -9.781  11.833  68.396  1.00  0.00    -0.197 A  
HETATM   22  C   UNL     1      -8.525  11.294  68.487  1.00  0.00    -0.156 A  
HETATM   23  N   UNL     1      -7.292  12.011  68.519  1.00  0.00    -0.106 N  
HETATM   24  S   UNL     1      -8.589   9.601  68.564  1.00  0.00    -0.121 SA 
HETATM   25  O   UNL     1      -7.372  13.246  68.467  1.00  0.00    -0.105 OA 
HETATM   26  O   UNL     1      -6.241  11.363  68.604  1.00  0.00    -0.046 OA 
ENDBRANCH  17  19
ENDBRANCH  15  17
ENDBRANCH  13  15
ENDBRANCH   3   8
ENDBRANCH   2   3
TORSDOF 7
ENDMDL
MODEL      213
REMARK 921   NORMALIZED FREE ENERGY PREDICTED BY IDOCK:   -3.33 KCAL/MOL
REMARK 922        TOTAL FREE ENERGY PREDICTED BY IDOCK:   -5.32 KCAL/MOL
REMARK 923 INTER-LIGAND FREE ENERGY PREDICTED BY IDOCK:   -4.97 KCAL/MOL
REMARK 924 INTRA-LIGAND FREE ENERGY PREDICTED BY IDOCK:   -0.34 KCAL/MOL
REMARK 927      BINDING AFFINITY PREDICTED BY RF-SCORE:    0.00 PKD
ROOT
HETATM    1  C   UNL     1      -5.606  15.973  70.291  1.00  0.00    -0.160 C  
HETATM    2  C   UNL     1      -5.186  17.266  69.608  1.00  0.00    -0.170 C  
ENDROOT
BRANCH   2   3
HETATM    3  N   UNL     1      -6.304  17.889  68.888  1.00  0.00    -0.210 NA 
BRANCH   3   4
HETATM    4  C   UNL     1      -6.282  19.345  68.675  1.00  0.00    -0.242 C  
BRANCH   4   5
HETATM    5  C   UNL     1      -7.016  20.081  69.809  1.00  0.00    -0.098 C  
HETATM    6  H   UNL     1      -6.609  20.768  71.624  1.00  0.00     0.000 HD 
HETATM    7  O   UNL     1      -6.156  20.314  70.923  1.00  0.00    -0.466 OA 
ENDBRANCH   4   5
ENDBRANCH   3   4
BRANCH   3   8
HETATM    8  C   UNL     1      -7.251  17.093  68.258  1.00  0.00    -0.204 A  
HETATM    9  C   UNL     1     -10.993  16.473  68.581  1.00  0.00    -0.344 C  
HETATM   10  C   UNL     1      -6.957  16.304  67.140  1.00  0.00    -0.243 A  
HETATM   11  C   UNL     1      -7.944  15.544  66.493  1.00  0.00    -0.009 A  
HETATM   12  C   UNL     1      -8.578  17.077  68.706  1.00  0.00    -0.238 A  
HETATM   13  C   UNL     1      -9.276  15.572  66.925  1.00  0.00    -0.236 A  
HETATM   14  C   UNL     1      -9.592  16.358  68.044  1.00  0.00    -0.226 A  
BRANCH  13  15
HETATM   15  N   UNL     1     -10.285  14.790  66.327  1.00  0.00    -0.286 NA 
HETATM   16  H   UNL     1     -10.752  15.050  65.458  1.00  0.00     0.000 HD 
BRANCH  15  17
HETATM   17  N   UNL     1     -10.553  13.748  66.962  1.00  0.00    -0.277 NA 
HETATM   18  H   UNL     1     -11.006  13.752  67.876  1.00  0.00     0.000 HD 
BRANCH  17  19
HETATM   19  C   UNL     1     -10.181  12.604  66.317  1.00  0.00    -0.251 A  
HETATM   20  N   UNL     1     -10.223  12.348  65.018  1.00  0.00    -0.286 NA 
HETATM   21  C   UNL     1      -9.736  11.083  64.748  1.00  0.00    -0.262 A  
HETATM   22  C   UNL     1      -9.329  10.384  65.853  1.00  0.00    -0.182 A  
HETATM   23  N   UNL     1      -8.787   9.065  65.872  1.00  0.00    -0.164 N  
HETATM   24  S   UNL     1      -9.545  11.295  67.268  1.00  0.00    -0.174 SA 
HETATM   25  O   UNL     1      -8.667   8.502  64.775  1.00  0.00    -0.135 OA 
HETATM   26  O   UNL     1      -8.469   8.579  66.966  1.00  0.00    -0.112 OA 
ENDBRANCH  17  19
ENDBRANCH  15  17
ENDBRANCH  13  15
ENDBRANCH   3   8
ENDBRANCH   2   3
TORSDOF 7
ENDMDL
MODEL      214
REMARK 921   NORMALIZED FREE ENERGY PREDICTED BY IDOCK:   -3.33 KCAL/MOL
REMARK 922        TOTAL FREE ENERGY PREDICTED BY IDOCK:   -5.31 KCAL/MOL
REMARK 923 INTER-LIGAND FREE ENERGY PREDICTED BY IDOCK:   -4.96 KCAL/MOL
REMARK 924 INTRA-LIGAND FREE ENERGY PREDICTED BY IDOCK:   -0.35 KCAL/MOL
REMARK 927      BINDING AFFINITY PREDICTED BY RF-SCORE:    0.00 PKD
ROOT
HETATM    1  C   UNL     1      -8.107  14.478  67.882  1.00  0.00    -0.151 C  
HETATM    2  C   UNL     1      -9.227  14.792  66.901  1.00  0.00    -0.245 C  
ENDROOT
BRANCH   2   3
HETATM    3  N   UNL     1     -10.419  13.972  67.157  1.00  0.00    -0.269 NA 
BRANCH   3   4
HETATM    4  C   UNL     1     -11.744  14.555  66.895  1.00  0.00    -0.382 C  
BRANCH   4   5
HETATM    5  C   UNL     1     -12.341  14.007  65.587  1.00  0.00    -0.479 C  
HETATM    6  H   UNL     1     -14.136  13.686  64.809  1.00  0.00     0.000 HD 
HETATM    7  O   UNL     1     -13.767  14.024  65.617  1.00  0.00    -0.315 OA 
ENDBRANCH   4   5
ENDBRANCH   3   4
BRANCH   3   8
HETATM    8  C   UNL     1     -10.281  12.622  67.447  1.00  0.00    -0.217 A  
HETATM    9  C   UNL     1     -11.589  10.220  70.094  1.00  0.00    -0.376 C  
HETATM   10  C   UNL     1      -9.582  11.735  66.621  1.00  0.00    -0.219 A  
HETATM   11  C   UNL     1      -9.497  10.365  66.913  1.00  0.00    -0.196 A  
HETATM   12  C   UNL     1     -10.883  12.075  68.587  1.00  0.00    -0.273 A  
HETATM   13  C   UNL     1     -10.140   9.824  68.034  1.00  0.00    -0.171 A  
HETATM   14  C   UNL     1     -10.848  10.697  68.875  1.00  0.00    -0.272 A  
BRANCH  13  15
HETATM   15  N   UNL     1     -10.042   8.462  68.383  1.00  0.00    -0.192 NA 
HETATM   16  H   UNL     1      -9.513   8.129  69.188  1.00  0.00     0.000 HD 
BRANCH  15  17
HETATM   17  N   UNL     1     -10.664   7.701  67.611  1.00  0.00    -0.456 NA 
HETATM   18  H   UNL     1     -11.663   7.789  67.425  1.00  0.00     0.000 HD 
BRANCH  17  19
HETATM   19  C   UNL     1      -9.879   6.742  67.039  1.00  0.00    -0.167 A  
HETATM   20  N   UNL     1      -9.850   5.445  67.306  1.00  0.00    -0.144 NA 
HETATM   21  C   UNL     1      -8.937   4.794  66.497  1.00  0.00    -0.112 A  
HETATM   22  C   UNL     1      -8.273   5.611  65.619  1.00  0.00    -0.126 A  
HETATM   23  N   UNL     1      -7.284   5.215  64.672  1.00  0.00    -0.057 N  
HETATM   24  S   UNL     1      -8.777   7.223  65.783  1.00  0.00    -0.060 SA 
HETATM   25  O   UNL     1      -7.005   4.009  64.638  1.00  0.00    -0.048 OA 
HETATM   26  O   UNL     1      -6.781   6.088  63.952  1.00  0.00    -0.036 OA 
ENDBRANCH  17  19
ENDBRANCH  15  17
ENDBRANCH  13  15
ENDBRANCH   3   8
ENDBRANCH   2   3
TORSDOF 7
ENDMDL
MODEL      215
REMARK 921   NORMALIZED FREE ENERGY PREDICTED BY IDOCK:   -3.31 KCAL/MOL
REMARK 922        TOTAL FREE ENERGY PREDICTED BY IDOCK:   -5.30 KCAL/MOL
REMARK 923 INTER-LIGAND FREE ENERGY PREDICTED BY IDOCK:   -4.50 KCAL/MOL
REMARK 924 INTRA-LIGAND FREE ENERGY PREDICTED BY IDOCK:   -0.79 KCAL/MOL
REMARK 927      BINDING AFFINITY PREDICTED BY RF-SCORE:    0.00 PKD
ROOT
HETATM    1  C   UNL     1      -7.047   4.014  66.786  1.00  0.00    -0.064 C  
HETATM    2  C   UNL     1      -7.736   3.488  65.536  1.00  0.00    -0.081 C  
ENDROOT
BRANCH   2   3
HETATM    3  N   UNL     1      -8.544   4.525  64.882  1.00  0.00    -0.129 NA 
BRANCH   3   4
HETATM    4  C   UNL     1      -8.866   4.373  63.455  1.00  0.00    -0.131 C  
BRANCH   4   5
HETATM    5  C   UNL     1      -9.694   3.100  63.207  1.00  0.00    -0.099 C  
HETATM    6  H   UNL     1     -11.503   2.413  63.639  1.00  0.00     0.000 HD 
HETATM    7  O   UNL     1     -10.991   3.198  63.792  1.00  0.00    -0.249 OA 
ENDBRANCH   4   5
ENDBRANCH   3   4
BRANCH   3   8
HETATM    8  C   UNL     1      -9.149   5.515  65.645  1.00  0.00    -0.122 A  
HETATM    9  C   UNL     1      -8.690   9.256  66.178  1.00  0.00    -0.169 C  
HETATM   10  C   UNL     1     -10.288   5.284  66.424  1.00  0.00    -0.315 A  
HETATM   11  C   UNL     1     -10.908   6.314  67.149  1.00  0.00    -0.460 A  
HETATM   12  C   UNL     1      -8.650   6.824  65.635  1.00  0.00    -0.126 A  
HETATM   13  C   UNL     1     -10.424   7.628  67.095  1.00  0.00    -0.342 A  
HETATM   14  C   UNL     1      -9.282   7.880  66.319  1.00  0.00    -0.231 A  
BRANCH  13  15
HETATM   15  N   UNL     1     -10.994   8.678  67.844  1.00  0.00    -0.487 NA 
HETATM   16  H   UNL     1     -11.161   9.608  67.462  1.00  0.00     0.000 HD 
BRANCH  15  17
HETATM   17  N   UNL     1     -11.273   8.361  69.019  1.00  0.00    -0.311 NA 
HETATM   18  H   UNL     1     -12.183   7.992  69.297  1.00  0.00     0.000 HD 
BRANCH  17  19
HETATM   19  C   UNL     1     -10.245   8.553  69.896  1.00  0.00    -0.204 A  
HETATM   20  N   UNL     1      -9.455   9.611  70.009  1.00  0.00    -0.228 NA 
HETATM   21  C   UNL     1      -8.545   9.441  71.036  1.00  0.00     0.019 A  
HETATM   22  C   UNL     1      -8.651   8.245  71.695  1.00  0.00    -0.155 A  
HETATM   23  N   UNL     1      -7.848   7.803  72.788  1.00  0.00    -0.103 N  
HETATM   24  S   UNL     1      -9.898   7.296  71.045  1.00  0.00    -0.182 SA 
HETATM   25  O   UNL     1      -6.974   8.587  73.182  1.00  0.00    -0.227 OA 
HETATM   26  O   UNL     1      -8.079   6.686  73.269  1.00  0.00    -0.107 OA 
ENDBRANCH  17  19
ENDBRANCH  15  17
ENDBRANCH  13  15
ENDBRANCH   3   8
ENDBRANCH   2   3
TORSDOF 7
ENDMDL
MODEL      216
REMARK 921   NORMALIZED FREE ENERGY PREDICTED BY IDOCK:   -3.31 KCAL/MOL
REMARK 922        TOTAL FREE ENERGY PREDICTED BY IDOCK:   -5.29 KCAL/MOL
REMARK 923 INTER-LIGAND FREE ENERGY PREDICTED BY IDOCK:   -4.86 KCAL/MOL
REMARK 924 INTRA-LIGAND FREE ENERGY PREDICTED BY IDOCK:   -0.42 KCAL/MOL
REMARK 927      BINDING AFFINITY PREDICTED BY RF-SCORE:    0.00 PKD
ROOT
HETATM    1  C   UNL     1      -5.795   6.875  72.709  1.00  0.00    -0.042 C  
HETATM    2  C   UNL     1      -6.746   7.591  71.762  1.00  0.00    -0.053 C  
ENDROOT
BRANCH   2   3
HETATM    3  N   UNL     1      -7.446   6.650  70.878  1.00  0.00    -0.083 NA 
BRANCH   3   4
HETATM    4  C   UNL     1      -7.758   5.305  71.387  1.00  0.00    -0.106 C  
BRANCH   4   5
HETATM    5  C   UNL     1      -9.141   5.276  72.061  1.00  0.00    -0.137 C  
HETATM    6  H   UNL     1     -10.896   4.397  71.783  1.00  0.00     0.000 HD 
HETATM    7  O   UNL     1     -10.042   4.415  71.367  1.00  0.00    -0.186 OA 
ENDBRANCH   4   5
ENDBRANCH   3   4
BRANCH   3   8
HETATM    8  C   UNL     1      -7.969   7.092  69.671  1.00  0.00    -0.124 A  
HETATM    9  C   UNL     1     -11.256   8.587  68.468  1.00  0.00     0.498 C  
HETATM   10  C   UNL     1      -7.213   7.155  68.494  1.00  0.00    -0.094 A  
HETATM   11  C   UNL     1      -7.753   7.650  67.297  1.00  0.00    -0.113 A  
HETATM   12  C   UNL     1      -9.294   7.537  69.591  1.00  0.00    -0.153 A  
HETATM   13  C   UNL     1      -9.067   8.133  67.241  1.00  0.00    -0.138 A  
HETATM   14  C   UNL     1      -9.840   8.080  68.411  1.00  0.00    -0.184 A  
BRANCH  13  15
HETATM   15  N   UNL     1      -9.656   8.597  66.048  1.00  0.00    -0.389 NA 
HETATM   16  H   UNL     1     -10.399   8.097  65.561  1.00  0.00     0.000 HD 
BRANCH  15  17
HETATM   17  N   UNL     1      -9.181   9.680  65.643  1.00  0.00    -0.197 NA 
HETATM   18  H   UNL     1      -8.229   9.774  65.289  1.00  0.00     0.000 HD 
BRANCH  17  19
HETATM   19  C   UNL     1     -10.057  10.724  65.721  1.00  0.00    -0.261 A  
HETATM   20  N   UNL     1     -10.506  11.334  66.808  1.00  0.00    -0.238 NA 
HETATM   21  C   UNL     1     -11.362  12.367  66.476  1.00  0.00    -0.340 A  
HETATM   22  C   UNL     1     -11.560  12.529  65.130  1.00  0.00    -0.353 A  
HETATM   23  N   UNL     1     -12.387  13.509  64.505  1.00  0.00    -0.377 N  
HETATM   24  S   UNL     1     -10.675  11.389  64.239  1.00  0.00    -0.352 SA 
HETATM   25  O   UNL     1     -12.977  14.295  65.259  1.00  0.00    -0.679 OA 
HETATM   26  O   UNL     1     -12.454  13.515  63.268  1.00  0.00    -0.763 OA 
ENDBRANCH  17  19
ENDBRANCH  15  17
ENDBRANCH  13  15
ENDBRANCH   3   8
ENDBRANCH   2   3
TORSDOF 7
ENDMDL
MODEL      217
REMARK 921   NORMALIZED FREE ENERGY PREDICTED BY IDOCK:   -3.23 KCAL/MOL
REMARK 922        TOTAL FREE ENERGY PREDICTED BY IDOCK:   -5.19 KCAL/MOL
REMARK 923 INTER-LIGAND FREE ENERGY PREDICTED BY IDOCK:   -5.11 KCAL/MOL
REMARK 924 INTRA-LIGAND FREE ENERGY PREDICTED BY IDOCK:   -0.07 KCAL/MOL
REMARK 927      BINDING AFFINITY PREDICTED BY RF-SCORE:    0.00 PKD
ROOT
HETATM    1  C   UNL     1     -10.830  15.673  71.528  1.00  0.00     0.095 C  
HETATM    2  C   UNL     1     -12.342  15.742  71.373  1.00  0.00    -0.448 C  
ENDROOT
BRANCH   2   3
HETATM    3  N   UNL     1     -12.874  14.555  70.692  1.00  0.00    -0.353 NA 
BRANCH   3   4
HETATM    4  C   UNL     1     -14.073  13.904  71.244  1.00  0.00     0.126 C  
BRANCH   4   5
HETATM    5  C   UNL     1     -13.718  13.030  72.459  1.00  0.00    -0.398 C  
HETATM    6  H   UNL     1     -13.339  11.121  72.840  1.00  0.00     0.000 HD 
HETATM    7  O   UNL     1     -13.558  11.662  72.090  1.00  0.00    -0.332 OA 
ENDBRANCH   4   5
ENDBRANCH   3   4
BRANCH   3   8
HETATM    8  C   UNL     1     -12.371  14.184  69.453  1.00  0.00    -0.205 A  
HETATM    9  C   UNL     1     -10.866  15.957  66.440  1.00  0.00    -0.193 C  
HETATM   10  C   UNL     1     -12.224  12.848  69.063  1.00  0.00    -0.055 A  
HETATM   11  C   UNL     1     -11.669  12.498  67.822  1.00  0.00    -0.419 A  
HETATM   12  C   UNL     1     -11.945  15.155  68.539  1.00  0.00    -0.243 A  
HETATM   13  C   UNL     1     -11.207  13.479  66.935  1.00  0.00    -0.311 A  
HETATM   14  C   UNL     1     -11.343  14.825  67.309  1.00  0.00    -0.366 A  
BRANCH  13  15
HETATM   15  N   UNL     1     -10.683  13.168  65.664  1.00  0.00    -0.277 NA 
HETATM   16  H   UNL     1     -11.222  13.251  64.802  1.00  0.00     0.000 HD 
BRANCH  15  17
HETATM   17  N   UNL     1      -9.496  12.781  65.693  1.00  0.00    -0.464 NA 
HETATM   18  H   UNL     1      -8.709  13.372  65.424  1.00  0.00     0.000 HD 
BRANCH  17  19
HETATM   19  C   UNL     1      -9.351  11.492  66.118  1.00  0.00    -0.215 A  
HETATM   20  N   UNL     1     -10.049  10.427  65.750  1.00  0.00    -0.264 NA 
HETATM   21  C   UNL     1      -9.587   9.290  66.385  1.00  0.00    -0.238 A  
HETATM   22  C   UNL     1      -8.536   9.504  67.239  1.00  0.00    -0.128 A  
HETATM   23  N   UNL     1      -7.863   8.520  68.021  1.00  0.00    -0.102 N  
HETATM   24  S   UNL     1      -8.097  11.142  67.269  1.00  0.00    -0.142 SA 
HETATM   25  O   UNL     1      -8.267   7.354  67.907  1.00  0.00    -0.118 OA 
HETATM   26  O   UNL     1      -6.928   8.887  68.745  1.00  0.00    -0.061 OA 
ENDBRANCH  17  19
ENDBRANCH  15  17
ENDBRANCH  13  15
ENDBRANCH   3   8
ENDBRANCH   2   3
TORSDOF 7
ENDMDL
MODEL      218
REMARK 921   NORMALIZED FREE ENERGY PREDICTED BY IDOCK:   -3.16 KCAL/MOL
REMARK 922        TOTAL FREE ENERGY PREDICTED BY IDOCK:   -5.08 KCAL/MOL
REMARK 923 INTER-LIGAND FREE ENERGY PREDICTED BY IDOCK:   -4.62 KCAL/MOL
REMARK 924 INTRA-LIGAND FREE ENERGY PREDICTED BY IDOCK:   -0.46 KCAL/MOL
REMARK 927      BINDING AFFINITY PREDICTED BY RF-SCORE:    0.00 PKD
ROOT
HETATM    1  C   UNL     1      -9.556  13.078  67.721  1.00  0.00    -0.208 C  
HETATM    2  C   UNL     1     -10.885  12.598  67.156  1.00  0.00    -0.253 C  
ENDROOT
BRANCH   2   3
HETATM    3  N   UNL     1     -10.703  11.823  65.922  1.00  0.00    -0.273 NA 
BRANCH   3   4
HETATM    4  C   UNL     1     -11.000  12.468  64.634  1.00  0.00    -0.310 C  
BRANCH   4   5
HETATM    5  C   UNL     1     -12.516  12.665  64.450  1.00  0.00    -0.428 C  
HETATM    6  H   UNL     1     -13.861  14.092  64.740  1.00  0.00     0.000 HD 
HETATM    7  O   UNL     1     -12.926  13.970  64.853  1.00  0.00    -0.707 OA 
ENDBRANCH   4   5
ENDBRANCH   3   4
BRANCH   3   8
HETATM    8  C   UNL     1     -10.080  10.583  65.969  1.00  0.00    -0.256 A  
HETATM    9  C   UNL     1      -8.396   8.244  63.483  1.00  0.00    -0.020 C  
HETATM   10  C   UNL     1      -9.846   9.896  67.166  1.00  0.00    -0.235 A  
HETATM   11  C   UNL     1      -9.171   8.665  67.190  1.00  0.00    -0.175 A  
HETATM   12  C   UNL     1      -9.618   9.975  64.795  1.00  0.00    -0.374 A  
HETATM   13  C   UNL     1      -8.675   8.090  66.013  1.00  0.00    -0.157 A  
HETATM   14  C   UNL     1      -8.899   8.764  64.802  1.00  0.00    -0.089 A  
BRANCH  13  15
HETATM   15  N   UNL     1      -8.032   6.836  65.993  1.00  0.00    -0.104 NA 
HETATM   16  H   UNL     1      -7.110   6.688  65.583  1.00  0.00     0.000 HD 
BRANCH  15  17
HETATM   17  N   UNL     1      -8.698   5.923  66.526  1.00  0.00    -0.122 NA 
HETATM   18  H   UNL     1      -8.973   5.933  67.509  1.00  0.00     0.000 HD 
BRANCH  17  19
HETATM   19  C   UNL     1      -9.022   4.912  65.669  1.00  0.00    -0.146 A  
HETATM   20  N   UNL     1     -10.227   4.443  65.378  1.00  0.00    -0.245 NA 
HETATM   21  C   UNL     1     -10.149   3.428  64.443  1.00  0.00    -0.151 A  
HETATM   22  C   UNL     1      -8.876   3.130  64.034  1.00  0.00    -0.096 A  
HETATM   23  N   UNL     1      -8.500   2.135  63.084  1.00  0.00    -0.076 N  
HETATM   24  S   UNL     1      -7.737   4.118  64.811  1.00  0.00    -0.078 SA 
HETATM   25  O   UNL     1      -9.422   1.483  62.575  1.00  0.00    -0.084 OA 
HETATM   26  O   UNL     1      -7.297   1.996  62.828  1.00  0.00    -0.038 OA 
ENDBRANCH  17  19
ENDBRANCH  15  17
ENDBRANCH  13  15
ENDBRANCH   3   8
ENDBRANCH   2   3
TORSDOF 7
ENDMDL
MODEL      219
REMARK 921   NORMALIZED FREE ENERGY PREDICTED BY IDOCK:   -3.15 KCAL/MOL
REMARK 922        TOTAL FREE ENERGY PREDICTED BY IDOCK:   -5.06 KCAL/MOL
REMARK 923 INTER-LIGAND FREE ENERGY PREDICTED BY IDOCK:   -5.55 KCAL/MOL
REMARK 924 INTRA-LIGAND FREE ENERGY PREDICTED BY IDOCK:    0.49 KCAL/MOL
REMARK 927      BINDING AFFINITY PREDICTED BY RF-SCORE:    0.00 PKD
ROOT
HETATM    1  C   UNL     1      -6.267   8.097  65.965  1.00  0.00    -0.045 C  
HETATM    2  C   UNL     1      -7.644   8.557  66.420  1.00  0.00    -0.091 C  
ENDROOT
BRANCH   2   3
HETATM    3  N   UNL     1      -8.328   9.338  65.381  1.00  0.00    -0.130 NA 
BRANCH   3   4
HETATM    4  C   UNL     1      -8.188   8.920  63.977  1.00  0.00    -0.168 C  
BRANCH   4   5
HETATM    5  C   UNL     1      -6.862   9.423  63.380  1.00  0.00    -0.097 C  
HETATM    6  H   UNL     1      -5.885  11.139  63.199  1.00  0.00     0.000 HD 
HETATM    7  O   UNL     1      -6.703  10.828  63.568  1.00  0.00     0.096 OA 
ENDBRANCH   4   5
ENDBRANCH   3   4
BRANCH   3   8
HETATM    8  C   UNL     1      -9.238  10.322  65.741  1.00  0.00    -0.175 A  
HETATM    9  C   UNL     1     -11.461  11.062  68.741  1.00  0.00    -0.372 C  
HETATM   10  C   UNL     1      -9.474  11.460  64.961  1.00  0.00    -0.209 A  
HETATM   11  C   UNL     1     -10.366  12.464  65.372  1.00  0.00    -0.303 A  
HETATM   12  C   UNL     1      -9.945  10.230  66.946  1.00  0.00    -0.259 A  
HETATM   13  C   UNL     1     -11.033  12.380  66.600  1.00  0.00    -0.268 A  
HETATM   14  C   UNL     1     -10.809  11.246  67.397  1.00  0.00    -0.311 A  
BRANCH  13  15
HETATM   15  N   UNL     1     -11.967  13.346  67.025  1.00  0.00    -0.389 NA 
HETATM   16  H   UNL     1     -12.888  13.457  66.600  1.00  0.00     0.000 HD 
BRANCH  15  17
HETATM   17  N   UNL     1     -11.560  14.053  67.971  1.00  0.00    -0.317 NA 
HETATM   18  H   UNL     1     -11.532  13.729  68.938  1.00  0.00     0.000 HD 
BRANCH  17  19
HETATM   19  C   UNL     1     -11.158  15.300  67.588  1.00  0.00    -0.323 A  
HETATM   20  N   UNL     1     -11.026  15.774  66.358  1.00  0.00    -0.224 NA 
HETATM   21  C   UNL     1     -10.619  17.094  66.378  1.00  0.00    -0.172 A  
HETATM   22  C   UNL     1     -10.441  17.614  67.633  1.00  0.00    -0.372 A  
HETATM   23  N   UNL     1     -10.028  18.941  67.952  1.00  0.00    -0.335 N  
HETATM   24  S   UNL     1     -10.780  16.458  68.827  1.00  0.00    -0.342 SA 
HETATM   25  O   UNL     1      -9.819  19.699  66.995  1.00  0.00    -0.331 OA 
HETATM   26  O   UNL     1      -9.915  19.247  69.147  1.00  0.00    -0.417 OA 
ENDBRANCH  17  19
ENDBRANCH  15  17
ENDBRANCH  13  15
ENDBRANCH   3   8
ENDBRANCH   2   3
TORSDOF 7
ENDMDL
MODEL      220
REMARK 921   NORMALIZED FREE ENERGY PREDICTED BY IDOCK:   -3.14 KCAL/MOL
REMARK 922        TOTAL FREE ENERGY PREDICTED BY IDOCK:   -5.05 KCAL/MOL
REMARK 923 INTER-LIGAND FREE ENERGY PREDICTED BY IDOCK:   -4.38 KCAL/MOL
REMARK 924 INTRA-LIGAND FREE ENERGY PREDICTED BY IDOCK:   -0.66 KCAL/MOL
REMARK 927      BINDING AFFINITY PREDICTED BY RF-SCORE:    0.00 PKD
ROOT
HETATM    1  C   UNL     1     -10.341   3.743  64.454  1.00  0.00    -0.235 C  
HETATM    2  C   UNL     1      -8.956   4.373  64.481  1.00  0.00    -0.151 C  
ENDROOT
BRANCH   2   3
HETATM    3  N   UNL     1      -8.632   4.916  65.806  1.00  0.00    -0.124 NA 
BRANCH   3   4
HETATM    4  C   UNL     1      -7.971   4.039  66.786  1.00  0.00    -0.097 C  
BRANCH   4   5
HETATM    5  C   UNL     1      -6.733   3.361  66.174  1.00  0.00    -0.048 C  
HETATM    6  H   UNL     1      -4.912   3.878  65.582  1.00  0.00     0.000 HD 
HETATM    7  O   UNL     1      -5.677   4.296  65.959  1.00  0.00    -0.020 OA 
ENDBRANCH   4   5
ENDBRANCH   3   4
BRANCH   3   8
HETATM    8  C   UNL     1      -8.769   6.276  66.049  1.00  0.00    -0.151 A  
HETATM    9  C   UNL     1      -9.696   8.470  69.018  1.00  0.00    -0.170 C  
HETATM   10  C   UNL     1      -8.451   7.253  65.099  1.00  0.00    -0.029 A  
HETATM   11  C   UNL     1      -8.554   8.623  65.386  1.00  0.00    -0.206 A  
HETATM   12  C   UNL     1      -9.207   6.734  67.298  1.00  0.00    -0.140 A  
HETATM   13  C   UNL     1      -8.951   9.068  66.654  1.00  0.00    -0.135 A  
HETATM   14  C   UNL     1      -9.274   8.103  67.621  1.00  0.00    -0.150 A  
BRANCH  13  15
HETATM   15  N   UNL     1      -9.108  10.434  66.965  1.00  0.00    -0.139 NA 
HETATM   16  H   UNL     1      -8.399  10.980  67.453  1.00  0.00     0.000 HD 
BRANCH  15  17
HETATM   17  N   UNL     1     -10.198  10.911  66.586  1.00  0.00    -0.226 NA 
HETATM   18  H   UNL     1     -10.836  10.419  65.960  1.00  0.00     0.000 HD 
BRANCH  17  19
HETATM   19  C   UNL     1     -10.455  12.154  67.089  1.00  0.00    -0.219 A  
HETATM   20  N   UNL     1      -9.998  13.321  66.658  1.00  0.00    -0.265 NA 
HETATM   21  C   UNL     1     -10.505  14.360  67.414  1.00  0.00    -0.261 A  
HETATM   22  C   UNL     1     -11.346  13.970  68.423  1.00  0.00    -0.291 A  
HETATM   23  N   UNL     1     -12.010  14.823  69.353  1.00  0.00    -0.308 N  
HETATM   24  S   UNL     1     -11.526  12.283  68.452  1.00  0.00    -0.331 SA 
HETATM   25  O   UNL     1     -11.809  16.039  69.227  1.00  0.00    -0.345 OA 
HETATM   26  O   UNL     1     -12.739  14.301  70.208  1.00  0.00    -0.345 OA 
ENDBRANCH  17  19
ENDBRANCH  15  17
ENDBRANCH  13  15
ENDBRANCH   3   8
ENDBRANCH   2   3
TORSDOF 7
ENDMDL
MODEL      221
REMARK 921   NORMALIZED FREE ENERGY PREDICTED BY IDOCK:   -3.11 KCAL/MOL
REMARK 922        TOTAL FREE ENERGY PREDICTED BY IDOCK:   -5.01 KCAL/MOL
REMARK 923 INTER-LIGAND FREE ENERGY PREDICTED BY IDOCK:   -5.85 KCAL/MOL
REMARK 924 INTRA-LIGAND FREE ENERGY PREDICTED BY IDOCK:    0.84 KCAL/MOL
REMARK 927      BINDING AFFINITY PREDICTED BY RF-SCORE:    0.00 PKD
ROOT
HETATM    1  C   UNL     1     -14.397  15.114  71.817  1.00  0.00    -0.696 C  
HETATM    2  C   UNL     1     -13.792  13.742  72.075  1.00  0.00    -0.485 C  
ENDROOT
BRANCH   2   3
HETATM    3  N   UNL     1     -12.686  13.453  71.154  1.00  0.00    -0.349 NA 
BRANCH   3   4
HETATM    4  C   UNL     1     -11.822  14.562  70.719  1.00  0.00    -0.304 C  
BRANCH   4   5
HETATM    5  C   UNL     1     -12.040  14.882  69.230  1.00  0.00    -0.251 C  
HETATM    6  H   UNL     1     -11.154  15.941  67.807  1.00  0.00     0.000 HD 
HETATM    7  O   UNL     1     -11.020  15.743  68.726  1.00  0.00    -0.257 OA 
ENDBRANCH   4   5
ENDBRANCH   3   4
BRANCH   3   8
HETATM    8  C   UNL     1     -12.353  12.137  70.864  1.00  0.00    -0.273 A  
HETATM    9  C   UNL     1     -10.599  10.292  68.033  1.00  0.00    -0.272 C  
HETATM   10  C   UNL     1     -12.566  11.084  71.761  1.00  0.00    -0.311 A  
HETATM   11  C   UNL     1     -12.177   9.769  71.462  1.00  0.00    -0.493 A  
HETATM   12  C   UNL     1     -11.742  11.810  69.647  1.00  0.00    -0.413 A  
HETATM   13  C   UNL     1     -11.527   9.464  70.259  1.00  0.00    -0.180 A  
HETATM   14  C   UNL     1     -11.303  10.506  69.346  1.00  0.00    -0.331 A  
BRANCH  13  15
HETATM   15  N   UNL     1     -11.161   8.149  69.906  1.00  0.00    -0.446 NA 
HETATM   16  H   UNL     1     -11.810   7.481  69.490  1.00  0.00     0.000 HD 
BRANCH  15  17
HETATM   17  N   UNL     1      -9.966   7.879  70.152  1.00  0.00    -0.189 NA 
HETATM   18  H   UNL     1      -9.617   7.695  71.093  1.00  0.00     0.000 HD 
BRANCH  17  19
HETATM   19  C   UNL     1      -9.172   7.855  69.042  1.00  0.00    -0.147 A  
HETATM   20  N   UNL     1      -7.958   8.364  68.894  1.00  0.00    -0.113 NA 
HETATM   21  C   UNL     1      -7.468   8.113  67.627  1.00  0.00    -0.094 A  
HETATM   22  C   UNL     1      -8.323   7.415  66.816  1.00  0.00    -0.122 A  
HETATM   23  N   UNL     1      -8.081   7.018  65.467  1.00  0.00    -0.126 N  
HETATM   24  S   UNL     1      -9.770   7.050  67.622  1.00  0.00    -0.142 SA 
HETATM   25  O   UNL     1      -6.983   7.333  64.988  1.00  0.00    -0.052 OA 
HETATM   26  O   UNL     1      -8.967   6.389  64.875  1.00  0.00     0.194 OA 
ENDBRANCH  17  19
ENDBRANCH  15  17
ENDBRANCH  13  15
ENDBRANCH   3   8
ENDBRANCH   2   3
TORSDOF 7
ENDMDL
MODEL      222
REMARK 921   NORMALIZED FREE ENERGY PREDICTED BY IDOCK:   -3.11 KCAL/MOL
REMARK 922        TOTAL FREE ENERGY PREDICTED BY IDOCK:   -5.01 KCAL/MOL
REMARK 923 INTER-LIGAND FREE ENERGY PREDICTED BY IDOCK:   -4.63 KCAL/MOL
REMARK 924 INTRA-LIGAND FREE ENERGY PREDICTED BY IDOCK:   -0.39 KCAL/MOL
REMARK 927      BINDING AFFINITY PREDICTED BY RF-SCORE:    0.00 PKD
ROOT
HETATM    1  C   UNL     1      -6.613   9.374  67.137  1.00  0.00    -0.071 C  
HETATM    2  C   UNL     1      -7.865   9.743  67.917  1.00  0.00    -0.090 C  
ENDROOT
BRANCH   2   3
HETATM    3  N   UNL     1      -7.570   9.990  69.335  1.00  0.00    -0.108 NA 
BRANCH   3   4
HETATM    4  C   UNL     1      -6.544  10.987  69.677  1.00  0.00    -0.132 C  
BRANCH   4   5
HETATM    5  C   UNL     1      -6.820  12.329  68.977  1.00  0.00    -0.094 C  
HETATM    6  H   UNL     1      -5.781  13.853  68.251  1.00  0.00     0.000 HD 
HETATM    7  O   UNL     1      -5.611  13.025  68.683  1.00  0.00    -0.065 OA 
ENDBRANCH   4   5
ENDBRANCH   3   4
BRANCH   3   8
HETATM    8  C   UNL     1      -8.381   9.439  70.317  1.00  0.00    -0.195 A  
HETATM    9  C   UNL     1     -12.111   9.295  71.058  1.00  0.00    -0.349 C  
HETATM   10  C   UNL     1      -7.885   8.623  71.341  1.00  0.00    -0.162 A  
HETATM   11  C   UNL     1      -8.733   8.039  72.295  1.00  0.00    -0.220 A  
HETATM   12  C   UNL     1      -9.764   9.653  70.300  1.00  0.00    -0.314 A  
HETATM   13  C   UNL     1     -10.120   8.226  72.240  1.00  0.00    -0.300 A  
HETATM   14  C   UNL     1     -10.637   9.041  71.220  1.00  0.00    -0.378 A  
BRANCH  13  15
HETATM   15  N   UNL     1     -10.998   7.692  73.205  1.00  0.00    -0.477 NA 
HETATM   16  H   UNL     1     -11.181   8.141  74.102  1.00  0.00     0.000 HD 
BRANCH  15  17
HETATM   17  N   UNL     1     -11.528   6.616  72.858  1.00  0.00    -0.481 NA 
HETATM   18  H   UNL     1     -12.401   6.568  72.331  1.00  0.00     0.000 HD 
BRANCH  17  19
HETATM   19  C   UNL     1     -10.830   5.510  73.249  1.00  0.00    -0.293 A  
HETATM   20  N   UNL     1     -10.547   5.116  74.482  1.00  0.00    -0.348 NA 
HETATM   21  C   UNL     1      -9.840   3.929  74.471  1.00  0.00    -0.143 A  
HETATM   22  C   UNL     1      -9.588   3.430  73.220  1.00  0.00    -0.109 A  
HETATM   23  N   UNL     1      -8.884   2.229  72.911  1.00  0.00    -0.067 N  
HETATM   24  S   UNL     1     -10.231   4.439  72.018  1.00  0.00    -0.125 SA 
HETATM   25  O   UNL     1      -8.469   1.570  73.873  1.00  0.00    -0.048 OA 
HETATM   26  O   UNL     1      -8.743   1.924  71.719  1.00  0.00    -0.058 OA 
ENDBRANCH  17  19
ENDBRANCH  15  17
ENDBRANCH  13  15
ENDBRANCH   3   8
ENDBRANCH   2   3
TORSDOF 7
ENDMDL
MODEL      223
REMARK 921   NORMALIZED FREE ENERGY PREDICTED BY IDOCK:   -3.09 KCAL/MOL
REMARK 922        TOTAL FREE ENERGY PREDICTED BY IDOCK:   -4.99 KCAL/MOL
REMARK 923 INTER-LIGAND FREE ENERGY PREDICTED BY IDOCK:   -4.58 KCAL/MOL
REMARK 924 INTRA-LIGAND FREE ENERGY PREDICTED BY IDOCK:   -0.40 KCAL/MOL
REMARK 927      BINDING AFFINITY PREDICTED BY RF-SCORE:    0.00 PKD
ROOT
HETATM    1  C   UNL     1      -9.927   3.766  64.488  1.00  0.00    -0.201 C  
HETATM    2  C   UNL     1      -8.948   3.978  65.633  1.00  0.00    -0.131 C  
ENDROOT
BRANCH   2   3
HETATM    3  N   UNL     1      -9.554   3.662  66.933  1.00  0.00    -0.193 NA 
BRANCH   3   4
HETATM    4  C   UNL     1      -9.404   2.299  67.467  1.00  0.00    -0.106 C  
BRANCH   4   5
HETATM    5  C   UNL     1      -7.933   1.850  67.433  1.00  0.00    -0.065 C  
HETATM    6  H   UNL     1      -6.315   2.022  68.566  1.00  0.00     0.000 HD 
HETATM    7  O   UNL     1      -7.223   2.299  68.586  1.00  0.00    -0.043 OA 
ENDBRANCH   4   5
ENDBRANCH   3   4
BRANCH   3   8
HETATM    8  C   UNL     1     -10.079   4.679  67.717  1.00  0.00    -0.035 A  
HETATM    9  C   UNL     1     -10.252   5.492  71.432  1.00  0.00    -0.275 C  
HETATM   10  C   UNL     1     -10.665   5.829  67.176  1.00  0.00    -0.358 A  
HETATM   11  C   UNL     1     -11.147   6.865  67.992  1.00  0.00    -0.179 A  
HETATM   12  C   UNL     1     -10.007   4.609  69.114  1.00  0.00    -0.208 A  
HETATM   13  C   UNL     1     -11.029   6.802  69.386  1.00  0.00    -0.276 A  
HETATM   14  C   UNL     1     -10.443   5.657  69.948  1.00  0.00    -0.378 A  
BRANCH  13  15
HETATM   15  N   UNL     1     -11.540   7.802  70.238  1.00  0.00    -0.476 NA 
HETATM   16  H   UNL     1     -12.030   7.597  71.109  1.00  0.00     0.000 HD 
BRANCH  15  17
HETATM   17  N   UNL     1     -11.335   8.963  69.825  1.00  0.00    -0.442 NA 
HETATM   18  H   UNL     1     -12.083   9.589  69.524  1.00  0.00     0.000 HD 
BRANCH  17  19
HETATM   19  C   UNL     1     -10.016   9.315  69.815  1.00  0.00    -0.199 A  
HETATM   20  N   UNL     1      -9.346   9.942  68.860  1.00  0.00    -0.162 NA 
HETATM   21  C   UNL     1      -8.030  10.143  69.231  1.00  0.00    -0.138 A  
HETATM   22  C   UNL     1      -7.710   9.659  70.472  1.00  0.00    -0.128 A  
HETATM   23  N   UNL     1      -6.435   9.727  71.108  1.00  0.00    -0.014 N  
HETATM   24  S   UNL     1      -9.055   8.937  71.213  1.00  0.00    -0.239 SA 
HETATM   25  O   UNL     1      -5.531  10.287  70.473  1.00  0.00    -0.053 OA 
HETATM   26  O   UNL     1      -6.319   9.236  72.239  1.00  0.00    -0.283 OA 
ENDBRANCH  17  19
ENDBRANCH  15  17
ENDBRANCH  13  15
ENDBRANCH   3   8
ENDBRANCH   2   3
TORSDOF 7
ENDMDL
MODEL      224
REMARK 921   NORMALIZED FREE ENERGY PREDICTED BY IDOCK:   -3.05 KCAL/MOL
REMARK 922        TOTAL FREE ENERGY PREDICTED BY IDOCK:   -4.93 KCAL/MOL
REMARK 923 INTER-LIGAND FREE ENERGY PREDICTED BY IDOCK:   -4.58 KCAL/MOL
REMARK 924 INTRA-LIGAND FREE ENERGY PREDICTED BY IDOCK:   -0.35 KCAL/MOL
REMARK 927      BINDING AFFINITY PREDICTED BY RF-SCORE:    0.00 PKD
ROOT
HETATM    1  C   UNL     1     -10.606  18.129  66.360  1.00  0.00    -0.288 C  
HETATM    2  C   UNL     1      -9.380  17.444  65.776  1.00  0.00     0.182 C  
ENDROOT
BRANCH   2   3
HETATM    3  N   UNL     1      -8.547  16.834  66.821  1.00  0.00    -0.212 NA 
BRANCH   3   4
HETATM    4  C   UNL     1      -7.425  17.611  67.370  1.00  0.00    -0.194 C  
BRANCH   4   5
HETATM    5  C   UNL     1      -7.750  18.131  68.782  1.00  0.00    -0.264 C  
HETATM    6  H   UNL     1      -8.682  19.676  69.603  1.00  0.00     0.000 HD 
HETATM    7  O   UNL     1      -8.481  19.355  68.732  1.00  0.00    -0.366 OA 
ENDBRANCH   4   5
ENDBRANCH   3   4
BRANCH   3   8
HETATM    8  C   UNL     1      -8.937  15.638  67.407  1.00  0.00    -0.194 A  
HETATM    9  C   UNL     1     -12.006  14.335  69.245  1.00  0.00    -0.375 C  
HETATM   10  C   UNL     1      -8.168  14.471  67.335  1.00  0.00    -0.220 A  
HETATM   11  C   UNL     1      -8.607  13.262  67.897  1.00  0.00    -0.188 A  
HETATM   12  C   UNL     1     -10.163  15.541  68.077  1.00  0.00    -0.229 A  
HETATM   13  C   UNL     1      -9.855  13.168  68.525  1.00  0.00    -0.153 A  
HETATM   14  C   UNL     1     -10.643  14.327  68.606  1.00  0.00    -0.254 A  
BRANCH  13  15
HETATM   15  N   UNL     1     -10.311  11.983  69.137  1.00  0.00    -0.427 NA 
HETATM   16  H   UNL     1     -10.327  11.847  70.148  1.00  0.00     0.000 HD 
BRANCH  15  17
HETATM   17  N   UNL     1     -10.691  11.114  68.324  1.00  0.00    -0.183 NA 
HETATM   18  H   UNL     1     -11.412  11.284  67.621  1.00  0.00     0.000 HD 
BRANCH  17  19
HETATM   19  C   UNL     1     -10.052   9.916  68.464  1.00  0.00    -0.168 A  
HETATM   20  N   UNL     1      -9.107   9.592  69.334  1.00  0.00    -0.157 NA 
HETATM   21  C   UNL     1      -8.727   8.272  69.181  1.00  0.00    -0.143 A  
HETATM   22  C   UNL     1      -9.389   7.603  68.185  1.00  0.00    -0.144 A  
HETATM   23  N   UNL     1      -9.201   6.240  67.807  1.00  0.00    -0.117 N  
HETATM   24  S   UNL     1     -10.511   8.612  67.411  1.00  0.00    -0.247 SA 
HETATM   25  O   UNL     1      -8.360   5.600  68.452  1.00  0.00    -0.105 OA 
HETATM   26  O   UNL     1      -9.887   5.792  66.878  1.00  0.00    -0.136 OA 
ENDBRANCH  17  19
ENDBRANCH  15  17
ENDBRANCH  13  15
ENDBRANCH   3   8
ENDBRANCH   2   3
TORSDOF 7
ENDMDL
MODEL      225
REMARK 921   NORMALIZED FREE ENERGY PREDICTED BY IDOCK:   -3.04 KCAL/MOL
REMARK 922        TOTAL FREE ENERGY PREDICTED BY IDOCK:   -4.90 KCAL/MOL
REMARK 923 INTER-LIGAND FREE ENERGY PREDICTED BY IDOCK:   -4.44 KCAL/MOL
REMARK 924 INTRA-LIGAND FREE ENERGY PREDICTED BY IDOCK:   -0.47 KCAL/MOL
REMARK 927      BINDING AFFINITY PREDICTED BY RF-SCORE:    0.00 PKD
ROOT
HETATM    1  C   UNL     1      -7.585   8.714  62.714  1.00  0.00    -0.112 C  
HETATM    2  C   UNL     1      -7.429   9.978  63.545  1.00  0.00    -0.140 C  
ENDROOT
BRANCH   2   3
HETATM    3  N   UNL     1      -8.703  10.395  64.146  1.00  0.00    -0.189 NA 
BRANCH   3   4
HETATM    4  C   UNL     1      -9.853  10.638  63.261  1.00  0.00    -0.312 C  
BRANCH   4   5
HETATM    5  C   UNL     1     -10.398  12.066  63.441  1.00  0.00    -0.434 C  
HETATM    6  H   UNL     1     -11.823  12.980  64.473  1.00  0.00     0.000 HD 
HETATM    7  O   UNL     1     -11.486  12.099  64.362  1.00  0.00    -0.324 OA 
ENDBRANCH   4   5
ENDBRANCH   3   4
BRANCH   3   8
HETATM    8  C   UNL     1      -8.861  10.365  65.525  1.00  0.00    -0.176 A  
HETATM    9  C   UNL     1      -8.231  12.744  68.428  1.00  0.00    -0.128 C  
HETATM   10  C   UNL     1      -9.467   9.297  66.196  1.00  0.00    -0.298 A  
HETATM   11  C   UNL     1      -9.657   9.313  67.587  1.00  0.00    -0.172 A  
HETATM   12  C   UNL     1      -8.443  11.445  66.312  1.00  0.00    -0.138 A  
HETATM   13  C   UNL     1      -9.274  10.419  68.356  1.00  0.00    -0.147 A  
HETATM   14  C   UNL     1      -8.665  11.500  67.701  1.00  0.00    -0.142 A  
BRANCH  13  15
HETATM   15  N   UNL     1      -9.409  10.452  69.759  1.00  0.00    -0.411 NA 
HETATM   16  H   UNL     1     -10.269  10.732  70.231  1.00  0.00     0.000 HD 
BRANCH  15  17
HETATM   17  N   UNL     1      -8.376  10.106  70.370  1.00  0.00    -0.378 NA 
HETATM   18  H   UNL     1      -7.458  10.513  70.190  1.00  0.00     0.000 HD 
BRANCH  17  19
HETATM   19  C   UNL     1      -8.592   9.130  71.300  1.00  0.00    -0.063 A  
HETATM   20  N   UNL     1      -9.432   9.150  72.325  1.00  0.00    -0.082 NA 
HETATM   21  C   UNL     1      -9.382   7.961  73.027  1.00  0.00    -0.265 A  
HETATM   22  C   UNL     1      -8.494   7.044  72.528  1.00  0.00    -0.112 A  
HETATM   23  N   UNL     1      -8.237   5.741  73.048  1.00  0.00    -0.118 N  
HETATM   24  S   UNL     1      -7.695   7.648  71.159  1.00  0.00    -0.086 SA 
HETATM   25  O   UNL     1      -8.889   5.406  74.046  1.00  0.00    -0.120 OA 
HETATM   26  O   UNL     1      -7.396   5.037  72.471  1.00  0.00    -0.087 OA 
ENDBRANCH  17  19
ENDBRANCH  15  17
ENDBRANCH  13  15
ENDBRANCH   3   8
ENDBRANCH   2   3
TORSDOF 7
ENDMDL
MODEL      226
REMARK 921   NORMALIZED FREE ENERGY PREDICTED BY IDOCK:   -3.03 KCAL/MOL
REMARK 922        TOTAL FREE ENERGY PREDICTED BY IDOCK:   -4.90 KCAL/MOL
REMARK 923 INTER-LIGAND FREE ENERGY PREDICTED BY IDOCK:   -5.42 KCAL/MOL
REMARK 924 INTRA-LIGAND FREE ENERGY PREDICTED BY IDOCK:    0.52 KCAL/MOL
REMARK 927      BINDING AFFINITY PREDICTED BY RF-SCORE:    0.00 PKD
ROOT
HETATM    1  C   UNL     1     -12.012  12.586  66.693  1.00  0.00    -0.351 C  
HETATM    2  C   UNL     1     -11.193  11.344  66.376  1.00  0.00    -0.183 C  
ENDROOT
BRANCH   2   3
HETATM    3  N   UNL     1     -10.018  11.230  67.250  1.00  0.00    -0.182 NA 
BRANCH   3   4
HETATM    4  C   UNL     1      -9.669   9.908  67.792  1.00  0.00    -0.150 C  
BRANCH   4   5
HETATM    5  C   UNL     1     -10.576   9.540  68.979  1.00  0.00    -0.219 C  
HETATM    6  H   UNL     1     -10.989   7.941  70.077  1.00  0.00     0.000 HD 
HETATM    7  O   UNL     1     -10.429   8.169  69.344  1.00  0.00    -0.220 OA 
ENDBRANCH   4   5
ENDBRANCH   3   4
BRANCH   3   8
HETATM    8  C   UNL     1      -9.154  12.307  67.392  1.00  0.00    -0.184 A  
HETATM    9  C   UNL     1      -6.084  13.126  69.487  1.00  0.00    -0.114 C  
HETATM   10  C   UNL     1      -9.225  13.448  66.585  1.00  0.00    -0.223 A  
HETATM   11  C   UNL     1      -8.309  14.504  66.719  1.00  0.00    -0.041 A  
HETATM   12  C   UNL     1      -8.131  12.277  68.348  1.00  0.00    -0.151 A  
HETATM   13  C   UNL     1      -7.264  14.441  67.649  1.00  0.00    -0.184 A  
HETATM   14  C   UNL     1      -7.176  13.304  68.467  1.00  0.00    -0.110 A  
BRANCH  13  15
HETATM   15  N   UNL     1      -6.353  15.499  67.841  1.00  0.00    -0.139 NA 
HETATM   16  H   UNL     1      -5.876  15.672  68.726  1.00  0.00     0.000 HD 
BRANCH  15  17
HETATM   17  N   UNL     1      -6.185  16.205  66.824  1.00  0.00    -0.260 NA 
HETATM   18  H   UNL     1      -5.515  15.976  66.090  1.00  0.00     0.000 HD 
BRANCH  17  19
HETATM   19  C   UNL     1      -6.983  17.312  66.789  1.00  0.00    -0.214 A  
HETATM   20  N   UNL     1      -7.217  18.119  65.764  1.00  0.00    -0.513 NA 
HETATM   21  C   UNL     1      -8.104  19.118  66.115  1.00  0.00    -0.264 A  
HETATM   22  C   UNL     1      -8.537  19.063  67.414  1.00  0.00    -0.278 A  
HETATM   23  N   UNL     1      -9.449  19.960  68.044  1.00  0.00    -0.356 N  
HETATM   24  S   UNL     1      -7.841  17.752  68.235  1.00  0.00    -0.288 SA 
HETATM   25  O   UNL     1      -9.899  20.874  67.340  1.00  0.00    -0.444 OA 
HETATM   26  O   UNL     1      -9.733  19.765  69.234  1.00  0.00    -0.348 OA 
ENDBRANCH  17  19
ENDBRANCH  15  17
ENDBRANCH  13  15
ENDBRANCH   3   8
ENDBRANCH   2   3
TORSDOF 7
ENDMDL
MODEL      227
REMARK 921   NORMALIZED FREE ENERGY PREDICTED BY IDOCK:   -2.97 KCAL/MOL
REMARK 922        TOTAL FREE ENERGY PREDICTED BY IDOCK:   -4.81 KCAL/MOL
REMARK 923 INTER-LIGAND FREE ENERGY PREDICTED BY IDOCK:   -5.32 KCAL/MOL
REMARK 924 INTRA-LIGAND FREE ENERGY PREDICTED BY IDOCK:    0.51 KCAL/MOL
REMARK 927      BINDING AFFINITY PREDICTED BY RF-SCORE:    0.00 PKD
ROOT
HETATM    1  C   UNL     1      -5.599   9.927  68.083  1.00  0.00    -0.039 C  
HETATM    2  C   UNL     1      -5.539   9.419  66.650  1.00  0.00    -0.046 C  
ENDROOT
BRANCH   2   3
HETATM    3  N   UNL     1      -6.864   9.417  66.017  1.00  0.00    -0.087 NA 
BRANCH   3   4
HETATM    4  C   UNL     1      -7.162   8.388  65.009  1.00  0.00    -0.084 C  
BRANCH   4   5
HETATM    5  C   UNL     1      -6.099   7.275  65.023  1.00  0.00    -0.038 C  
HETATM    6  H   UNL     1      -5.887   5.451  65.770  1.00  0.00     0.000 HD 
HETATM    7  O   UNL     1      -6.543   6.138  65.761  1.00  0.00    -0.045 OA 
ENDBRANCH   4   5
ENDBRANCH   3   4
BRANCH   3   8
HETATM    8  C   UNL     1      -7.866  10.244  66.506  1.00  0.00    -0.116 A  
HETATM    9  C   UNL     1     -10.587  12.456  65.027  1.00  0.00    -0.330 C  
HETATM   10  C   UNL     1      -8.155  10.360  67.871  1.00  0.00    -0.102 A  
HETATM   11  C   UNL     1      -9.205  11.168  68.336  1.00  0.00    -0.175 A  
HETATM   12  C   UNL     1      -8.670  10.982  65.629  1.00  0.00    -0.162 A  
HETATM   13  C   UNL     1     -10.029  11.866  67.445  1.00  0.00    -0.190 A  
HETATM   14  C   UNL     1      -9.756  11.761  66.072  1.00  0.00    -0.254 A  
BRANCH  13  15
HETATM   15  N   UNL     1     -11.064  12.720  67.877  1.00  0.00    -0.234 NA 
HETATM   16  H   UNL     1     -12.043  12.435  67.916  1.00  0.00     0.000 HD 
BRANCH  15  17
HETATM   17  N   UNL     1     -10.669  13.858  68.207  1.00  0.00    -0.245 NA 
HETATM   18  H   UNL     1      -9.943  14.366  67.701  1.00  0.00     0.000 HD 
BRANCH  17  19
HETATM   19  C   UNL     1     -11.302  14.358  69.308  1.00  0.00    -0.284 A  
HETATM   20  N   UNL     1     -11.273  15.598  69.774  1.00  0.00    -0.292 NA 
HETATM   21  C   UNL     1     -12.065  15.721  70.900  1.00  0.00    -0.416 A  
HETATM   22  C   UNL     1     -12.690  14.564  71.283  1.00  0.00    -0.342 A  
HETATM   23  N   UNL     1     -13.561  14.399  72.400  1.00  0.00    -0.439 N  
HETATM   24  S   UNL     1     -12.302  13.284  70.240  1.00  0.00    -0.212 SA 
HETATM   25  O   UNL     1     -13.778  15.408  73.085  1.00  0.00    -0.446 OA 
HETATM   26  O   UNL     1     -14.043  13.277  72.605  1.00  0.00    -0.744 OA 
ENDBRANCH  17  19
ENDBRANCH  15  17
ENDBRANCH  13  15
ENDBRANCH   3   8
ENDBRANCH   2   3
TORSDOF 7
ENDMDL
MODEL      228
REMARK 921   NORMALIZED FREE ENERGY PREDICTED BY IDOCK:   -2.88 KCAL/MOL
REMARK 922        TOTAL FREE ENERGY PREDICTED BY IDOCK:   -4.68 KCAL/MOL
REMARK 923 INTER-LIGAND FREE ENERGY PREDICTED BY IDOCK:   -4.09 KCAL/MOL
REMARK 924 INTRA-LIGAND FREE ENERGY PREDICTED BY IDOCK:   -0.59 KCAL/MOL
REMARK 927      BINDING AFFINITY PREDICTED BY RF-SCORE:    0.00 PKD
ROOT
HETATM    1  C   UNL     1     -10.537   9.503  68.448  1.00  0.00    -0.261 C  
HETATM    2  C   UNL     1     -10.363  10.345  69.703  1.00  0.00    -0.226 C  
ENDROOT
BRANCH   2   3
HETATM    3  N   UNL     1     -10.919   9.678  70.887  1.00  0.00    -0.317 NA 
BRANCH   3   4
HETATM    4  C   UNL     1     -12.241  10.098  71.377  1.00  0.00    -0.397 C  
BRANCH   4   5
HETATM    5  C   UNL     1     -12.775  11.296  70.571  1.00  0.00    -0.174 C  
HETATM    6  H   UNL     1     -12.852  13.269  70.743  1.00  0.00     0.000 HD 
HETATM    7  O   UNL     1     -12.523  12.530  71.240  1.00  0.00    -0.305 OA 
ENDBRANCH   4   5
ENDBRANCH   3   4
BRANCH   3   8
HETATM    8  C   UNL     1     -10.296   8.550  71.403  1.00  0.00    -0.239 A  
HETATM    9  C   UNL     1     -11.397   5.219  72.878  1.00  0.00    -0.368 C  
HETATM   10  C   UNL     1      -8.907   8.377  71.389  1.00  0.00    -0.230 A  
HETATM   11  C   UNL     1      -8.304   7.206  71.875  1.00  0.00    -0.106 A  
HETATM   12  C   UNL     1     -11.054   7.501  71.937  1.00  0.00    -0.277 A  
HETATM   13  C   UNL     1      -9.077   6.146  72.366  1.00  0.00    -0.136 A  
HETATM   14  C   UNL     1     -10.472   6.300  72.388  1.00  0.00    -0.223 A  
BRANCH  13  15
HETATM   15  N   UNL     1      -8.506   4.974  72.902  1.00  0.00    -0.115 NA 
HETATM   16  H   UNL     1      -8.792   4.570  73.793  1.00  0.00     0.000 HD 
BRANCH  15  17
HETATM   17  N   UNL     1      -7.615   4.477  72.180  1.00  0.00    -0.086 NA 
HETATM   18  H   UNL     1      -6.621   4.665  72.311  1.00  0.00     0.000 HD 
BRANCH  17  19
HETATM   19  C   UNL     1      -8.099   3.659  71.201  1.00  0.00    -0.066 A  
HETATM   20  N   UNL     1      -8.511   2.405  71.313  1.00  0.00    -0.057 NA 
HETATM   21  C   UNL     1      -8.955   1.920  70.097  1.00  0.00    -0.084 A  
HETATM   22  C   UNL     1      -8.872   2.816  69.064  1.00  0.00    -0.098 A  
HETATM   23  N   UNL     1      -9.257   2.590  67.710  1.00  0.00    -0.189 N  
HETATM   24  S   UNL     1      -8.233   4.298  69.589  1.00  0.00    -0.058 SA 
HETATM   25  O   UNL     1      -9.720   1.472  67.448  1.00  0.00     0.062 OA 
HETATM   26  O   UNL     1      -9.113   3.515  66.899  1.00  0.00    -0.141 OA 
ENDBRANCH  17  19
ENDBRANCH  15  17
ENDBRANCH  13  15
ENDBRANCH   3   8
ENDBRANCH   2   3
TORSDOF 7
ENDMDL
MODEL      229
REMARK 921   NORMALIZED FREE ENERGY PREDICTED BY IDOCK:   -2.86 KCAL/MOL
REMARK 922        TOTAL FREE ENERGY PREDICTED BY IDOCK:   -4.65 KCAL/MOL
REMARK 923 INTER-LIGAND FREE ENERGY PREDICTED BY IDOCK:   -4.21 KCAL/MOL
REMARK 924 INTRA-LIGAND FREE ENERGY PREDICTED BY IDOCK:   -0.44 KCAL/MOL
REMARK 927      BINDING AFFINITY PREDICTED BY RF-SCORE:    0.00 PKD
ROOT
HETATM    1  C   UNL     1     -13.909  12.868  72.092  1.00  0.00    -0.390 C  
HETATM    2  C   UNL     1     -12.422  13.107  71.878  1.00  0.00     0.140 C  
ENDROOT
BRANCH   2   3
HETATM    3  N   UNL     1     -12.142  13.623  70.532  1.00  0.00    -0.349 NA 
BRANCH   3   4
HETATM    4  C   UNL     1     -12.506  15.014  70.220  1.00  0.00    -0.337 C  
BRANCH   4   5
HETATM    5  C   UNL     1     -12.176  15.949  71.396  1.00  0.00    -0.448 C  
HETATM    6  H   UNL     1     -10.903  17.415  71.799  1.00  0.00     0.000 HD 
HETATM    7  O   UNL     1     -11.107  16.837  71.073  1.00  0.00    -0.015 OA 
ENDBRANCH   4   5
ENDBRANCH   3   4
BRANCH   3   8
HETATM    8  C   UNL     1     -11.375  12.874  69.650  1.00  0.00    -0.096 A  
HETATM    9  C   UNL     1     -10.690   9.181  69.036  1.00  0.00    -0.176 C  
HETATM   10  C   UNL     1     -10.662  13.446  68.590  1.00  0.00    -0.275 A  
HETATM   11  C   UNL     1      -9.932  12.661  67.683  1.00  0.00    -0.216 A  
HETATM   12  C   UNL     1     -11.315  11.480  69.767  1.00  0.00    -0.303 A  
HETATM   13  C   UNL     1      -9.916  11.265  67.786  1.00  0.00    -0.176 A  
HETATM   14  C   UNL     1     -10.626  10.672  68.842  1.00  0.00    -0.241 A  
BRANCH  13  15
HETATM   15  N   UNL     1      -9.160  10.448  66.921  1.00  0.00    -0.143 NA 
HETATM   16  H   UNL     1      -8.167  10.261  67.055  1.00  0.00     0.000 HD 
BRANCH  15  17
HETATM   17  N   UNL     1      -9.823   9.974  65.974  1.00  0.00    -0.239 NA 
HETATM   18  H   UNL     1     -10.828  10.117  65.869  1.00  0.00     0.000 HD 
BRANCH  17  19
HETATM   19  C   UNL     1      -9.075   9.248  65.093  1.00  0.00    -0.206 A  
HETATM   20  N   UNL     1      -8.702   9.584  63.867  1.00  0.00    -0.212 NA 
HETATM   21  C   UNL     1      -7.928   8.592  63.296  1.00  0.00    -0.161 A  
HETATM   22  C   UNL     1      -7.723   7.501  64.099  1.00  0.00    -0.132 A  
HETATM   23  N   UNL     1      -6.968   6.335  63.772  1.00  0.00    -0.041 N  
HETATM   24  S   UNL     1      -8.496   7.689  65.597  1.00  0.00    -0.120 SA 
HETATM   25  O   UNL     1      -6.440   6.316  62.652  1.00  0.00    -0.032 OA 
HETATM   26  O   UNL     1      -6.884   5.436  64.619  1.00  0.00    -0.046 OA 
ENDBRANCH  17  19
ENDBRANCH  15  17
ENDBRANCH  13  15
ENDBRANCH   3   8
ENDBRANCH   2   3
TORSDOF 7
ENDMDL
MODEL      230
REMARK 921   NORMALIZED FREE ENERGY PREDICTED BY IDOCK:   -2.85 KCAL/MOL
REMARK 922        TOTAL FREE ENERGY PREDICTED BY IDOCK:   -4.64 KCAL/MOL
REMARK 923 INTER-LIGAND FREE ENERGY PREDICTED BY IDOCK:   -4.94 KCAL/MOL
REMARK 924 INTRA-LIGAND FREE ENERGY PREDICTED BY IDOCK:    0.30 KCAL/MOL
REMARK 927      BINDING AFFINITY PREDICTED BY RF-SCORE:    0.00 PKD
ROOT
HETATM    1  C   UNL     1     -13.412   7.467  71.401  1.00  0.00    -0.405 C  
HETATM    2  C   UNL     1     -12.337   8.096  72.273  1.00  0.00    -0.323 C  
ENDROOT
BRANCH   2   3
HETATM    3  N   UNL     1     -11.030   8.109  71.603  1.00  0.00    -0.240 NA 
BRANCH   3   4
HETATM    4  C   UNL     1      -9.830   8.395  72.404  1.00  0.00    -0.308 C  
BRANCH   4   5
HETATM    5  C   UNL     1      -9.442   7.184  73.271  1.00  0.00    -0.179 C  
HETATM    6  H   UNL     1      -7.952   5.882  73.400  1.00  0.00     0.000 HD 
HETATM    7  O   UNL     1      -8.192   6.629  72.865  1.00  0.00    -0.107 OA 
ENDBRANCH   4   5
ENDBRANCH   3   4
BRANCH   3   8
HETATM    8  C   UNL     1     -10.921   7.668  70.291  1.00  0.00    -0.252 A  
HETATM    9  C   UNL     1      -9.974   9.193  66.935  1.00  0.00    -0.304 C  
HETATM   10  C   UNL     1     -11.087   6.327  69.925  1.00  0.00    -0.469 A  
HETATM   11  C   UNL     1     -10.925   5.899  68.598  1.00  0.00    -0.289 A  
HETATM   12  C   UNL     1     -10.596   8.563  69.265  1.00  0.00    -0.193 A  
HETATM   13  C   UNL     1     -10.557   6.798  67.589  1.00  0.00    -0.259 A  
HETATM   14  C   UNL     1     -10.385   8.147  67.936  1.00  0.00    -0.280 A  
BRANCH  13  15
HETATM   15  N   UNL     1     -10.427   6.413  66.239  1.00  0.00    -0.450 NA 
HETATM   16  H   UNL     1     -11.190   6.005  65.699  1.00  0.00     0.000 HD 
BRANCH  15  17
HETATM   17  N   UNL     1      -9.289   6.620  65.767  1.00  0.00    -0.386 NA 
HETATM   18  H   UNL     1      -9.099   7.327  65.057  1.00  0.00     0.000 HD 
BRANCH  17  19
HETATM   19  C   UNL     1      -8.325   5.808  66.291  1.00  0.00    -0.115 A  
HETATM   20  N   UNL     1      -7.247   6.158  66.977  1.00  0.00    -0.073 NA 
HETATM   21  C   UNL     1      -6.522   5.046  67.361  1.00  0.00    -0.045 A  
HETATM   22  C   UNL     1      -7.060   3.852  66.956  1.00  0.00    -0.063 A  
HETATM   23  N   UNL     1      -6.529   2.552  67.210  1.00  0.00    -0.035 N  
HETATM   24  S   UNL     1      -8.493   4.091  66.081  1.00  0.00    -0.110 SA 
HETATM   25  O   UNL     1      -5.482   2.503  67.869  1.00  0.00    -0.016 OA 
HETATM   26  O   UNL     1      -7.145   1.573  66.768  1.00  0.00    -0.044 OA 
ENDBRANCH  17  19
ENDBRANCH  15  17
ENDBRANCH  13  15
ENDBRANCH   3   8
ENDBRANCH   2   3
TORSDOF 7
ENDMDL
MODEL      231
REMARK 921   NORMALIZED FREE ENERGY PREDICTED BY IDOCK:   -2.84 KCAL/MOL
REMARK 922        TOTAL FREE ENERGY PREDICTED BY IDOCK:   -4.63 KCAL/MOL
REMARK 923 INTER-LIGAND FREE ENERGY PREDICTED BY IDOCK:   -3.87 KCAL/MOL
REMARK 924 INTRA-LIGAND FREE ENERGY PREDICTED BY IDOCK:   -0.77 KCAL/MOL
REMARK 927      BINDING AFFINITY PREDICTED BY RF-SCORE:    0.00 PKD
ROOT
HETATM    1  C   UNL     1      -6.229   4.021  66.264  1.00  0.00    -0.032 C  
HETATM    2  C   UNL     1      -6.426   4.665  64.900  1.00  0.00    -0.036 C  
ENDROOT
BRANCH   2   3
HETATM    3  N   UNL     1      -6.380   6.131  64.979  1.00  0.00    -0.037 NA 
BRANCH   3   4
HETATM    4  C   UNL     1      -5.569   6.865  63.995  1.00  0.00    -0.032 C  
BRANCH   4   5
HETATM    5  C   UNL     1      -6.249   6.872  62.614  1.00  0.00    -0.040 C  
HETATM    6  H   UNL     1      -7.840   7.691  61.760  1.00  0.00     0.000 HD 
HETATM    7  O   UNL     1      -7.420   7.686  62.612  1.00  0.00    -0.089 OA 
ENDBRANCH   4   5
ENDBRANCH   3   4
BRANCH   3   8
HETATM    8  C   UNL     1      -7.237   6.805  65.838  1.00  0.00    -0.070 A  
HETATM    9  C   UNL     1      -6.906   9.451  68.554  1.00  0.00    -0.062 C  
HETATM   10  C   UNL     1      -8.629   6.666  65.784  1.00  0.00    -0.147 A  
HETATM   11  C   UNL     1      -9.476   7.396  66.633  1.00  0.00    -0.240 A  
HETATM   12  C   UNL     1      -6.732   7.700  66.789  1.00  0.00    -0.066 A  
HETATM   13  C   UNL     1      -8.959   8.320  67.550  1.00  0.00    -0.134 A  
HETATM   14  C   UNL     1      -7.566   8.475  67.618  1.00  0.00    -0.098 A  
BRANCH  13  15
HETATM   15  N   UNL     1      -9.776   9.038  68.447  1.00  0.00    -0.153 NA 
HETATM   16  H   UNL     1      -9.515   9.943  68.838  1.00  0.00     0.000 HD 
BRANCH  15  17
HETATM   17  N   UNL     1     -10.850   8.460  68.718  1.00  0.00    -0.432 NA 
HETATM   18  H   UNL     1     -11.623   8.378  68.057  1.00  0.00     0.000 HD 
BRANCH  17  19
HETATM   19  C   UNL     1     -10.891   7.948  69.983  1.00  0.00    -0.238 A  
HETATM   20  N   UNL     1     -11.742   7.063  70.479  1.00  0.00    -0.326 NA 
HETATM   21  C   UNL     1     -11.443   6.774  71.797  1.00  0.00    -0.281 A  
HETATM   22  C   UNL     1     -10.361   7.452  72.295  1.00  0.00    -0.214 A  
HETATM   23  N   UNL     1      -9.829   7.351  73.614  1.00  0.00    -0.306 N  
HETATM   24  S   UNL     1      -9.685   8.472  71.121  1.00  0.00    -0.221 SA 
HETATM   25  O   UNL     1     -10.402   6.564  74.381  1.00  0.00    -0.346 OA 
HETATM   26  O   UNL     1      -8.841   8.039  73.900  1.00  0.00    -0.269 OA 
ENDBRANCH  17  19
ENDBRANCH  15  17
ENDBRANCH  13  15
ENDBRANCH   3   8
ENDBRANCH   2   3
TORSDOF 7
ENDMDL
MODEL      232
REMARK 921   NORMALIZED FREE ENERGY PREDICTED BY IDOCK:   -2.83 KCAL/MOL
REMARK 922        TOTAL FREE ENERGY PREDICTED BY IDOCK:   -4.62 KCAL/MOL
REMARK 923 INTER-LIGAND FREE ENERGY PREDICTED BY IDOCK:   -4.11 KCAL/MOL
REMARK 924 INTRA-LIGAND FREE ENERGY PREDICTED BY IDOCK:   -0.51 KCAL/MOL
REMARK 927      BINDING AFFINITY PREDICTED BY RF-SCORE:    0.00 PKD
ROOT
HETATM    1  C   UNL     1      -6.411   4.117  66.461  1.00  0.00    -0.037 C  
HETATM    2  C   UNL     1      -7.105   3.887  65.127  1.00  0.00    -0.066 C  
ENDROOT
BRANCH   2   3
HETATM    3  N   UNL     1      -8.031   4.979  64.799  1.00  0.00    -0.095 NA 
BRANCH   3   4
HETATM    4  C   UNL     1      -8.235   5.329  63.385  1.00  0.00    -0.117 C  
BRANCH   4   5
HETATM    5  C   UNL     1      -7.125   6.268  62.881  1.00  0.00    -0.048 C  
HETATM    6  H   UNL     1      -5.197   6.161  62.431  1.00  0.00     0.000 HD 
HETATM    7  O   UNL     1      -5.882   5.582  62.742  1.00  0.00    -0.014 OA 
ENDBRANCH   4   5
ENDBRANCH   3   4
BRANCH   3   8
HETATM    8  C   UNL     1      -8.834   5.526  65.790  1.00  0.00    -0.153 A  
HETATM    9  C   UNL     1      -8.724   8.578  68.061  1.00  0.00    -0.142 C  
HETATM   10  C   UNL     1     -10.089   5.003  66.124  1.00  0.00    -0.262 A  
HETATM   11  C   UNL     1     -10.902   5.604  67.098  1.00  0.00    -0.242 A  
HETATM   12  C   UNL     1      -8.426   6.672  66.484  1.00  0.00    -0.121 A  
HETATM   13  C   UNL     1     -10.500   6.775  67.754  1.00  0.00    -0.222 A  
HETATM   14  C   UNL     1      -9.246   7.315  67.431  1.00  0.00    -0.140 A  
BRANCH  13  15
HETATM   15  N   UNL     1     -11.271   7.381  68.767  1.00  0.00    -0.418 NA 
HETATM   16  H   UNL     1     -11.466   8.381  68.796  1.00  0.00     0.000 HD 
BRANCH  15  17
HETATM   17  N   UNL     1     -11.691   6.576  69.625  1.00  0.00    -0.643 NA 
HETATM   18  H   UNL     1     -12.626   6.169  69.598  1.00  0.00     0.000 HD 
BRANCH  17  19
HETATM   19  C   UNL     1     -10.780   6.293  70.601  1.00  0.00    -0.264 A  
HETATM   20  N   UNL     1     -10.238   5.122  70.897  1.00  0.00    -0.229 NA 
HETATM   21  C   UNL     1      -9.336   5.244  71.938  1.00  0.00    -0.141 A  
HETATM   22  C   UNL     1      -9.205   6.516  72.428  1.00  0.00    -0.136 A  
HETATM   23  N   UNL     1      -8.352   6.933  73.493  1.00  0.00    -0.114 N  
HETATM   24  S   UNL     1     -10.210   7.600  71.596  1.00  0.00    -0.186 SA 
HETATM   25  O   UNL     1      -7.656   6.053  74.018  1.00  0.00    -0.091 OA 
HETATM   26  O   UNL     1      -8.357   8.129  73.812  1.00  0.00    -0.228 OA 
ENDBRANCH  17  19
ENDBRANCH  15  17
ENDBRANCH  13  15
ENDBRANCH   3   8
ENDBRANCH   2   3
TORSDOF 7
ENDMDL
MODEL      233
REMARK 921   NORMALIZED FREE ENERGY PREDICTED BY IDOCK:   -2.76 KCAL/MOL
REMARK 922        TOTAL FREE ENERGY PREDICTED BY IDOCK:   -4.52 KCAL/MOL
REMARK 923 INTER-LIGAND FREE ENERGY PREDICTED BY IDOCK:   -4.01 KCAL/MOL
REMARK 924 INTRA-LIGAND FREE ENERGY PREDICTED BY IDOCK:   -0.51 KCAL/MOL
REMARK 927      BINDING AFFINITY PREDICTED BY RF-SCORE:    0.00 PKD
ROOT
HETATM    1  C   UNL     1      -9.154   7.343  73.688  1.00  0.00    -0.273 C  
HETATM    2  C   UNL     1     -10.544   6.724  73.679  1.00  0.00    -0.320 C  
ENDROOT
BRANCH   2   3
HETATM    3  N   UNL     1     -11.118   6.696  72.328  1.00  0.00    -0.248 NA 
BRANCH   3   4
HETATM    4  C   UNL     1     -12.371   7.427  72.079  1.00  0.00    -0.266 C  
BRANCH   4   5
HETATM    5  C   UNL     1     -12.213   8.922  72.405  1.00  0.00    -0.295 C  
HETATM    6  H   UNL     1     -11.125  10.458  71.781  1.00  0.00     0.000 HD 
HETATM    7  O   UNL     1     -11.223   9.535  71.581  1.00  0.00    -0.378 OA 
ENDBRANCH   4   5
ENDBRANCH   3   4
BRANCH   3   8
HETATM    8  C   UNL     1     -10.388   6.158  71.276  1.00  0.00    -0.217 A  
HETATM    9  C   UNL     1      -9.342   2.681  70.136  1.00  0.00    -0.193 C  
HETATM   10  C   UNL     1      -9.896   6.933  70.220  1.00  0.00    -0.186 A  
HETATM   11  C   UNL     1      -9.201   6.357  69.144  1.00  0.00    -0.133 A  
HETATM   12  C   UNL     1     -10.142   4.781  71.213  1.00  0.00    -0.258 A  
HETATM   13  C   UNL     1      -9.001   4.973  69.072  1.00  0.00    -0.097 A  
HETATM   14  C   UNL     1      -9.488   4.178  70.122  1.00  0.00    -0.254 A  
BRANCH  13  15
HETATM   15  N   UNL     1      -8.271   4.364  68.030  1.00  0.00    -0.094 NA 
HETATM   16  H   UNL     1      -7.268   4.190  68.079  1.00  0.00     0.000 HD 
BRANCH  15  17
HETATM   17  N   UNL     1      -8.971   4.060  67.041  1.00  0.00    -0.123 NA 
HETATM   18  H   UNL     1      -9.781   3.443  67.099  1.00  0.00     0.000 HD 
BRANCH  17  19
HETATM   19  C   UNL     1      -8.547   4.630  65.876  1.00  0.00    -0.117 A  
HETATM   20  N   UNL     1      -8.948   4.361  64.641  1.00  0.00    -0.145 NA 
HETATM   21  C   UNL     1      -8.301   5.169  63.725  1.00  0.00    -0.130 A  
HETATM   22  C   UNL     1      -7.406   6.048  64.276  1.00  0.00    -0.069 A  
HETATM   23  N   UNL     1      -6.603   6.995  63.574  1.00  0.00    -0.043 N  
HETATM   24  S   UNL     1      -7.349   5.887  65.964  1.00  0.00    -0.078 SA 
HETATM   25  O   UNL     1      -6.739   7.028  62.343  1.00  0.00    -0.050 OA 
HETATM   26  O   UNL     1      -5.841   7.717  64.231  1.00  0.00    -0.040 OA 
ENDBRANCH  17  19
ENDBRANCH  15  17
ENDBRANCH  13  15
ENDBRANCH   3   8
ENDBRANCH   2   3
TORSDOF 7
ENDMDL
MODEL      234
REMARK 921   NORMALIZED FREE ENERGY PREDICTED BY IDOCK:   -2.74 KCAL/MOL
REMARK 922        TOTAL FREE ENERGY PREDICTED BY IDOCK:   -4.49 KCAL/MOL
REMARK 923 INTER-LIGAND FREE ENERGY PREDICTED BY IDOCK:   -4.67 KCAL/MOL
REMARK 924 INTRA-LIGAND FREE ENERGY PREDICTED BY IDOCK:    0.18 KCAL/MOL
REMARK 927      BINDING AFFINITY PREDICTED BY RF-SCORE:    0.00 PKD
ROOT
HETATM    1  C   UNL     1      -9.014   9.957  63.243  1.00  0.00    -0.276 C  
HETATM    2  C   UNL     1      -8.822  11.428  63.580  1.00  0.00     0.227 C  
ENDROOT
BRANCH   2   3
HETATM    3  N   UNL     1      -9.990  11.985  64.274  1.00  0.00    -0.265 NA 
BRANCH   3   4
HETATM    4  C   UNL     1     -11.333  11.629  63.790  1.00  0.00    -0.393 C  
BRANCH   4   5
HETATM    5  C   UNL     1     -11.988  12.812  63.055  1.00  0.00    -0.015 C  
HETATM    6  H   UNL     1     -13.344  14.209  63.429  1.00  0.00     0.000 HD 
HETATM    7  O   UNL     1     -12.940  13.479  63.882  1.00  0.00    -0.377 OA 
ENDBRANCH   4   5
ENDBRANCH   3   4
BRANCH   3   8
HETATM    8  C   UNL     1      -9.824  12.667  65.472  1.00  0.00    -0.163 A  
HETATM    9  C   UNL     1     -11.227  15.824  67.068  1.00  0.00    -0.082 C  
HETATM   10  C   UNL     1      -9.036  12.178  66.520  1.00  0.00    -0.199 A  
HETATM   11  C   UNL     1      -8.923  12.865  67.740  1.00  0.00    -0.191 A  
HETATM   12  C   UNL     1     -10.484  13.881  65.696  1.00  0.00    -0.320 A  
HETATM   13  C   UNL     1      -9.623  14.056  67.966  1.00  0.00    -0.217 A  
HETATM   14  C   UNL     1     -10.420  14.562  66.927  1.00  0.00    -0.269 A  
BRANCH  13  15
HETATM   15  N   UNL     1      -9.500  14.795  69.160  1.00  0.00    -0.352 NA 
HETATM   16  H   UNL     1     -10.301  15.117  69.703  1.00  0.00     0.000 HD 
BRANCH  15  17
HETATM   17  N   UNL     1      -8.316  15.018  69.490  1.00  0.00    -0.409 NA 
HETATM   18  H   UNL     1      -7.912  14.698  70.371  1.00  0.00     0.000 HD 
BRANCH  17  19
HETATM   19  C   UNL     1      -7.615  15.731  68.561  1.00  0.00    -0.138 A  
HETATM   20  N   UNL     1      -6.611  15.317  67.802  1.00  0.00    -0.149 NA 
HETATM   21  C   UNL     1      -6.177  16.327  66.963  1.00  0.00    -0.070 A  
HETATM   22  C   UNL     1      -6.859  17.508  67.098  1.00  0.00    -0.168 A  
HETATM   23  N   UNL     1      -6.628  18.710  66.366  1.00  0.00    -0.188 N  
HETATM   24  S   UNL     1      -8.067  17.386  68.282  1.00  0.00    -0.257 SA 
HETATM   25  O   UNL     1      -5.724  18.675  65.519  1.00  0.00    -0.168 OA 
HETATM   26  O   UNL     1      -7.339  19.692  66.615  1.00  0.00    -0.226 OA 
ENDBRANCH  17  19
ENDBRANCH  15  17
ENDBRANCH  13  15
ENDBRANCH   3   8
ENDBRANCH   2   3
TORSDOF 7
ENDMDL
MODEL      235
REMARK 921   NORMALIZED FREE ENERGY PREDICTED BY IDOCK:   -2.73 KCAL/MOL
REMARK 922        TOTAL FREE ENERGY PREDICTED BY IDOCK:   -4.47 KCAL/MOL
REMARK 923 INTER-LIGAND FREE ENERGY PREDICTED BY IDOCK:   -3.58 KCAL/MOL
REMARK 924 INTRA-LIGAND FREE ENERGY PREDICTED BY IDOCK:   -0.89 KCAL/MOL
REMARK 927      BINDING AFFINITY PREDICTED BY RF-SCORE:    0.00 PKD
ROOT
HETATM    1  C   UNL     1     -10.879   9.951  68.407  1.00  0.00    -0.263 C  
HETATM    2  C   UNL     1     -10.749  10.544  69.803  1.00  0.00    -0.264 C  
ENDROOT
BRANCH   2   3
HETATM    3  N   UNL     1     -10.995   9.539  70.845  1.00  0.00    -0.308 NA 
BRANCH   3   4
HETATM    4  C   UNL     1     -12.304   9.526  71.516  1.00  0.00    -0.380 C  
BRANCH   4   5
HETATM    5  C   UNL     1     -13.174  10.709  71.056  1.00  0.00    -0.180 C  
HETATM    6  H   UNL     1     -13.928  12.371  71.830  1.00  0.00     0.000 HD 
HETATM    7  O   UNL     1     -13.391  11.641  72.114  1.00  0.00    -0.491 OA 
ENDBRANCH   4   5
ENDBRANCH   3   4
BRANCH   3   8
HETATM    8  C   UNL     1     -10.084   8.510  71.044  1.00  0.00    -0.205 A  
HETATM    9  C   UNL     1     -10.034   4.735  70.564  1.00  0.00    -0.306 C  
HETATM   10  C   UNL     1      -8.763   8.735  71.447  1.00  0.00    -0.278 A  
HETATM   11  C   UNL     1      -7.848   7.680  71.596  1.00  0.00    -0.089 A  
HETATM   12  C   UNL     1     -10.451   7.180  70.808  1.00  0.00    -0.227 A  
HETATM   13  C   UNL     1      -8.216   6.359  71.314  1.00  0.00    -0.122 A  
HETATM   14  C   UNL     1      -9.537   6.113  70.908  1.00  0.00    -0.193 A  
BRANCH  13  15
HETATM   15  N   UNL     1      -7.338   5.270  71.494  1.00  0.00    -0.084 NA 
HETATM   16  H   UNL     1      -7.595   4.423  71.999  1.00  0.00     0.000 HD 
BRANCH  15  17
HETATM   17  N   UNL     1      -6.215   5.443  70.975  1.00  0.00    -0.029 NA 
HETATM   18  H   UNL     1      -5.446   5.914  71.451  1.00  0.00     0.000 HD 
BRANCH  17  19
HETATM   19  C   UNL     1      -6.115   4.941  69.709  1.00  0.00    -0.022 A  
HETATM   20  N   UNL     1      -6.283   3.689  69.311  1.00  0.00    -0.028 NA 
HETATM   21  C   UNL     1      -6.123   3.580  67.943  1.00  0.00    -0.032 A  
HETATM   22  C   UNL     1      -5.828   4.759  67.310  1.00  0.00    -0.022 A  
HETATM   23  N   UNL     1      -5.612   4.942  65.912  1.00  0.00    -0.017 N  
HETATM   24  S   UNL     1      -5.744   6.042  68.416  1.00  0.00    -0.013 SA 
HETATM   25  O   UNL     1      -5.709   3.932  65.202  1.00  0.00    -0.020 OA 
HETATM   26  O   UNL     1      -5.352   6.082  65.505  1.00  0.00    -0.012 OA 
ENDBRANCH  17  19
ENDBRANCH  15  17
ENDBRANCH  13  15
ENDBRANCH   3   8
ENDBRANCH   2   3
TORSDOF 7
ENDMDL
MODEL      236
REMARK 921   NORMALIZED FREE ENERGY PREDICTED BY IDOCK:   -2.70 KCAL/MOL
REMARK 922        TOTAL FREE ENERGY PREDICTED BY IDOCK:   -4.44 KCAL/MOL
REMARK 923 INTER-LIGAND FREE ENERGY PREDICTED BY IDOCK:   -4.36 KCAL/MOL
REMARK 924 INTRA-LIGAND FREE ENERGY PREDICTED BY IDOCK:   -0.08 KCAL/MOL
REMARK 927      BINDING AFFINITY PREDICTED BY RF-SCORE:    0.00 PKD
ROOT
HETATM    1  C   UNL     1     -10.516   3.863  64.563  1.00  0.00    -0.221 C  
HETATM    2  C   UNL     1      -9.296   4.661  64.998  1.00  0.00    -0.138 C  
ENDROOT
BRANCH   2   3
HETATM    3  N   UNL     1      -8.929   4.377  66.392  1.00  0.00    -0.114 NA 
BRANCH   3   4
HETATM    4  C   UNL     1      -7.843   3.418  66.653  1.00  0.00    -0.081 C  
BRANCH   4   5
HETATM    5  C   UNL     1      -6.545   3.847  65.947  1.00  0.00    -0.044 C  
HETATM    6  H   UNL     1      -5.446   5.486  65.753  1.00  0.00     0.000 HD 
HETATM    7  O   UNL     1      -6.248   5.221  66.188  1.00  0.00    -0.032 OA 
ENDBRANCH   4   5
ENDBRANCH   3   4
BRANCH   3   8
HETATM    8  C   UNL     1      -9.462   5.144  67.418  1.00  0.00    -0.132 A  
HETATM    9  C   UNL     1      -8.419   6.158  70.935  1.00  0.00    -0.128 C  
HETATM   10  C   UNL     1     -10.646   5.877  67.281  1.00  0.00    -0.365 A  
HETATM   11  C   UNL     1     -11.140   6.683  68.320  1.00  0.00    -0.283 A  
HETATM   12  C   UNL     1      -8.800   5.245  68.648  1.00  0.00    -0.103 A  
HETATM   13  C   UNL     1     -10.444   6.809  69.529  1.00  0.00    -0.220 A  
HETATM   14  C   UNL     1      -9.253   6.082  69.686  1.00  0.00    -0.148 A  
BRANCH  13  15
HETATM   15  N   UNL     1     -10.930   7.573  70.609  1.00  0.00    -0.245 NA 
HETATM   16  H   UNL     1     -10.867   7.271  71.581  1.00  0.00     0.000 HD 
BRANCH  15  17
HETATM   17  N   UNL     1     -11.446   8.657  70.263  1.00  0.00    -0.448 NA 
HETATM   18  H   UNL     1     -12.439   8.865  70.377  1.00  0.00     0.000 HD 
BRANCH  17  19
HETATM   19  C   UNL     1     -10.557   9.536  69.716  1.00  0.00    -0.236 A  
HETATM   20  N   UNL     1      -9.239   9.559  69.856  1.00  0.00    -0.203 NA 
HETATM   21  C   UNL     1      -8.682  10.590  69.125  1.00  0.00    -0.147 A  
HETATM   22  C   UNL     1      -9.589  11.350  68.433  1.00  0.00    -0.197 A  
HETATM   23  N   UNL     1      -9.299  12.471  67.600  1.00  0.00    -0.183 N  
HETATM   24  S   UNL     1     -11.171  10.790  68.681  1.00  0.00    -0.292 SA 
HETATM   25  O   UNL     1      -8.105  12.780  67.488  1.00  0.00    -0.157 OA 
HETATM   26  O   UNL     1     -10.245  13.048  67.047  1.00  0.00    -0.241 OA 
ENDBRANCH  17  19
ENDBRANCH  15  17
ENDBRANCH  13  15
ENDBRANCH   3   8
ENDBRANCH   2   3
TORSDOF 7
ENDMDL
MODEL      237
REMARK 921   NORMALIZED FREE ENERGY PREDICTED BY IDOCK:   -2.66 KCAL/MOL
REMARK 922        TOTAL FREE ENERGY PREDICTED BY IDOCK:   -4.38 KCAL/MOL
REMARK 923 INTER-LIGAND FREE ENERGY PREDICTED BY IDOCK:   -4.03 KCAL/MOL
REMARK 924 INTRA-LIGAND FREE ENERGY PREDICTED BY IDOCK:   -0.35 KCAL/MOL
REMARK 927      BINDING AFFINITY PREDICTED BY RF-SCORE:    0.00 PKD
ROOT
HETATM    1  C   UNL     1     -10.930   5.705  68.970  1.00  0.00    -0.165 C  
HETATM    2  C   UNL     1     -10.436   5.108  70.279  1.00  0.00    -0.226 C  
ENDROOT
BRANCH   2   3
HETATM    3  N   UNL     1      -9.803   6.121  71.134  1.00  0.00    -0.179 NA 
BRANCH   3   4
HETATM    4  C   UNL     1      -9.742   5.880  72.584  1.00  0.00    -0.153 C  
BRANCH   4   5
HETATM    5  C   UNL     1      -9.053   4.539  72.894  1.00  0.00    -0.120 C  
HETATM    6  H   UNL     1      -7.252   3.731  72.707  1.00  0.00     0.000 HD 
HETATM    7  O   UNL     1      -7.677   4.559  72.516  1.00  0.00    -0.082 OA 
ENDBRANCH   4   5
ENDBRANCH   3   4
BRANCH   3   8
HETATM    8  C   UNL     1      -9.110   7.177  70.559  1.00  0.00    -0.155 A  
HETATM    9  C   UNL     1      -6.322   7.583  68.000  1.00  0.00    -0.049 C  
HETATM   10  C   UNL     1      -9.433   8.517  70.800  1.00  0.00    -0.213 A  
HETATM   11  C   UNL     1      -8.746   9.567  70.169  1.00  0.00    -0.258 A  
HETATM   12  C   UNL     1      -8.060   6.936  69.665  1.00  0.00    -0.126 A  
HETATM   13  C   UNL     1      -7.727   9.310  69.244  1.00  0.00    -0.081 A  
HETATM   14  C   UNL     1      -7.389   7.972  68.987  1.00  0.00    -0.084 A  
BRANCH  13  15
HETATM   15  N   UNL     1      -6.987  10.338  68.624  1.00  0.00    -0.064 NA 
HETATM   16  H   UNL     1      -6.010  10.235  68.351  1.00  0.00     0.000 HD 
BRANCH  15  17
HETATM   17  N   UNL     1      -7.642  11.385  68.441  1.00  0.00    -0.115 NA 
HETATM   18  H   UNL     1      -7.637  12.169  69.095  1.00  0.00     0.000 HD 
BRANCH  17  19
HETATM   19  C   UNL     1      -8.366  11.383  67.284  1.00  0.00    -0.149 A  
HETATM   20  N   UNL     1      -8.343  10.487  66.308  1.00  0.00    -0.146 NA 
HETATM   21  C   UNL     1      -9.239  10.820  65.310  1.00  0.00    -0.204 A  
HETATM   22  C   UNL     1      -9.937  11.977  65.538  1.00  0.00    -0.241 A  
HETATM   23  N   UNL     1     -10.921  12.558  64.683  1.00  0.00    -0.295 N  
HETATM   24  S   UNL     1      -9.488  12.683  67.013  1.00  0.00    -0.226 SA 
HETATM   25  O   UNL     1     -11.172  11.946  63.636  1.00  0.00    -0.387 OA 
HETATM   26  O   UNL     1     -11.456  13.615  65.043  1.00  0.00    -0.312 OA 
ENDBRANCH  17  19
ENDBRANCH  15  17
ENDBRANCH  13  15
ENDBRANCH   3   8
ENDBRANCH   2   3
TORSDOF 7
ENDMDL
MODEL      238
REMARK 921   NORMALIZED FREE ENERGY PREDICTED BY IDOCK:   -2.65 KCAL/MOL
REMARK 922        TOTAL FREE ENERGY PREDICTED BY IDOCK:   -4.37 KCAL/MOL
REMARK 923 INTER-LIGAND FREE ENERGY PREDICTED BY IDOCK:   -3.45 KCAL/MOL
REMARK 924 INTRA-LIGAND FREE ENERGY PREDICTED BY IDOCK:   -0.92 KCAL/MOL
REMARK 927      BINDING AFFINITY PREDICTED BY RF-SCORE:    0.00 PKD
ROOT
HETATM    1  C   UNL     1     -10.125  10.553  64.163  1.00  0.00    -0.351 C  
HETATM    2  C   UNL     1      -8.657  10.662  64.545  1.00  0.00    -0.110 C  
ENDROOT
BRANCH   2   3
HETATM    3  N   UNL     1      -8.358   9.917  65.775  1.00  0.00    -0.124 NA 
BRANCH   3   4
HETATM    4  C   UNL     1      -8.013  10.671  66.990  1.00  0.00    -0.121 C  
BRANCH   4   5
HETATM    5  C   UNL     1      -8.923  11.901  67.155  1.00  0.00    -0.178 C  
HETATM    6  H   UNL     1     -10.739  12.309  67.837  1.00  0.00     0.000 HD 
HETATM    7  O   UNL     1     -10.177  11.550  67.736  1.00  0.00    -0.177 OA 
ENDBRANCH   4   5
ENDBRANCH   3   4
BRANCH   3   8
HETATM    8  C   UNL     1      -8.591   8.549  65.830  1.00  0.00    -0.168 A  
HETATM    9  C   UNL     1     -10.974   6.226  67.677  1.00  0.00    -0.438 C  
HETATM   10  C   UNL     1      -7.929   7.633  65.004  1.00  0.00    -0.131 A  
HETATM   11  C   UNL     1      -8.217   6.260  65.047  1.00  0.00    -0.132 A  
HETATM   12  C   UNL     1      -9.547   8.026  66.709  1.00  0.00    -0.281 A  
HETATM   13  C   UNL     1      -9.207   5.755  65.900  1.00  0.00    -0.113 A  
HETATM   14  C   UNL     1      -9.883   6.658  66.735  1.00  0.00    -0.227 A  
BRANCH  13  15
HETATM   15  N   UNL     1      -9.493   4.378  66.001  1.00  0.00    -0.158 NA 
HETATM   16  H   UNL     1     -10.436   3.998  65.932  1.00  0.00     0.000 HD 
BRANCH  15  17
HETATM   17  N   UNL     1      -8.481   3.669  66.182  1.00  0.00    -0.109 NA 
HETATM   18  H   UNL     1      -7.932   3.273  65.419  1.00  0.00     0.000 HD 
BRANCH  17  19
HETATM   19  C   UNL     1      -8.179   3.474  67.499  1.00  0.00    -0.089 A  
HETATM   20  N   UNL     1      -7.046   3.752  68.127  1.00  0.00    -0.051 NA 
HETATM   21  C   UNL     1      -7.134   3.433  69.469  1.00  0.00    -0.042 A  
HETATM   22  C   UNL     1      -8.342   2.910  69.850  1.00  0.00    -0.044 A  
HETATM   23  N   UNL     1      -8.712   2.495  71.163  1.00  0.00    -0.063 N  
HETATM   24  S   UNL     1      -9.405   2.802  68.532  1.00  0.00    -0.147 SA 
HETATM   25  O   UNL     1      -7.855   2.632  72.047  1.00  0.00    -0.051 OA 
HETATM   26  O   UNL     1      -9.851   2.041  71.333  1.00  0.00    -0.146 OA 
ENDBRANCH  17  19
ENDBRANCH  15  17
ENDBRANCH  13  15
ENDBRANCH   3   8
ENDBRANCH   2   3
TORSDOF 7
ENDMDL
MODEL      239
REMARK 921   NORMALIZED FREE ENERGY PREDICTED BY IDOCK:   -2.63 KCAL/MOL
REMARK 922        TOTAL FREE ENERGY PREDICTED BY IDOCK:   -4.33 KCAL/MOL
REMARK 923 INTER-LIGAND FREE ENERGY PREDICTED BY IDOCK:   -3.95 KCAL/MOL
REMARK 924 INTRA-LIGAND FREE ENERGY PREDICTED BY IDOCK:   -0.38 KCAL/MOL
REMARK 927      BINDING AFFINITY PREDICTED BY RF-SCORE:    0.00 PKD
ROOT
HETATM    1  C   UNL     1     -12.737  12.001  63.792  1.00  0.00    -0.516 C  
HETATM    2  C   UNL     1     -11.269  12.300  63.528  1.00  0.00    -0.460 C  
ENDROOT
BRANCH   2   3
HETATM    3  N   UNL     1     -10.617  12.901  64.698  1.00  0.00    -0.342 NA 
BRANCH   3   4
HETATM    4  C   UNL     1     -10.459  14.364  64.743  1.00  0.00    -0.367 C  
BRANCH   4   5
HETATM    5  C   UNL     1     -11.797  15.056  65.053  1.00  0.00    -0.244 C  
HETATM    6  H   UNL     1     -13.128  16.181  64.107  1.00  0.00     0.000 HD 
HETATM    7  O   UNL     1     -12.302  15.753  63.916  1.00  0.00    -0.728 OA 
ENDBRANCH   4   5
ENDBRANCH   3   4
BRANCH   3   8
HETATM    8  C   UNL     1     -10.341  12.123  65.814  1.00  0.00    -0.258 A  
HETATM    9  C   UNL     1      -9.837  12.716  69.539  1.00  0.00     1.186 C  
HETATM   10  C   UNL     1     -10.273  10.725  65.765  1.00  0.00    -0.319 A  
HETATM   11  C   UNL     1     -10.038   9.958  66.918  1.00  0.00    -0.285 A  
HETATM   12  C   UNL     1     -10.152  12.717  67.067  1.00  0.00    -0.240 A  
HETATM   13  C   UNL     1      -9.895  10.564  68.172  1.00  0.00    -0.153 A  
HETATM   14  C   UNL     1      -9.961  11.964  68.242  1.00  0.00    -0.202 A  
BRANCH  13  15
HETATM   15  N   UNL     1      -9.615   9.830  69.343  1.00  0.00    -0.194 NA 
HETATM   16  H   UNL     1      -9.995  10.072  70.258  1.00  0.00     0.000 HD 
BRANCH  15  17
HETATM   17  N   UNL     1      -8.859   8.854  69.153  1.00  0.00    -0.135 NA 
HETATM   18  H   UNL     1      -8.662   8.472  68.227  1.00  0.00     0.000 HD 
BRANCH  17  19
HETATM   19  C   UNL     1      -8.321   8.348  70.301  1.00  0.00    -0.124 A  
HETATM   20  N   UNL     1      -8.654   7.234  70.937  1.00  0.00    -0.135 NA 
HETATM   21  C   UNL     1      -7.861   7.047  72.053  1.00  0.00    -0.093 A  
HETATM   22  C   UNL     1      -6.929   8.030  72.258  1.00  0.00    -0.082 A  
HETATM   23  N   UNL     1      -5.983   8.095  73.324  1.00  0.00    -0.062 N  
HETATM   24  S   UNL     1      -7.020   9.220  71.053  1.00  0.00    -0.049 SA 
HETATM   25  O   UNL     1      -6.005   7.162  74.138  1.00  0.00    -0.068 OA 
HETATM   26  O   UNL     1      -5.209   9.060  73.360  1.00  0.00    -0.081 OA 
ENDBRANCH  17  19
ENDBRANCH  15  17
ENDBRANCH  13  15
ENDBRANCH   3   8
ENDBRANCH   2   3
TORSDOF 7
ENDMDL
MODEL      240
REMARK 921   NORMALIZED FREE ENERGY PREDICTED BY IDOCK:   -2.59 KCAL/MOL
REMARK 922        TOTAL FREE ENERGY PREDICTED BY IDOCK:   -4.28 KCAL/MOL
REMARK 923 INTER-LIGAND FREE ENERGY PREDICTED BY IDOCK:   -3.82 KCAL/MOL
REMARK 924 INTRA-LIGAND FREE ENERGY PREDICTED BY IDOCK:   -0.46 KCAL/MOL
REMARK 927      BINDING AFFINITY PREDICTED BY RF-SCORE:    0.00 PKD
ROOT
HETATM    1  C   UNL     1      -5.925  13.460  68.282  1.00  0.00    -0.093 C  
HETATM    2  C   UNL     1      -6.869  14.394  67.540  1.00  0.00    -0.139 C  
ENDROOT
BRANCH   2   3
HETATM    3  N   UNL     1      -8.230  13.847  67.467  1.00  0.00    -0.176 NA 
BRANCH   3   4
HETATM    4  C   UNL     1      -9.347  14.767  67.202  1.00  0.00    -0.224 C  
BRANCH   4   5
HETATM    5  C   UNL     1      -9.489  15.046  65.695  1.00  0.00    -0.144 C  
HETATM    6  H   UNL     1     -10.387  16.366  64.520  1.00  0.00     0.000 HD 
HETATM    7  O   UNL     1     -10.299  16.194  65.450  1.00  0.00    -0.461 OA 
ENDBRANCH   4   5
ENDBRANCH   3   4
BRANCH   3   8
HETATM    8  C   UNL     1      -8.424  12.472  67.452  1.00  0.00    -0.181 A  
HETATM    9  C   UNL     1      -9.977   9.878  69.764  1.00  0.00    -0.275 C  
HETATM   10  C   UNL     1      -8.100  11.672  66.350  1.00  0.00    -0.023 A  
HETATM   11  C   UNL     1      -8.349  10.290  66.343  1.00  0.00    -0.132 A  
HETATM   12  C   UNL     1      -8.998  11.823  68.552  1.00  0.00    -0.132 A  
HETATM   13  C   UNL     1      -8.964   9.661  67.433  1.00  0.00    -0.131 A  
HETATM   14  C   UNL     1      -9.298  10.447  68.547  1.00  0.00    -0.160 A  
BRANCH  13  15
HETATM   15  N   UNL     1      -9.191   8.271  67.479  1.00  0.00    -0.136 NA 
HETATM   16  H   UNL     1      -9.084   7.716  68.328  1.00  0.00     0.000 HD 
BRANCH  15  17
HETATM   17  N   UNL     1      -9.534   7.783  66.382  1.00  0.00    -0.296 NA 
HETATM   18  H   UNL     1     -10.016   8.319  65.659  1.00  0.00     0.000 HD 
BRANCH  17  19
HETATM   19  C   UNL     1      -9.204   6.466  66.241  1.00  0.00    -0.139 A  
HETATM   20  N   UNL     1      -8.467   5.905  65.293  1.00  0.00    -0.153 NA 
HETATM   21  C   UNL     1      -8.336   4.547  65.509  1.00  0.00    -0.116 A  
HETATM   22  C   UNL     1      -8.982   4.084  66.625  1.00  0.00    -0.130 A  
HETATM   23  N   UNL     1      -9.017   2.736  67.089  1.00  0.00    -0.147 N  
HETATM   24  S   UNL     1      -9.775   5.344  67.439  1.00  0.00    -0.151 SA 
HETATM   25  O   UNL     1      -8.392   1.905  66.416  1.00  0.00    -0.081 OA 
HETATM   26  O   UNL     1      -9.653   2.490  68.122  1.00  0.00    -0.204 OA 
ENDBRANCH  17  19
ENDBRANCH  15  17
ENDBRANCH  13  15
ENDBRANCH   3   8
ENDBRANCH   2   3
TORSDOF 7
ENDMDL
MODEL      241
REMARK 921   NORMALIZED FREE ENERGY PREDICTED BY IDOCK:   -2.58 KCAL/MOL
REMARK 922        TOTAL FREE ENERGY PREDICTED BY IDOCK:   -4.27 KCAL/MOL
REMARK 923 INTER-LIGAND FREE ENERGY PREDICTED BY IDOCK:   -3.63 KCAL/MOL
REMARK 924 INTRA-LIGAND FREE ENERGY PREDICTED BY IDOCK:   -0.64 KCAL/MOL
REMARK 927      BINDING AFFINITY PREDICTED BY RF-SCORE:    0.00 PKD
ROOT
HETATM    1  C   UNL     1      -7.188   9.987  64.095  1.00  0.00    -0.132 C  
HETATM    2  C   UNL     1      -8.674   9.678  63.982  1.00  0.00    -0.219 C  
ENDROOT
BRANCH   2   3
HETATM    3  N   UNL     1      -9.293   9.493  65.300  1.00  0.00    -0.249 NA 
BRANCH   3   4
HETATM    4  C   UNL     1     -10.038  10.616  65.892  1.00  0.00    -0.261 C  
BRANCH   4   5
HETATM    5  C   UNL     1      -9.094  11.774  66.259  1.00  0.00    -0.206 C  
HETATM    6  H   UNL     1      -7.498  12.070  67.397  1.00  0.00     0.000 HD 
HETATM    7  O   UNL     1      -8.081  11.355  67.171  1.00  0.00    -0.140 OA 
ENDBRANCH   4   5
ENDBRANCH   3   4
BRANCH   3   8
HETATM    8  C   UNL     1      -9.337   8.230  65.874  1.00  0.00    -0.096 A  
HETATM    9  C   UNL     1     -11.308   6.525  68.648  1.00  0.00    -0.203 C  
HETATM   10  C   UNL     1      -8.592   7.150  65.388  1.00  0.00    -0.046 A  
HETATM   11  C   UNL     1      -8.690   5.870  65.958  1.00  0.00    -0.148 A  
HETATM   12  C   UNL     1     -10.177   7.974  66.965  1.00  0.00    -0.374 A  
HETATM   13  C   UNL     1      -9.567   5.618  67.020  1.00  0.00    -0.136 A  
HETATM   14  C   UNL     1     -10.324   6.688  67.521  1.00  0.00    -0.262 A  
BRANCH  13  15
HETATM   15  N   UNL     1      -9.661   4.357  67.645  1.00  0.00    -0.167 NA 
HETATM   16  H   UNL     1     -10.493   3.770  67.596  1.00  0.00     0.000 HD 
BRANCH  15  17
HETATM   17  N   UNL     1      -8.628   4.029  68.265  1.00  0.00    -0.093 NA 
HETATM   18  H   UNL     1      -7.727   3.878  67.810  1.00  0.00     0.000 HD 
BRANCH  17  19
HETATM   19  C   UNL     1      -8.818   3.890  69.610  1.00  0.00    -0.088 A  
HETATM   20  N   UNL     1      -9.308   2.847  70.263  1.00  0.00    -0.147 NA 
HETATM   21  C   UNL     1      -9.321   3.078  71.625  1.00  0.00    -0.128 A  
HETATM   22  C   UNL     1      -8.840   4.306  71.997  1.00  0.00    -0.112 A  
HETATM   23  N   UNL     1      -8.736   4.811  73.327  1.00  0.00    -0.105 N  
HETATM   24  S   UNL     1      -8.356   5.209  70.644  1.00  0.00    -0.113 SA 
HETATM   25  O   UNL     1      -9.112   4.057  74.234  1.00  0.00    -0.093 OA 
HETATM   26  O   UNL     1      -8.277   5.950  73.485  1.00  0.00    -0.111 OA 
ENDBRANCH  17  19
ENDBRANCH  15  17
ENDBRANCH  13  15
ENDBRANCH   3   8
ENDBRANCH   2   3
TORSDOF 7
ENDMDL
MODEL      242
REMARK 921   NORMALIZED FREE ENERGY PREDICTED BY IDOCK:   -2.48 KCAL/MOL
REMARK 922        TOTAL FREE ENERGY PREDICTED BY IDOCK:   -4.12 KCAL/MOL
REMARK 923 INTER-LIGAND FREE ENERGY PREDICTED BY IDOCK:   -3.99 KCAL/MOL
REMARK 924 INTRA-LIGAND FREE ENERGY PREDICTED BY IDOCK:   -0.13 KCAL/MOL
REMARK 927      BINDING AFFINITY PREDICTED BY RF-SCORE:    0.00 PKD
ROOT
HETATM    1  C   UNL     1     -11.509   6.331  69.395  1.00  0.00    -0.348 C  
HETATM    2  C   UNL     1     -10.639   5.420  70.248  1.00  0.00    -0.259 C  
ENDROOT
BRANCH   2   3
HETATM    3  N   UNL     1      -9.403   5.040  69.553  1.00  0.00    -0.118 NA 
BRANCH   3   4
HETATM    4  C   UNL     1      -8.909   3.662  69.694  1.00  0.00    -0.089 C  
BRANCH   4   5
HETATM    5  C   UNL     1      -8.305   3.431  71.091  1.00  0.00    -0.066 C  
HETATM    6  H   UNL     1      -6.955   2.248  71.934  1.00  0.00     0.000 HD 
HETATM    7  O   UNL     1      -7.328   2.391  71.072  1.00  0.00    -0.033 OA 
ENDBRANCH   4   5
ENDBRANCH   3   4
BRANCH   3   8
HETATM    8  C   UNL     1      -8.832   5.908  68.632  1.00  0.00    -0.111 A  
HETATM    9  C   UNL     1      -8.317   5.986  64.862  1.00  0.00    -0.104 C  
HETATM   10  C   UNL     1      -8.335   7.169  68.984  1.00  0.00    -0.126 A  
HETATM   11  C   UNL     1      -7.805   8.047  68.026  1.00  0.00    -0.126 A  
HETATM   12  C   UNL     1      -8.763   5.563  67.277  1.00  0.00    -0.107 A  
HETATM   13  C   UNL     1      -7.783   7.706  66.667  1.00  0.00    -0.098 A  
HETATM   14  C   UNL     1      -8.278   6.447  66.294  1.00  0.00    -0.118 A  
BRANCH  13  15
HETATM   15  N   UNL     1      -7.220   8.543  65.683  1.00  0.00    -0.078 NA 
HETATM   16  H   UNL     1      -6.217   8.706  65.596  1.00  0.00     0.000 HD 
BRANCH  15  17
HETATM   17  N   UNL     1      -8.066   9.067  64.928  1.00  0.00    -0.129 NA 
HETATM   18  H   UNL     1      -8.307   8.689  64.011  1.00  0.00     0.000 HD 
BRANCH  17  19
HETATM   19  C   UNL     1      -8.638  10.193  65.446  1.00  0.00    -0.155 A  
HETATM   20  N   UNL     1      -8.075  11.117  66.211  1.00  0.00    -0.164 NA 
HETATM   21  C   UNL     1      -8.974  12.122  66.513  1.00  0.00    -0.179 A  
HETATM   22  C   UNL     1     -10.222  11.949  65.974  1.00  0.00    -0.229 A  
HETATM   23  N   UNL     1     -11.339  12.823  66.119  1.00  0.00    -0.312 N  
HETATM   24  S   UNL     1     -10.304  10.516  65.069  1.00  0.00    -0.147 SA 
HETATM   25  O   UNL     1     -11.156  13.844  66.795  1.00  0.00    -0.296 OA 
HETATM   26  O   UNL     1     -12.401  12.512  65.563  1.00  0.00    -0.600 OA 
ENDBRANCH  17  19
ENDBRANCH  15  17
ENDBRANCH  13  15
ENDBRANCH   3   8
ENDBRANCH   2   3
TORSDOF 7
ENDMDL
MODEL      243
REMARK 921   NORMALIZED FREE ENERGY PREDICTED BY IDOCK:   -2.45 KCAL/MOL
REMARK 922        TOTAL FREE ENERGY PREDICTED BY IDOCK:   -4.08 KCAL/MOL
REMARK 923 INTER-LIGAND FREE ENERGY PREDICTED BY IDOCK:   -3.93 KCAL/MOL
REMARK 924 INTRA-LIGAND FREE ENERGY PREDICTED BY IDOCK:   -0.15 KCAL/MOL
REMARK 927      BINDING AFFINITY PREDICTED BY RF-SCORE:    0.00 PKD
ROOT
HETATM    1  C   UNL     1      -6.580   4.426  66.462  1.00  0.00    -0.049 C  
HETATM    2  C   UNL     1      -7.331   4.950  65.247  1.00  0.00    -0.072 C  
ENDROOT
BRANCH   2   3
HETATM    3  N   UNL     1      -6.943   6.328  64.920  1.00  0.00    -0.050 NA 
BRANCH   3   4
HETATM    4  C   UNL     1      -6.195   6.573  63.677  1.00  0.00    -0.034 C  
BRANCH   4   5
HETATM    5  C   UNL     1      -7.146   6.917  62.517  1.00  0.00    -0.054 C  
HETATM    6  H   UNL     1      -8.790   6.177  61.693  1.00  0.00     0.000 HD 
HETATM    7  O   UNL     1      -8.203   5.966  62.409  1.00  0.00    -0.100 OA 
ENDBRANCH   4   5
ENDBRANCH   3   4
BRANCH   3   8
HETATM    8  C   UNL     1      -7.445   7.384  65.668  1.00  0.00    -0.084 A  
HETATM    9  C   UNL     1      -6.335   9.387  68.708  1.00  0.00    -0.047 C  
HETATM   10  C   UNL     1      -8.612   8.074  65.319  1.00  0.00    -0.112 A  
HETATM   11  C   UNL     1      -9.072   9.170  66.067  1.00  0.00    -0.245 A  
HETATM   12  C   UNL     1      -6.766   7.835  66.806  1.00  0.00    -0.067 A  
HETATM   13  C   UNL     1      -8.359   9.637  67.178  1.00  0.00    -0.121 A  
HETATM   14  C   UNL     1      -7.185   8.959  67.543  1.00  0.00    -0.080 A  
BRANCH  13  15
HETATM   15  N   UNL     1      -8.813  10.706  67.977  1.00  0.00    -0.127 NA 
HETATM   16  H   UNL     1      -8.241  11.148  68.696  1.00  0.00     0.000 HD 
BRANCH  15  17
HETATM   17  N   UNL     1      -9.983  11.061  67.720  1.00  0.00    -0.171 NA 
HETATM   18  H   UNL     1     -10.256  11.485  66.834  1.00  0.00     0.000 HD 
BRANCH  17  19
HETATM   19  C   UNL     1     -10.861  10.826  68.739  1.00  0.00    -0.221 A  
HETATM   20  N   UNL     1     -12.020  11.425  68.973  1.00  0.00    -0.373 NA 
HETATM   21  C   UNL     1     -12.634  10.892  70.090  1.00  0.00    -0.234 A  
HETATM   22  C   UNL     1     -11.930   9.889  70.701  1.00  0.00    -0.277 A  
HETATM   23  N   UNL     1     -12.321   9.162  71.864  1.00  0.00    -0.366 N  
HETATM   24  S   UNL     1     -10.472   9.583  69.889  1.00  0.00    -0.259 SA 
HETATM   25  O   UNL     1     -13.412   9.468  72.364  1.00  0.00    -0.453 OA 
HETATM   26  O   UNL     1     -11.560   8.282  72.287  1.00  0.00    -0.332 OA 
ENDBRANCH  17  19
ENDBRANCH  15  17
ENDBRANCH  13  15
ENDBRANCH   3   8
ENDBRANCH   2   3
TORSDOF 7
ENDMDL
MODEL      244
REMARK 921   NORMALIZED FREE ENERGY PREDICTED BY IDOCK:   -2.29 KCAL/MOL
REMARK 922        TOTAL FREE ENERGY PREDICTED BY IDOCK:   -3.85 KCAL/MOL
REMARK 923 INTER-LIGAND FREE ENERGY PREDICTED BY IDOCK:   -4.39 KCAL/MOL
REMARK 924 INTRA-LIGAND FREE ENERGY PREDICTED BY IDOCK:    0.54 KCAL/MOL
REMARK 927      BINDING AFFINITY PREDICTED BY RF-SCORE:    0.00 PKD
ROOT
HETATM    1  C   UNL     1     -12.203  12.460  63.594  1.00  0.00    -0.653 C  
HETATM    2  C   UNL     1     -11.018  13.030  64.359  1.00  0.00    -0.374 C  
ENDROOT
BRANCH   2   3
HETATM    3  N   UNL     1     -11.221  12.954  65.812  1.00  0.00    -0.287 NA 
BRANCH   3   4
HETATM    4  C   UNL     1     -12.393  13.624  66.396  1.00  0.00    -0.389 C  
BRANCH   4   5
HETATM    5  C   UNL     1     -11.981  14.548  67.555  1.00  0.00    -0.325 C  
HETATM    6  H   UNL     1     -12.011  14.527  69.538  1.00  0.00     0.000 HD 
HETATM    7  O   UNL     1     -12.265  13.957  68.822  1.00  0.00    -0.348 OA 
ENDBRANCH   4   5
ENDBRANCH   3   4
BRANCH   3   8
HETATM    8  C   UNL     1     -10.432  12.105  66.577  1.00  0.00    -0.225 A  
HETATM    9  C   UNL     1      -8.551   8.842  66.028  1.00  0.00    -0.166 C  
HETATM   10  C   UNL     1     -10.056  12.399  67.892  1.00  0.00    -0.208 A  
HETATM   11  C   UNL     1      -9.219  11.546  68.629  1.00  0.00    -0.136 A  
HETATM   12  C   UNL     1      -9.941  10.910  66.036  1.00  0.00    -0.290 A  
HETATM   13  C   UNL     1      -8.700  10.376  68.060  1.00  0.00    -0.123 A  
HETATM   14  C   UNL     1      -9.065  10.064  66.741  1.00  0.00    -0.159 A  
BRANCH  13  15
HETATM   15  N   UNL     1      -7.892   9.474  68.782  1.00  0.00    -0.083 NA 
HETATM   16  H   UNL     1      -7.050   9.046  68.397  1.00  0.00     0.000 HD 
BRANCH  15  17
HETATM   17  N   UNL     1      -8.306   9.248  69.939  1.00  0.00    -0.139 NA 
HETATM   18  H   UNL     1      -9.047   9.790  70.383  1.00  0.00     0.000 HD 
BRANCH  17  19
HETATM   19  C   UNL     1      -7.672   8.206  70.552  1.00  0.00    -0.085 A  
HETATM   20  N   UNL     1      -6.592   8.244  71.319  1.00  0.00    -0.044 NA 
HETATM   21  C   UNL     1      -6.267   6.982  71.778  1.00  0.00    -0.038 A  
HETATM   22  C   UNL     1      -7.108   5.989  71.349  1.00  0.00    -0.078 A  
HETATM   23  N   UNL     1      -7.013   4.601  71.664  1.00  0.00    -0.045 N  
HETATM   24  S   UNL     1      -8.333   6.611  70.355  1.00  0.00    -0.127 SA 
HETATM   25  O   UNL     1      -6.081   4.266  72.407  1.00  0.00    -0.015 OA 
HETATM   26  O   UNL     1      -7.861   3.834  71.188  1.00  0.00    -0.057 OA 
ENDBRANCH  17  19
ENDBRANCH  15  17
ENDBRANCH  13  15
ENDBRANCH   3   8
ENDBRANCH   2   3
TORSDOF 7
ENDMDL
MODEL      245
REMARK 921   NORMALIZED FREE ENERGY PREDICTED BY IDOCK:   -2.18 KCAL/MOL
REMARK 922        TOTAL FREE ENERGY PREDICTED BY IDOCK:   -3.70 KCAL/MOL
REMARK 923 INTER-LIGAND FREE ENERGY PREDICTED BY IDOCK:   -3.39 KCAL/MOL
REMARK 924 INTRA-LIGAND FREE ENERGY PREDICTED BY IDOCK:   -0.31 KCAL/MOL
REMARK 927      BINDING AFFINITY PREDICTED BY RF-SCORE:    0.00 PKD
ROOT
HETATM    1  C   UNL     1      -7.376   8.438  74.353  1.00  0.00    -0.240 C  
HETATM    2  C   UNL     1      -8.678   7.655  74.433  1.00  0.00    -0.158 C  
ENDROOT
BRANCH   2   3
HETATM    3  N   UNL     1      -9.259   7.429  73.104  1.00  0.00    -0.159 NA 
BRANCH   3   4
HETATM    4  C   UNL     1     -10.013   8.522  72.469  1.00  0.00    -0.252 C  
BRANCH   4   5
HETATM    5  C   UNL     1     -11.441   8.075  72.112  1.00  0.00    -0.335 C  
HETATM    6  H   UNL     1     -13.110   8.891  71.418  1.00  0.00     0.000 HD 
HETATM    7  O   UNL     1     -12.228   9.166  71.638  1.00  0.00    -0.316 OA 
ENDBRANCH   4   5
ENDBRANCH   3   4
BRANCH   3   8
HETATM    8  C   UNL     1      -8.933   6.283  72.392  1.00  0.00    -0.138 A  
HETATM    9  C   UNL     1      -9.945   2.614  72.451  1.00  0.00    -0.235 C  
HETATM   10  C   UNL     1      -8.091   6.298  71.274  1.00  0.00    -0.118 A  
HETATM   11  C   UNL     1      -7.814   5.132  70.543  1.00  0.00    -0.082 A  
HETATM   12  C   UNL     1      -9.478   5.044  72.750  1.00  0.00    -0.157 A  
HETATM   13  C   UNL     1      -8.400   3.907  70.887  1.00  0.00    -0.071 A  
HETATM   14  C   UNL     1      -9.250   3.872  72.004  1.00  0.00    -0.173 A  
BRANCH  13  15
HETATM   15  N   UNL     1      -8.113   2.709  70.203  1.00  0.00    -0.042 NA 
HETATM   16  H   UNL     1      -7.236   2.200  70.313  1.00  0.00     0.000 HD 
BRANCH  15  17
HETATM   17  N   UNL     1      -9.034   2.329  69.450  1.00  0.00    -0.093 NA 
HETATM   18  H   UNL     1      -9.675   1.572  69.689  1.00  0.00     0.000 HD 
BRANCH  17  19
HETATM   19  C   UNL     1      -9.102   3.023  68.277  1.00  0.00    -0.164 A  
HETATM   20  N   UNL     1      -9.989   3.941  67.921  1.00  0.00     0.029 NA 
HETATM   21  C   UNL     1      -9.710   4.435  66.661  1.00  0.00    -0.215 A  
HETATM   22  C   UNL     1      -8.607   3.882  66.066  1.00  0.00    -0.112 A  
HETATM   23  N   UNL     1      -8.088   4.200  64.776  1.00  0.00    -0.093 N  
HETATM   24  S   UNL     1      -7.886   2.722  67.072  1.00  0.00    -0.075 SA 
HETATM   25  O   UNL     1      -8.694   5.071  64.137  1.00  0.00    -0.143 OA 
HETATM   26  O   UNL     1      -7.076   3.599  64.389  1.00  0.00    -0.052 OA 
ENDBRANCH  17  19
ENDBRANCH  15  17
ENDBRANCH  13  15
ENDBRANCH   3   8
ENDBRANCH   2   3
TORSDOF 7
ENDMDL
MODEL      246
REMARK 921   NORMALIZED FREE ENERGY PREDICTED BY IDOCK:   -1.76 KCAL/MOL
REMARK 922        TOTAL FREE ENERGY PREDICTED BY IDOCK:   -3.11 KCAL/MOL
REMARK 923 INTER-LIGAND FREE ENERGY PREDICTED BY IDOCK:   -4.08 KCAL/MOL
REMARK 924 INTRA-LIGAND FREE ENERGY PREDICTED BY IDOCK:    0.96 KCAL/MOL
REMARK 927      BINDING AFFINITY PREDICTED BY RF-SCORE:    0.00 PKD
ROOT
HETATM    1  C   UNL     1     -10.133   5.188  65.719  1.00  0.00    -0.093 C  
HETATM    2  C   UNL     1      -8.661   4.937  66.007  1.00  0.00    -0.119 C  
ENDROOT
BRANCH   2   3
HETATM    3  N   UNL     1      -8.476   3.891  67.022  1.00  0.00    -0.100 NA 
BRANCH   3   4
HETATM    4  C   UNL     1      -7.546   2.788  66.737  1.00  0.00    -0.071 C  
BRANCH   4   5
HETATM    5  C   UNL     1      -7.519   2.462  65.233  1.00  0.00    -0.071 C  
HETATM    6  H   UNL     1      -6.278   1.635  63.927  1.00  0.00     0.000 HD 
HETATM    7  O   UNL     1      -6.295   1.836  64.855  1.00  0.00    -0.018 OA 
ENDBRANCH   4   5
ENDBRANCH   3   4
BRANCH   3   8
HETATM    8  C   UNL     1      -9.017   4.055  68.290  1.00  0.00    -0.118 A  
HETATM    9  C   UNL     1      -8.722   2.313  71.662  1.00  0.00    -0.102 C  
HETATM   10  C   UNL     1      -9.845   5.130  68.630  1.00  0.00    -0.225 A  
HETATM   11  C   UNL     1     -10.342   5.297  69.932  1.00  0.00    -0.374 A  
HETATM   12  C   UNL     1      -8.717   3.147  69.313  1.00  0.00    -0.133 A  
HETATM   13  C   UNL     1      -9.998   4.406  70.956  1.00  0.00    -0.172 A  
HETATM   14  C   UNL     1      -9.167   3.321  70.636  1.00  0.00    -0.207 A  
BRANCH  13  15
HETATM   15  N   UNL     1     -10.511   4.517  72.265  1.00  0.00    -0.177 NA 
HETATM   16  H   UNL     1     -11.226   3.893  72.639  1.00  0.00     0.000 HD 
BRANCH  15  17
HETATM   17  N   UNL     1     -10.007   5.452  72.922  1.00  0.00    -0.166 NA 
HETATM   18  H   UNL     1      -9.192   5.336  73.525  1.00  0.00     0.000 HD 
BRANCH  17  19
HETATM   19  C   UNL     1     -10.649   6.645  72.756  1.00  0.00    -0.232 A  
HETATM   20  N   UNL     1     -10.210   7.859  73.055  1.00  0.00    -0.322 NA 
HETATM   21  C   UNL     1     -11.143   8.820  72.716  1.00  0.00     0.381 A  
HETATM   22  C   UNL     1     -12.293   8.323  72.162  1.00  0.00    -0.360 A  
HETATM   23  N   UNL     1     -13.419   9.079  71.720  1.00  0.00    -0.388 N  
HETATM   24  S   UNL     1     -12.238   6.631  72.050  1.00  0.00    -0.243 SA 
HETATM   25  O   UNL     1     -13.340  10.309  71.843  1.00  0.00    -0.415 OA 
HETATM   26  O   UNL     1     -14.383   8.467  71.241  1.00  0.00    -0.355 OA 
ENDBRANCH  17  19
ENDBRANCH  15  17
ENDBRANCH  13  15
ENDBRANCH   3   8
ENDBRANCH   2   3
TORSDOF 7
ENDMDL
MODEL      247
REMARK 921   NORMALIZED FREE ENERGY PREDICTED BY IDOCK:   -1.68 KCAL/MOL
REMARK 922        TOTAL FREE ENERGY PREDICTED BY IDOCK:   -3.00 KCAL/MOL
REMARK 923 INTER-LIGAND FREE ENERGY PREDICTED BY IDOCK:   -2.18 KCAL/MOL
REMARK 924 INTRA-LIGAND FREE ENERGY PREDICTED BY IDOCK:   -0.82 KCAL/MOL
REMARK 927      BINDING AFFINITY PREDICTED BY RF-SCORE:    0.00 PKD
ROOT
HETATM    1  C   UNL     1      -8.670  10.644  64.875  1.00  0.00    -0.178 C  
HETATM    2  C   UNL     1      -7.486   9.951  65.533  1.00  0.00    -0.126 C  
ENDROOT
BRANCH   2   3
HETATM    3  N   UNL     1      -7.803   9.513  66.899  1.00  0.00    -0.101 NA 
BRANCH   3   4
HETATM    4  C   UNL     1      -8.256  10.518  67.874  1.00  0.00    -0.107 C  
BRANCH   4   5
HETATM    5  C   UNL     1      -7.122  10.899  68.842  1.00  0.00    -0.090 C  
HETATM    6  H   UNL     1      -6.044  12.502  69.290  1.00  0.00     0.000 HD 
HETATM    7  O   UNL     1      -6.744  12.267  68.692  1.00  0.00    -0.071 OA 
ENDBRANCH   4   5
ENDBRANCH   3   4
BRANCH   3   8
HETATM    8  C   UNL     1      -7.861   8.159  67.196  1.00  0.00    -0.101 A  
HETATM    9  C   UNL     1     -10.434   5.758  68.646  1.00  0.00    -0.298 C  
HETATM   10  C   UNL     1      -6.831   7.267  66.877  1.00  0.00    -0.069 A  
HETATM   11  C   UNL     1      -6.934   5.893  67.146  1.00  0.00    -0.069 A  
HETATM   12  C   UNL     1      -8.997   7.613  67.807  1.00  0.00    -0.131 A  
HETATM   13  C   UNL     1      -8.094   5.354  67.718  1.00  0.00    -0.100 A  
HETATM   14  C   UNL     1      -9.139   6.232  68.044  1.00  0.00    -0.112 A  
BRANCH  13  15
HETATM   15  N   UNL     1      -8.217   3.988  68.042  1.00  0.00    -0.091 NA 
HETATM   16  H   UNL     1      -9.021   3.421  67.775  1.00  0.00     0.000 HD 
BRANCH  15  17
HETATM   17  N   UNL     1      -7.246   3.537  68.687  1.00  0.00    -0.050 NA 
HETATM   18  H   UNL     1      -6.410   3.155  68.244  1.00  0.00     0.000 HD 
BRANCH  17  19
HETATM   19  C   UNL     1      -7.410   3.606  70.040  1.00  0.00    -0.041 A  
HETATM   20  N   UNL     1      -6.833   4.440  70.892  1.00  0.00    -0.035 NA 
HETATM   21  C   UNL     1      -7.275   4.213  72.182  1.00  0.00    -0.057 A  
HETATM   22  C   UNL     1      -8.188   3.198  72.299  1.00  0.00    -0.067 A  
HETATM   23  N   UNL     1      -8.810   2.749  73.501  1.00  0.00    -0.075 N  
HETATM   24  S   UNL     1      -8.520   2.497  70.790  1.00  0.00    -0.056 SA 
HETATM   25  O   UNL     1      -8.495   3.345  74.540  1.00  0.00    -0.082 OA 
HETATM   26  O   UNL     1      -9.616   1.813  73.428  1.00  0.00    -0.072 OA 
ENDBRANCH  17  19
ENDBRANCH  15  17
ENDBRANCH  13  15
ENDBRANCH   3   8
ENDBRANCH   2   3
TORSDOF 7
ENDMDL
MODEL      248
REMARK 921   NORMALIZED FREE ENERGY PREDICTED BY IDOCK:   -1.67 KCAL/MOL
REMARK 922        TOTAL FREE ENERGY PREDICTED BY IDOCK:   -2.98 KCAL/MOL
REMARK 923 INTER-LIGAND FREE ENERGY PREDICTED BY IDOCK:   -2.89 KCAL/MOL
REMARK 924 INTRA-LIGAND FREE ENERGY PREDICTED BY IDOCK:   -0.09 KCAL/MOL
REMARK 927      BINDING AFFINITY PREDICTED BY RF-SCORE:    0.00 PKD
ROOT
HETATM    1  C   UNL     1      -8.481  14.746  68.294  1.00  0.00    -0.151 C  
HETATM    2  C   UNL     1      -9.206  14.957  66.973  1.00  0.00    -0.234 C  
ENDROOT
BRANCH   2   3
HETATM    3  N   UNL     1     -10.646  14.693  67.096  1.00  0.00    -0.279 NA 
BRANCH   3   4
HETATM    4  C   UNL     1     -11.488  14.808  65.894  1.00  0.00    -0.319 C  
BRANCH   4   5
HETATM    5  C   UNL     1     -10.957  13.914  64.760  1.00  0.00    -0.401 C  
HETATM    6  H   UNL     1     -10.636  11.985  64.432  1.00  0.00     0.000 HD 
HETATM    7  O   UNL     1     -10.963  12.537  65.132  1.00  0.00    -0.283 OA 
ENDBRANCH   4   5
ENDBRANCH   3   4
BRANCH   3   8
HETATM    8  C   UNL     1     -11.155  14.160  68.272  1.00  0.00    -0.254 A  
HETATM    9  C   UNL     1     -12.909  15.492  71.375  1.00  0.00    -0.531 C  
HETATM   10  C   UNL     1     -11.194  12.784  68.526  1.00  0.00    -0.314 A  
HETATM   11  C   UNL     1     -11.757  12.268  69.704  1.00  0.00    -0.386 A  
HETATM   12  C   UNL     1     -11.695  14.996  69.256  1.00  0.00    -0.349 A  
HETATM   13  C   UNL     1     -12.333  13.113  70.661  1.00  0.00    -0.326 A  
HETATM   14  C   UNL     1     -12.305  14.496  70.423  1.00  0.00    -0.400 A  
BRANCH  13  15
HETATM   15  N   UNL     1     -12.869  12.635  71.874  1.00  0.00    -0.251 NA 
HETATM   16  H   UNL     1     -12.685  13.072  72.776  1.00  0.00     0.000 HD 
BRANCH  15  17
HETATM   17  N   UNL     1     -13.589  11.623  71.738  1.00  0.00    -0.052 NA 
HETATM   18  H   UNL     1     -14.572  11.670  71.467  1.00  0.00     0.000 HD 
BRANCH  17  19
HETATM   19  C   UNL     1     -12.937  10.450  71.987  1.00  0.00    -0.396 A  
HETATM   20  N   UNL     1     -12.190  10.138  73.036  1.00  0.00     2.340 NA 
HETATM   21  C   UNL     1     -11.719   8.842  72.939  1.00  0.00     0.462 A  
HETATM   22  C   UNL     1     -12.114   8.179  71.807  1.00  0.00    -0.315 A  
HETATM   23  N   UNL     1     -11.781   6.839  71.447  1.00  0.00    -0.307 N  
HETATM   24  S   UNL     1     -13.089   9.163  70.829  1.00  0.00     0.330 SA 
HETATM   25  O   UNL     1     -11.069   6.214  72.246  1.00  0.00    -0.247 OA 
HETATM   26  O   UNL     1     -12.223   6.393  70.380  1.00  0.00    -0.224 OA 
ENDBRANCH  17  19
ENDBRANCH  15  17
ENDBRANCH  13  15
ENDBRANCH   3   8
ENDBRANCH   2   3
TORSDOF 7
ENDMDL
MODEL      249
REMARK 921   NORMALIZED FREE ENERGY PREDICTED BY IDOCK:   -0.95 KCAL/MOL
REMARK 922        TOTAL FREE ENERGY PREDICTED BY IDOCK:   -1.96 KCAL/MOL
REMARK 923 INTER-LIGAND FREE ENERGY PREDICTED BY IDOCK:   -4.49 KCAL/MOL
REMARK 924 INTRA-LIGAND FREE ENERGY PREDICTED BY IDOCK:    2.53 KCAL/MOL
REMARK 927      BINDING AFFINITY PREDICTED BY RF-SCORE:    0.00 PKD
ROOT
HETATM    1  C   UNL     1      -5.157   8.558  72.904  1.00  0.00    -0.042 C  
HETATM    2  C   UNL     1      -6.629   8.934  72.983  1.00  0.00     0.153 C  
ENDROOT
BRANCH   2   3
HETATM    3  N   UNL     1      -7.199   9.187  71.653  1.00  0.00    -0.321 NA 
BRANCH   3   4
HETATM    4  C   UNL     1      -6.283   9.336  70.511  1.00  0.00    -0.058 C  
BRANCH   4   5
HETATM    5  C   UNL     1      -6.091  10.819  70.146  1.00  0.00    -0.118 C  
HETATM    6  H   UNL     1      -5.756  12.534  71.082  1.00  0.00     0.000 HD 
HETATM    7  O   UNL     1      -5.874  11.619  71.307  1.00  0.00    -0.371 OA 
ENDBRANCH   4   5
ENDBRANCH   3   4
BRANCH   3   8
HETATM    8  C   UNL     1      -8.569   9.088  71.457  1.00  0.00    -0.041 A  
HETATM    9  C   UNL     1     -10.997   9.682  68.586  1.00  0.00    -0.152 C  
HETATM   10  C   UNL     1      -9.440   8.581  72.428  1.00  0.00    -0.350 A  
HETATM   11  C   UNL     1     -10.817   8.448  72.186  1.00  0.00    -0.407 A  
HETATM   12  C   UNL     1      -9.142   9.467  70.237  1.00  0.00    -0.296 A  
HETATM   13  C   UNL     1     -11.370   8.790  70.946  1.00  0.00    -0.275 A  
HETATM   14  C   UNL     1     -10.512   9.299  69.958  1.00  0.00    -0.254 A  
BRANCH  13  15
HETATM   15  N   UNL     1     -12.752   8.711  70.682  1.00  0.00    -0.339 NA 
HETATM   16  H   UNL     1     -13.322   9.522  70.443  1.00  0.00     0.000 HD 
BRANCH  15  17
HETATM   17  N   UNL     1     -13.212   7.552  70.768  1.00  0.00    -0.507 NA 
HETATM   18  H   UNL     1     -14.211   7.344  70.738  1.00  0.00     0.000 HD 
BRANCH  17  19
HETATM   19  C   UNL     1     -12.252   6.592  70.908  1.00  0.00    -0.265 A  
HETATM   20  N   UNL     1     -11.931   5.910  71.998  1.00  0.00    -0.178 NA 
HETATM   21  C   UNL     1     -10.921   5.005  71.734  1.00  0.00     0.062 A  
HETATM   22  C   UNL     1     -10.479   5.010  70.438  1.00  0.00    -0.167 A  
HETATM   23  N   UNL     1      -9.453   4.186  69.886  1.00  0.00    -0.177 N  
HETATM   24  S   UNL     1     -11.319   6.153  69.509  1.00  0.00    -0.186 SA 
HETATM   25  O   UNL     1      -8.918   3.380  70.660  1.00  0.00    -0.079 OA 
HETATM   26  O   UNL     1      -9.176   4.321  68.688  1.00  0.00    -0.120 OA 
ENDBRANCH  17  19
ENDBRANCH  15  17
ENDBRANCH  13  15
ENDBRANCH   3   8
ENDBRANCH   2   3
TORSDOF 7
ENDMDL
MODEL      250
REMARK 921   NORMALIZED FREE ENERGY PREDICTED BY IDOCK:   -0.02 KCAL/MOL
REMARK 922        TOTAL FREE ENERGY PREDICTED BY IDOCK:   -0.66 KCAL/MOL
REMARK 923 INTER-LIGAND FREE ENERGY PREDICTED BY IDOCK:   -0.84 KCAL/MOL
REMARK 924 INTRA-LIGAND FREE ENERGY PREDICTED BY IDOCK:    0.18 KCAL/MOL
REMARK 927      BINDING AFFINITY PREDICTED BY RF-SCORE:    0.00 PKD
ROOT
HETATM    1  C   UNL     1      -5.136  13.798  67.354  1.00  0.00     0.320 C  
HETATM    2  C   UNL     1      -6.634  14.020  67.213  1.00  0.00     0.305 C  
ENDROOT
BRANCH   2   3
HETATM    3  N   UNL     1      -7.404  12.889  67.748  1.00  0.00    -0.119 NA 
BRANCH   3   4
HETATM    4  C   UNL     1      -8.548  13.170  68.630  1.00  0.00     0.036 C  
BRANCH   4   5
HETATM    5  C   UNL     1      -9.637  13.963  67.888  1.00  0.00    -0.227 C  
HETATM    6  H   UNL     1      -9.796  15.673  66.896  1.00  0.00     0.000 HD 
HETATM    7  O   UNL     1      -9.124  15.183  67.354  1.00  0.00    -0.182 OA 
ENDBRANCH   4   5
ENDBRANCH   3   4
BRANCH   3   8
HETATM    8  C   UNL     1      -7.173  11.607  67.270  1.00  0.00    -0.137 A  
HETATM    9  C   UNL     1      -5.157   8.572  68.372  1.00  0.00    -0.033 C  
HETATM   10  C   UNL     1      -7.825  11.087  66.146  1.00  0.00    -0.117 A  
HETATM   11  C   UNL     1      -7.607   9.769  65.711  1.00  0.00    -0.108 A  
HETATM   12  C   UNL     1      -6.284  10.751  67.932  1.00  0.00    -0.054 A  
HETATM   13  C   UNL     1      -6.749   8.910  66.409  1.00  0.00    -0.074 A  
HETATM   14  C   UNL     1      -6.087   9.413  67.540  1.00  0.00    -0.053 A  
BRANCH  13  15
HETATM   15  N   UNL     1      -6.474   7.597  65.978  1.00  0.00    -0.042 NA 
HETATM   16  H   UNL     1      -5.618   7.098  66.219  1.00  0.00     0.000 HD 
BRANCH  15  17
HETATM   17  N   UNL     1      -7.378   7.102  65.271  1.00  0.00    -0.076 NA 
HETATM   18  H   UNL     1      -8.275   7.560  65.112  1.00  0.00     0.000 HD 
BRANCH  17  19
HETATM   19  C   UNL     1      -7.050   5.891  64.733  1.00  0.00    -0.060 A  
HETATM   20  N   UNL     1      -6.693   5.621  63.486  1.00  0.00    -0.036 NA 
HETATM   21  C   UNL     1      -6.414   4.276  63.333  1.00  0.00    -0.030 A  
HETATM   22  C   UNL     1      -6.567   3.531  64.473  1.00  0.00    -0.036 A  
HETATM   23  N   UNL     1      -6.350   2.128  64.607  1.00  0.00    -0.019 N  
HETATM   24  S   UNL     1      -7.067   4.499  65.774  1.00  0.00    -0.068 SA 
HETATM   25  O   UNL     1      -5.977   1.529  63.589  1.00  0.00    -0.008 OA 
HETATM   26  O   UNL     1      -6.537   1.610  65.716  1.00  0.00    -0.023 OA 
ENDBRANCH  17  19
ENDBRANCH  15  17
ENDBRANCH  13  15
ENDBRANCH   3   8
ENDBRANCH   2   3
TORSDOF 7
ENDMDL
MODEL      251
REMARK 921   NORMALIZED FREE ENERGY PREDICTED BY IDOCK:    0.54 KCAL/MOL
REMARK 922        TOTAL FREE ENERGY PREDICTED BY IDOCK:    0.13 KCAL/MOL
REMARK 923 INTER-LIGAND FREE ENERGY PREDICTED BY IDOCK:   -1.50 KCAL/MOL
REMARK 924 INTRA-LIGAND FREE ENERGY PREDICTED BY IDOCK:    1.63 KCAL/MOL
REMARK 927      BINDING AFFINITY PREDICTED BY RF-SCORE:    0.00 PKD
ROOT
HETATM    1  C   UNL     1      -6.424  14.308  67.006  1.00  0.00     0.990 C  
HETATM    2  C   UNL     1      -7.929  14.223  67.210  1.00  0.00    -0.168 C  
ENDROOT
BRANCH   2   3
HETATM    3  N   UNL     1      -8.419  12.845  67.081  1.00  0.00    -0.193 NA 
BRANCH   3   4
HETATM    4  C   UNL     1      -8.851  12.371  65.757  1.00  0.00     0.415 C  
BRANCH   4   5
HETATM    5  C   UNL     1     -10.345  12.661  65.526  1.00  0.00    -0.286 C  
HETATM    6  H   UNL     1     -11.601  14.180  65.743  1.00  0.00     0.000 HD 
HETATM    7  O   UNL     1     -10.679  14.001  65.885  1.00  0.00    -0.284 OA 
ENDBRANCH   4   5
ENDBRANCH   3   4
BRANCH   3   8
HETATM    8  C   UNL     1      -8.288  11.962  68.144  1.00  0.00    -0.161 A  
HETATM    9  C   UNL     1     -10.464   9.338  69.838  1.00  0.00    -0.247 C  
HETATM   10  C   UNL     1      -7.089  11.793  68.846  1.00  0.00    -0.114 A  
HETATM   11  C   UNL     1      -6.970  10.858  69.887  1.00  0.00    -0.094 A  
HETATM   12  C   UNL     1      -9.365  11.160  68.539  1.00  0.00    -0.190 A  
HETATM   13  C   UNL     1      -8.043  10.031  70.243  1.00  0.00     0.023 A  
HETATM   14  C   UNL     1      -9.254  10.185  69.549  1.00  0.00    -0.223 A  
BRANCH  13  15
HETATM   15  N   UNL     1      -7.974   9.113  71.310  1.00  0.00    -0.325 NA 
HETATM   16  H   UNL     1      -7.358   9.236  72.113  1.00  0.00     0.000 HD 
BRANCH  15  17
HETATM   17  N   UNL     1      -8.737   8.133  71.177  1.00  0.00    -0.130 NA 
HETATM   18  H   UNL     1      -9.732   8.166  71.401  1.00  0.00     0.000 HD 
BRANCH  17  19
HETATM   19  C   UNL     1      -8.114   7.014  70.705  1.00  0.00    -0.113 A  
HETATM   20  N   UNL     1      -7.949   5.851  71.318  1.00  0.00    -0.111 NA 
HETATM   21  C   UNL     1      -7.288   4.953  70.502  1.00  0.00    -0.054 A  
HETATM   22  C   UNL     1      -6.950   5.447  69.270  1.00  0.00    -0.056 A  
HETATM   23  N   UNL     1      -6.268   4.747  68.231  1.00  0.00    -0.034 N  
HETATM   24  S   UNL     1      -7.455   7.058  69.098  1.00  0.00    -0.096 SA 
HETATM   25  O   UNL     1      -5.958   3.572  68.470  1.00  0.00    -0.022 OA 
HETATM   26  O   UNL     1      -6.040   5.348  67.173  1.00  0.00    -0.028 OA 
ENDBRANCH  17  19
ENDBRANCH  15  17
ENDBRANCH  13  15
ENDBRANCH   3   8
ENDBRANCH   2   3
TORSDOF 7
ENDMDL
MODEL      252
REMARK 921   NORMALIZED FREE ENERGY PREDICTED BY IDOCK:    1.65 KCAL/MOL
REMARK 922        TOTAL FREE ENERGY PREDICTED BY IDOCK:    1.69 KCAL/MOL
REMARK 923 INTER-LIGAND FREE ENERGY PREDICTED BY IDOCK:    1.97 KCAL/MOL
REMARK 924 INTRA-LIGAND FREE ENERGY PREDICTED BY IDOCK:   -0.27 KCAL/MOL
REMARK 927      BINDING AFFINITY PREDICTED BY RF-SCORE:    0.00 PKD
ROOT
HETATM    1  C   UNL     1      -5.136  13.798  67.354  1.00  0.00     0.320 C  
HETATM    2  C   UNL     1      -6.634  14.020  67.213  1.00  0.00     0.305 C  
ENDROOT
BRANCH   2   3
HETATM    3  N   UNL     1      -7.404  12.889  67.748  1.00  0.00    -0.119 NA 
BRANCH   3   4
HETATM    4  C   UNL     1      -8.548  13.170  68.630  1.00  0.00     0.036 C  
BRANCH   4   5
HETATM    5  C   UNL     1      -9.667  13.902  67.869  1.00  0.00    -0.231 C  
HETATM    6  H   UNL     1     -10.186  15.769  67.451  1.00  0.00     0.000 HD 
HETATM    7  O   UNL     1      -9.495  15.317  67.921  1.00  0.00    -0.196 OA 
ENDBRANCH   4   5
ENDBRANCH   3   4
BRANCH   3   8
HETATM    8  C   UNL     1      -7.173  11.607  67.270  1.00  0.00    -0.137 A  
HETATM    9  C   UNL     1      -5.157   8.572  68.372  1.00  0.00    -0.033 C  
HETATM   10  C   UNL     1      -7.825  11.087  66.146  1.00  0.00    -0.117 A  
HETATM   11  C   UNL     1      -7.607   9.769  65.711  1.00  0.00    -0.108 A  
HETATM   12  C   UNL     1      -6.284  10.751  67.932  1.00  0.00    -0.054 A  
HETATM   13  C   UNL     1      -6.749   8.910  66.409  1.00  0.00    -0.074 A  
HETATM   14  C   UNL     1      -6.087   9.413  67.540  1.00  0.00    -0.053 A  
BRANCH  13  15
HETATM   15  N   UNL     1      -6.474   7.597  65.978  1.00  0.00    -0.042 NA 
HETATM   16  H   UNL     1      -5.618   7.098  66.219  1.00  0.00     0.000 HD 
BRANCH  15  17
HETATM   17  N   UNL     1      -7.378   7.102  65.271  1.00  0.00    -0.076 NA 
HETATM   18  H   UNL     1      -7.552   7.387  64.307  1.00  0.00     0.000 HD 
BRANCH  17  19
HETATM   19  C   UNL     1      -8.110   6.145  65.912  1.00  0.00    -0.121 A  
HETATM   20  N   UNL     1      -8.041   4.830  65.766  1.00  0.00    -0.109 NA 
HETATM   21  C   UNL     1      -8.930   4.192  66.611  1.00  0.00    -0.125 A  
HETATM   22  C   UNL     1      -9.673   5.036  67.394  1.00  0.00    -0.158 A  
HETATM   23  N   UNL     1     -10.660   4.657  68.352  1.00  0.00     0.350 N  
HETATM   24  S   UNL     1      -9.278   6.658  67.093  1.00  0.00    -0.130 SA 
HETATM   25  O   UNL     1     -10.855   3.442  68.492  1.00  0.00     2.832 OA 
HETATM   26  O   UNL     1     -11.242   5.553  68.977  1.00  0.00     0.007 OA 
ENDBRANCH  17  19
ENDBRANCH  15  17
ENDBRANCH  13  15
ENDBRANCH   3   8
ENDBRANCH   2   3
TORSDOF 7
ENDMDL
