MODEL        1
REMARK 921   NORMALIZED FREE ENERGY PREDICTED BY IDOCK:   -4.56 KCAL/MOL
REMARK 922        TOTAL FREE ENERGY PREDICTED BY IDOCK:  -19.95 KCAL/MOL
REMARK 923 INTER-LIGAND FREE ENERGY PREDICTED BY IDOCK:  -13.63 KCAL/MOL
REMARK 924 INTRA-LIGAND FREE ENERGY PREDICTED BY IDOCK:   -6.33 KCAL/MOL
REMARK 927      BINDING AFFINITY PREDICTED BY RF-SCORE:    0.00 PKD
ROOT
HETATM    1  C   UNL     1      -7.313  15.014  69.407  1.00  0.00    -0.194 C  
HETATM    2  C   UNL     1      -7.928  14.694  68.056  1.00  0.00    -0.137 C  
ENDROOT
BRANCH   2   3
HETATM    3  C   UNL     1      -8.746  13.412  68.118  1.00  0.00    -0.179 C  
BRANCH   3   4
HETATM    4  C   UNL     1     -10.017  13.530  67.281  1.00  0.00    -0.236 C  
BRANCH   4   5
HETATM    5  C   UNL     1      -9.843  14.570  66.182  1.00  0.00    -0.339 C  
BRANCH   5   6
HETATM    6  C   UNL     1     -11.095  14.653  65.321  1.00  0.00    -0.363 C  
BRANCH   6   7
HETATM    7  C   UNL     1     -12.177  13.739  65.878  1.00  0.00    -0.501 C  
BRANCH   7   8
HETATM    8  C   UNL     1     -12.450  12.599  64.910  1.00  0.00    -0.564 C  
BRANCH   8   9
HETATM    9  C   UNL     1     -11.663  12.800  63.627  1.00  0.00    -0.587 C  
BRANCH   9  10
HETATM   10  C   UNL     1     -10.561  11.761  63.530  1.00  0.00    -0.499 C  
BRANCH  10  11
HETATM   11  C   UNL     1     -10.515  10.923  64.794  1.00  0.00    -0.373 C  
BRANCH  11  12
HETATM   12  C   UNL     1      -9.070  10.667  65.177  1.00  0.00    -0.227 C  
BRANCH  12  13
HETATM   13  C   UNL     1      -9.003   9.920  66.492  1.00  0.00    -0.166 C  
BRANCH  13  14
HETATM   14  C   UNL     1     -10.404   9.738  67.046  1.00  0.00    -0.305 C  
BRANCH  14  15
HETATM   15  C   UNL     1     -10.312   9.236  68.470  1.00  0.00    -0.237 C  
BRANCH  15  16
HETATM   16  C   UNL     1      -9.191   9.936  69.221  1.00  0.00    -0.207 C  
BRANCH  16  17
HETATM   17  C   UNL     1      -9.136   9.341  70.615  1.00  0.00    -0.309 C  
BRANCH  17  18
HETATM   18  C   UNL     1      -7.909   8.469  70.803  1.00  0.00    -0.097 C  
BRANCH  18  19
HETATM   19  N   UNL     1      -8.274   6.979  70.970  1.00  0.00    -0.116 N  
HETATM   20  C   UNL     1      -8.397   6.303  69.601  1.00  0.00    -0.125 C  
HETATM   21  C   UNL     1      -7.215   6.262  71.810  1.00  0.00    -0.087 C  
BRANCH  19  22
HETATM   22  C   UNL     1      -9.637   6.968  71.698  1.00  0.00    -0.156 C  
BRANCH  22  23
HETATM   23  C   UNL     1     -10.631   6.033  71.038  1.00  0.00    -0.305 C  
BRANCH  23  24
HETATM   24  C   UNL     1     -11.930   6.743  70.705  1.00  0.00    -0.433 C  
BRANCH  24  25
HETATM   25  C   UNL     1     -12.260   7.661  71.869  1.00  0.00    -0.336 C  
BRANCH  25  26
HETATM   26  C   UNL     1     -13.502   8.473  71.584  1.00  0.00    -0.375 C  
BRANCH  26  27
HETATM   27  C   UNL     1     -13.240   9.927  71.930  1.00  0.00    -0.558 C  
BRANCH  27  28
HETATM   28  C   UNL     1     -12.553  10.611  70.767  1.00  0.00    -0.479 C  
BRANCH  28  29
HETATM   29  C   UNL     1     -12.537  12.112  70.980  1.00  0.00    -0.359 C  
BRANCH  29  30
HETATM   30  C   UNL     1     -13.450  12.467  72.137  1.00  0.00    -0.523 C  
BRANCH  30  31
HETATM   31  C   UNL     1     -13.833  13.932  72.078  1.00  0.00    -0.588 C  
BRANCH  31  32
HETATM   32  C   UNL     1     -13.085  14.707  73.147  1.00  0.00    -0.580 C  
BRANCH  32  33
HETATM   33  C   UNL     1     -11.989  15.548  72.515  1.00  0.00    -0.557 C  
BRANCH  33  34
HETATM   34  C   UNL     1     -12.303  15.810  71.050  1.00  0.00    -0.465 C  
BRANCH  34  35
HETATM   35  C   UNL     1     -11.032  15.737  70.216  1.00  0.00    -0.368 C  
BRANCH  35  36
HETATM   36  C   UNL     1     -11.260  16.338  68.835  1.00  0.00    -0.337 C  
BRANCH  36  37
HETATM   37  C   UNL     1     -10.276  17.475  68.578  1.00  0.00    -0.378 C  
BRANCH  37  38
HETATM   38  C   UNL     1     -10.495  18.086  67.199  1.00  0.00    -0.377 C  
HETATM   39  C   UNL     1     -10.726  19.584  67.298  1.00  0.00    -0.604 C  
ENDBRANCH  37  38
ENDBRANCH  36  37
ENDBRANCH  35  36
ENDBRANCH  34  35
ENDBRANCH  33  34
ENDBRANCH  32  33
ENDBRANCH  31  32
ENDBRANCH  30  31
ENDBRANCH  29  30
ENDBRANCH  28  29
ENDBRANCH  27  28
ENDBRANCH  26  27
ENDBRANCH  25  26
ENDBRANCH  24  25
ENDBRANCH  23  24
ENDBRANCH  22  23
ENDBRANCH  19  22
ENDBRANCH  18  19
ENDBRANCH  17  18
ENDBRANCH  16  17
ENDBRANCH  15  16
ENDBRANCH  14  15
ENDBRANCH  13  14
ENDBRANCH  12  13
ENDBRANCH  11  12
ENDBRANCH  10  11
ENDBRANCH   9  10
ENDBRANCH   8   9
ENDBRANCH   7   8
ENDBRANCH   6   7
ENDBRANCH   5   6
ENDBRANCH   4   5
ENDBRANCH   3   4
ENDBRANCH   2   3
TORSDOF 34
ENDMDL
MODEL        2
REMARK 921   NORMALIZED FREE ENERGY PREDICTED BY IDOCK:   -4.45 KCAL/MOL
REMARK 922        TOTAL FREE ENERGY PREDICTED BY IDOCK:  -19.61 KCAL/MOL
REMARK 923 INTER-LIGAND FREE ENERGY PREDICTED BY IDOCK:  -13.67 KCAL/MOL
REMARK 924 INTRA-LIGAND FREE ENERGY PREDICTED BY IDOCK:   -5.94 KCAL/MOL
REMARK 927      BINDING AFFINITY PREDICTED BY RF-SCORE:    0.00 PKD
ROOT
HETATM    1  C   UNL     1     -10.231  19.799  66.661  1.00  0.00    -0.595 C  
HETATM    2  C   UNL     1      -9.304  19.080  67.625  1.00  0.00    -0.342 C  
ENDROOT
BRANCH   2   3
HETATM    3  C   UNL     1     -10.061  18.041  68.438  1.00  0.00    -0.392 C  
BRANCH   3   4
HETATM    4  C   UNL     1     -10.625  16.944  67.540  1.00  0.00    -0.307 C  
BRANCH   4   5
HETATM    5  C   UNL     1      -9.636  15.792  67.412  1.00  0.00    -0.217 C  
BRANCH   5   6
HETATM    6  C   UNL     1      -9.974  14.928  66.206  1.00  0.00    -0.300 C  
BRANCH   6   7
HETATM    7  C   UNL     1     -10.769  15.734  65.188  1.00  0.00    -0.455 C  
BRANCH   7   8
HETATM    8  C   UNL     1     -11.770  14.840  64.475  1.00  0.00    -0.398 C  
BRANCH   8   9
HETATM    9  C   UNL     1     -12.558  14.024  65.486  1.00  0.00    -0.543 C  
BRANCH   9  10
HETATM   10  C   UNL     1     -12.474  12.550  65.139  1.00  0.00    -0.451 C  
BRANCH  10  11
HETATM   11  C   UNL     1     -12.098  12.374  63.679  1.00  0.00    -0.648 C  
BRANCH  11  12
HETATM   12  C   UNL     1     -10.805  11.587  63.583  1.00  0.00    -0.488 C  
BRANCH  12  13
HETATM   13  C   UNL     1     -10.428  11.033  64.941  1.00  0.00    -0.371 C  
BRANCH  13  14
HETATM   14  C   UNL     1      -8.937  11.203  65.165  1.00  0.00    -0.106 C  
BRANCH  14  15
HETATM   15  C   UNL     1      -8.668  11.307  66.649  1.00  0.00    -0.174 C  
BRANCH  15  16
HETATM   16  C   UNL     1      -7.540  10.378  67.064  1.00  0.00    -0.101 C  
BRANCH  16  17
HETATM   17  C   UNL     1      -8.168   9.145  67.686  1.00  0.00    -0.108 C  
BRANCH  17  18
HETATM   18  C   UNL     1      -8.052   7.938  66.774  1.00  0.00    -0.108 C  
BRANCH  18  19
HETATM   19  N   UNL     1      -8.344   6.617  67.517  1.00  0.00    -0.121 N  
HETATM   20  C   UNL     1      -8.967   5.595  66.562  1.00  0.00    -0.126 C  
HETATM   21  C   UNL     1      -7.057   6.049  68.118  1.00  0.00    -0.078 C  
BRANCH  19  22
HETATM   22  C   UNL     1      -9.344   6.986  68.635  1.00  0.00    -0.136 C  
BRANCH  22  23
HETATM   23  C   UNL     1     -10.697   6.336  68.430  1.00  0.00    -0.356 C  
BRANCH  23  24
HETATM   24  C   UNL     1     -11.416   6.112  69.748  1.00  0.00    -0.362 C  
BRANCH  24  25
HETATM   25  C   UNL     1     -10.458   6.497  70.861  1.00  0.00    -0.263 C  
BRANCH  25  26
HETATM   26  C   UNL     1     -11.210   6.920  72.102  1.00  0.00    -0.293 C  
BRANCH  26  27
HETATM   27  C   UNL     1     -12.584   7.428  71.705  1.00  0.00    -0.391 C  
BRANCH  27  28
HETATM   28  C   UNL     1     -12.789   8.824  72.255  1.00  0.00    -0.465 C  
BRANCH  28  29
HETATM   29  C   UNL     1     -12.764   9.837  71.127  1.00  0.00    -0.433 C  
BRANCH  29  30
HETATM   30  C   UNL     1     -11.329  10.222  70.826  1.00  0.00    -0.421 C  
BRANCH  30  31
HETATM   31  C   UNL     1     -11.070  10.173  69.334  1.00  0.00    -0.288 C  
BRANCH  31  32
HETATM   32  C   UNL     1     -11.817  11.295  68.640  1.00  0.00    -0.369 C  
BRANCH  32  33
HETATM   33  C   UNL     1     -11.179  12.634  68.971  1.00  0.00    -0.322 C  
BRANCH  33  34
HETATM   34  C   UNL     1     -12.245  13.639  69.380  1.00  0.00    -0.307 C  
BRANCH  34  35
HETATM   35  C   UNL     1     -11.957  14.175  70.775  1.00  0.00    -0.377 C  
BRANCH  35  36
HETATM   36  C   UNL     1     -13.043  13.744  71.751  1.00  0.00    -0.463 C  
BRANCH  36  37
HETATM   37  C   UNL     1     -14.070  14.857  71.934  1.00  0.00    -0.613 C  
BRANCH  37  38
HETATM   38  C   UNL     1     -13.525  15.959  72.836  1.00  0.00    -0.637 C  
HETATM   39  C   UNL     1     -12.633  15.383  73.921  1.00  0.00    -0.750 C  
ENDBRANCH  37  38
ENDBRANCH  36  37
ENDBRANCH  35  36
ENDBRANCH  34  35
ENDBRANCH  33  34
ENDBRANCH  32  33
ENDBRANCH  31  32
ENDBRANCH  30  31
ENDBRANCH  29  30
ENDBRANCH  28  29
ENDBRANCH  27  28
ENDBRANCH  26  27
ENDBRANCH  25  26
ENDBRANCH  24  25
ENDBRANCH  23  24
ENDBRANCH  22  23
ENDBRANCH  19  22
ENDBRANCH  18  19
ENDBRANCH  17  18
ENDBRANCH  16  17
ENDBRANCH  15  16
ENDBRANCH  14  15
ENDBRANCH  13  14
ENDBRANCH  12  13
ENDBRANCH  11  12
ENDBRANCH  10  11
ENDBRANCH   9  10
ENDBRANCH   8   9
ENDBRANCH   7   8
ENDBRANCH   6   7
ENDBRANCH   5   6
ENDBRANCH   4   5
ENDBRANCH   3   4
ENDBRANCH   2   3
TORSDOF 34
ENDMDL
MODEL        3
REMARK 921   NORMALIZED FREE ENERGY PREDICTED BY IDOCK:   -4.36 KCAL/MOL
REMARK 922        TOTAL FREE ENERGY PREDICTED BY IDOCK:  -19.35 KCAL/MOL
REMARK 923 INTER-LIGAND FREE ENERGY PREDICTED BY IDOCK:  -12.96 KCAL/MOL
REMARK 924 INTRA-LIGAND FREE ENERGY PREDICTED BY IDOCK:   -6.40 KCAL/MOL
REMARK 927      BINDING AFFINITY PREDICTED BY RF-SCORE:    0.00 PKD
ROOT
HETATM    1  C   UNL     1     -10.263  12.232  63.485  1.00  0.00    -0.410 C  
HETATM    2  C   UNL     1     -10.844  11.258  64.494  1.00  0.00    -0.354 C  
ENDROOT
BRANCH   2   3
HETATM    3  C   UNL     1     -11.447  11.995  65.680  1.00  0.00    -0.372 C  
BRANCH   3   4
HETATM    4  C   UNL     1     -11.559  13.491  65.399  1.00  0.00    -0.334 C  
BRANCH   4   5
HETATM    5  C   UNL     1     -12.425  14.172  66.450  1.00  0.00    -0.353 C  
BRANCH   5   6
HETATM    6  C   UNL     1     -11.846  13.958  67.841  1.00  0.00    -0.413 C  
BRANCH   6   7
HETATM    7  C   UNL     1     -11.945  15.241  68.654  1.00  0.00    -0.263 C  
BRANCH   7   8
HETATM    8  C   UNL     1     -11.122  15.121  69.927  1.00  0.00    -0.302 C  
BRANCH   8   9
HETATM    9  C   UNL     1     -11.631  16.096  70.975  1.00  0.00    -0.434 C  
BRANCH   9  10
HETATM   10  C   UNL     1     -12.937  15.590  71.559  1.00  0.00    -0.545 C  
BRANCH  10  11
HETATM   11  C   UNL     1     -12.687  14.375  72.433  1.00  0.00    -0.400 C  
BRANCH  11  12
HETATM   12  C   UNL     1     -13.828  13.390  72.265  1.00  0.00    -0.671 C  
BRANCH  12  13
HETATM   13  C   UNL     1     -13.286  12.010  71.956  1.00  0.00    -0.481 C  
BRANCH  13  14
HETATM   14  C   UNL     1     -12.346  12.087  70.767  1.00  0.00    -0.403 C  
BRANCH  14  15
HETATM   15  C   UNL     1     -12.239  10.720  70.131  1.00  0.00    -0.425 C  
BRANCH  15  16
HETATM   16  C   UNL     1     -10.798  10.239  70.114  1.00  0.00    -0.362 C  
BRANCH  16  17
HETATM   17  C   UNL     1     -10.621   9.286  71.282  1.00  0.00    -0.417 C  
BRANCH  17  18
HETATM   18  C   UNL     1     -10.095   7.938  70.828  1.00  0.00    -0.192 C  
BRANCH  18  19
HETATM   19  N   UNL     1     -11.148   6.820  70.984  1.00  0.00    -0.260 N  
HETATM   20  C   UNL     1     -10.546   5.619  71.719  1.00  0.00    -0.238 C  
HETATM   21  C   UNL     1     -12.367   7.339  71.748  1.00  0.00    -0.341 C  
BRANCH  19  22
HETATM   22  C   UNL     1     -11.543   6.423  69.544  1.00  0.00    -0.233 C  
BRANCH  22  23
HETATM   23  C   UNL     1     -10.335   6.247  68.646  1.00  0.00    -0.243 C  
BRANCH  23  24
HETATM   24  C   UNL     1     -10.647   6.623  67.209  1.00  0.00    -0.387 C  
BRANCH  24  25
HETATM   25  C   UNL     1     -10.565   8.136  67.105  1.00  0.00    -0.355 C  
BRANCH  25  26
HETATM   26  C   UNL     1      -9.295   8.563  66.405  1.00  0.00    -0.273 C  
BRANCH  26  27
HETATM   27  C   UNL     1      -8.426   9.341  67.377  1.00  0.00    -0.122 C  
BRANCH  27  28
HETATM   28  C   UNL     1      -8.047  10.674  66.764  1.00  0.00    -0.131 C  
BRANCH  28  29
HETATM   29  C   UNL     1      -8.328  11.796  67.744  1.00  0.00    -0.146 C  
BRANCH  29  30
HETATM   30  C   UNL     1      -7.089  12.657  67.893  1.00  0.00    -0.113 C  
BRANCH  30  31
HETATM   31  C   UNL     1      -7.475  14.098  68.162  1.00  0.00    -0.129 C  
BRANCH  31  32
HETATM   32  C   UNL     1      -8.417  14.592  67.080  1.00  0.00    -0.244 C  
BRANCH  32  33
HETATM   33  C   UNL     1      -8.705  16.072  67.272  1.00  0.00    -0.204 C  
BRANCH  33  34
HETATM   34  C   UNL     1      -9.141  16.699  65.956  1.00  0.00    -0.259 C  
BRANCH  34  35
HETATM   35  C   UNL     1     -10.400  17.530  66.160  1.00  0.00    -0.330 C  
BRANCH  35  36
HETATM   36  C   UNL     1     -10.418  18.145  67.553  1.00  0.00    -0.425 C  
BRANCH  36  37
HETATM   37  C   UNL     1     -10.486  19.667  67.463  1.00  0.00    -0.589 C  
BRANCH  37  38
HETATM   38  C   UNL     1      -9.156  20.246  66.996  1.00  0.00    -0.481 C  
HETATM   39  C   UNL     1      -8.032  19.861  67.942  1.00  0.00    -0.323 C  
ENDBRANCH  37  38
ENDBRANCH  36  37
ENDBRANCH  35  36
ENDBRANCH  34  35
ENDBRANCH  33  34
ENDBRANCH  32  33
ENDBRANCH  31  32
ENDBRANCH  30  31
ENDBRANCH  29  30
ENDBRANCH  28  29
ENDBRANCH  27  28
ENDBRANCH  26  27
ENDBRANCH  25  26
ENDBRANCH  24  25
ENDBRANCH  23  24
ENDBRANCH  22  23
ENDBRANCH  19  22
ENDBRANCH  18  19
ENDBRANCH  17  18
ENDBRANCH  16  17
ENDBRANCH  15  16
ENDBRANCH  14  15
ENDBRANCH  13  14
ENDBRANCH  12  13
ENDBRANCH  11  12
ENDBRANCH  10  11
ENDBRANCH   9  10
ENDBRANCH   8   9
ENDBRANCH   7   8
ENDBRANCH   6   7
ENDBRANCH   5   6
ENDBRANCH   4   5
ENDBRANCH   3   4
ENDBRANCH   2   3
TORSDOF 34
ENDMDL
MODEL        4
REMARK 921   NORMALIZED FREE ENERGY PREDICTED BY IDOCK:   -4.31 KCAL/MOL
REMARK 922        TOTAL FREE ENERGY PREDICTED BY IDOCK:  -19.21 KCAL/MOL
REMARK 923 INTER-LIGAND FREE ENERGY PREDICTED BY IDOCK:  -12.69 KCAL/MOL
REMARK 924 INTRA-LIGAND FREE ENERGY PREDICTED BY IDOCK:   -6.52 KCAL/MOL
REMARK 927      BINDING AFFINITY PREDICTED BY RF-SCORE:    0.00 PKD
ROOT
HETATM    1  C   UNL     1      -6.547   7.631  66.390  1.00  0.00    -0.050 C  
HETATM    2  C   UNL     1      -6.112   9.063  66.644  1.00  0.00    -0.060 C  
ENDROOT
BRANCH   2   3
HETATM    3  C   UNL     1      -7.245  10.037  66.360  1.00  0.00    -0.103 C  
BRANCH   3   4
HETATM    4  C   UNL     1      -8.296   9.408  65.449  1.00  0.00    -0.143 C  
BRANCH   4   5
HETATM    5  C   UNL     1      -8.702  10.379  64.347  1.00  0.00    -0.209 C  
BRANCH   5   6
HETATM    6  C   UNL     1     -10.199  10.648  64.397  1.00  0.00    -0.400 C  
BRANCH   6   7
HETATM    7  C   UNL     1     -10.572  11.732  63.396  1.00  0.00    -0.479 C  
BRANCH   7   8
HETATM    8  C   UNL     1     -11.868  12.409  63.812  1.00  0.00    -0.587 C  
BRANCH   8   9
HETATM    9  C   UNL     1     -11.576  13.767  64.428  1.00  0.00    -0.418 C  
BRANCH   9  10
HETATM   10  C   UNL     1     -12.505  14.012  65.602  1.00  0.00    -0.531 C  
BRANCH  10  11
HETATM   11  C   UNL     1     -12.107  13.139  66.778  1.00  0.00    -0.389 C  
BRANCH  11  12
HETATM   12  C   UNL     1     -10.606  13.221  66.981  1.00  0.00    -0.259 C  
BRANCH  12  13
HETATM   13  C   UNL     1     -10.145  12.121  67.915  1.00  0.00    -0.199 C  
BRANCH  13  14
HETATM   14  C   UNL     1     -11.193  11.025  67.967  1.00  0.00    -0.372 C  
BRANCH  14  15
HETATM   15  C   UNL     1     -10.531   9.727  68.370  1.00  0.00    -0.250 C  
BRANCH  15  16
HETATM   16  C   UNL     1      -9.287   9.986  69.203  1.00  0.00    -0.200 C  
BRANCH  16  17
HETATM   17  C   UNL     1      -8.671   8.640  69.536  1.00  0.00    -0.139 C  
BRANCH  17  18
HETATM   18  C   UNL     1      -9.565   7.494  69.099  1.00  0.00    -0.157 C  
BRANCH  18  19
HETATM   19  N   UNL     1      -9.343   6.226  69.951  1.00  0.00    -0.150 N  
HETATM   20  C   UNL     1      -8.522   5.196  69.170  1.00  0.00    -0.090 C  
HETATM   21  C   UNL     1      -8.626   6.580  71.256  1.00  0.00    -0.127 C  
BRANCH  19  22
HETATM   22  C   UNL     1     -10.756   5.675  70.245  1.00  0.00    -0.294 C  
BRANCH  22  23
HETATM   23  C   UNL     1     -11.773   6.782  70.437  1.00  0.00    -0.418 C  
BRANCH  23  24
HETATM   24  C   UNL     1     -12.343   6.779  71.844  1.00  0.00    -0.369 C  
BRANCH  24  25
HETATM   25  C   UNL     1     -11.867   8.046  72.532  1.00  0.00    -0.419 C  
BRANCH  25  26
HETATM   26  C   UNL     1     -11.872   9.217  71.577  1.00  0.00    -0.428 C  
BRANCH  26  27
HETATM   27  C   UNL     1     -13.053  10.116  71.895  1.00  0.00    -0.571 C  
BRANCH  27  28
HETATM   28  C   UNL     1     -12.816  11.492  71.309  1.00  0.00    -0.463 C  
BRANCH  28  29
HETATM   29  C   UNL     1     -13.455  12.550  72.188  1.00  0.00    -0.523 C  
BRANCH  29  30
HETATM   30  C   UNL     1     -12.936  13.917  71.790  1.00  0.00    -0.442 C  
BRANCH  30  31
HETATM   31  C   UNL     1     -12.562  13.936  70.321  1.00  0.00    -0.328 C  
BRANCH  31  32
HETATM   32  C   UNL     1     -11.973  15.284  69.953  1.00  0.00    -0.373 C  
BRANCH  32  33
HETATM   33  C   UNL     1     -10.471  15.280  70.178  1.00  0.00    -0.252 C  
BRANCH  33  34
HETATM   34  C   UNL     1      -9.777  16.126  69.121  1.00  0.00    -0.248 C  
BRANCH  34  35
HETATM   35  C   UNL     1     -10.761  16.514  68.026  1.00  0.00    -0.343 C  
BRANCH  35  36
HETATM   36  C   UNL     1     -10.229  17.690  67.217  1.00  0.00    -0.343 C  
BRANCH  36  37
HETATM   37  C   UNL     1     -10.202  18.956  68.068  1.00  0.00    -0.452 C  
BRANCH  37  38
HETATM   38  C   UNL     1     -10.019  20.194  67.199  1.00  0.00    -0.595 C  
HETATM   39  C   UNL     1     -10.438  19.920  65.765  1.00  0.00    -0.518 C  
ENDBRANCH  37  38
ENDBRANCH  36  37
ENDBRANCH  35  36
ENDBRANCH  34  35
ENDBRANCH  33  34
ENDBRANCH  32  33
ENDBRANCH  31  32
ENDBRANCH  30  31
ENDBRANCH  29  30
ENDBRANCH  28  29
ENDBRANCH  27  28
ENDBRANCH  26  27
ENDBRANCH  25  26
ENDBRANCH  24  25
ENDBRANCH  23  24
ENDBRANCH  22  23
ENDBRANCH  19  22
ENDBRANCH  18  19
ENDBRANCH  17  18
ENDBRANCH  16  17
ENDBRANCH  15  16
ENDBRANCH  14  15
ENDBRANCH  13  14
ENDBRANCH  12  13
ENDBRANCH  11  12
ENDBRANCH  10  11
ENDBRANCH   9  10
ENDBRANCH   8   9
ENDBRANCH   7   8
ENDBRANCH   6   7
ENDBRANCH   5   6
ENDBRANCH   4   5
ENDBRANCH   3   4
ENDBRANCH   2   3
TORSDOF 34
ENDMDL
MODEL        5
REMARK 921   NORMALIZED FREE ENERGY PREDICTED BY IDOCK:   -4.24 KCAL/MOL
REMARK 922        TOTAL FREE ENERGY PREDICTED BY IDOCK:  -18.99 KCAL/MOL
REMARK 923 INTER-LIGAND FREE ENERGY PREDICTED BY IDOCK:  -13.35 KCAL/MOL
REMARK 924 INTRA-LIGAND FREE ENERGY PREDICTED BY IDOCK:   -5.64 KCAL/MOL
REMARK 927      BINDING AFFINITY PREDICTED BY RF-SCORE:    0.00 PKD
ROOT
HETATM    1  C   UNL     1     -10.750   3.827  73.387  1.00  0.00    -0.297 C  
HETATM    2  C   UNL     1     -10.904   5.286  72.998  1.00  0.00    -0.332 C  
ENDROOT
BRANCH   2   3
HETATM    3  C   UNL     1     -10.435   5.524  71.570  1.00  0.00    -0.298 C  
BRANCH   3   4
HETATM    4  C   UNL     1     -11.437   6.378  70.798  1.00  0.00    -0.415 C  
BRANCH   4   5
HETATM    5  C   UNL     1     -12.058   7.432  71.706  1.00  0.00    -0.345 C  
BRANCH   5   6
HETATM    6  C   UNL     1     -13.575   7.422  71.577  1.00  0.00    -0.454 C  
BRANCH   6   7
HETATM    7  C   UNL     1     -14.122   8.836  71.709  1.00  0.00    -0.468 C  
BRANCH   7   8
HETATM    8  C   UNL     1     -12.982   9.827  71.876  1.00  0.00    -0.535 C  
BRANCH   8   9
HETATM    9  C   UNL     1     -12.930  10.771  70.687  1.00  0.00    -0.313 C  
BRANCH   9  10
HETATM   10  C   UNL     1     -12.582  12.172  71.155  1.00  0.00    -0.360 C  
BRANCH  10  11
HETATM   11  C   UNL     1     -13.599  12.654  72.172  1.00  0.00    -0.510 C  
BRANCH  11  12
HETATM   12  C   UNL     1     -13.282  14.085  72.562  1.00  0.00    -0.602 C  
BRANCH  12  13
HETATM   13  C   UNL     1     -12.919  14.893  71.334  1.00  0.00    -0.427 C  
BRANCH  13  14
HETATM   14  C   UNL     1     -11.699  15.746  71.629  1.00  0.00    -0.542 C  
BRANCH  14  15
HETATM   15  C   UNL     1     -10.756  15.686  70.448  1.00  0.00    -0.336 C  
BRANCH  15  16
HETATM   16  C   UNL     1     -11.520  15.465  69.154  1.00  0.00    -0.344 C  
BRANCH  16  17
HETATM   17  C   UNL     1     -11.149  16.590  68.207  1.00  0.00    -0.321 C  
BRANCH  17  18
HETATM   18  C   UNL     1     -10.089  17.496  68.804  1.00  0.00    -0.363 C  
BRANCH  18  19
HETATM   19  N   UNL     1      -9.739  18.675  67.871  1.00  0.00    -0.306 N  
HETATM   20  C   UNL     1     -10.303  18.432  66.468  1.00  0.00    -0.400 C  
HETATM   21  C   UNL     1     -10.296  19.984  68.435  1.00  0.00    -0.330 C  
BRANCH  19  22
HETATM   22  C   UNL     1      -8.195  18.721  67.828  1.00  0.00    -0.263 C  
BRANCH  22  23
HETATM   23  C   UNL     1      -7.569  17.441  68.346  1.00  0.00    -0.255 C  
BRANCH  23  24
HETATM   24  C   UNL     1      -7.107  16.546  67.211  1.00  0.00    -0.205 C  
BRANCH  24  25
HETATM   25  C   UNL     1      -7.569  15.134  67.526  1.00  0.00    -0.216 C  
BRANCH  25  26
HETATM   26  C   UNL     1      -8.683  14.708  66.599  1.00  0.00    -0.197 C  
BRANCH  26  27
HETATM   27  C   UNL     1      -8.917  13.216  66.751  1.00  0.00    -0.183 C  
BRANCH  27  28
HETATM   28  C   UNL     1      -9.114  12.879  68.214  1.00  0.00    -0.180 C  
BRANCH  28  29
HETATM   29  C   UNL     1     -10.317  11.972  68.383  1.00  0.00    -0.220 C  
BRANCH  29  30
HETATM   30  C   UNL     1      -9.866  10.525  68.363  1.00  0.00    -0.171 C  
BRANCH  30  31
HETATM   31  C   UNL     1     -10.886   9.662  67.649  1.00  0.00    -0.276 C  
BRANCH  31  32
HETATM   32  C   UNL     1     -10.202   8.824  66.585  1.00  0.00    -0.340 C  
BRANCH  32  33
HETATM   33  C   UNL     1      -9.036   9.590  65.984  1.00  0.00    -0.198 C  
BRANCH  33  34
HETATM   34  C   UNL     1      -9.119   9.572  64.465  1.00  0.00    -0.250 C  
BRANCH  34  35
HETATM   35  C   UNL     1      -9.400  10.971  63.935  1.00  0.00    -0.233 C  
BRANCH  35  36
HETATM   36  C   UNL     1     -10.898  11.246  63.915  1.00  0.00    -0.427 C  
BRANCH  36  37
HETATM   37  C   UNL     1     -11.169  12.738  64.086  1.00  0.00    -0.435 C  
BRANCH  37  38
HETATM   38  C   UNL     1     -12.535  12.976  64.719  1.00  0.00    -0.485 C  
HETATM   39  C   UNL     1     -12.442  13.988  65.848  1.00  0.00    -0.513 C  
ENDBRANCH  37  38
ENDBRANCH  36  37
ENDBRANCH  35  36
ENDBRANCH  34  35
ENDBRANCH  33  34
ENDBRANCH  32  33
ENDBRANCH  31  32
ENDBRANCH  30  31
ENDBRANCH  29  30
ENDBRANCH  28  29
ENDBRANCH  27  28
ENDBRANCH  26  27
ENDBRANCH  25  26
ENDBRANCH  24  25
ENDBRANCH  23  24
ENDBRANCH  22  23
ENDBRANCH  19  22
ENDBRANCH  18  19
ENDBRANCH  17  18
ENDBRANCH  16  17
ENDBRANCH  15  16
ENDBRANCH  14  15
ENDBRANCH  13  14
ENDBRANCH  12  13
ENDBRANCH  11  12
ENDBRANCH  10  11
ENDBRANCH   9  10
ENDBRANCH   8   9
ENDBRANCH   7   8
ENDBRANCH   6   7
ENDBRANCH   5   6
ENDBRANCH   4   5
ENDBRANCH   3   4
ENDBRANCH   2   3
TORSDOF 34
ENDMDL
MODEL        6
REMARK 921   NORMALIZED FREE ENERGY PREDICTED BY IDOCK:   -4.21 KCAL/MOL
REMARK 922        TOTAL FREE ENERGY PREDICTED BY IDOCK:  -18.92 KCAL/MOL
REMARK 923 INTER-LIGAND FREE ENERGY PREDICTED BY IDOCK:  -12.56 KCAL/MOL
REMARK 924 INTRA-LIGAND FREE ENERGY PREDICTED BY IDOCK:   -6.36 KCAL/MOL
REMARK 927      BINDING AFFINITY PREDICTED BY RF-SCORE:    0.00 PKD
ROOT
HETATM    1  C   UNL     1      -7.630   4.908  69.366  1.00  0.00    -0.060 C  
HETATM    2  C   UNL     1      -8.672   5.615  68.517  1.00  0.00    -0.110 C  
ENDROOT
BRANCH   2   3
HETATM    3  C   UNL     1     -10.059   5.475  69.125  1.00  0.00    -0.286 C  
BRANCH   3   4
HETATM    4  C   UNL     1     -10.970   6.618  68.686  1.00  0.00    -0.317 C  
BRANCH   4   5
HETATM    5  C   UNL     1     -10.632   7.060  67.267  1.00  0.00    -0.395 C  
BRANCH   5   6
HETATM    6  C   UNL     1     -10.747   8.572  67.137  1.00  0.00    -0.209 C  
BRANCH   6   7
HETATM    7  C   UNL     1      -9.752   9.088  66.107  1.00  0.00    -0.354 C  
BRANCH   7   8
HETATM    8  C   UNL     1     -10.345  10.262  65.346  1.00  0.00    -0.233 C  
BRANCH   8   9
HETATM    9  C   UNL     1      -9.574  10.496  64.058  1.00  0.00    -0.367 C  
BRANCH   9  10
HETATM   10  C   UNL     1     -10.138  11.702  63.330  1.00  0.00    -0.468 C  
BRANCH  10  11
HETATM   11  C   UNL     1     -11.645  11.761  63.499  1.00  0.00    -0.487 C  
BRANCH  11  12
HETATM   12  C   UNL     1     -12.126  13.175  63.241  1.00  0.00    -0.460 C  
BRANCH  12  13
HETATM   13  C   UNL     1     -11.991  14.010  64.497  1.00  0.00    -0.470 C  
BRANCH  13  14
HETATM   14  C   UNL     1     -12.660  13.296  65.657  1.00  0.00    -0.469 C  
BRANCH  14  15
HETATM   15  C   UNL     1     -11.839  13.509  66.909  1.00  0.00    -0.452 C  
BRANCH  15  16
HETATM   16  C   UNL     1     -10.376  13.738  66.567  1.00  0.00    -0.286 C  
BRANCH  16  17
HETATM   17  C   UNL     1      -9.586  13.651  67.859  1.00  0.00    -0.223 C  
BRANCH  17  18
HETATM   18  C   UNL     1      -9.150  12.227  68.152  1.00  0.00    -0.196 C  
BRANCH  18  19
HETATM   19  N   UNL     1      -7.616  12.098  68.252  1.00  0.00    -0.124 N  
HETATM   20  C   UNL     1      -7.047  11.484  66.970  1.00  0.00    -0.147 C  
HETATM   21  C   UNL     1      -6.980  13.468  68.499  1.00  0.00    -0.102 C  
BRANCH  19  22
HETATM   22  C   UNL     1      -7.360  11.161  69.454  1.00  0.00    -0.062 C  
BRANCH  22  23
HETATM   23  C   UNL     1      -7.735   9.725  69.151  1.00  0.00    -0.092 C  
BRANCH  23  24
HETATM   24  C   UNL     1      -8.830   9.226  70.076  1.00  0.00    -0.212 C  
BRANCH  24  25
HETATM   25  C   UNL     1      -8.158   8.640  71.305  1.00  0.00    -0.182 C  
BRANCH  25  26
HETATM   26  C   UNL     1      -9.165   8.378  72.400  1.00  0.00    -0.345 C  
BRANCH  26  27
HETATM   27  C   UNL     1      -9.329   6.879  72.580  1.00  0.00    -0.155 C  
BRANCH  27  28
HETATM   28  C   UNL     1     -10.803   6.535  72.651  1.00  0.00    -0.278 C  
BRANCH  28  29
HETATM   29  C   UNL     1     -11.638   7.793  72.528  1.00  0.00    -0.422 C  
BRANCH  29  30
HETATM   30  C   UNL     1     -12.809   7.533  71.600  1.00  0.00    -0.392 C  
BRANCH  30  31
HETATM   31  C   UNL     1     -13.569   8.817  71.334  1.00  0.00    -0.292 C  
BRANCH  31  32
HETATM   32  C   UNL     1     -12.774  10.005  71.841  1.00  0.00    -0.493 C  
BRANCH  32  33
HETATM   33  C   UNL     1     -12.277  10.841  70.674  1.00  0.00    -0.474 C  
BRANCH  33  34
HETATM   34  C   UNL     1     -12.523  12.318  70.940  1.00  0.00    -0.371 C  
BRANCH  34  35
HETATM   35  C   UNL     1     -13.422  12.492  72.157  1.00  0.00    -0.523 C  
BRANCH  35  36
HETATM   36  C   UNL     1     -13.700  13.968  72.412  1.00  0.00    -0.669 C  
BRANCH  36  37
HETATM   37  C   UNL     1     -12.437  14.674  72.894  1.00  0.00    -0.390 C  
BRANCH  37  38
HETATM   38  C   UNL     1     -12.177  15.940  72.086  1.00  0.00    -0.578 C  
HETATM   39  C   UNL     1     -11.596  15.605  70.723  1.00  0.00    -0.412 C  
ENDBRANCH  37  38
ENDBRANCH  36  37
ENDBRANCH  35  36
ENDBRANCH  34  35
ENDBRANCH  33  34
ENDBRANCH  32  33
ENDBRANCH  31  32
ENDBRANCH  30  31
ENDBRANCH  29  30
ENDBRANCH  28  29
ENDBRANCH  27  28
ENDBRANCH  26  27
ENDBRANCH  25  26
ENDBRANCH  24  25
ENDBRANCH  23  24
ENDBRANCH  22  23
ENDBRANCH  19  22
ENDBRANCH  18  19
ENDBRANCH  17  18
ENDBRANCH  16  17
ENDBRANCH  15  16
ENDBRANCH  14  15
ENDBRANCH  13  14
ENDBRANCH  12  13
ENDBRANCH  11  12
ENDBRANCH  10  11
ENDBRANCH   9  10
ENDBRANCH   8   9
ENDBRANCH   7   8
ENDBRANCH   6   7
ENDBRANCH   5   6
ENDBRANCH   4   5
ENDBRANCH   3   4
ENDBRANCH   2   3
TORSDOF 34
ENDMDL
MODEL        7
REMARK 921   NORMALIZED FREE ENERGY PREDICTED BY IDOCK:   -4.20 KCAL/MOL
REMARK 922        TOTAL FREE ENERGY PREDICTED BY IDOCK:  -18.87 KCAL/MOL
REMARK 923 INTER-LIGAND FREE ENERGY PREDICTED BY IDOCK:  -13.35 KCAL/MOL
REMARK 924 INTRA-LIGAND FREE ENERGY PREDICTED BY IDOCK:   -5.51 KCAL/MOL
REMARK 927      BINDING AFFINITY PREDICTED BY RF-SCORE:    0.00 PKD
ROOT
HETATM    1  C   UNL     1     -10.507  19.255  67.688  1.00  0.00    -0.557 C  
HETATM    2  C   UNL     1     -10.665  17.755  67.514  1.00  0.00    -0.315 C  
ENDROOT
BRANCH   2   3
HETATM    3  C   UNL     1     -10.273  17.324  66.109  1.00  0.00    -0.338 C  
BRANCH   3   4
HETATM    4  C   UNL     1      -9.248  16.194  66.146  1.00  0.00    -0.382 C  
BRANCH   4   5
HETATM    5  C   UNL     1      -8.800  15.921  67.577  1.00  0.00    -0.199 C  
BRANCH   5   6
HETATM    6  C   UNL     1      -8.332  14.480  67.725  1.00  0.00    -0.173 C  
BRANCH   6   7
HETATM    7  C   UNL     1      -9.520  13.566  67.985  1.00  0.00    -0.220 C  
BRANCH   7   8
HETATM    8  C   UNL     1     -10.537  14.267  68.872  1.00  0.00    -0.252 C  
BRANCH   8   9
HETATM    9  C   UNL     1     -11.909  14.242  68.219  1.00  0.00    -0.370 C  
BRANCH   9  10
HETATM   10  C   UNL     1     -11.897  13.300  67.030  1.00  0.00    -0.442 C  
BRANCH  10  11
HETATM   11  C   UNL     1     -12.542  13.963  65.827  1.00  0.00    -0.533 C  
BRANCH  11  12
HETATM   12  C   UNL     1     -11.594  13.896  64.646  1.00  0.00    -0.398 C  
BRANCH  12  13
HETATM   13  C   UNL     1     -11.722  12.558  63.948  1.00  0.00    -0.530 C  
BRANCH  13  14
HETATM   14  C   UNL     1     -10.341  12.018  63.626  1.00  0.00    -0.482 C  
BRANCH  14  15
HETATM   15  C   UNL     1     -10.096  10.769  64.442  1.00  0.00    -0.419 C  
BRANCH  15  16
HETATM   16  C   UNL     1      -9.321  11.091  65.709  1.00  0.00    -0.236 C  
BRANCH  16  17
HETATM   17  C   UNL     1      -8.187  10.089  65.817  1.00  0.00    -0.130 C  
BRANCH  17  18
HETATM   18  C   UNL     1      -8.587   8.731  65.271  1.00  0.00    -0.187 C  
BRANCH  18  19
HETATM   19  N   UNL     1      -8.703   7.668  66.384  1.00  0.00    -0.144 N  
HETATM   20  C   UNL     1      -8.397   6.275  65.825  1.00  0.00    -0.145 C  
HETATM   21  C   UNL     1      -7.742   7.990  67.531  1.00  0.00    -0.106 C  
BRANCH  19  22
HETATM   22  C   UNL     1     -10.167   7.741  66.872  1.00  0.00    -0.303 C  
BRANCH  22  23
HETATM   23  C   UNL     1     -10.291   7.454  68.355  1.00  0.00    -0.224 C  
BRANCH  23  24
HETATM   24  C   UNL     1     -11.157   6.235  68.618  1.00  0.00    -0.409 C  
BRANCH  24  25
HETATM   25  C   UNL     1     -10.230   5.081  68.956  1.00  0.00    -0.207 C  
BRANCH  25  26
HETATM   26  C   UNL     1      -9.392   5.397  70.173  1.00  0.00    -0.193 C  
BRANCH  26  27
HETATM   27  C   UNL     1      -9.605   4.319  71.221  1.00  0.00    -0.242 C  
BRANCH  27  28
HETATM   28  C   UNL     1      -9.865   4.963  72.566  1.00  0.00    -0.202 C  
BRANCH  28  29
HETATM   29  C   UNL     1     -11.029   5.928  72.466  1.00  0.00    -0.307 C  
BRANCH  29  30
HETATM   30  C   UNL     1     -10.776   7.121  73.367  1.00  0.00    -0.410 C  
BRANCH  30  31
HETATM   31  C   UNL     1     -10.409   8.339  72.544  1.00  0.00    -0.401 C  
BRANCH  31  32
HETATM   32  C   UNL     1     -11.565   8.720  71.638  1.00  0.00    -0.390 C  
BRANCH  32  33
HETATM   33  C   UNL     1     -11.238   9.994  70.878  1.00  0.00    -0.415 C  
BRANCH  33  34
HETATM   34  C   UNL     1     -12.515  10.655  70.383  1.00  0.00    -0.421 C  
BRANCH  34  35
HETATM   35  C   UNL     1     -13.203  11.394  71.522  1.00  0.00    -0.333 C  
BRANCH  35  36
HETATM   36  C   UNL     1     -12.823  12.869  71.514  1.00  0.00    -0.380 C  
BRANCH  36  37
HETATM   37  C   UNL     1     -13.626  13.634  72.561  1.00  0.00    -0.675 C  
BRANCH  37  38
HETATM   38  C   UNL     1     -13.330  15.127  72.492  1.00  0.00    -0.540 C  
HETATM   39  C   UNL     1     -12.652  15.606  73.765  1.00  0.00    -0.743 C  
ENDBRANCH  37  38
ENDBRANCH  36  37
ENDBRANCH  35  36
ENDBRANCH  34  35
ENDBRANCH  33  34
ENDBRANCH  32  33
ENDBRANCH  31  32
ENDBRANCH  30  31
ENDBRANCH  29  30
ENDBRANCH  28  29
ENDBRANCH  27  28
ENDBRANCH  26  27
ENDBRANCH  25  26
ENDBRANCH  24  25
ENDBRANCH  23  24
ENDBRANCH  22  23
ENDBRANCH  19  22
ENDBRANCH  18  19
ENDBRANCH  17  18
ENDBRANCH  16  17
ENDBRANCH  15  16
ENDBRANCH  14  15
ENDBRANCH  13  14
ENDBRANCH  12  13
ENDBRANCH  11  12
ENDBRANCH  10  11
ENDBRANCH   9  10
ENDBRANCH   8   9
ENDBRANCH   7   8
ENDBRANCH   6   7
ENDBRANCH   5   6
ENDBRANCH   4   5
ENDBRANCH   3   4
ENDBRANCH   2   3
TORSDOF 34
ENDMDL
MODEL        8
REMARK 921   NORMALIZED FREE ENERGY PREDICTED BY IDOCK:   -4.16 KCAL/MOL
REMARK 922        TOTAL FREE ENERGY PREDICTED BY IDOCK:  -18.77 KCAL/MOL
REMARK 923 INTER-LIGAND FREE ENERGY PREDICTED BY IDOCK:  -13.08 KCAL/MOL
REMARK 924 INTRA-LIGAND FREE ENERGY PREDICTED BY IDOCK:   -5.69 KCAL/MOL
REMARK 927      BINDING AFFINITY PREDICTED BY RF-SCORE:    0.00 PKD
ROOT
HETATM    1  C   UNL     1     -10.314   3.367  72.701  1.00  0.00    -0.217 C  
HETATM    2  C   UNL     1     -10.777   4.813  72.691  1.00  0.00    -0.263 C  
ENDROOT
BRANCH   2   3
HETATM    3  C   UNL     1     -10.251   5.546  71.465  1.00  0.00    -0.270 C  
BRANCH   3   4
HETATM    4  C   UNL     1     -11.364   6.330  70.775  1.00  0.00    -0.397 C  
BRANCH   4   5
HETATM    5  C   UNL     1     -11.825   7.491  71.647  1.00  0.00    -0.322 C  
BRANCH   5   6
HETATM    6  C   UNL     1     -13.339   7.636  71.588  1.00  0.00    -0.400 C  
BRANCH   6   7
HETATM    7  C   UNL     1     -13.747   9.047  71.989  1.00  0.00    -0.516 C  
BRANCH   7   8
HETATM    8  C   UNL     1     -12.564   9.993  71.858  1.00  0.00    -0.454 C  
BRANCH   8   9
HETATM    9  C   UNL     1     -12.799  10.972  70.720  1.00  0.00    -0.354 C  
BRANCH   9  10
HETATM   10  C   UNL     1     -12.562  12.391  71.203  1.00  0.00    -0.349 C  
BRANCH  10  11
HETATM   11  C   UNL     1     -13.575  12.759  72.271  1.00  0.00    -0.563 C  
BRANCH  11  12
HETATM   12  C   UNL     1     -13.247  14.132  72.825  1.00  0.00    -0.604 C  
BRANCH  12  13
HETATM   13  C   UNL     1     -13.338  15.173  71.728  1.00  0.00    -0.506 C  
BRANCH  13  14
HETATM   14  C   UNL     1     -12.225  16.190  71.899  1.00  0.00    -0.497 C  
BRANCH  14  15
HETATM   15  C   UNL     1     -11.275  16.085  70.727  1.00  0.00    -0.381 C  
BRANCH  15  16
HETATM   16  C   UNL     1     -12.000  15.610  69.480  1.00  0.00    -0.363 C  
BRANCH  16  17
HETATM   17  C   UNL     1     -11.455  16.402  68.306  1.00  0.00    -0.143 C  
BRANCH  17  18
HETATM   18  C   UNL     1     -10.442  17.439  68.754  1.00  0.00    -0.333 C  
BRANCH  18  19
HETATM   19  N   UNL     1      -9.798  18.176  67.561  1.00  0.00    -0.303 N  
HETATM   20  C   UNL     1     -10.309  17.599  66.238  1.00  0.00    -0.342 C  
HETATM   21  C   UNL     1     -10.109  19.673  67.630  1.00  0.00    -0.417 C  
BRANCH  19  22
HETATM   22  C   UNL     1      -8.278  17.936  67.700  1.00  0.00    -0.232 C  
BRANCH  22  23
HETATM   23  C   UNL     1      -7.967  16.707  68.530  1.00  0.00    -0.224 C  
BRANCH  23  24
HETATM   24  C   UNL     1      -7.507  15.549  67.664  1.00  0.00    -0.189 C  
BRANCH  24  25
HETATM   25  C   UNL     1      -8.426  14.373  67.949  1.00  0.00    -0.165 C  
BRANCH  25  26
HETATM   26  C   UNL     1      -9.209  13.986  66.716  1.00  0.00    -0.280 C  
BRANCH  26  27
HETATM   27  C   UNL     1     -10.016  12.734  67.008  1.00  0.00    -0.231 C  
BRANCH  27  28
HETATM   28  C   UNL     1     -11.489  13.080  67.059  1.00  0.00    -0.381 C  
BRANCH  28  29
HETATM   29  C   UNL     1     -12.066  13.110  65.658  1.00  0.00    -0.501 C  
BRANCH  29  30
HETATM   30  C   UNL     1     -11.614  11.878  64.899  1.00  0.00    -0.290 C  
BRANCH  30  31
HETATM   31  C   UNL     1     -10.955  12.273  63.592  1.00  0.00    -0.532 C  
BRANCH  31  32
HETATM   32  C   UNL     1      -9.700  11.449  63.374  1.00  0.00    -0.385 C  
BRANCH  32  33
HETATM   33  C   UNL     1      -9.777  10.156  64.169  1.00  0.00    -0.301 C  
BRANCH  33  34
HETATM   34  C   UNL     1      -8.439   9.864  64.831  1.00  0.00    -0.168 C  
BRANCH  34  35
HETATM   35  C   UNL     1      -8.655   9.262  66.213  1.00  0.00    -0.139 C  
BRANCH  35  36
HETATM   36  C   UNL     1     -10.031   8.616  66.309  1.00  0.00    -0.287 C  
BRANCH  36  37
HETATM   37  C   UNL     1     -10.407   8.375  67.767  1.00  0.00    -0.297 C  
BRANCH  37  38
HETATM   38  C   UNL     1     -10.508   9.691  68.530  1.00  0.00    -0.241 C  
HETATM   39  C   UNL     1      -9.466   9.761  69.634  1.00  0.00    -0.237 C  
ENDBRANCH  37  38
ENDBRANCH  36  37
ENDBRANCH  35  36
ENDBRANCH  34  35
ENDBRANCH  33  34
ENDBRANCH  32  33
ENDBRANCH  31  32
ENDBRANCH  30  31
ENDBRANCH  29  30
ENDBRANCH  28  29
ENDBRANCH  27  28
ENDBRANCH  26  27
ENDBRANCH  25  26
ENDBRANCH  24  25
ENDBRANCH  23  24
ENDBRANCH  22  23
ENDBRANCH  19  22
ENDBRANCH  18  19
ENDBRANCH  17  18
ENDBRANCH  16  17
ENDBRANCH  15  16
ENDBRANCH  14  15
ENDBRANCH  13  14
ENDBRANCH  12  13
ENDBRANCH  11  12
ENDBRANCH  10  11
ENDBRANCH   9  10
ENDBRANCH   8   9
ENDBRANCH   7   8
ENDBRANCH   6   7
ENDBRANCH   5   6
ENDBRANCH   4   5
ENDBRANCH   3   4
ENDBRANCH   2   3
TORSDOF 34
ENDMDL
MODEL        9
REMARK 921   NORMALIZED FREE ENERGY PREDICTED BY IDOCK:   -4.12 KCAL/MOL
REMARK 922        TOTAL FREE ENERGY PREDICTED BY IDOCK:  -18.65 KCAL/MOL
REMARK 923 INTER-LIGAND FREE ENERGY PREDICTED BY IDOCK:  -12.55 KCAL/MOL
REMARK 924 INTRA-LIGAND FREE ENERGY PREDICTED BY IDOCK:   -6.10 KCAL/MOL
REMARK 927      BINDING AFFINITY PREDICTED BY RF-SCORE:    0.00 PKD
ROOT
HETATM    1  C   UNL     1     -10.346  19.867  66.965  1.00  0.00    -0.592 C  
HETATM    2  C   UNL     1      -9.980  18.842  68.024  1.00  0.00    -0.414 C  
ENDROOT
BRANCH   2   3
HETATM    3  C   UNL     1     -10.521  17.467  67.664  1.00  0.00    -0.368 C  
BRANCH   3   4
HETATM    4  C   UNL     1     -10.293  17.155  66.188  1.00  0.00    -0.327 C  
BRANCH   4   5
HETATM    5  C   UNL     1     -10.643  15.704  65.884  1.00  0.00    -0.354 C  
BRANCH   5   6
HETATM    6  C   UNL     1     -10.995  14.960  67.165  1.00  0.00    -0.323 C  
BRANCH   6   7
HETATM    7  C   UNL     1     -12.160  14.013  66.918  1.00  0.00    -0.465 C  
BRANCH   7   8
HETATM    8  C   UNL     1     -12.549  14.029  65.449  1.00  0.00    -0.529 C  
BRANCH   8   9
HETATM    9  C   UNL     1     -12.616  12.611  64.908  1.00  0.00    -0.525 C  
BRANCH   9  10
HETATM   10  C   UNL     1     -12.013  12.560  63.516  1.00  0.00    -0.629 C  
BRANCH  10  11
HETATM   11  C   UNL     1     -10.519  12.307  63.600  1.00  0.00    -0.483 C  
BRANCH  11  12
HETATM   12  C   UNL     1     -10.271  10.989  64.307  1.00  0.00    -0.414 C  
BRANCH  12  13
HETATM   13  C   UNL     1      -9.309  10.138  63.504  1.00  0.00    -0.333 C  
BRANCH  13  14
HETATM   14  C   UNL     1      -8.159   9.695  64.390  1.00  0.00    -0.141 C  
BRANCH  14  15
HETATM   15  C   UNL     1      -6.852  10.010  63.699  1.00  0.00    -0.130 C  
BRANCH  15  16
HETATM   16  C   UNL     1      -5.739  10.221  64.710  1.00  0.00    -0.130 C  
BRANCH  16  17
HETATM   17  C   UNL     1      -6.383  10.352  66.077  1.00  0.00    -0.111 C  
BRANCH  17  18
HETATM   18  C   UNL     1      -5.582  11.264  66.987  1.00  0.00    -0.088 C  
BRANCH  18  19
HETATM   19  N   UNL     1      -6.488  12.104  67.913  1.00  0.00    -0.069 N  
HETATM   20  C   UNL     1      -6.558  11.472  69.307  1.00  0.00    -0.113 C  
HETATM   21  C   UNL     1      -5.961  13.536  68.018  1.00  0.00    -0.131 C  
BRANCH  19  22
HETATM   22  C   UNL     1      -7.882  12.091  67.247  1.00  0.00    -0.170 C  
BRANCH  22  23
HETATM   23  C   UNL     1      -9.002  12.201  68.262  1.00  0.00    -0.186 C  
BRANCH  23  24
HETATM   24  C   UNL     1     -10.184  11.325  67.888  1.00  0.00    -0.201 C  
BRANCH  24  25
HETATM   25  C   UNL     1      -9.694   9.889  67.851  1.00  0.00    -0.162 C  
BRANCH  25  26
HETATM   26  C   UNL     1     -10.780   8.958  67.361  1.00  0.00    -0.225 C  
BRANCH  26  27
HETATM   27  C   UNL     1     -10.149   7.669  66.866  1.00  0.00    -0.348 C  
BRANCH  27  28
HETATM   28  C   UNL     1     -10.937   6.485  67.385  1.00  0.00    -0.458 C  
BRANCH  28  29
HETATM   29  C   UNL     1     -10.071   5.646  68.304  1.00  0.00    -0.217 C  
BRANCH  29  30
HETATM   30  C   UNL     1     -10.720   5.560  69.671  1.00  0.00    -0.349 C  
BRANCH  30  31
HETATM   31  C   UNL     1     -10.392   6.791  70.491  1.00  0.00    -0.226 C  
BRANCH  31  32
HETATM   32  C   UNL     1     -11.666   7.397  71.049  1.00  0.00    -0.326 C  
BRANCH  32  33
HETATM   33  C   UNL     1     -11.333   8.455  72.087  1.00  0.00    -0.437 C  
BRANCH  33  34
HETATM   34  C   UNL     1     -10.923   9.752  71.406  1.00  0.00    -0.258 C  
BRANCH  34  35
HETATM   35  C   UNL     1     -12.127  10.402  70.741  1.00  0.00    -0.463 C  
BRANCH  35  36
HETATM   36  C   UNL     1     -13.146  10.840  71.785  1.00  0.00    -0.573 C  
BRANCH  36  37
HETATM   37  C   UNL     1     -13.242  12.362  71.832  1.00  0.00    -0.486 C  
BRANCH  37  38
HETATM   38  C   UNL     1     -12.403  12.997  70.729  1.00  0.00    -0.394 C  
HETATM   39  C   UNL     1     -12.777  14.456  70.532  1.00  0.00    -0.401 C  
ENDBRANCH  37  38
ENDBRANCH  36  37
ENDBRANCH  35  36
ENDBRANCH  34  35
ENDBRANCH  33  34
ENDBRANCH  32  33
ENDBRANCH  31  32
ENDBRANCH  30  31
ENDBRANCH  29  30
ENDBRANCH  28  29
ENDBRANCH  27  28
ENDBRANCH  26  27
ENDBRANCH  25  26
ENDBRANCH  24  25
ENDBRANCH  23  24
ENDBRANCH  22  23
ENDBRANCH  19  22
ENDBRANCH  18  19
ENDBRANCH  17  18
ENDBRANCH  16  17
ENDBRANCH  15  16
ENDBRANCH  14  15
ENDBRANCH  13  14
ENDBRANCH  12  13
ENDBRANCH  11  12
ENDBRANCH  10  11
ENDBRANCH   9  10
ENDBRANCH   8   9
ENDBRANCH   7   8
ENDBRANCH   6   7
ENDBRANCH   5   6
ENDBRANCH   4   5
ENDBRANCH   3   4
ENDBRANCH   2   3
TORSDOF 34
ENDMDL
MODEL       10
REMARK 921   NORMALIZED FREE ENERGY PREDICTED BY IDOCK:   -4.09 KCAL/MOL
REMARK 922        TOTAL FREE ENERGY PREDICTED BY IDOCK:  -18.54 KCAL/MOL
REMARK 923 INTER-LIGAND FREE ENERGY PREDICTED BY IDOCK:  -10.72 KCAL/MOL
REMARK 924 INTRA-LIGAND FREE ENERGY PREDICTED BY IDOCK:   -7.82 KCAL/MOL
REMARK 927      BINDING AFFINITY PREDICTED BY RF-SCORE:    0.00 PKD
ROOT
HETATM    1  C   UNL     1     -10.218  15.232  65.392  1.00  0.00    -0.414 C  
HETATM    2  C   UNL     1     -10.964  15.123  66.710  1.00  0.00    -0.321 C  
ENDROOT
BRANCH   2   3
HETATM    3  C   UNL     1     -11.915  13.936  66.703  1.00  0.00    -0.474 C  
BRANCH   3   4
HETATM    4  C   UNL     1     -12.677  13.849  65.384  1.00  0.00    -0.525 C  
BRANCH   4   5
HETATM    5  C   UNL     1     -12.479  12.484  64.737  1.00  0.00    -0.532 C  
BRANCH   5   6
HETATM    6  C   UNL     1     -11.674  12.613  63.451  1.00  0.00    -0.571 C  
BRANCH   6   7
HETATM    7  C   UNL     1     -10.350  11.873  63.584  1.00  0.00    -0.477 C  
BRANCH   7   8
HETATM    8  C   UNL     1     -10.472  10.759  64.611  1.00  0.00    -0.346 C  
BRANCH   8   9
HETATM    9  C   UNL     1      -9.308   9.792  64.477  1.00  0.00    -0.298 C  
BRANCH   9  10
HETATM   10  C   UNL     1      -8.075  10.374  65.142  1.00  0.00    -0.145 C  
BRANCH  10  11
HETATM   11  C   UNL     1      -8.172  10.231  66.649  1.00  0.00    -0.125 C  
BRANCH  11  12
HETATM   12  C   UNL     1      -8.164  11.606  67.288  1.00  0.00    -0.159 C  
BRANCH  12  13
HETATM   13  C   UNL     1      -9.405  11.797  68.134  1.00  0.00    -0.190 C  
BRANCH  13  14
HETATM   14  C   UNL     1     -10.202  10.506  68.167  1.00  0.00    -0.187 C  
BRANCH  14  15
HETATM   15  C   UNL     1     -11.643  10.823  68.499  1.00  0.00    -0.325 C  
BRANCH  15  16
HETATM   16  C   UNL     1     -11.745  11.576  69.814  1.00  0.00    -0.426 C  
BRANCH  16  17
HETATM   17  C   UNL     1     -12.546  10.715  70.772  1.00  0.00    -0.479 C  
BRANCH  17  18
HETATM   18  C   UNL     1     -12.160   9.251  70.665  1.00  0.00    -0.100 C  
BRANCH  18  19
HETATM   19  N   UNL     1     -12.748   8.408  71.815  1.00  0.00    -0.329 N  
HETATM   20  C   UNL     1     -13.805   9.211  72.579  1.00  0.00    -0.417 C  
HETATM   21  C   UNL     1     -13.369   7.121  71.268  1.00  0.00    -0.244 C  
BRANCH  19  22
HETATM   22  C   UNL     1     -11.554   8.079  72.738  1.00  0.00    -0.327 C  
BRANCH  22  23
HETATM   23  C   UNL     1     -10.246   8.620  72.196  1.00  0.00    -0.394 C  
BRANCH  23  24
HETATM   24  C   UNL     1      -9.056   8.094  72.977  1.00  0.00    -0.344 C  
BRANCH  24  25
HETATM   25  C   UNL     1      -7.818   8.309  72.125  1.00  0.00    -0.170 C  
BRANCH  25  26
HETATM   26  C   UNL     1      -8.165   9.017  70.835  1.00  0.00    -0.222 C  
BRANCH  26  27
HETATM   27  C   UNL     1      -7.030   8.833  69.843  1.00  0.00    -0.046 C  
BRANCH  27  28
HETATM   28  C   UNL     1      -6.232   7.599  70.208  1.00  0.00    -0.033 C  
BRANCH  28  29
HETATM   29  C   UNL     1      -6.570   6.462  69.264  1.00  0.00    -0.044 C  
BRANCH  29  30
HETATM   30  C   UNL     1      -6.782   7.012  67.867  1.00  0.00    -0.065 C  
BRANCH  30  31
HETATM   31  C   UNL     1      -7.208   5.907  66.922  1.00  0.00    -0.071 C  
BRANCH  31  32
HETATM   32  C   UNL     1      -8.174   6.454  65.887  1.00  0.00    -0.130 C  
BRANCH  32  33
HETATM   33  C   UNL     1      -9.590   5.998  66.199  1.00  0.00    -0.091 C  
BRANCH  33  34
HETATM   34  C   UNL     1     -10.337   7.083  66.960  1.00  0.00    -0.360 C  
BRANCH  34  35
HETATM   35  C   UNL     1     -11.106   6.476  68.125  1.00  0.00    -0.332 C  
BRANCH  35  36
HETATM   36  C   UNL     1     -10.223   6.386  69.363  1.00  0.00    -0.230 C  
BRANCH  36  37
HETATM   37  C   UNL     1     -10.061   4.934  69.799  1.00  0.00    -0.319 C  
BRANCH  37  38
HETATM   38  C   UNL     1      -9.320   4.842  71.128  1.00  0.00    -0.206 C  
HETATM   39  C   UNL     1     -10.291   4.649  72.280  1.00  0.00    -0.251 C  
ENDBRANCH  37  38
ENDBRANCH  36  37
ENDBRANCH  35  36
ENDBRANCH  34  35
ENDBRANCH  33  34
ENDBRANCH  32  33
ENDBRANCH  31  32
ENDBRANCH  30  31
ENDBRANCH  29  30
ENDBRANCH  28  29
ENDBRANCH  27  28
ENDBRANCH  26  27
ENDBRANCH  25  26
ENDBRANCH  24  25
ENDBRANCH  23  24
ENDBRANCH  22  23
ENDBRANCH  19  22
ENDBRANCH  18  19
ENDBRANCH  17  18
ENDBRANCH  16  17
ENDBRANCH  15  16
ENDBRANCH  14  15
ENDBRANCH  13  14
ENDBRANCH  12  13
ENDBRANCH  11  12
ENDBRANCH  10  11
ENDBRANCH   9  10
ENDBRANCH   8   9
ENDBRANCH   7   8
ENDBRANCH   6   7
ENDBRANCH   5   6
ENDBRANCH   4   5
ENDBRANCH   3   4
ENDBRANCH   2   3
TORSDOF 34
ENDMDL
MODEL       11
REMARK 921   NORMALIZED FREE ENERGY PREDICTED BY IDOCK:   -4.09 KCAL/MOL
REMARK 922        TOTAL FREE ENERGY PREDICTED BY IDOCK:  -18.54 KCAL/MOL
REMARK 923 INTER-LIGAND FREE ENERGY PREDICTED BY IDOCK:  -12.64 KCAL/MOL
REMARK 924 INTRA-LIGAND FREE ENERGY PREDICTED BY IDOCK:   -5.90 KCAL/MOL
REMARK 927      BINDING AFFINITY PREDICTED BY RF-SCORE:    0.00 PKD
ROOT
HETATM    1  C   UNL     1     -13.543  15.018  72.756  1.00  0.00    -0.562 C  
HETATM    2  C   UNL     1     -12.147  15.588  72.931  1.00  0.00    -0.557 C  
ENDROOT
BRANCH   2   3
HETATM    3  C   UNL     1     -11.495  15.860  71.584  1.00  0.00    -0.473 C  
BRANCH   3   4
HETATM    4  C   UNL     1     -12.461  15.571  70.438  1.00  0.00    -0.443 C  
BRANCH   4   5
HETATM    5  C   UNL     1     -11.796  15.839  69.094  1.00  0.00    -0.367 C  
BRANCH   5   6
HETATM    6  C   UNL     1     -10.614  16.784  69.260  1.00  0.00    -0.336 C  
BRANCH   6   7
HETATM    7  C   UNL     1     -10.621  17.832  68.157  1.00  0.00    -0.350 C  
BRANCH   7   8
HETATM    8  C   UNL     1     -10.124  19.164  68.695  1.00  0.00    -0.471 C  
BRANCH   8   9
HETATM    9  C   UNL     1      -9.707  20.071  67.549  1.00  0.00    -0.539 C  
BRANCH   9  10
HETATM   10  C   UNL     1      -8.197  20.065  67.410  1.00  0.00    -0.373 C  
BRANCH  10  11
HETATM   11  C   UNL     1      -7.804  19.881  65.956  1.00  0.00    -0.335 C  
BRANCH  11  12
HETATM   12  C   UNL     1      -6.812  18.740  65.843  1.00  0.00    -0.307 C  
BRANCH  12  13
HETATM   13  C   UNL     1      -7.087  17.701  66.910  1.00  0.00    -0.219 C  
BRANCH  13  14
HETATM   14  C   UNL     1      -7.885  16.557  66.313  1.00  0.00    -0.266 C  
BRANCH  14  15
HETATM   15  C   UNL     1      -7.698  15.324  67.168  1.00  0.00    -0.238 C  
BRANCH  15  16
HETATM   16  C   UNL     1      -8.920  14.423  67.098  1.00  0.00    -0.245 C  
BRANCH  16  17
HETATM   17  C   UNL     1      -9.689  14.794  65.844  1.00  0.00    -0.355 C  
BRANCH  17  18
HETATM   18  C   UNL     1     -11.126  14.311  65.906  1.00  0.00    -0.310 C  
BRANCH  18  19
HETATM   19  N   UNL     1     -11.300  12.920  65.260  1.00  0.00    -0.293 N  
HETATM   20  C   UNL     1     -12.656  12.826  64.554  1.00  0.00    -0.389 C  
HETATM   21  C   UNL     1     -10.173  12.652  64.261  1.00  0.00    -0.332 C  
BRANCH  19  22
HETATM   22  C   UNL     1     -11.234  11.912  66.429  1.00  0.00    -0.331 C  
BRANCH  22  23
HETATM   23  C   UNL     1     -11.833  12.472  67.703  1.00  0.00    -0.381 C  
BRANCH  23  24
HETATM   24  C   UNL     1     -11.898  11.424  68.799  1.00  0.00    -0.388 C  
BRANCH  24  25
HETATM   25  C   UNL     1     -11.714  12.139  70.126  1.00  0.00    -0.301 C  
BRANCH  25  26
HETATM   26  C   UNL     1     -12.648  11.583  71.176  1.00  0.00    -0.463 C  
BRANCH  26  27
HETATM   27  C   UNL     1     -12.979  10.141  70.837  1.00  0.00    -0.432 C  
BRANCH  27  28
HETATM   28  C   UNL     1     -13.426   9.415  72.089  1.00  0.00    -0.543 C  
BRANCH  28  29
HETATM   29  C   UNL     1     -12.808   8.031  72.137  1.00  0.00    -0.269 C  
BRANCH  29  30
HETATM   30  C   UNL     1     -11.298   8.155  72.207  1.00  0.00    -0.429 C  
BRANCH  30  31
HETATM   31  C   UNL     1     -10.642   7.166  71.264  1.00  0.00    -0.230 C  
BRANCH  31  32
HETATM   32  C   UNL     1      -9.249   7.643  70.900  1.00  0.00    -0.150 C  
BRANCH  32  33
HETATM   33  C   UNL     1      -9.321   8.999  70.219  1.00  0.00    -0.227 C  
BRANCH  33  34
HETATM   34  C   UNL     1      -9.719   8.836  68.760  1.00  0.00    -0.171 C  
BRANCH  34  35
HETATM   35  C   UNL     1      -8.734   9.568  67.859  1.00  0.00    -0.119 C  
BRANCH  35  36
HETATM   36  C   UNL     1      -8.410  10.945  68.424  1.00  0.00    -0.136 C  
BRANCH  36  37
HETATM   37  C   UNL     1      -6.900  11.156  68.484  1.00  0.00    -0.065 C  
BRANCH  37  38
HETATM   38  C   UNL     1      -6.452  11.495  69.901  1.00  0.00    -0.106 C  
HETATM   39  C   UNL     1      -6.015  12.946  70.001  1.00  0.00    -0.139 C  
ENDBRANCH  37  38
ENDBRANCH  36  37
ENDBRANCH  35  36
ENDBRANCH  34  35
ENDBRANCH  33  34
ENDBRANCH  32  33
ENDBRANCH  31  32
ENDBRANCH  30  31
ENDBRANCH  29  30
ENDBRANCH  28  29
ENDBRANCH  27  28
ENDBRANCH  26  27
ENDBRANCH  25  26
ENDBRANCH  24  25
ENDBRANCH  23  24
ENDBRANCH  22  23
ENDBRANCH  19  22
ENDBRANCH  18  19
ENDBRANCH  17  18
ENDBRANCH  16  17
ENDBRANCH  15  16
ENDBRANCH  14  15
ENDBRANCH  13  14
ENDBRANCH  12  13
ENDBRANCH  11  12
ENDBRANCH  10  11
ENDBRANCH   9  10
ENDBRANCH   8   9
ENDBRANCH   7   8
ENDBRANCH   6   7
ENDBRANCH   5   6
ENDBRANCH   4   5
ENDBRANCH   3   4
ENDBRANCH   2   3
TORSDOF 34
ENDMDL
MODEL       12
REMARK 921   NORMALIZED FREE ENERGY PREDICTED BY IDOCK:   -4.08 KCAL/MOL
REMARK 922        TOTAL FREE ENERGY PREDICTED BY IDOCK:  -18.51 KCAL/MOL
REMARK 923 INTER-LIGAND FREE ENERGY PREDICTED BY IDOCK:  -11.45 KCAL/MOL
REMARK 924 INTRA-LIGAND FREE ENERGY PREDICTED BY IDOCK:   -7.05 KCAL/MOL
REMARK 927      BINDING AFFINITY PREDICTED BY RF-SCORE:    0.00 PKD
ROOT
HETATM    1  C   UNL     1      -5.920  13.399  68.394  1.00  0.00    -0.092 C  
HETATM    2  C   UNL     1      -7.197  13.589  67.594  1.00  0.00    -0.175 C  
ENDROOT
BRANCH   2   3
HETATM    3  C   UNL     1      -8.406  13.081  68.367  1.00  0.00    -0.118 C  
BRANCH   3   4
HETATM    4  C   UNL     1      -9.706  13.576  67.740  1.00  0.00    -0.226 C  
BRANCH   4   5
HETATM    5  C   UNL     1      -9.431  14.283  66.419  1.00  0.00    -0.297 C  
BRANCH   5   6
HETATM    6  C   UNL     1     -10.684  14.990  65.920  1.00  0.00    -0.337 C  
BRANCH   6   7
HETATM    7  C   UNL     1     -11.926  14.332  66.503  1.00  0.00    -0.448 C  
BRANCH   7   8
HETATM    8  C   UNL     1     -12.777  13.740  65.392  1.00  0.00    -0.513 C  
BRANCH   8   9
HETATM    9  C   UNL     1     -12.178  14.075  64.037  1.00  0.00    -0.395 C  
BRANCH   9  10
HETATM   10  C   UNL     1     -12.032  12.810  63.210  1.00  0.00    -0.522 C  
BRANCH  10  11
HETATM   11  C   UNL     1     -11.713  11.629  64.108  1.00  0.00    -0.305 C  
BRANCH  11  12
HETATM   12  C   UNL     1     -10.245  11.274  63.972  1.00  0.00    -0.403 C  
BRANCH  12  13
HETATM   13  C   UNL     1      -9.705  10.768  65.293  1.00  0.00    -0.308 C  
BRANCH  13  14
HETATM   14  C   UNL     1     -10.850  10.572  66.269  1.00  0.00    -0.063 C  
BRANCH  14  15
HETATM   15  C   UNL     1     -10.334   9.863  67.501  1.00  0.00    -0.289 C  
BRANCH  15  16
HETATM   16  C   UNL     1      -8.823   9.713  67.449  1.00  0.00    -0.134 C  
BRANCH  16  17
HETATM   17  C   UNL     1      -8.477   8.364  68.052  1.00  0.00    -0.132 C  
BRANCH  17  18
HETATM   18  C   UNL     1      -8.518   7.260  67.012  1.00  0.00    -0.118 C  
BRANCH  18  19
HETATM   19  N   UNL     1      -9.339   6.043  67.487  1.00  0.00    -0.114 N  
HETATM   20  C   UNL     1     -10.817   6.223  67.131  1.00  0.00    -0.381 C  
HETATM   21  C   UNL     1      -8.804   4.758  66.850  1.00  0.00    -0.110 C  
BRANCH  19  22
HETATM   22  C   UNL     1      -9.159   5.998  69.021  1.00  0.00    -0.122 C  
BRANCH  22  23
HETATM   23  C   UNL     1     -10.446   5.646  69.738  1.00  0.00    -0.377 C  
BRANCH  23  24
HETATM   24  C   UNL     1     -10.183   4.828  70.990  1.00  0.00    -0.239 C  
BRANCH  24  25
HETATM   25  C   UNL     1     -10.717   5.618  72.172  1.00  0.00    -0.287 C  
BRANCH  25  26
HETATM   26  C   UNL     1      -9.623   6.444  72.810  1.00  0.00    -0.154 C  
BRANCH  26  27
HETATM   27  C   UNL     1     -10.077   7.890  72.902  1.00  0.00    -0.376 C  
BRANCH  27  28
HETATM   28  C   UNL     1      -9.430   8.697  71.796  1.00  0.00    -0.354 C  
BRANCH  28  29
HETATM   29  C   UNL     1     -10.474   9.527  71.077  1.00  0.00    -0.377 C  
BRANCH  29  30
HETATM   30  C   UNL     1     -11.858   9.089  71.516  1.00  0.00    -0.415 C  
BRANCH  30  31
HETATM   31  C   UNL     1     -12.797  10.278  71.572  1.00  0.00    -0.557 C  
BRANCH  31  32
HETATM   32  C   UNL     1     -12.258  11.405  70.711  1.00  0.00    -0.475 C  
BRANCH  32  33
HETATM   33  C   UNL     1     -12.837  12.734  71.165  1.00  0.00    -0.315 C  
BRANCH  33  34
HETATM   34  C   UNL     1     -12.353  13.857  70.260  1.00  0.00    -0.413 C  
BRANCH  34  35
HETATM   35  C   UNL     1     -11.826  15.017  71.093  1.00  0.00    -0.382 C  
BRANCH  35  36
HETATM   36  C   UNL     1     -10.613  15.651  70.424  1.00  0.00    -0.287 C  
BRANCH  36  37
HETATM   37  C   UNL     1     -11.039  16.464  69.205  1.00  0.00    -0.297 C  
BRANCH  37  38
HETATM   38  C   UNL     1      -9.953  17.453  68.801  1.00  0.00    -0.329 C  
HETATM   39  C   UNL     1      -8.577  16.813  68.881  1.00  0.00    -0.218 C  
ENDBRANCH  37  38
ENDBRANCH  36  37
ENDBRANCH  35  36
ENDBRANCH  34  35
ENDBRANCH  33  34
ENDBRANCH  32  33
ENDBRANCH  31  32
ENDBRANCH  30  31
ENDBRANCH  29  30
ENDBRANCH  28  29
ENDBRANCH  27  28
ENDBRANCH  26  27
ENDBRANCH  25  26
ENDBRANCH  24  25
ENDBRANCH  23  24
ENDBRANCH  22  23
ENDBRANCH  19  22
ENDBRANCH  18  19
ENDBRANCH  17  18
ENDBRANCH  16  17
ENDBRANCH  15  16
ENDBRANCH  14  15
ENDBRANCH  13  14
ENDBRANCH  12  13
ENDBRANCH  11  12
ENDBRANCH  10  11
ENDBRANCH   9  10
ENDBRANCH   8   9
ENDBRANCH   7   8
ENDBRANCH   6   7
ENDBRANCH   5   6
ENDBRANCH   4   5
ENDBRANCH   3   4
ENDBRANCH   2   3
TORSDOF 34
ENDMDL
MODEL       13
REMARK 921   NORMALIZED FREE ENERGY PREDICTED BY IDOCK:   -4.07 KCAL/MOL
REMARK 922        TOTAL FREE ENERGY PREDICTED BY IDOCK:  -18.47 KCAL/MOL
REMARK 923 INTER-LIGAND FREE ENERGY PREDICTED BY IDOCK:  -12.46 KCAL/MOL
REMARK 924 INTRA-LIGAND FREE ENERGY PREDICTED BY IDOCK:   -6.01 KCAL/MOL
REMARK 927      BINDING AFFINITY PREDICTED BY RF-SCORE:    0.00 PKD
ROOT
HETATM    1  C   UNL     1     -12.042   6.670  71.787  1.00  0.00    -0.400 C  
HETATM    2  C   UNL     1     -11.236   5.874  72.797  1.00  0.00    -0.317 C  
ENDROOT
BRANCH   2   3
HETATM    3  C   UNL     1      -9.764   6.253  72.744  1.00  0.00    -0.162 C  
BRANCH   3   4
HETATM    4  C   UNL     1      -8.897   5.044  72.402  1.00  0.00    -0.133 C  
BRANCH   4   5
HETATM    5  C   UNL     1      -9.728   3.767  72.409  1.00  0.00    -0.213 C  
BRANCH   5   6
HETATM    6  C   UNL     1      -9.556   3.010  71.100  1.00  0.00    -0.229 C  
BRANCH   6   7
HETATM    7  C   UNL     1      -8.880   3.898  70.065  1.00  0.00    -0.142 C  
BRANCH   7   8
HETATM    8  C   UNL     1      -9.859   4.251  68.956  1.00  0.00    -0.148 C  
BRANCH   8   9
HETATM    9  C   UNL     1     -10.189   5.733  68.999  1.00  0.00    -0.282 C  
BRANCH   9  10
HETATM   10  C   UNL     1     -10.958   6.128  67.752  1.00  0.00    -0.400 C  
BRANCH  10  11
HETATM   11  C   UNL     1     -10.003   6.351  66.594  1.00  0.00    -0.207 C  
BRANCH  11  12
HETATM   12  C   UNL     1      -9.096   7.525  66.909  1.00  0.00    -0.166 C  
BRANCH  12  13
HETATM   13  C   UNL     1      -9.068   8.491  65.743  1.00  0.00    -0.222 C  
BRANCH  13  14
HETATM   14  C   UNL     1      -9.758   9.784  66.137  1.00  0.00    -0.309 C  
BRANCH  14  15
HETATM   15  C   UNL     1      -9.116  10.934  65.395  1.00  0.00    -0.218 C  
BRANCH  15  16
HETATM   16  C   UNL     1      -9.187  10.718  63.892  1.00  0.00    -0.258 C  
BRANCH  16  17
HETATM   17  C   UNL     1     -10.181  11.719  63.335  1.00  0.00    -0.482 C  
BRANCH  17  18
HETATM   18  C   UNL     1     -10.393  12.884  64.284  1.00  0.00    -0.372 C  
BRANCH  18  19
HETATM   19  N   UNL     1     -11.890  13.173  64.526  1.00  0.00    -0.358 N  
HETATM   20  C   UNL     1     -12.213  14.632  64.193  1.00  0.00    -0.315 C  
HETATM   21  C   UNL     1     -12.756  12.242  63.675  1.00  0.00    -0.411 C  
BRANCH  19  22
HETATM   22  C   UNL     1     -12.124  12.901  66.029  1.00  0.00    -0.422 C  
BRANCH  22  23
HETATM   23  C   UNL     1     -11.158  13.672  66.907  1.00  0.00    -0.314 C  
BRANCH  23  24
HETATM   24  C   UNL     1     -11.889  14.503  67.946  1.00  0.00    -0.370 C  
BRANCH  24  25
HETATM   25  C   UNL     1     -10.945  14.700  69.118  1.00  0.00    -0.277 C  
BRANCH  25  26
HETATM   26  C   UNL     1     -11.120  16.071  69.730  1.00  0.00    -0.337 C  
BRANCH  26  27
HETATM   27  C   UNL     1     -11.625  15.922  71.154  1.00  0.00    -0.481 C  
BRANCH  27  28
HETATM   28  C   UNL     1     -13.069  15.468  71.136  1.00  0.00    -0.573 C  
BRANCH  28  29
HETATM   29  C   UNL     1     -13.469  14.946  72.502  1.00  0.00    -0.548 C  
BRANCH  29  30
HETATM   30  C   UNL     1     -14.008  13.536  72.366  1.00  0.00    -0.638 C  
BRANCH  30  31
HETATM   31  C   UNL     1     -13.057  12.681  71.553  1.00  0.00    -0.373 C  
BRANCH  31  32
HETATM   32  C   UNL     1     -13.263  11.215  71.886  1.00  0.00    -0.488 C  
BRANCH  32  33
HETATM   33  C   UNL     1     -12.734  10.342  70.760  1.00  0.00    -0.460 C  
BRANCH  33  34
HETATM   34  C   UNL     1     -12.133  11.205  69.661  1.00  0.00    -0.406 C  
BRANCH  34  35
HETATM   35  C   UNL     1     -10.708  10.762  69.361  1.00  0.00    -0.272 C  
BRANCH  35  36
HETATM   36  C   UNL     1     -10.469   9.344  69.865  1.00  0.00    -0.257 C  
BRANCH  36  37
HETATM   37  C   UNL     1      -9.037   9.189  70.365  1.00  0.00    -0.270 C  
BRANCH  37  38
HETATM   38  C   UNL     1      -8.084  10.086  69.583  1.00  0.00    -0.180 C  
HETATM   39  C   UNL     1      -6.823   9.333  69.196  1.00  0.00    -0.050 C  
ENDBRANCH  37  38
ENDBRANCH  36  37
ENDBRANCH  35  36
ENDBRANCH  34  35
ENDBRANCH  33  34
ENDBRANCH  32  33
ENDBRANCH  31  32
ENDBRANCH  30  31
ENDBRANCH  29  30
ENDBRANCH  28  29
ENDBRANCH  27  28
ENDBRANCH  26  27
ENDBRANCH  25  26
ENDBRANCH  24  25
ENDBRANCH  23  24
ENDBRANCH  22  23
ENDBRANCH  19  22
ENDBRANCH  18  19
ENDBRANCH  17  18
ENDBRANCH  16  17
ENDBRANCH  15  16
ENDBRANCH  14  15
ENDBRANCH  13  14
ENDBRANCH  12  13
ENDBRANCH  11  12
ENDBRANCH  10  11
ENDBRANCH   9  10
ENDBRANCH   8   9
ENDBRANCH   7   8
ENDBRANCH   6   7
ENDBRANCH   5   6
ENDBRANCH   4   5
ENDBRANCH   3   4
ENDBRANCH   2   3
TORSDOF 34
ENDMDL
MODEL       14
REMARK 921   NORMALIZED FREE ENERGY PREDICTED BY IDOCK:   -4.05 KCAL/MOL
REMARK 922        TOTAL FREE ENERGY PREDICTED BY IDOCK:  -18.43 KCAL/MOL
REMARK 923 INTER-LIGAND FREE ENERGY PREDICTED BY IDOCK:  -11.77 KCAL/MOL
REMARK 924 INTRA-LIGAND FREE ENERGY PREDICTED BY IDOCK:   -6.66 KCAL/MOL
REMARK 927      BINDING AFFINITY PREDICTED BY RF-SCORE:    0.00 PKD
ROOT
HETATM    1  C   UNL     1      -8.569  19.828  66.190  1.00  0.00    -0.367 C  
HETATM    2  C   UNL     1      -9.738  20.094  67.121  1.00  0.00    -0.576 C  
ENDROOT
BRANCH   2   3
HETATM    3  C   UNL     1     -10.760  18.970  67.051  1.00  0.00    -0.516 C  
BRANCH   3   4
HETATM    4  C   UNL     1     -10.491  17.914  68.121  1.00  0.00    -0.380 C  
BRANCH   4   5
HETATM    5  C   UNL     1     -10.602  16.513  67.534  1.00  0.00    -0.313 C  
BRANCH   5   6
HETATM    6  C   UNL     1     -10.022  16.475  66.127  1.00  0.00    -0.363 C  
BRANCH   6   7
HETATM    7  C   UNL     1     -10.558  15.268  65.371  1.00  0.00    -0.413 C  
BRANCH   7   8
HETATM    8  C   UNL     1     -11.663  14.595  66.170  1.00  0.00    -0.316 C  
BRANCH   8   9
HETATM    9  C   UNL     1     -12.689  13.981  65.233  1.00  0.00    -0.468 C  
BRANCH   9  10
HETATM   10  C   UNL     1     -12.346  12.526  64.974  1.00  0.00    -0.522 C  
BRANCH  10  11
HETATM   11  C   UNL     1     -11.874  12.343  63.544  1.00  0.00    -0.605 C  
BRANCH  11  12
HETATM   12  C   UNL     1     -10.623  11.486  63.532  1.00  0.00    -0.487 C  
BRANCH  12  13
HETATM   13  C   UNL     1     -10.070  11.349  64.935  1.00  0.00    -0.323 C  
BRANCH  13  14
HETATM   14  C   UNL     1      -9.908   9.880  65.278  1.00  0.00    -0.373 C  
BRANCH  14  15
HETATM   15  C   UNL     1      -8.502   9.444  64.936  1.00  0.00    -0.176 C  
BRANCH  15  16
HETATM   16  C   UNL     1      -7.598   9.517  66.155  1.00  0.00    -0.100 C  
BRANCH  16  17
HETATM   17  C   UNL     1      -7.143   8.105  66.471  1.00  0.00    -0.076 C  
BRANCH  17  18
HETATM   18  C   UNL     1      -8.001   7.470  67.548  1.00  0.00    -0.116 C  
BRANCH  18  19
HETATM   19  N   UNL     1      -8.667   6.163  67.067  1.00  0.00    -0.107 N  
HETATM   20  C   UNL     1      -8.293   5.879  65.610  1.00  0.00    -0.143 C  
HETATM   21  C   UNL     1      -8.239   4.990  67.952  1.00  0.00    -0.097 C  
BRANCH  19  22
HETATM   22  C   UNL     1     -10.188   6.405  67.193  1.00  0.00    -0.199 C  
BRANCH  22  23
HETATM   23  C   UNL     1     -10.548   7.125  68.477  1.00  0.00    -0.219 C  
BRANCH  23  24
HETATM   24  C   UNL     1     -11.337   6.232  69.416  1.00  0.00    -0.448 C  
BRANCH  24  25
HETATM   25  C   UNL     1     -10.644   6.263  70.767  1.00  0.00    -0.297 C  
BRANCH  25  26
HETATM   26  C   UNL     1     -10.010   7.612  71.019  1.00  0.00    -0.188 C  
BRANCH  26  27
HETATM   27  C   UNL     1     -10.723   8.291  72.175  1.00  0.00    -0.389 C  
BRANCH  27  28
HETATM   28  C   UNL     1     -11.724   9.292  71.637  1.00  0.00    -0.462 C  
BRANCH  28  29
HETATM   29  C   UNL     1     -11.077  10.155  70.572  1.00  0.00    -0.400 C  
BRANCH  29  30
HETATM   30  C   UNL     1     -12.153  10.788  69.712  1.00  0.00    -0.389 C  
BRANCH  30  31
HETATM   31  C   UNL     1     -11.548  11.371  68.451  1.00  0.00    -0.385 C  
BRANCH  31  32
HETATM   32  C   UNL     1     -10.038  11.429  68.579  1.00  0.00    -0.211 C  
BRANCH  32  33
HETATM   33  C   UNL     1      -9.537  12.827  68.257  1.00  0.00    -0.211 C  
BRANCH  33  34
HETATM   34  C   UNL     1      -8.121  12.766  67.706  1.00  0.00    -0.168 C  
BRANCH  34  35
HETATM   35  C   UNL     1      -7.577  14.172  67.491  1.00  0.00    -0.200 C  
BRANCH  35  36
HETATM   36  C   UNL     1      -6.868  14.671  68.744  1.00  0.00    -0.095 C  
BRANCH  36  37
HETATM   37  C   UNL     1      -7.427  16.025  69.169  1.00  0.00    -0.216 C  
BRANCH  37  38
HETATM   38  C   UNL     1      -6.884  17.142  68.286  1.00  0.00    -0.177 C  
HETATM   39  C   UNL     1      -6.807  18.452  69.051  1.00  0.00    -0.280 C  
ENDBRANCH  37  38
ENDBRANCH  36  37
ENDBRANCH  35  36
ENDBRANCH  34  35
ENDBRANCH  33  34
ENDBRANCH  32  33
ENDBRANCH  31  32
ENDBRANCH  30  31
ENDBRANCH  29  30
ENDBRANCH  28  29
ENDBRANCH  27  28
ENDBRANCH  26  27
ENDBRANCH  25  26
ENDBRANCH  24  25
ENDBRANCH  23  24
ENDBRANCH  22  23
ENDBRANCH  19  22
ENDBRANCH  18  19
ENDBRANCH  17  18
ENDBRANCH  16  17
ENDBRANCH  15  16
ENDBRANCH  14  15
ENDBRANCH  13  14
ENDBRANCH  12  13
ENDBRANCH  11  12
ENDBRANCH  10  11
ENDBRANCH   9  10
ENDBRANCH   8   9
ENDBRANCH   7   8
ENDBRANCH   6   7
ENDBRANCH   5   6
ENDBRANCH   4   5
ENDBRANCH   3   4
ENDBRANCH   2   3
TORSDOF 34
ENDMDL
MODEL       15
REMARK 921   NORMALIZED FREE ENERGY PREDICTED BY IDOCK:   -4.03 KCAL/MOL
REMARK 922        TOTAL FREE ENERGY PREDICTED BY IDOCK:  -18.38 KCAL/MOL
REMARK 923 INTER-LIGAND FREE ENERGY PREDICTED BY IDOCK:  -12.74 KCAL/MOL
REMARK 924 INTRA-LIGAND FREE ENERGY PREDICTED BY IDOCK:   -5.63 KCAL/MOL
REMARK 927      BINDING AFFINITY PREDICTED BY RF-SCORE:    0.00 PKD
ROOT
HETATM    1  C   UNL     1     -10.426  19.401  67.535  1.00  0.00    -0.577 C  
HETATM    2  C   UNL     1     -10.437  18.654  66.213  1.00  0.00    -0.468 C  
ENDROOT
BRANCH   2   3
HETATM    3  C   UNL     1      -9.903  17.240  66.380  1.00  0.00    -0.310 C  
BRANCH   3   4
HETATM    4  C   UNL     1     -10.701  16.248  65.540  1.00  0.00    -0.326 C  
BRANCH   4   5
HETATM    5  C   UNL     1     -11.406  15.232  66.430  1.00  0.00    -0.161 C  
BRANCH   5   6
HETATM    6  C   UNL     1     -12.414  14.424  65.626  1.00  0.00    -0.345 C  
BRANCH   6   7
HETATM    7  C   UNL     1     -12.147  14.585  64.136  1.00  0.00    -0.377 C  
BRANCH   7   8
HETATM    8  C   UNL     1     -11.895  13.228  63.498  1.00  0.00    -0.477 C  
BRANCH   8   9
HETATM    9  C   UNL     1     -12.493  12.125  64.356  1.00  0.00    -0.418 C  
BRANCH   9  10
HETATM   10  C   UNL     1     -11.398  11.190  64.832  1.00  0.00     0.085 C  
BRANCH  10  11
HETATM   11  C   UNL     1     -10.177  11.313  63.939  1.00  0.00    -0.420 C  
BRANCH  11  12
HETATM   12  C   UNL     1      -9.097  10.367  64.429  1.00  0.00    -0.267 C  
BRANCH  12  13
HETATM   13  C   UNL     1      -9.635   9.491  65.541  1.00  0.00    -0.349 C  
BRANCH  13  14
HETATM   14  C   UNL     1      -8.515   9.148  66.506  1.00  0.00    -0.127 C  
BRANCH  14  15
HETATM   15  C   UNL     1      -8.992   8.072  67.455  1.00  0.00    -0.143 C  
BRANCH  15  16
HETATM   16  C   UNL     1     -10.455   7.742  67.212  1.00  0.00    -0.392 C  
BRANCH  16  17
HETATM   17  C   UNL     1     -10.766   6.465  67.968  1.00  0.00    -0.362 C  
BRANCH  17  18
HETATM   18  C   UNL     1     -11.305   6.754  69.357  1.00  0.00    -0.197 C  
BRANCH  18  19
HETATM   19  N   UNL     1     -10.470   6.069  70.459  1.00  0.00    -0.226 N  
HETATM   20  C   UNL     1     -10.127   4.633  70.054  1.00  0.00    -0.197 C  
HETATM   21  C   UNL     1      -9.184   6.856  70.721  1.00  0.00    -0.158 C  
BRANCH  19  22
HETATM   22  C   UNL     1     -11.368   6.072  71.717  1.00  0.00    -0.265 C  
BRANCH  22  23
HETATM   23  C   UNL     1     -12.504   7.068  71.607  1.00  0.00    -0.413 C  
BRANCH  23  24
HETATM   24  C   UNL     1     -12.237   8.315  72.430  1.00  0.00    -0.412 C  
BRANCH  24  25
HETATM   25  C   UNL     1     -12.690   9.510  71.610  1.00  0.00    -0.478 C  
BRANCH  25  26
HETATM   26  C   UNL     1     -11.563  10.036  70.752  1.00  0.00    -0.444 C  
BRANCH  26  27
HETATM   27  C   UNL     1     -12.117  11.054  69.770  1.00  0.00    -0.424 C  
BRANCH  27  28
HETATM   28  C   UNL     1     -11.320  11.003  68.483  1.00  0.00    -0.355 C  
BRANCH  28  29
HETATM   29  C   UNL     1     -10.850  12.394  68.106  1.00  0.00    -0.250 C  
BRANCH  29  30
HETATM   30  C   UNL     1      -9.334  12.429  68.092  1.00  0.00    -0.209 C  
BRANCH  30  31
HETATM   31  C   UNL     1      -8.840  13.817  67.739  1.00  0.00    -0.188 C  
BRANCH  31  32
HETATM   32  C   UNL     1      -8.339  14.522  68.986  1.00  0.00    -0.061 C  
BRANCH  32  33
HETATM   33  C   UNL     1      -9.243  15.695  69.324  1.00  0.00    -0.269 C  
BRANCH  33  34
HETATM   34  C   UNL     1     -10.297  15.273  70.337  1.00  0.00    -0.088 C  
BRANCH  34  35
HETATM   35  C   UNL     1     -11.687  15.635  69.834  1.00  0.00    -0.372 C  
BRANCH  35  36
HETATM   36  C   UNL     1     -12.720  14.637  70.342  1.00  0.00    -0.370 C  
BRANCH  36  37
HETATM   37  C   UNL     1     -13.560  15.258  71.453  1.00  0.00    -0.598 C  
BRANCH  37  38
HETATM   38  C   UNL     1     -13.398  14.485  72.757  1.00  0.00    -0.600 C  
HETATM   39  C   UNL     1     -12.539  15.257  73.744  1.00  0.00    -0.736 C  
ENDBRANCH  37  38
ENDBRANCH  36  37
ENDBRANCH  35  36
ENDBRANCH  34  35
ENDBRANCH  33  34
ENDBRANCH  32  33
ENDBRANCH  31  32
ENDBRANCH  30  31
ENDBRANCH  29  30
ENDBRANCH  28  29
ENDBRANCH  27  28
ENDBRANCH  26  27
ENDBRANCH  25  26
ENDBRANCH  24  25
ENDBRANCH  23  24
ENDBRANCH  22  23
ENDBRANCH  19  22
ENDBRANCH  18  19
ENDBRANCH  17  18
ENDBRANCH  16  17
ENDBRANCH  15  16
ENDBRANCH  14  15
ENDBRANCH  13  14
ENDBRANCH  12  13
ENDBRANCH  11  12
ENDBRANCH  10  11
ENDBRANCH   9  10
ENDBRANCH   8   9
ENDBRANCH   7   8
ENDBRANCH   6   7
ENDBRANCH   5   6
ENDBRANCH   4   5
ENDBRANCH   3   4
ENDBRANCH   2   3
TORSDOF 34
ENDMDL
MODEL       16
REMARK 921   NORMALIZED FREE ENERGY PREDICTED BY IDOCK:   -4.03 KCAL/MOL
REMARK 922        TOTAL FREE ENERGY PREDICTED BY IDOCK:  -18.36 KCAL/MOL
REMARK 923 INTER-LIGAND FREE ENERGY PREDICTED BY IDOCK:  -12.67 KCAL/MOL
REMARK 924 INTRA-LIGAND FREE ENERGY PREDICTED BY IDOCK:   -5.70 KCAL/MOL
REMARK 927      BINDING AFFINITY PREDICTED BY RF-SCORE:    0.00 PKD
ROOT
HETATM    1  C   UNL     1      -8.481  19.794  67.037  1.00  0.00    -0.366 C  
HETATM    2  C   UNL     1      -9.919  20.076  66.642  1.00  0.00    -0.598 C  
ENDROOT
BRANCH   2   3
HETATM    3  C   UNL     1     -10.876  19.126  67.347  1.00  0.00    -0.533 C  
BRANCH   3   4
HETATM    4  C   UNL     1     -10.127  17.942  67.952  1.00  0.00    -0.350 C  
BRANCH   4   5
HETATM    5  C   UNL     1     -10.607  16.632  67.339  1.00  0.00    -0.295 C  
BRANCH   5   6
HETATM    6  C   UNL     1     -10.049  16.463  65.933  1.00  0.00    -0.370 C  
BRANCH   6   7
HETATM    7  C   UNL     1     -10.707  15.275  65.246  1.00  0.00    -0.433 C  
BRANCH   7   8
HETATM    8  C   UNL     1     -11.639  14.561  66.211  1.00  0.00    -0.364 C  
BRANCH   8   9
HETATM    9  C   UNL     1     -12.794  13.928  65.454  1.00  0.00    -0.466 C  
BRANCH   9  10
HETATM   10  C   UNL     1     -12.452  12.494  65.094  1.00  0.00    -0.451 C  
BRANCH  10  11
HETATM   11  C   UNL     1     -12.264  12.359  63.594  1.00  0.00    -0.653 C  
BRANCH  11  12
HETATM   12  C   UNL     1     -10.928  11.699  63.312  1.00  0.00    -0.361 C  
BRANCH  12  13
HETATM   13  C   UNL     1     -10.135  11.554  64.594  1.00  0.00    -0.318 C  
BRANCH  13  14
HETATM   14  C   UNL     1      -9.910  10.083  64.889  1.00  0.00    -0.352 C  
BRANCH  14  15
HETATM   15  C   UNL     1      -8.878   9.537  63.928  1.00  0.00    -0.240 C  
BRANCH  15  16
HETATM   16  C   UNL     1      -7.660   9.019  64.675  1.00  0.00    -0.107 C  
BRANCH  16  17
HETATM   17  C   UNL     1      -7.810   7.515  64.804  1.00  0.00    -0.126 C  
BRANCH  17  18
HETATM   18  C   UNL     1      -8.221   7.113  66.209  1.00  0.00    -0.124 C  
BRANCH  18  19
HETATM   19  N   UNL     1      -8.891   5.724  66.244  1.00  0.00    -0.135 N  
HETATM   20  C   UNL     1      -8.893   5.096  64.847  1.00  0.00    -0.118 C  
HETATM   21  C   UNL     1      -8.161   4.804  67.225  1.00  0.00    -0.106 C  
BRANCH  19  22
HETATM   22  C   UNL     1     -10.339   5.977  66.719  1.00  0.00    -0.238 C  
BRANCH  22  23
HETATM   23  C   UNL     1     -10.514   7.364  67.306  1.00  0.00    -0.385 C  
BRANCH  23  24
HETATM   24  C   UNL     1     -10.337   7.359  68.813  1.00  0.00    -0.209 C  
BRANCH  24  25
HETATM   25  C   UNL     1     -11.259   6.292  69.378  1.00  0.00    -0.489 C  
BRANCH  25  26
HETATM   26  C   UNL     1     -10.562   5.487  70.450  1.00  0.00    -0.350 C  
BRANCH  26  27
HETATM   27  C   UNL     1     -10.696   6.205  71.781  1.00  0.00    -0.289 C  
BRANCH  27  28
HETATM   28  C   UNL     1     -12.041   6.897  71.852  1.00  0.00    -0.370 C  
BRANCH  28  29
HETATM   29  C   UNL     1     -11.870   8.318  72.352  1.00  0.00    -0.461 C  
BRANCH  29  30
HETATM   30  C   UNL     1     -13.178   9.069  72.196  1.00  0.00    -0.504 C  
BRANCH  30  31
HETATM   31  C   UNL     1     -12.939  10.423  71.558  1.00  0.00    -0.562 C  
BRANCH  31  32
HETATM   32  C   UNL     1     -11.863  10.311  70.494  1.00  0.00    -0.419 C  
BRANCH  32  33
HETATM   33  C   UNL     1     -12.248  11.128  69.272  1.00  0.00    -0.295 C  
BRANCH  33  34
HETATM   34  C   UNL     1     -11.184  10.995  68.193  1.00  0.00    -0.364 C  
BRANCH  34  35
HETATM   35  C   UNL     1      -9.890  11.661  68.642  1.00  0.00    -0.173 C  
BRANCH  35  36
HETATM   36  C   UNL     1      -8.685  10.971  68.017  1.00  0.00    -0.138 C  
BRANCH  36  37
HETATM   37  C   UNL     1      -7.756  11.996  67.375  1.00  0.00    -0.162 C  
BRANCH  37  38
HETATM   38  C   UNL     1      -8.412  13.371  67.323  1.00  0.00    -0.205 C  
HETATM   39  C   UNL     1      -7.415  14.462  67.675  1.00  0.00    -0.191 C  
ENDBRANCH  37  38
ENDBRANCH  36  37
ENDBRANCH  35  36
ENDBRANCH  34  35
ENDBRANCH  33  34
ENDBRANCH  32  33
ENDBRANCH  31  32
ENDBRANCH  30  31
ENDBRANCH  29  30
ENDBRANCH  28  29
ENDBRANCH  27  28
ENDBRANCH  26  27
ENDBRANCH  25  26
ENDBRANCH  24  25
ENDBRANCH  23  24
ENDBRANCH  22  23
ENDBRANCH  19  22
ENDBRANCH  18  19
ENDBRANCH  17  18
ENDBRANCH  16  17
ENDBRANCH  15  16
ENDBRANCH  14  15
ENDBRANCH  13  14
ENDBRANCH  12  13
ENDBRANCH  11  12
ENDBRANCH  10  11
ENDBRANCH   9  10
ENDBRANCH   8   9
ENDBRANCH   7   8
ENDBRANCH   6   7
ENDBRANCH   5   6
ENDBRANCH   4   5
ENDBRANCH   3   4
ENDBRANCH   2   3
TORSDOF 34
ENDMDL
MODEL       17
REMARK 921   NORMALIZED FREE ENERGY PREDICTED BY IDOCK:   -4.03 KCAL/MOL
REMARK 922        TOTAL FREE ENERGY PREDICTED BY IDOCK:  -18.36 KCAL/MOL
REMARK 923 INTER-LIGAND FREE ENERGY PREDICTED BY IDOCK:  -12.30 KCAL/MOL
REMARK 924 INTRA-LIGAND FREE ENERGY PREDICTED BY IDOCK:   -6.05 KCAL/MOL
REMARK 927      BINDING AFFINITY PREDICTED BY RF-SCORE:    0.00 PKD
ROOT
HETATM    1  C   UNL     1     -12.997  15.866  73.434  1.00  0.00    -0.693 C  
HETATM    2  C   UNL     1     -13.909  15.003  72.580  1.00  0.00    -0.571 C  
ENDROOT
BRANCH   2   3
HETATM    3  C   UNL     1     -13.427  14.959  71.138  1.00  0.00    -0.474 C  
BRANCH   3   4
HETATM    4  C   UNL     1     -12.179  15.817  70.949  1.00  0.00    -0.458 C  
BRANCH   4   5
HETATM    5  C   UNL     1     -11.716  15.782  69.498  1.00  0.00    -0.369 C  
BRANCH   5   6
HETATM    6  C   UNL     1     -10.586  16.776  69.273  1.00  0.00    -0.336 C  
BRANCH   6   7
HETATM    7  C   UNL     1     -10.303  16.922  67.785  1.00  0.00    -0.327 C  
BRANCH   7   8
HETATM    8  C   UNL     1     -10.933  15.772  67.016  1.00  0.00    -0.221 C  
BRANCH   8   9
HETATM    9  C   UNL     1     -10.144  15.495  65.747  1.00  0.00    -0.388 C  
BRANCH   9  10
HETATM   10  C   UNL     1     -10.972  14.647  64.799  1.00  0.00    -0.399 C  
BRANCH  10  11
HETATM   11  C   UNL     1     -12.172  14.067  65.525  1.00  0.00    -0.455 C  
BRANCH  11  12
HETATM   12  C   UNL     1     -12.186  12.561  65.351  1.00  0.00    -0.475 C  
BRANCH  12  13
HETATM   13  C   UNL     1     -11.312  11.906  66.400  1.00  0.00    -0.400 C  
BRANCH  13  14
HETATM   14  C   UNL     1     -11.653  12.466  67.769  1.00  0.00    -0.413 C  
BRANCH  14  15
HETATM   15  C   UNL     1     -11.830  11.323  68.741  1.00  0.00    -0.396 C  
BRANCH  15  16
HETATM   16  C   UNL     1     -11.850  11.826  70.175  1.00  0.00    -0.408 C  
BRANCH  16  17
HETATM   17  C   UNL     1     -12.646  10.831  70.997  1.00  0.00    -0.520 C  
BRANCH  17  18
HETATM   18  C   UNL     1     -12.112   9.420  70.836  1.00  0.00    -0.255 C  
BRANCH  18  19
HETATM   19  N   UNL     1     -12.741   8.440  71.849  1.00  0.00    -0.339 N  
HETATM   20  C   UNL     1     -13.812   9.149  72.683  1.00  0.00    -0.344 C  
HETATM   21  C   UNL     1     -13.358   7.244  71.121  1.00  0.00    -0.181 C  
BRANCH  19  22
HETATM   22  C   UNL     1     -11.577   7.978  72.753  1.00  0.00    -0.327 C  
BRANCH  22  23
HETATM   23  C   UNL     1     -11.344   6.483  72.667  1.00  0.00    -0.259 C  
BRANCH  23  24
HETATM   24  C   UNL     1     -10.405   5.999  73.756  1.00  0.00    -0.277 C  
BRANCH  24  25
HETATM   25  C   UNL     1      -9.091   5.623  73.093  1.00  0.00    -0.126 C  
BRANCH  25  26
HETATM   26  C   UNL     1      -9.330   4.956  71.758  1.00  0.00    -0.185 C  
BRANCH  26  27
HETATM   27  C   UNL     1      -8.235   5.369  70.790  1.00  0.00    -0.115 C  
BRANCH  27  28
HETATM   28  C   UNL     1      -8.851   6.067  69.596  1.00  0.00    -0.133 C  
BRANCH  28  29
HETATM   29  C   UNL     1     -10.188   5.438  69.256  1.00  0.00    -0.315 C  
BRANCH  29  30
HETATM   30  C   UNL     1     -11.116   6.498  68.697  1.00  0.00    -0.348 C  
BRANCH  30  31
HETATM   31  C   UNL     1     -10.699   6.880  67.291  1.00  0.00    -0.421 C  
BRANCH  31  32
HETATM   32  C   UNL     1     -10.456   8.375  67.211  1.00  0.00    -0.373 C  
BRANCH  32  33
HETATM   33  C   UNL     1      -9.234   8.663  66.354  1.00  0.00    -0.245 C  
BRANCH  33  34
HETATM   34  C   UNL     1      -8.398   9.767  66.983  1.00  0.00    -0.117 C  
BRANCH  34  35
HETATM   35  C   UNL     1      -8.635   9.818  68.486  1.00  0.00    -0.120 C  
BRANCH  35  36
HETATM   36  C   UNL     1      -8.051  11.093  69.080  1.00  0.00    -0.078 C  
BRANCH  36  37
HETATM   37  C   UNL     1      -7.509  11.996  67.976  1.00  0.00    -0.113 C  
BRANCH  37  38
HETATM   38  C   UNL     1      -8.233  13.337  67.962  1.00  0.00    -0.162 C  
HETATM   39  C   UNL     1      -7.244  14.488  67.906  1.00  0.00    -0.169 C  
ENDBRANCH  37  38
ENDBRANCH  36  37
ENDBRANCH  35  36
ENDBRANCH  34  35
ENDBRANCH  33  34
ENDBRANCH  32  33
ENDBRANCH  31  32
ENDBRANCH  30  31
ENDBRANCH  29  30
ENDBRANCH  28  29
ENDBRANCH  27  28
ENDBRANCH  26  27
ENDBRANCH  25  26
ENDBRANCH  24  25
ENDBRANCH  23  24
ENDBRANCH  22  23
ENDBRANCH  19  22
ENDBRANCH  18  19
ENDBRANCH  17  18
ENDBRANCH  16  17
ENDBRANCH  15  16
ENDBRANCH  14  15
ENDBRANCH  13  14
ENDBRANCH  12  13
ENDBRANCH  11  12
ENDBRANCH  10  11
ENDBRANCH   9  10
ENDBRANCH   8   9
ENDBRANCH   7   8
ENDBRANCH   6   7
ENDBRANCH   5   6
ENDBRANCH   4   5
ENDBRANCH   3   4
ENDBRANCH   2   3
TORSDOF 34
ENDMDL
MODEL       18
REMARK 921   NORMALIZED FREE ENERGY PREDICTED BY IDOCK:   -4.03 KCAL/MOL
REMARK 922        TOTAL FREE ENERGY PREDICTED BY IDOCK:  -18.36 KCAL/MOL
REMARK 923 INTER-LIGAND FREE ENERGY PREDICTED BY IDOCK:  -12.93 KCAL/MOL
REMARK 924 INTRA-LIGAND FREE ENERGY PREDICTED BY IDOCK:   -5.43 KCAL/MOL
REMARK 927      BINDING AFFINITY PREDICTED BY RF-SCORE:    0.00 PKD
ROOT
HETATM    1  C   UNL     1     -10.526  19.448  65.970  1.00  0.00    -0.596 C  
HETATM    2  C   UNL     1     -10.734  18.932  67.383  1.00  0.00    -0.519 C  
ENDROOT
BRANCH   2   3
HETATM    3  C   UNL     1      -9.937  17.659  67.622  1.00  0.00    -0.323 C  
BRANCH   3   4
HETATM    4  C   UNL     1      -9.096  17.299  66.400  1.00  0.00    -0.281 C  
BRANCH   4   5
HETATM    5  C   UNL     1      -9.331  15.850  65.992  1.00  0.00    -0.385 C  
BRANCH   5   6
HETATM    6  C   UNL     1     -10.550  15.741  65.086  1.00  0.00    -0.436 C  
BRANCH   6   7
HETATM    7  C   UNL     1     -11.624  14.892  65.751  1.00  0.00    -0.234 C  
BRANCH   7   8
HETATM    8  C   UNL     1     -12.470  14.196  64.697  1.00  0.00    -0.375 C  
BRANCH   8   9
HETATM    9  C   UNL     1     -12.429  12.691  64.900  1.00  0.00    -0.564 C  
BRANCH   9  10
HETATM   10  C   UNL     1     -12.069  12.004  63.596  1.00  0.00    -0.627 C  
BRANCH  10  11
HETATM   11  C   UNL     1     -10.612  11.580  63.610  1.00  0.00    -0.491 C  
BRANCH  11  12
HETATM   12  C   UNL     1     -10.234  11.120  65.005  1.00  0.00    -0.354 C  
BRANCH  12  13
HETATM   13  C   UNL     1      -9.325   9.912  64.928  1.00  0.00    -0.329 C  
BRANCH  13  14
HETATM   14  C   UNL     1      -9.780   8.868  65.932  1.00  0.00    -0.259 C  
BRANCH  14  15
HETATM   15  C   UNL     1     -10.238   9.562  67.194  1.00  0.00    -0.305 C  
BRANCH  15  16
HETATM   16  C   UNL     1      -9.435   9.092  68.395  1.00  0.00    -0.154 C  
BRANCH  16  17
HETATM   17  C   UNL     1      -8.001   9.542  68.191  1.00  0.00    -0.094 C  
BRANCH  17  18
HETATM   18  C   UNL     1      -7.622  10.653  69.152  1.00  0.00    -0.131 C  
BRANCH  18  19
HETATM   19  N   UNL     1      -6.990  11.860  68.426  1.00  0.00    -0.072 N  
HETATM   20  C   UNL     1      -5.605  12.165  69.004  1.00  0.00    -0.059 C  
HETATM   21  C   UNL     1      -6.877  11.581  66.926  1.00  0.00    -0.138 C  
BRANCH  19  22
HETATM   22  C   UNL     1      -7.950  13.043  68.683  1.00  0.00    -0.027 C  
BRANCH  22  23
HETATM   23  C   UNL     1      -9.162  13.005  67.773  1.00  0.00    -0.200 C  
BRANCH  23  24
HETATM   24  C   UNL     1     -10.451  12.876  68.563  1.00  0.00    -0.260 C  
BRANCH  24  25
HETATM   25  C   UNL     1     -11.036  14.269  68.712  1.00  0.00    -0.276 C  
BRANCH  25  26
HETATM   26  C   UNL     1     -10.660  14.876  70.044  1.00  0.00    -0.113 C  
BRANCH  26  27
HETATM   27  C   UNL     1     -11.544  16.080  70.313  1.00  0.00    -0.335 C  
BRANCH  27  28
HETATM   28  C   UNL     1     -12.408  15.815  71.527  1.00  0.00    -0.514 C  
BRANCH  28  29
HETATM   29  C   UNL     1     -13.782  15.342  71.096  1.00  0.00    -0.519 C  
BRANCH  29  30
HETATM   30  C   UNL     1     -14.306  14.332  72.098  1.00  0.00    -0.608 C  
BRANCH  30  31
HETATM   31  C   UNL     1     -13.232  13.319  72.440  1.00  0.00    -0.539 C  
BRANCH  31  32
HETATM   32  C   UNL     1     -12.974  12.416  71.249  1.00  0.00    -0.297 C  
BRANCH  32  33
HETATM   33  C   UNL     1     -13.078  10.958  71.663  1.00  0.00    -0.538 C  
BRANCH  33  34
HETATM   34  C   UNL     1     -12.180  10.096  70.789  1.00  0.00    -0.434 C  
BRANCH  34  35
HETATM   35  C   UNL     1     -11.362   9.144  71.650  1.00  0.00    -0.446 C  
BRANCH  35  36
HETATM   36  C   UNL     1     -11.598   7.700  71.228  1.00  0.00    -0.302 C  
BRANCH  36  37
HETATM   37  C   UNL     1     -10.957   6.740  72.225  1.00  0.00    -0.276 C  
BRANCH  37  38
HETATM   38  C   UNL     1     -10.465   5.476  71.529  1.00  0.00    -0.298 C  
HETATM   39  C   UNL     1      -9.704   5.816  70.259  1.00  0.00    -0.223 C  
ENDBRANCH  37  38
ENDBRANCH  36  37
ENDBRANCH  35  36
ENDBRANCH  34  35
ENDBRANCH  33  34
ENDBRANCH  32  33
ENDBRANCH  31  32
ENDBRANCH  30  31
ENDBRANCH  29  30
ENDBRANCH  28  29
ENDBRANCH  27  28
ENDBRANCH  26  27
ENDBRANCH  25  26
ENDBRANCH  24  25
ENDBRANCH  23  24
ENDBRANCH  22  23
ENDBRANCH  19  22
ENDBRANCH  18  19
ENDBRANCH  17  18
ENDBRANCH  16  17
ENDBRANCH  15  16
ENDBRANCH  14  15
ENDBRANCH  13  14
ENDBRANCH  12  13
ENDBRANCH  11  12
ENDBRANCH  10  11
ENDBRANCH   9  10
ENDBRANCH   8   9
ENDBRANCH   7   8
ENDBRANCH   6   7
ENDBRANCH   5   6
ENDBRANCH   4   5
ENDBRANCH   3   4
ENDBRANCH   2   3
TORSDOF 34
ENDMDL
MODEL       19
REMARK 921   NORMALIZED FREE ENERGY PREDICTED BY IDOCK:   -4.02 KCAL/MOL
REMARK 922        TOTAL FREE ENERGY PREDICTED BY IDOCK:  -18.34 KCAL/MOL
REMARK 923 INTER-LIGAND FREE ENERGY PREDICTED BY IDOCK:  -12.65 KCAL/MOL
REMARK 924 INTRA-LIGAND FREE ENERGY PREDICTED BY IDOCK:   -5.69 KCAL/MOL
REMARK 927      BINDING AFFINITY PREDICTED BY RF-SCORE:    0.00 PKD
ROOT
HETATM    1  C   UNL     1     -10.494   8.278  69.143  1.00  0.00    -0.217 C  
HETATM    2  C   UNL     1     -10.011   9.320  70.137  1.00  0.00    -0.251 C  
ENDROOT
BRANCH   2   3
HETATM    3  C   UNL     1     -11.133  10.277  70.513  1.00  0.00    -0.381 C  
BRANCH   3   4
HETATM    4  C   UNL     1     -12.248   9.550  71.261  1.00  0.00    -0.433 C  
BRANCH   4   5
HETATM    5  C   UNL     1     -13.225  10.547  71.870  1.00  0.00    -0.526 C  
BRANCH   5   6
HETATM    6  C   UNL     1     -12.915  11.960  71.393  1.00  0.00    -0.385 C  
BRANCH   6   7
HETATM    7  C   UNL     1     -13.507  12.980  72.355  1.00  0.00    -0.615 C  
BRANCH   7   8
HETATM    8  C   UNL     1     -13.982  14.206  71.592  1.00  0.00    -0.434 C  
BRANCH   8   9
HETATM    9  C   UNL     1     -13.669  15.468  72.379  1.00  0.00    -0.655 C  
BRANCH   9  10
HETATM   10  C   UNL     1     -12.356  16.060  71.904  1.00  0.00    -0.516 C  
BRANCH  10  11
HETATM   11  C   UNL     1     -12.124  15.721  70.443  1.00  0.00    -0.399 C  
BRANCH  11  12
HETATM   12  C   UNL     1     -10.858  16.403  69.962  1.00  0.00    -0.306 C  
BRANCH  12  13
HETATM   13  C   UNL     1      -9.808  15.370  69.615  1.00  0.00    -0.263 C  
BRANCH  13  14
HETATM   14  C   UNL     1      -8.529  16.067  69.187  1.00  0.00    -0.247 C  
BRANCH  14  15
HETATM   15  C   UNL     1      -7.350  15.382  69.840  1.00  0.00    -0.041 C  
BRANCH  15  16
HETATM   16  C   UNL     1      -6.079  15.608  69.039  1.00  0.00    -0.107 C  
BRANCH  16  17
HETATM   17  C   UNL     1      -5.412  14.258  68.852  1.00  0.00    -0.086 C  
BRANCH  17  18
HETATM   18  C   UNL     1      -5.736  13.658  67.497  1.00  0.00     0.069 C  
BRANCH  18  19
HETATM   19  N   UNL     1      -6.639  12.411  67.614  1.00  0.00    -0.114 N  
HETATM   20  C   UNL     1      -6.193  11.333  66.622  1.00  0.00    -0.141 C  
HETATM   21  C   UNL     1      -6.597  11.855  69.039  1.00  0.00    -0.091 C  
BRANCH  19  22
HETATM   22  C   UNL     1      -8.063  12.901  67.270  1.00  0.00    -0.163 C  
BRANCH  22  23
HETATM   23  C   UNL     1      -9.135  12.021  67.882  1.00  0.00    -0.183 C  
BRANCH  23  24
HETATM   24  C   UNL     1     -10.528  12.502  67.520  1.00  0.00    -0.231 C  
BRANCH  24  25
HETATM   25  C   UNL     1     -11.254  11.344  66.859  1.00  0.00    -0.331 C  
BRANCH  25  26
HETATM   26  C   UNL     1     -10.407  10.723  65.773  1.00  0.00    -0.295 C  
BRANCH  26  27
HETATM   27  C   UNL     1     -10.539  11.545  64.503  1.00  0.00    -0.387 C  
BRANCH  27  28
HETATM   28  C   UNL     1     -11.984  11.957  64.313  1.00  0.00    -0.353 C  
BRANCH  28  29
HETATM   29  C   UNL     1     -12.054  13.335  63.686  1.00  0.00    -0.551 C  
BRANCH  29  30
HETATM   30  C   UNL     1     -12.074  14.386  64.779  1.00  0.00    -0.462 C  
BRANCH  30  31
HETATM   31  C   UNL     1     -10.718  15.050  64.900  1.00  0.00    -0.420 C  
BRANCH  31  32
HETATM   32  C   UNL     1     -10.645  15.849  66.188  1.00  0.00    -0.310 C  
BRANCH  32  33
HETATM   33  C   UNL     1      -9.869  17.136  65.964  1.00  0.00    -0.239 C  
BRANCH  33  34
HETATM   34  C   UNL     1     -10.604  18.311  66.589  1.00  0.00    -0.324 C  
BRANCH  34  35
HETATM   35  C   UNL     1     -10.001  19.625  66.114  1.00  0.00    -0.554 C  
BRANCH  35  36
HETATM   36  C   UNL     1      -9.646  20.513  67.300  1.00  0.00    -0.580 C  
BRANCH  36  37
HETATM   37  C   UNL     1      -8.949  19.700  68.386  1.00  0.00    -0.372 C  
BRANCH  37  38
HETATM   38  C   UNL     1      -7.459  19.560  68.094  1.00  0.00    -0.335 C  
HETATM   39  C   UNL     1      -6.911  20.821  67.448  1.00  0.00    -0.418 C  
ENDBRANCH  37  38
ENDBRANCH  36  37
ENDBRANCH  35  36
ENDBRANCH  34  35
ENDBRANCH  33  34
ENDBRANCH  32  33
ENDBRANCH  31  32
ENDBRANCH  30  31
ENDBRANCH  29  30
ENDBRANCH  28  29
ENDBRANCH  27  28
ENDBRANCH  26  27
ENDBRANCH  25  26
ENDBRANCH  24  25
ENDBRANCH  23  24
ENDBRANCH  22  23
ENDBRANCH  19  22
ENDBRANCH  18  19
ENDBRANCH  17  18
ENDBRANCH  16  17
ENDBRANCH  15  16
ENDBRANCH  14  15
ENDBRANCH  13  14
ENDBRANCH  12  13
ENDBRANCH  11  12
ENDBRANCH  10  11
ENDBRANCH   9  10
ENDBRANCH   8   9
ENDBRANCH   7   8
ENDBRANCH   6   7
ENDBRANCH   5   6
ENDBRANCH   4   5
ENDBRANCH   3   4
ENDBRANCH   2   3
TORSDOF 34
ENDMDL
MODEL       20
REMARK 921   NORMALIZED FREE ENERGY PREDICTED BY IDOCK:   -4.01 KCAL/MOL
REMARK 922        TOTAL FREE ENERGY PREDICTED BY IDOCK:  -18.31 KCAL/MOL
REMARK 923 INTER-LIGAND FREE ENERGY PREDICTED BY IDOCK:  -12.01 KCAL/MOL
REMARK 924 INTRA-LIGAND FREE ENERGY PREDICTED BY IDOCK:   -6.29 KCAL/MOL
REMARK 927      BINDING AFFINITY PREDICTED BY RF-SCORE:    0.00 PKD
ROOT
HETATM    1  C   UNL     1      -7.768  10.101  64.058  1.00  0.00    -0.136 C  
HETATM    2  C   UNL     1      -9.242   9.747  64.144  1.00  0.00    -0.277 C  
ENDROOT
BRANCH   2   3
HETATM    3  C   UNL     1     -10.031  10.851  64.832  1.00  0.00    -0.361 C  
BRANCH   3   4
HETATM    4  C   UNL     1      -9.943  12.159  64.049  1.00  0.00    -0.301 C  
BRANCH   4   5
HETATM    5  C   UNL     1     -11.323  12.783  63.887  1.00  0.00    -0.498 C  
BRANCH   5   6
HETATM    6  C   UNL     1     -12.171  12.534  65.127  1.00  0.00    -0.509 C  
BRANCH   6   7
HETATM    7  C   UNL     1     -12.686  13.853  65.684  1.00  0.00    -0.534 C  
BRANCH   7   8
HETATM    8  C   UNL     1     -12.124  14.091  67.076  1.00  0.00    -0.455 C  
BRANCH   8   9
HETATM    9  C   UNL     1     -11.220  15.311  67.075  1.00  0.00    -0.275 C  
BRANCH   9  10
HETATM   10  C   UNL     1     -11.304  16.017  68.415  1.00  0.00    -0.355 C  
BRANCH  10  11
HETATM   11  C   UNL     1     -10.988  15.049  69.541  1.00  0.00    -0.281 C  
BRANCH  11  12
HETATM   12  C   UNL     1     -11.672  15.513  70.812  1.00  0.00    -0.397 C  
BRANCH  12  13
HETATM   13  C   UNL     1     -12.463  14.376  71.424  1.00  0.00    -0.433 C  
BRANCH  13  14
HETATM   14  C   UNL     1     -12.219  13.103  70.634  1.00  0.00    -0.402 C  
BRANCH  14  15
HETATM   15  C   UNL     1     -12.934  11.956  71.311  1.00  0.00    -0.334 C  
BRANCH  15  16
HETATM   16  C   UNL     1     -12.435  10.620  70.789  1.00  0.00    -0.480 C  
BRANCH  16  17
HETATM   17  C   UNL     1     -12.492   9.630  71.937  1.00  0.00    -0.459 C  
BRANCH  17  18
HETATM   18  C   UNL     1     -11.390   8.593  71.836  1.00  0.00    -0.347 C  
BRANCH  18  19
HETATM   19  N   UNL     1     -11.935   7.199  71.459  1.00  0.00    -0.306 N  
HETATM   20  C   UNL     1     -11.334   6.126  72.371  1.00  0.00    -0.296 C  
HETATM   21  C   UNL     1     -13.461   7.178  71.566  1.00  0.00    -0.332 C  
BRANCH  19  22
HETATM   22  C   UNL     1     -11.495   6.967  69.996  1.00  0.00    -0.277 C  
BRANCH  22  23
HETATM   23  C   UNL     1     -10.488   7.999  69.530  1.00  0.00    -0.226 C  
BRANCH  23  24
HETATM   24  C   UNL     1     -10.561   8.214  68.030  1.00  0.00    -0.188 C  
BRANCH  24  25
HETATM   25  C   UNL     1      -9.137   8.329  67.515  1.00  0.00    -0.148 C  
BRANCH  25  26
HETATM   26  C   UNL     1      -8.167   8.556  68.650  1.00  0.00    -0.122 C  
BRANCH  26  27
HETATM   27  C   UNL     1      -6.929   9.257  68.118  1.00  0.00    -0.076 C  
BRANCH  27  28
HETATM   28  C   UNL     1      -7.295  10.652  67.656  1.00  0.00    -0.090 C  
BRANCH  28  29
HETATM   29  C   UNL     1      -8.044  11.384  68.752  1.00  0.00    -0.112 C  
BRANCH  29  30
HETATM   30  C   UNL     1      -9.036  12.347  68.130  1.00  0.00    -0.200 C  
BRANCH  30  31
HETATM   31  C   UNL     1      -8.322  13.333  67.227  1.00  0.00    -0.182 C  
BRANCH  31  32
HETATM   32  C   UNL     1      -7.719  14.452  68.055  1.00  0.00    -0.140 C  
BRANCH  32  33
HETATM   33  C   UNL     1      -7.298  15.602  67.155  1.00  0.00    -0.247 C  
BRANCH  33  34
HETATM   34  C   UNL     1      -6.735  16.743  67.988  1.00  0.00    -0.151 C  
BRANCH  34  35
HETATM   35  C   UNL     1      -7.865  17.539  68.626  1.00  0.00    -0.272 C  
BRANCH  35  36
HETATM   36  C   UNL     1      -8.627  18.330  67.571  1.00  0.00    -0.253 C  
BRANCH  36  37
HETATM   37  C   UNL     1      -9.572  19.329  68.232  1.00  0.00    -0.438 C  
BRANCH  37  38
HETATM   38  C   UNL     1     -10.791  19.591  67.355  1.00  0.00    -0.536 C  
HETATM   39  C   UNL     1     -10.414  19.581  65.884  1.00  0.00    -0.585 C  
ENDBRANCH  37  38
ENDBRANCH  36  37
ENDBRANCH  35  36
ENDBRANCH  34  35
ENDBRANCH  33  34
ENDBRANCH  32  33
ENDBRANCH  31  32
ENDBRANCH  30  31
ENDBRANCH  29  30
ENDBRANCH  28  29
ENDBRANCH  27  28
ENDBRANCH  26  27
ENDBRANCH  25  26
ENDBRANCH  24  25
ENDBRANCH  23  24
ENDBRANCH  22  23
ENDBRANCH  19  22
ENDBRANCH  18  19
ENDBRANCH  17  18
ENDBRANCH  16  17
ENDBRANCH  15  16
ENDBRANCH  14  15
ENDBRANCH  13  14
ENDBRANCH  12  13
ENDBRANCH  11  12
ENDBRANCH  10  11
ENDBRANCH   9  10
ENDBRANCH   8   9
ENDBRANCH   7   8
ENDBRANCH   6   7
ENDBRANCH   5   6
ENDBRANCH   4   5
ENDBRANCH   3   4
ENDBRANCH   2   3
TORSDOF 34
ENDMDL
MODEL       21
REMARK 921   NORMALIZED FREE ENERGY PREDICTED BY IDOCK:   -4.00 KCAL/MOL
REMARK 922        TOTAL FREE ENERGY PREDICTED BY IDOCK:  -18.28 KCAL/MOL
REMARK 923 INTER-LIGAND FREE ENERGY PREDICTED BY IDOCK:  -12.53 KCAL/MOL
REMARK 924 INTRA-LIGAND FREE ENERGY PREDICTED BY IDOCK:   -5.75 KCAL/MOL
REMARK 927      BINDING AFFINITY PREDICTED BY RF-SCORE:    0.00 PKD
ROOT
HETATM    1  C   UNL     1     -11.746  11.805  68.409  1.00  0.00    -0.389 C  
HETATM    2  C   UNL     1     -12.018  11.788  69.903  1.00  0.00    -0.405 C  
ENDROOT
BRANCH   2   3
HETATM    3  C   UNL     1     -12.784  10.536  70.304  1.00  0.00    -0.255 C  
BRANCH   3   4
HETATM    4  C   UNL     1     -12.928  10.443  71.821  1.00  0.00    -0.580 C  
BRANCH   4   5
HETATM    5  C   UNL     1     -13.393   9.052  72.232  1.00  0.00    -0.523 C  
BRANCH   5   6
HETATM    6  C   UNL     1     -12.235   8.066  72.189  1.00  0.00    -0.377 C  
BRANCH   6   7
HETATM    7  C   UNL     1     -12.468   7.030  71.098  1.00  0.00    -0.407 C  
BRANCH   7   8
HETATM    8  C   UNL     1     -11.297   6.062  71.035  1.00  0.00    -0.299 C  
BRANCH   8   9
HETATM    9  C   UNL     1     -10.948   5.569  72.429  1.00  0.00    -0.310 C  
BRANCH   9  10
HETATM   10  C   UNL     1      -9.594   4.885  72.411  1.00  0.00    -0.183 C  
BRANCH  10  11
HETATM   11  C   UNL     1      -8.484   5.918  72.347  1.00  0.00    -0.117 C  
BRANCH  11  12
HETATM   12  C   UNL     1      -8.647   6.903  73.488  1.00  0.00    -0.152 C  
BRANCH  12  13
HETATM   13  C   UNL     1      -8.564   8.323  72.967  1.00  0.00    -0.275 C  
BRANCH  13  14
HETATM   14  C   UNL     1      -8.277   8.303  71.477  1.00  0.00    -0.164 C  
BRANCH  14  15
HETATM   15  C   UNL     1      -9.139   9.339  70.793  1.00  0.00    -0.306 C  
BRANCH  15  16
HETATM   16  C   UNL     1      -9.619   8.839  69.440  1.00  0.00    -0.163 C  
BRANCH  16  17
HETATM   17  C   UNL     1      -8.602   9.279  68.404  1.00  0.00    -0.124 C  
BRANCH  17  18
HETATM   18  C   UNL     1      -9.245   9.489  67.046  1.00  0.00    -0.139 C  
BRANCH  18  19
HETATM   19  N   UNL     1      -8.471  10.513  66.188  1.00  0.00    -0.147 N  
HETATM   20  C   UNL     1      -8.561  11.909  66.812  1.00  0.00    -0.181 C  
HETATM   21  C   UNL     1      -7.004  10.097  66.057  1.00  0.00    -0.117 C  
BRANCH  19  22
HETATM   22  C   UNL     1      -9.161  10.498  64.806  1.00  0.00    -0.211 C  
BRANCH  22  23
HETATM   23  C   UNL     1     -10.496  11.214  64.825  1.00  0.00    -0.388 C  
BRANCH  23  24
HETATM   24  C   UNL     1     -10.914  11.655  63.434  1.00  0.00    -0.442 C  
BRANCH  24  25
HETATM   25  C   UNL     1     -11.853  12.837  63.593  1.00  0.00    -0.603 C  
BRANCH  25  26
HETATM   26  C   UNL     1     -12.558  12.795  64.929  1.00  0.00    -0.541 C  
BRANCH  26  27
HETATM   27  C   UNL     1     -12.502  14.171  65.568  1.00  0.00    -0.495 C  
BRANCH  27  28
HETATM   28  C   UNL     1     -11.500  15.034  64.829  1.00  0.00    -0.403 C  
BRANCH  28  29
HETATM   29  C   UNL     1     -10.486  15.603  65.801  1.00  0.00    -0.383 C  
BRANCH  29  30
HETATM   30  C   UNL     1     -10.822  15.145  67.207  1.00  0.00    -0.316 C  
BRANCH  30  31
HETATM   31  C   UNL     1     -10.548  16.252  68.205  1.00  0.00    -0.307 C  
BRANCH  31  32
HETATM   32  C   UNL     1     -10.751  17.604  67.547  1.00  0.00    -0.294 C  
BRANCH  32  33
HETATM   33  C   UNL     1     -10.149  18.702  68.408  1.00  0.00    -0.426 C  
BRANCH  33  34
HETATM   34  C   UNL     1     -10.097  20.010  67.633  1.00  0.00    -0.562 C  
BRANCH  34  35
HETATM   35  C   UNL     1      -8.973  19.972  66.607  1.00  0.00    -0.446 C  
BRANCH  35  36
HETATM   36  C   UNL     1      -7.628  20.225  67.275  1.00  0.00    -0.348 C  
BRANCH  36  37
HETATM   37  C   UNL     1      -6.568  19.282  66.715  1.00  0.00    -0.197 C  
BRANCH  37  38
HETATM   38  C   UNL     1      -7.210  18.051  66.084  1.00  0.00    -0.325 C  
HETATM   39  C   UNL     1      -7.106  16.850  67.008  1.00  0.00    -0.234 C  
ENDBRANCH  37  38
ENDBRANCH  36  37
ENDBRANCH  35  36
ENDBRANCH  34  35
ENDBRANCH  33  34
ENDBRANCH  32  33
ENDBRANCH  31  32
ENDBRANCH  30  31
ENDBRANCH  29  30
ENDBRANCH  28  29
ENDBRANCH  27  28
ENDBRANCH  26  27
ENDBRANCH  25  26
ENDBRANCH  24  25
ENDBRANCH  23  24
ENDBRANCH  22  23
ENDBRANCH  19  22
ENDBRANCH  18  19
ENDBRANCH  17  18
ENDBRANCH  16  17
ENDBRANCH  15  16
ENDBRANCH  14  15
ENDBRANCH  13  14
ENDBRANCH  12  13
ENDBRANCH  11  12
ENDBRANCH  10  11
ENDBRANCH   9  10
ENDBRANCH   8   9
ENDBRANCH   7   8
ENDBRANCH   6   7
ENDBRANCH   5   6
ENDBRANCH   4   5
ENDBRANCH   3   4
ENDBRANCH   2   3
TORSDOF 34
ENDMDL
MODEL       22
REMARK 921   NORMALIZED FREE ENERGY PREDICTED BY IDOCK:   -3.99 KCAL/MOL
REMARK 922        TOTAL FREE ENERGY PREDICTED BY IDOCK:  -18.25 KCAL/MOL
REMARK 923 INTER-LIGAND FREE ENERGY PREDICTED BY IDOCK:  -11.64 KCAL/MOL
REMARK 924 INTRA-LIGAND FREE ENERGY PREDICTED BY IDOCK:   -6.62 KCAL/MOL
REMARK 927      BINDING AFFINITY PREDICTED BY RF-SCORE:    0.00 PKD
ROOT
HETATM    1  C   UNL     1      -6.267  10.304  62.446  1.00  0.00    -0.129 C  
HETATM    2  C   UNL     1      -6.271   8.912  63.053  1.00  0.00    -0.090 C  
ENDROOT
BRANCH   2   3
HETATM    3  C   UNL     1      -5.928   8.960  64.534  1.00  0.00    -0.065 C  
BRANCH   3   4
HETATM    4  C   UNL     1      -7.077   9.555  65.345  1.00  0.00    -0.095 C  
BRANCH   4   5
HETATM    5  C   UNL     1      -8.314   8.671  65.254  1.00  0.00    -0.177 C  
BRANCH   5   6
HETATM    6  C   UNL     1      -9.560   9.516  65.029  1.00  0.00    -0.218 C  
BRANCH   6   7
HETATM    7  C   UNL     1      -9.169  10.930  64.626  1.00  0.00    -0.223 C  
BRANCH   7   8
HETATM    8  C   UNL     1      -9.934  11.353  63.382  1.00  0.00    -0.435 C  
BRANCH   8   9
HETATM    9  C   UNL     1     -11.120  12.222  63.766  1.00  0.00    -0.507 C  
BRANCH   9  10
HETATM   10  C   UNL     1     -10.631  13.526  64.369  1.00  0.00    -0.394 C  
BRANCH  10  11
HETATM   11  C   UNL     1     -11.499  13.918  65.550  1.00  0.00    -0.319 C  
BRANCH  11  12
HETATM   12  C   UNL     1     -12.128  12.674  66.147  1.00  0.00    -0.399 C  
BRANCH  12  13
HETATM   13  C   UNL     1     -11.845  12.607  67.633  1.00  0.00    -0.390 C  
BRANCH  13  14
HETATM   14  C   UNL     1     -11.176  11.285  67.965  1.00  0.00    -0.351 C  
BRANCH  14  15
HETATM   15  C   UNL     1      -9.702  11.522  68.202  1.00  0.00    -0.192 C  
BRANCH  15  16
HETATM   16  C   UNL     1      -9.018  10.254  68.682  1.00  0.00    -0.144 C  
BRANCH  16  17
HETATM   17  C   UNL     1     -10.076   9.170  68.772  1.00  0.00    -0.212 C  
BRANCH  17  18
HETATM   18  C   UNL     1      -9.595   7.986  69.589  1.00  0.00    -0.168 C  
BRANCH  18  19
HETATM   19  N   UNL     1     -10.603   7.589  70.688  1.00  0.00    -0.221 N  
HETATM   20  C   UNL     1     -11.398   6.352  70.262  1.00  0.00    -0.403 C  
HETATM   21  C   UNL     1      -9.875   7.310  72.005  1.00  0.00    -0.161 C  
BRANCH  19  22
HETATM   22  C   UNL     1     -11.545   8.805  70.841  1.00  0.00    -0.277 C  
BRANCH  22  23
HETATM   23  C   UNL     1     -12.540   8.619  71.969  1.00  0.00    -0.434 C  
BRANCH  23  24
HETATM   24  C   UNL     1     -13.481   9.804  72.086  1.00  0.00    -0.491 C  
BRANCH  24  25
HETATM   25  C   UNL     1     -12.903  10.930  71.247  1.00  0.00    -0.536 C  
BRANCH  25  26
HETATM   26  C   UNL     1     -13.162  12.273  71.889  1.00  0.00    -0.481 C  
BRANCH  26  27
HETATM   27  C   UNL     1     -12.447  13.353  71.096  1.00  0.00    -0.414 C  
BRANCH  27  28
HETATM   28  C   UNL     1     -12.354  14.616  71.927  1.00  0.00    -0.410 C  
BRANCH  28  29
HETATM   29  C   UNL     1     -11.517  15.654  71.207  1.00  0.00    -0.469 C  
BRANCH  29  30
HETATM   30  C   UNL     1     -12.014  15.803  69.782  1.00  0.00    -0.337 C  
BRANCH  30  31
HETATM   31  C   UNL     1     -10.848  15.983  68.831  1.00  0.00    -0.286 C  
BRANCH  31  32
HETATM   32  C   UNL     1      -9.602  15.342  69.411  1.00  0.00    -0.270 C  
BRANCH  32  33
HETATM   33  C   UNL     1      -8.572  15.113  68.317  1.00  0.00    -0.164 C  
BRANCH  33  34
HETATM   34  C   UNL     1      -8.979  15.845  67.048  1.00  0.00    -0.239 C  
BRANCH  34  35
HETATM   35  C   UNL     1      -7.763  16.490  66.397  1.00  0.00    -0.294 C  
BRANCH  35  36
HETATM   36  C   UNL     1      -7.998  17.979  66.177  1.00  0.00    -0.227 C  
BRANCH  36  37
HETATM   37  C   UNL     1      -7.176  18.801  67.164  1.00  0.00    -0.217 C  
BRANCH  37  38
HETATM   38  C   UNL     1      -7.805  18.779  68.552  1.00  0.00    -0.367 C  
HETATM   39  C   UNL     1      -9.176  19.434  68.538  1.00  0.00    -0.429 C  
ENDBRANCH  37  38
ENDBRANCH  36  37
ENDBRANCH  35  36
ENDBRANCH  34  35
ENDBRANCH  33  34
ENDBRANCH  32  33
ENDBRANCH  31  32
ENDBRANCH  30  31
ENDBRANCH  29  30
ENDBRANCH  28  29
ENDBRANCH  27  28
ENDBRANCH  26  27
ENDBRANCH  25  26
ENDBRANCH  24  25
ENDBRANCH  23  24
ENDBRANCH  22  23
ENDBRANCH  19  22
ENDBRANCH  18  19
ENDBRANCH  17  18
ENDBRANCH  16  17
ENDBRANCH  15  16
ENDBRANCH  14  15
ENDBRANCH  13  14
ENDBRANCH  12  13
ENDBRANCH  11  12
ENDBRANCH  10  11
ENDBRANCH   9  10
ENDBRANCH   8   9
ENDBRANCH   7   8
ENDBRANCH   6   7
ENDBRANCH   5   6
ENDBRANCH   4   5
ENDBRANCH   3   4
ENDBRANCH   2   3
TORSDOF 34
ENDMDL
MODEL       23
REMARK 921   NORMALIZED FREE ENERGY PREDICTED BY IDOCK:   -3.98 KCAL/MOL
REMARK 922        TOTAL FREE ENERGY PREDICTED BY IDOCK:  -18.21 KCAL/MOL
REMARK 923 INTER-LIGAND FREE ENERGY PREDICTED BY IDOCK:  -11.46 KCAL/MOL
REMARK 924 INTRA-LIGAND FREE ENERGY PREDICTED BY IDOCK:   -6.75 KCAL/MOL
REMARK 927      BINDING AFFINITY PREDICTED BY RF-SCORE:    0.00 PKD
ROOT
HETATM    1  C   UNL     1     -12.041  12.641  63.384  1.00  0.00    -0.614 C  
HETATM    2  C   UNL     1     -12.419  12.634  64.854  1.00  0.00    -0.564 C  
ENDROOT
BRANCH   2   3
HETATM    3  C   UNL     1     -11.491  13.529  65.662  1.00  0.00    -0.330 C  
BRANCH   3   4
HETATM    4  C   UNL     1     -12.239  14.207  66.806  1.00  0.00    -0.429 C  
BRANCH   4   5
HETATM    5  C   UNL     1     -11.262  14.752  67.840  1.00  0.00    -0.318 C  
BRANCH   5   6
HETATM    6  C   UNL     1     -12.011  15.433  68.977  1.00  0.00    -0.313 C  
BRANCH   6   7
HETATM    7  C   UNL     1     -11.094  15.607  70.179  1.00  0.00    -0.347 C  
BRANCH   7   8
HETATM    8  C   UNL     1     -11.901  15.556  71.467  1.00  0.00    -0.472 C  
BRANCH   8   9
HETATM    9  C   UNL     1     -13.381  15.417  71.153  1.00  0.00    -0.580 C  
BRANCH   9  10
HETATM   10  C   UNL     1     -13.977  14.285  71.969  1.00  0.00    -0.595 C  
BRANCH  10  11
HETATM   11  C   UNL     1     -12.922  13.234  72.259  1.00  0.00    -0.376 C  
BRANCH  11  12
HETATM   12  C   UNL     1     -13.498  11.856  71.997  1.00  0.00    -0.336 C  
BRANCH  12  13
HETATM   13  C   UNL     1     -12.540  11.040  71.154  1.00  0.00    -0.522 C  
BRANCH  13  14
HETATM   14  C   UNL     1     -12.257  11.770  69.854  1.00  0.00    -0.293 C  
BRANCH  14  15
HETATM   15  C   UNL     1     -10.969  11.245  69.262  1.00  0.00    -0.297 C  
BRANCH  15  16
HETATM   16  C   UNL     1     -11.219  10.580  67.919  1.00  0.00    -0.358 C  
BRANCH  16  17
HETATM   17  C   UNL     1      -9.962  10.744  67.087  1.00  0.00    -0.230 C  
BRANCH  17  18
HETATM   18  C   UNL     1      -9.972   9.834  65.873  1.00  0.00    -0.275 C  
BRANCH  18  19
HETATM   19  N   UNL     1      -8.547   9.505  65.381  1.00  0.00    -0.146 N  
HETATM   20  C   UNL     1      -8.381   9.916  63.915  1.00  0.00    -0.172 C  
HETATM   21  C   UNL     1      -7.506  10.222  66.243  1.00  0.00    -0.118 C  
BRANCH  19  22
HETATM   22  C   UNL     1      -8.404   7.973  65.528  1.00  0.00    -0.147 C  
BRANCH  22  23
HETATM   23  C   UNL     1      -9.095   7.451  66.772  1.00  0.00    -0.178 C  
BRANCH  23  24
HETATM   24  C   UNL     1      -9.205   5.937  66.756  1.00  0.00    -0.139 C  
BRANCH  24  25
HETATM   25  C   UNL     1     -10.535   5.570  67.389  1.00  0.00    -0.284 C  
BRANCH  25  26
HETATM   26  C   UNL     1     -11.130   6.749  68.124  1.00  0.00    -0.229 C  
BRANCH  26  27
HETATM   27  C   UNL     1     -11.512   6.321  69.530  1.00  0.00    -0.387 C  
BRANCH  27  28
HETATM   28  C   UNL     1     -11.455   7.516  70.458  1.00  0.00    -0.259 C  
BRANCH  28  29
HETATM   29  C   UNL     1     -10.026   8.005  70.591  1.00  0.00    -0.198 C  
BRANCH  29  30
HETATM   30  C   UNL     1      -9.710   8.250  72.053  1.00  0.00    -0.322 C  
BRANCH  30  31
HETATM   31  C   UNL     1     -10.800   7.672  72.935  1.00  0.00    -0.446 C  
BRANCH  31  32
HETATM   32  C   UNL     1     -10.181   6.938  74.109  1.00  0.00    -0.331 C  
BRANCH  32  33
HETATM   33  C   UNL     1      -9.283   5.817  73.613  1.00  0.00    -0.130 C  
BRANCH  33  34
HETATM   34  C   UNL     1     -10.087   4.538  73.433  1.00  0.00    -0.202 C  
BRANCH  34  35
HETATM   35  C   UNL     1     -10.055   4.095  71.977  1.00  0.00    -0.234 C  
BRANCH  35  36
HETATM   36  C   UNL     1      -8.619   3.948  71.492  1.00  0.00    -0.121 C  
BRANCH  36  37
HETATM   37  C   UNL     1      -8.371   4.838  70.279  1.00  0.00    -0.083 C  
BRANCH  37  38
HETATM   38  C   UNL     1      -7.102   5.665  70.457  1.00  0.00    -0.066 C  
HETATM   39  C   UNL     1      -6.063   4.899  71.258  1.00  0.00    -0.018 C  
ENDBRANCH  37  38
ENDBRANCH  36  37
ENDBRANCH  35  36
ENDBRANCH  34  35
ENDBRANCH  33  34
ENDBRANCH  32  33
ENDBRANCH  31  32
ENDBRANCH  30  31
ENDBRANCH  29  30
ENDBRANCH  28  29
ENDBRANCH  27  28
ENDBRANCH  26  27
ENDBRANCH  25  26
ENDBRANCH  24  25
ENDBRANCH  23  24
ENDBRANCH  22  23
ENDBRANCH  19  22
ENDBRANCH  18  19
ENDBRANCH  17  18
ENDBRANCH  16  17
ENDBRANCH  15  16
ENDBRANCH  14  15
ENDBRANCH  13  14
ENDBRANCH  12  13
ENDBRANCH  11  12
ENDBRANCH  10  11
ENDBRANCH   9  10
ENDBRANCH   8   9
ENDBRANCH   7   8
ENDBRANCH   6   7
ENDBRANCH   5   6
ENDBRANCH   4   5
ENDBRANCH   3   4
ENDBRANCH   2   3
TORSDOF 34
ENDMDL
MODEL       24
REMARK 921   NORMALIZED FREE ENERGY PREDICTED BY IDOCK:   -3.97 KCAL/MOL
REMARK 922        TOTAL FREE ENERGY PREDICTED BY IDOCK:  -18.19 KCAL/MOL
REMARK 923 INTER-LIGAND FREE ENERGY PREDICTED BY IDOCK:  -11.04 KCAL/MOL
REMARK 924 INTRA-LIGAND FREE ENERGY PREDICTED BY IDOCK:   -7.15 KCAL/MOL
REMARK 927      BINDING AFFINITY PREDICTED BY RF-SCORE:    0.00 PKD
ROOT
HETATM    1  C   UNL     1      -6.737   6.132  66.665  1.00  0.00    -0.060 C  
HETATM    2  C   UNL     1      -7.856   5.108  66.735  1.00  0.00    -0.100 C  
ENDROOT
BRANCH   2   3
HETATM    3  C   UNL     1      -9.149   5.674  66.166  1.00  0.00    -0.158 C  
BRANCH   3   4
HETATM    4  C   UNL     1     -10.355   5.220  66.985  1.00  0.00    -0.286 C  
BRANCH   4   5
HETATM    5  C   UNL     1     -11.007   6.405  67.685  1.00  0.00    -0.441 C  
BRANCH   5   6
HETATM    6  C   UNL     1     -10.605   7.710  67.013  1.00  0.00    -0.406 C  
BRANCH   6   7
HETATM    7  C   UNL     1      -9.949   8.641  68.023  1.00  0.00    -0.221 C  
BRANCH   7   8
HETATM    8  C   UNL     1      -8.706   9.276  67.422  1.00  0.00    -0.121 C  
BRANCH   8   9
HETATM    9  C   UNL     1      -7.987  10.113  68.466  1.00  0.00    -0.104 C  
BRANCH   9  10
HETATM   10  C   UNL     1      -8.631  11.483  68.563  1.00  0.00    -0.140 C  
BRANCH  10  11
HETATM   11  C   UNL     1      -8.035  12.418  67.527  1.00  0.00    -0.173 C  
BRANCH  11  12
HETATM   12  C   UNL     1      -8.396  13.850  67.873  1.00  0.00    -0.167 C  
BRANCH  12  13
HETATM   13  C   UNL     1      -7.458  14.809  67.171  1.00  0.00    -0.069 C  
BRANCH  13  14
HETATM   14  C   UNL     1      -8.259  15.929  66.533  1.00  0.00    -0.307 C  
BRANCH  14  15
HETATM   15  C   UNL     1      -9.727  15.566  66.562  1.00  0.00    -0.290 C  
BRANCH  15  16
HETATM   16  C   UNL     1     -10.483  16.270  65.448  1.00  0.00    -0.365 C  
BRANCH  16  17
HETATM   17  C   UNL     1     -11.291  15.219  64.710  1.00  0.00    -0.396 C  
BRANCH  17  18
HETATM   18  C   UNL     1     -10.526  13.915  64.581  1.00  0.00    -0.396 C  
BRANCH  18  19
HETATM   19  N   UNL     1     -11.452  12.685  64.686  1.00  0.00    -0.316 N  
HETATM   20  C   UNL     1     -12.272  12.522  63.403  1.00  0.00    -0.517 C  
HETATM   21  C   UNL     1     -10.629  11.420  64.940  1.00  0.00    -0.307 C  
BRANCH  19  22
HETATM   22  C   UNL     1     -12.383  12.971  65.885  1.00  0.00    -0.368 C  
BRANCH  22  23
HETATM   23  C   UNL     1     -11.788  12.502  67.197  1.00  0.00    -0.386 C  
BRANCH  23  24
HETATM   24  C   UNL     1     -11.967  13.536  68.294  1.00  0.00    -0.377 C  
BRANCH  24  25
HETATM   25  C   UNL     1     -11.951  12.800  69.622  1.00  0.00    -0.354 C  
BRANCH  25  26
HETATM   26  C   UNL     1     -12.089  11.309  69.417  1.00  0.00    -0.384 C  
BRANCH  26  27
HETATM   27  C   UNL     1     -11.750  10.593  70.713  1.00  0.00    -0.435 C  
BRANCH  27  28
HETATM   28  C   UNL     1     -13.006  10.420  71.541  1.00  0.00    -0.562 C  
BRANCH  28  29
HETATM   29  C   UNL     1     -13.152   8.973  71.969  1.00  0.00    -0.474 C  
BRANCH  29  30
HETATM   30  C   UNL     1     -11.962   8.177  71.472  1.00  0.00    -0.334 C  
BRANCH  30  31
HETATM   31  C   UNL     1     -11.426   7.283  72.573  1.00  0.00    -0.322 C  
BRANCH  31  32
HETATM   32  C   UNL     1     -10.049   7.757  73.000  1.00  0.00    -0.382 C  
BRANCH  32  33
HETATM   33  C   UNL     1      -9.358   8.468  71.848  1.00  0.00    -0.337 C  
BRANCH  33  34
HETATM   34  C   UNL     1      -8.067   7.751  71.485  1.00  0.00    -0.107 C  
BRANCH  34  35
HETATM   35  C   UNL     1      -8.311   6.768  70.349  1.00  0.00    -0.130 C  
BRANCH  35  36
HETATM   36  C   UNL     1      -8.282   5.334  70.863  1.00  0.00    -0.112 C  
BRANCH  36  37
HETATM   37  C   UNL     1      -9.667   4.703  70.763  1.00  0.00    -0.269 C  
BRANCH  37  38
HETATM   38  C   UNL     1      -9.845   3.609  71.809  1.00  0.00    -0.235 C  
HETATM   39  C   UNL     1      -9.453   4.106  73.189  1.00  0.00    -0.134 C  
ENDBRANCH  37  38
ENDBRANCH  36  37
ENDBRANCH  35  36
ENDBRANCH  34  35
ENDBRANCH  33  34
ENDBRANCH  32  33
ENDBRANCH  31  32
ENDBRANCH  30  31
ENDBRANCH  29  30
ENDBRANCH  28  29
ENDBRANCH  27  28
ENDBRANCH  26  27
ENDBRANCH  25  26
ENDBRANCH  24  25
ENDBRANCH  23  24
ENDBRANCH  22  23
ENDBRANCH  19  22
ENDBRANCH  18  19
ENDBRANCH  17  18
ENDBRANCH  16  17
ENDBRANCH  15  16
ENDBRANCH  14  15
ENDBRANCH  13  14
ENDBRANCH  12  13
ENDBRANCH  11  12
ENDBRANCH  10  11
ENDBRANCH   9  10
ENDBRANCH   8   9
ENDBRANCH   7   8
ENDBRANCH   6   7
ENDBRANCH   5   6
ENDBRANCH   4   5
ENDBRANCH   3   4
ENDBRANCH   2   3
TORSDOF 34
ENDMDL
MODEL       25
REMARK 921   NORMALIZED FREE ENERGY PREDICTED BY IDOCK:   -3.97 KCAL/MOL
REMARK 922        TOTAL FREE ENERGY PREDICTED BY IDOCK:  -18.18 KCAL/MOL
REMARK 923 INTER-LIGAND FREE ENERGY PREDICTED BY IDOCK:  -12.25 KCAL/MOL
REMARK 924 INTRA-LIGAND FREE ENERGY PREDICTED BY IDOCK:   -5.93 KCAL/MOL
REMARK 927      BINDING AFFINITY PREDICTED BY RF-SCORE:    0.00 PKD
ROOT
HETATM    1  C   UNL     1      -9.688  20.500  67.286  1.00  0.00    -0.600 C  
HETATM    2  C   UNL     1     -10.524  19.239  67.416  1.00  0.00    -0.564 C  
ENDROOT
BRANCH   2   3
HETATM    3  C   UNL     1     -10.176  18.481  68.688  1.00  0.00    -0.363 C  
BRANCH   3   4
HETATM    4  C   UNL     1      -9.919  17.005  68.396  1.00  0.00    -0.289 C  
BRANCH   4   5
HETATM    5  C   UNL     1     -11.112  16.158  68.819  1.00  0.00    -0.354 C  
BRANCH   5   6
HETATM    6  C   UNL     1     -11.552  15.249  67.680  1.00  0.00    -0.249 C  
BRANCH   6   7
HETATM    7  C   UNL     1     -10.732  15.537  66.431  1.00  0.00    -0.303 C  
BRANCH   7   8
HETATM    8  C   UNL     1     -11.313  14.794  65.239  1.00  0.00    -0.363 C  
BRANCH   8   9
HETATM    9  C   UNL     1     -12.416  13.854  65.693  1.00  0.00    -0.538 C  
BRANCH   9  10
HETATM   10  C   UNL     1     -12.204  12.479  65.088  1.00  0.00    -0.509 C  
BRANCH  10  11
HETATM   11  C   UNL     1     -11.785  12.602  63.635  1.00  0.00    -0.597 C  
BRANCH  11  12
HETATM   12  C   UNL     1     -10.526  11.789  63.403  1.00  0.00    -0.485 C  
BRANCH  12  13
HETATM   13  C   UNL     1     -10.361  10.757  64.498  1.00  0.00    -0.401 C  
BRANCH  13  14
HETATM   14  C   UNL     1      -9.018  10.067  64.350  1.00  0.00    -0.265 C  
BRANCH  14  15
HETATM   15  C   UNL     1      -8.905   8.974  65.388  1.00  0.00    -0.237 C  
BRANCH  15  16
HETATM   16  C   UNL     1     -10.050   9.050  66.383  1.00  0.00    -0.351 C  
BRANCH  16  17
HETATM   17  C   UNL     1     -10.334   7.638  66.860  1.00  0.00    -0.388 C  
BRANCH  17  18
HETATM   18  C   UNL     1     -10.241   7.530  68.371  1.00  0.00    -0.185 C  
BRANCH  18  19
HETATM   19  N   UNL     1      -9.781   6.129  68.827  1.00  0.00    -0.127 N  
HETATM   20  C   UNL     1      -9.862   5.135  67.664  1.00  0.00    -0.160 C  
HETATM   21  C   UNL     1      -8.348   6.187  69.362  1.00  0.00    -0.116 C  
BRANCH  19  22
HETATM   22  C   UNL     1     -10.759   5.720  69.951  1.00  0.00    -0.342 C  
BRANCH  22  23
HETATM   23  C   UNL     1     -11.682   6.854  70.347  1.00  0.00    -0.377 C  
BRANCH  23  24
HETATM   24  C   UNL     1     -11.506   7.235  71.806  1.00  0.00    -0.300 C  
BRANCH  24  25
HETATM   25  C   UNL     1     -12.037   8.647  71.976  1.00  0.00    -0.442 C  
BRANCH  25  26
HETATM   26  C   UNL     1     -11.117   9.655  71.326  1.00  0.00    -0.426 C  
BRANCH  26  27
HETATM   27  C   UNL     1     -11.948  10.767  70.711  1.00  0.00    -0.464 C  
BRANCH  27  28
HETATM   28  C   UNL     1     -11.814  10.726  69.203  1.00  0.00    -0.347 C  
BRANCH  28  29
HETATM   29  C   UNL     1     -11.156  11.997  68.704  1.00  0.00    -0.298 C  
BRANCH  29  30
HETATM   30  C   UNL     1      -9.670  11.760  68.523  1.00  0.00    -0.181 C  
BRANCH  30  31
HETATM   31  C   UNL     1      -9.180  12.415  67.248  1.00  0.00    -0.187 C  
BRANCH  31  32
HETATM   32  C   UNL     1      -7.664  12.487  67.252  1.00  0.00    -0.146 C  
BRANCH  32  33
HETATM   33  C   UNL     1      -7.183  13.344  68.411  1.00  0.00    -0.110 C  
BRANCH  33  34
HETATM   34  C   UNL     1      -6.959  14.776  67.950  1.00  0.00    -0.173 C  
BRANCH  34  35
HETATM   35  C   UNL     1      -6.652  15.672  69.142  1.00  0.00    -0.140 C  
BRANCH  35  36
HETATM   36  C   UNL     1      -5.715  16.802  68.738  1.00  0.00    -0.136 C  
BRANCH  36  37
HETATM   37  C   UNL     1      -6.469  17.862  67.941  1.00  0.00    -0.183 C  
BRANCH  37  38
HETATM   38  C   UNL     1      -5.711  19.185  67.937  1.00  0.00    -0.195 C  
HETATM   39  C   UNL     1      -6.377  20.196  68.854  1.00  0.00    -0.358 C  
ENDBRANCH  37  38
ENDBRANCH  36  37
ENDBRANCH  35  36
ENDBRANCH  34  35
ENDBRANCH  33  34
ENDBRANCH  32  33
ENDBRANCH  31  32
ENDBRANCH  30  31
ENDBRANCH  29  30
ENDBRANCH  28  29
ENDBRANCH  27  28
ENDBRANCH  26  27
ENDBRANCH  25  26
ENDBRANCH  24  25
ENDBRANCH  23  24
ENDBRANCH  22  23
ENDBRANCH  19  22
ENDBRANCH  18  19
ENDBRANCH  17  18
ENDBRANCH  16  17
ENDBRANCH  15  16
ENDBRANCH  14  15
ENDBRANCH  13  14
ENDBRANCH  12  13
ENDBRANCH  11  12
ENDBRANCH  10  11
ENDBRANCH   9  10
ENDBRANCH   8   9
ENDBRANCH   7   8
ENDBRANCH   6   7
ENDBRANCH   5   6
ENDBRANCH   4   5
ENDBRANCH   3   4
ENDBRANCH   2   3
TORSDOF 34
ENDMDL
MODEL       26
REMARK 921   NORMALIZED FREE ENERGY PREDICTED BY IDOCK:   -3.95 KCAL/MOL
REMARK 922        TOTAL FREE ENERGY PREDICTED BY IDOCK:  -18.12 KCAL/MOL
REMARK 923 INTER-LIGAND FREE ENERGY PREDICTED BY IDOCK:  -11.20 KCAL/MOL
REMARK 924 INTRA-LIGAND FREE ENERGY PREDICTED BY IDOCK:   -6.92 KCAL/MOL
REMARK 927      BINDING AFFINITY PREDICTED BY RF-SCORE:    0.00 PKD
ROOT
HETATM    1  C   UNL     1     -10.717  19.576  67.061  1.00  0.00    -0.592 C  
HETATM    2  C   UNL     1     -10.373  18.120  67.317  1.00  0.00    -0.399 C  
ENDROOT
BRANCH   2   3
HETATM    3  C   UNL     1     -10.526  17.292  66.049  1.00  0.00    -0.285 C  
BRANCH   3   4
HETATM    4  C   UNL     1      -9.452  16.210  65.967  1.00  0.00    -0.374 C  
BRANCH   4   5
HETATM    5  C   UNL     1      -8.528  16.276  67.176  1.00  0.00    -0.213 C  
BRANCH   5   6
HETATM    6  C   UNL     1      -8.277  14.881  67.733  1.00  0.00    -0.164 C  
BRANCH   6   7
HETATM    7  C   UNL     1      -9.507  14.007  67.535  1.00  0.00    -0.221 C  
BRANCH   7   8
HETATM    8  C   UNL     1     -10.555  14.328  68.589  1.00  0.00    -0.254 C  
BRANCH   8   9
HETATM    9  C   UNL     1     -11.947  14.257  67.984  1.00  0.00    -0.353 C  
BRANCH   9  10
HETATM   10  C   UNL     1     -11.929  13.371  66.753  1.00  0.00    -0.447 C  
BRANCH  10  11
HETATM   11  C   UNL     1     -12.693  14.030  65.620  1.00  0.00    -0.515 C  
BRANCH  11  12
HETATM   12  C   UNL     1     -11.863  13.972  64.352  1.00  0.00    -0.453 C  
BRANCH  12  13
HETATM   13  C   UNL     1     -11.876  12.569  63.783  1.00  0.00    -0.577 C  
BRANCH  13  14
HETATM   14  C   UNL     1     -10.450  12.078  63.609  1.00  0.00    -0.494 C  
BRANCH  14  15
HETATM   15  C   UNL     1     -10.264  10.806  64.405  1.00  0.00    -0.432 C  
BRANCH  15  16
HETATM   16  C   UNL     1      -9.362  11.043  65.604  1.00  0.00    -0.239 C  
BRANCH  16  17
HETATM   17  C   UNL     1      -8.165  10.122  65.464  1.00  0.00    -0.156 C  
BRANCH  17  18
HETATM   18  C   UNL     1      -8.571   8.754  64.948  1.00  0.00    -0.150 C  
BRANCH  18  19
HETATM   19  N   UNL     1      -7.829   7.613  65.677  1.00  0.00    -0.102 N  
HETATM   20  C   UNL     1      -7.931   6.312  64.875  1.00  0.00    -0.124 C  
HETATM   21  C   UNL     1      -6.359   7.981  65.886  1.00  0.00    -0.045 C  
BRANCH  19  22
HETATM   22  C   UNL     1      -8.545   7.461  67.038  1.00  0.00    -0.119 C  
BRANCH  22  23
HETATM   23  C   UNL     1     -10.017   7.136  66.878  1.00  0.00    -0.293 C  
BRANCH  23  24
HETATM   24  C   UNL     1     -10.782   7.357  68.169  1.00  0.00    -0.169 C  
BRANCH  24  25
HETATM   25  C   UNL     1     -10.246   8.627  68.806  1.00  0.00    -0.224 C  
BRANCH  25  26
HETATM   26  C   UNL     1     -11.120   9.813  68.468  1.00  0.00    -0.138 C  
BRANCH  26  27
HETATM   27  C   UNL     1     -10.966  10.870  69.547  1.00  0.00    -0.306 C  
BRANCH  27  28
HETATM   28  C   UNL     1     -12.326  11.215  70.117  1.00  0.00    -0.373 C  
BRANCH  28  29
HETATM   29  C   UNL     1     -12.432  10.725  71.547  1.00  0.00    -0.447 C  
BRANCH  29  30
HETATM   30  C   UNL     1     -13.415   9.574  71.615  1.00  0.00    -0.463 C  
BRANCH  30  31
HETATM   31  C   UNL     1     -12.679   8.253  71.710  1.00  0.00    -0.364 C  
BRANCH  31  32
HETATM   32  C   UNL     1     -11.348   8.451  72.411  1.00  0.00    -0.448 C  
BRANCH  32  33
HETATM   33  C   UNL     1     -10.715   7.106  72.725  1.00  0.00    -0.325 C  
BRANCH  33  34
HETATM   34  C   UNL     1     -11.262   6.035  71.794  1.00  0.00    -0.333 C  
BRANCH  34  35
HETATM   35  C   UNL     1     -10.127   5.180  71.247  1.00  0.00    -0.278 C  
BRANCH  35  36
HETATM   36  C   UNL     1      -8.778   5.738  71.680  1.00  0.00    -0.136 C  
BRANCH  36  37
HETATM   37  C   UNL     1      -7.938   6.110  70.462  1.00  0.00    -0.111 C  
BRANCH  37  38
HETATM   38  C   UNL     1      -7.271   7.467  70.651  1.00  0.00    -0.067 C  
HETATM   39  C   UNL     1      -5.959   7.539  69.890  1.00  0.00    -0.024 C  
ENDBRANCH  37  38
ENDBRANCH  36  37
ENDBRANCH  35  36
ENDBRANCH  34  35
ENDBRANCH  33  34
ENDBRANCH  32  33
ENDBRANCH  31  32
ENDBRANCH  30  31
ENDBRANCH  29  30
ENDBRANCH  28  29
ENDBRANCH  27  28
ENDBRANCH  26  27
ENDBRANCH  25  26
ENDBRANCH  24  25
ENDBRANCH  23  24
ENDBRANCH  22  23
ENDBRANCH  19  22
ENDBRANCH  18  19
ENDBRANCH  17  18
ENDBRANCH  16  17
ENDBRANCH  15  16
ENDBRANCH  14  15
ENDBRANCH  13  14
ENDBRANCH  12  13
ENDBRANCH  11  12
ENDBRANCH  10  11
ENDBRANCH   9  10
ENDBRANCH   8   9
ENDBRANCH   7   8
ENDBRANCH   6   7
ENDBRANCH   5   6
ENDBRANCH   4   5
ENDBRANCH   3   4
ENDBRANCH   2   3
TORSDOF 34
ENDMDL
MODEL       27
REMARK 921   NORMALIZED FREE ENERGY PREDICTED BY IDOCK:   -3.94 KCAL/MOL
REMARK 922        TOTAL FREE ENERGY PREDICTED BY IDOCK:  -18.11 KCAL/MOL
REMARK 923 INTER-LIGAND FREE ENERGY PREDICTED BY IDOCK:  -11.53 KCAL/MOL
REMARK 924 INTRA-LIGAND FREE ENERGY PREDICTED BY IDOCK:   -6.58 KCAL/MOL
REMARK 927      BINDING AFFINITY PREDICTED BY RF-SCORE:    0.00 PKD
ROOT
HETATM    1  C   UNL     1     -10.781   6.088  68.038  1.00  0.00    -0.359 C  
HETATM    2  C   UNL     1      -9.364   6.031  67.495  1.00  0.00    -0.113 C  
ENDROOT
BRANCH   2   3
HETATM    3  C   UNL     1      -8.352   5.900  68.623  1.00  0.00    -0.109 C  
BRANCH   3   4
HETATM    4  C   UNL     1      -8.967   5.208  69.837  1.00  0.00    -0.139 C  
BRANCH   4   5
HETATM    5  C   UNL     1      -7.888   4.821  70.840  1.00  0.00    -0.081 C  
BRANCH   5   6
HETATM    6  C   UNL     1      -7.000   6.016  71.157  1.00  0.00    -0.068 C  
BRANCH   6   7
HETATM    7  C   UNL     1      -7.656   6.892  72.215  1.00  0.00    -0.092 C  
BRANCH   7   8
HETATM    8  C   UNL     1      -6.992   8.259  72.250  1.00  0.00    -0.104 C  
BRANCH   8   9
HETATM    9  C   UNL     1      -7.387   9.066  71.026  1.00  0.00    -0.125 C  
BRANCH   9  10
HETATM   10  C   UNL     1      -8.899   9.166  70.940  1.00  0.00    -0.292 C  
BRANCH  10  11
HETATM   11  C   UNL     1      -9.325   9.484  69.518  1.00  0.00    -0.199 C  
BRANCH  11  12
HETATM   12  C   UNL     1      -8.238  10.291  68.835  1.00  0.00    -0.130 C  
BRANCH  12  13
HETATM   13  C   UNL     1      -8.518  10.392  67.350  1.00  0.00    -0.121 C  
BRANCH  13  14
HETATM   14  C   UNL     1      -9.864   9.763  67.042  1.00  0.00    -0.245 C  
BRANCH  14  15
HETATM   15  C   UNL     1      -9.976   9.540  65.551  1.00  0.00    -0.209 C  
BRANCH  15  16
HETATM   16  C   UNL     1      -9.186  10.586  64.783  1.00  0.00    -0.266 C  
BRANCH  16  17
HETATM   17  C   UNL     1     -10.138  11.253  63.809  1.00  0.00    -0.412 C  
BRANCH  17  18
HETATM   18  C   UNL     1     -10.431  12.688  64.207  1.00  0.00    -0.392 C  
BRANCH  18  19
HETATM   19  N   UNL     1     -11.930  12.918  64.493  1.00  0.00    -0.372 N  
HETATM   20  C   UNL     1     -12.304  14.380  64.235  1.00  0.00    -0.373 C  
HETATM   21  C   UNL     1     -12.786  12.000  63.617  1.00  0.00    -0.431 C  
BRANCH  19  22
HETATM   22  C   UNL     1     -12.122  12.571  65.986  1.00  0.00    -0.321 C  
BRANCH  22  23
HETATM   23  C   UNL     1     -11.077  13.227  66.866  1.00  0.00    -0.310 C  
BRANCH  23  24
HETATM   24  C   UNL     1     -11.713  14.096  67.936  1.00  0.00    -0.402 C  
BRANCH  24  25
HETATM   25  C   UNL     1     -10.643  14.406  68.968  1.00  0.00    -0.245 C  
BRANCH  25  26
HETATM   26  C   UNL     1     -10.901  15.738  69.632  1.00  0.00    -0.300 C  
BRANCH  26  27
HETATM   27  C   UNL     1     -11.312  15.506  71.075  1.00  0.00    -0.421 C  
BRANCH  27  28
HETATM   28  C   UNL     1     -12.755  15.922  71.265  1.00  0.00    -0.376 C  
BRANCH  28  29
HETATM   29  C   UNL     1     -13.646  14.697  71.331  1.00  0.00    -0.474 C  
BRANCH  29  30
HETATM   30  C   UNL     1     -13.226  13.829  72.500  1.00  0.00    -0.599 C  
BRANCH  30  31
HETATM   31  C   UNL     1     -13.487  12.368  72.196  1.00  0.00    -0.481 C  
BRANCH  31  32
HETATM   32  C   UNL     1     -12.654  11.929  71.007  1.00  0.00    -0.381 C  
BRANCH  32  33
HETATM   33  C   UNL     1     -12.524  10.415  70.987  1.00  0.00    -0.488 C  
BRANCH  33  34
HETATM   34  C   UNL     1     -13.324   9.802  72.126  1.00  0.00    -0.527 C  
BRANCH  34  35
HETATM   35  C   UNL     1     -12.853   8.380  72.395  1.00  0.00    -0.323 C  
BRANCH  35  36
HETATM   36  C   UNL     1     -12.229   7.775  71.145  1.00  0.00    -0.289 C  
BRANCH  36  37
HETATM   37  C   UNL     1     -11.551   6.448  71.474  1.00  0.00    -0.364 C  
BRANCH  37  38
HETATM   38  C   UNL     1     -11.059   6.430  72.917  1.00  0.00    -0.259 C  
HETATM   39  C   UNL     1     -11.189   5.040  73.518  1.00  0.00    -0.341 C  
ENDBRANCH  37  38
ENDBRANCH  36  37
ENDBRANCH  35  36
ENDBRANCH  34  35
ENDBRANCH  33  34
ENDBRANCH  32  33
ENDBRANCH  31  32
ENDBRANCH  30  31
ENDBRANCH  29  30
ENDBRANCH  28  29
ENDBRANCH  27  28
ENDBRANCH  26  27
ENDBRANCH  25  26
ENDBRANCH  24  25
ENDBRANCH  23  24
ENDBRANCH  22  23
ENDBRANCH  19  22
ENDBRANCH  18  19
ENDBRANCH  17  18
ENDBRANCH  16  17
ENDBRANCH  15  16
ENDBRANCH  14  15
ENDBRANCH  13  14
ENDBRANCH  12  13
ENDBRANCH  11  12
ENDBRANCH  10  11
ENDBRANCH   9  10
ENDBRANCH   8   9
ENDBRANCH   7   8
ENDBRANCH   6   7
ENDBRANCH   5   6
ENDBRANCH   4   5
ENDBRANCH   3   4
ENDBRANCH   2   3
TORSDOF 34
ENDMDL
MODEL       28
REMARK 921   NORMALIZED FREE ENERGY PREDICTED BY IDOCK:   -3.94 KCAL/MOL
REMARK 922        TOTAL FREE ENERGY PREDICTED BY IDOCK:  -18.10 KCAL/MOL
REMARK 923 INTER-LIGAND FREE ENERGY PREDICTED BY IDOCK:  -11.66 KCAL/MOL
REMARK 924 INTRA-LIGAND FREE ENERGY PREDICTED BY IDOCK:   -6.44 KCAL/MOL
REMARK 927      BINDING AFFINITY PREDICTED BY RF-SCORE:    0.00 PKD
ROOT
HETATM    1  C   UNL     1     -10.599  19.433  67.255  1.00  0.00    -0.599 C  
HETATM    2  C   UNL     1     -10.569  17.920  67.387  1.00  0.00    -0.370 C  
ENDROOT
BRANCH   2   3
HETATM    3  C   UNL     1     -10.397  17.257  66.029  1.00  0.00    -0.312 C  
BRANCH   3   4
HETATM    4  C   UNL     1      -9.214  16.293  66.034  1.00  0.00    -0.351 C  
BRANCH   4   5
HETATM    5  C   UNL     1      -8.697  16.084  67.451  1.00  0.00    -0.195 C  
BRANCH   5   6
HETATM    6  C   UNL     1      -8.345  14.621  67.681  1.00  0.00    -0.186 C  
BRANCH   6   7
HETATM    7  C   UNL     1      -9.613  13.781  67.750  1.00  0.00    -0.219 C  
BRANCH   7   8
HETATM    8  C   UNL     1     -10.624  14.431  68.681  1.00  0.00    -0.253 C  
BRANCH   8   9
HETATM    9  C   UNL     1     -12.007  14.405  68.054  1.00  0.00    -0.326 C  
BRANCH   9  10
HETATM   10  C   UNL     1     -12.049  13.376  66.939  1.00  0.00    -0.406 C  
BRANCH  10  11
HETATM   11  C   UNL     1     -12.756  13.946  65.723  1.00  0.00    -0.503 C  
BRANCH  11  12
HETATM   12  C   UNL     1     -11.784  14.015  64.561  1.00  0.00    -0.428 C  
BRANCH  12  13
HETATM   13  C   UNL     1     -11.756  12.692  63.825  1.00  0.00    -0.566 C  
BRANCH  13  14
HETATM   14  C   UNL     1     -10.350  12.122  63.855  1.00  0.00    -0.441 C  
BRANCH  14  15
HETATM   15  C   UNL     1     -10.366  10.806  64.599  1.00  0.00    -0.394 C  
BRANCH  15  16
HETATM   16  C   UNL     1      -9.529  10.887  65.864  1.00  0.00    -0.241 C  
BRANCH  16  17
HETATM   17  C   UNL     1      -8.933   9.514  66.107  1.00  0.00    -0.191 C  
BRANCH  17  18
HETATM   18  C   UNL     1     -10.010   8.473  66.352  1.00  0.00    -0.244 C  
BRANCH  18  19
HETATM   19  N   UNL     1      -9.449   7.202  67.022  1.00  0.00    -0.147 N  
HETATM   20  C   UNL     1     -10.411   6.698  68.102  1.00  0.00    -0.214 C  
HETATM   21  C   UNL     1      -9.220   6.106  65.979  1.00  0.00    -0.095 C  
BRANCH  19  22
HETATM   22  C   UNL     1      -8.107   7.629  67.657  1.00  0.00    -0.121 C  
BRANCH  22  23
HETATM   23  C   UNL     1      -8.155   7.598  69.172  1.00  0.00    -0.125 C  
BRANCH  23  24
HETATM   24  C   UNL     1      -7.238   8.642  69.782  1.00  0.00    -0.051 C  
BRANCH  24  25
HETATM   25  C   UNL     1      -8.009   9.949  69.841  1.00  0.00    -0.193 C  
BRANCH  25  26
HETATM   26  C   UNL     1      -9.484   9.699  70.057  1.00  0.00    -0.277 C  
BRANCH  26  27
HETATM   27  C   UNL     1     -10.281  10.823  69.418  1.00  0.00    -0.187 C  
BRANCH  27  28
HETATM   28  C   UNL     1     -11.759  10.592  69.650  1.00  0.00    -0.368 C  
BRANCH  28  29
HETATM   29  C   UNL     1     -12.317  11.666  70.563  1.00  0.00    -0.410 C  
BRANCH  29  30
HETATM   30  C   UNL     1     -12.968  11.016  71.768  1.00  0.00    -0.544 C  
BRANCH  30  31
HETATM   31  C   UNL     1     -13.786   9.813  71.344  1.00  0.00    -0.145 C  
BRANCH  31  32
HETATM   32  C   UNL     1     -13.712   8.734  72.408  1.00  0.00    -0.471 C  
BRANCH  32  33
HETATM   33  C   UNL     1     -13.530   7.371  71.762  1.00  0.00    -0.383 C  
BRANCH  33  34
HETATM   34  C   UNL     1     -12.079   7.169  71.355  1.00  0.00    -0.381 C  
BRANCH  34  35
HETATM   35  C   UNL     1     -11.153   7.887  72.328  1.00  0.00    -0.376 C  
BRANCH  35  36
HETATM   36  C   UNL     1     -10.595   6.913  73.357  1.00  0.00    -0.372 C  
BRANCH  36  37
HETATM   37  C   UNL     1      -9.447   6.105  72.760  1.00  0.00    -0.151 C  
BRANCH  37  38
HETATM   38  C   UNL     1      -8.102   6.605  73.272  1.00  0.00    -0.111 C  
HETATM   39  C   UNL     1      -8.222   8.013  73.831  1.00  0.00    -0.306 C  
ENDBRANCH  37  38
ENDBRANCH  36  37
ENDBRANCH  35  36
ENDBRANCH  34  35
ENDBRANCH  33  34
ENDBRANCH  32  33
ENDBRANCH  31  32
ENDBRANCH  30  31
ENDBRANCH  29  30
ENDBRANCH  28  29
ENDBRANCH  27  28
ENDBRANCH  26  27
ENDBRANCH  25  26
ENDBRANCH  24  25
ENDBRANCH  23  24
ENDBRANCH  22  23
ENDBRANCH  19  22
ENDBRANCH  18  19
ENDBRANCH  17  18
ENDBRANCH  16  17
ENDBRANCH  15  16
ENDBRANCH  14  15
ENDBRANCH  13  14
ENDBRANCH  12  13
ENDBRANCH  11  12
ENDBRANCH  10  11
ENDBRANCH   9  10
ENDBRANCH   8   9
ENDBRANCH   7   8
ENDBRANCH   6   7
ENDBRANCH   5   6
ENDBRANCH   4   5
ENDBRANCH   3   4
ENDBRANCH   2   3
TORSDOF 34
ENDMDL
MODEL       29
REMARK 921   NORMALIZED FREE ENERGY PREDICTED BY IDOCK:   -3.93 KCAL/MOL
REMARK 922        TOTAL FREE ENERGY PREDICTED BY IDOCK:  -18.05 KCAL/MOL
REMARK 923 INTER-LIGAND FREE ENERGY PREDICTED BY IDOCK:  -10.85 KCAL/MOL
REMARK 924 INTRA-LIGAND FREE ENERGY PREDICTED BY IDOCK:   -7.21 KCAL/MOL
REMARK 927      BINDING AFFINITY PREDICTED BY RF-SCORE:    0.00 PKD
ROOT
HETATM    1  C   UNL     1     -12.308  12.223  64.300  1.00  0.00    -0.519 C  
HETATM    2  C   UNL     1     -12.594  13.421  65.188  1.00  0.00    -0.495 C  
ENDROOT
BRANCH   2   3
HETATM    3  C   UNL     1     -11.452  13.662  66.164  1.00  0.00    -0.342 C  
BRANCH   3   4
HETATM    4  C   UNL     1     -11.974  13.830  67.589  1.00  0.00    -0.392 C  
BRANCH   4   5
HETATM    5  C   UNL     1     -11.075  14.768  68.384  1.00  0.00    -0.274 C  
BRANCH   5   6
HETATM    6  C   UNL     1     -11.908  15.675  69.279  1.00  0.00    -0.378 C  
BRANCH   6   7
HETATM    7  C   UNL     1     -11.112  16.067  70.515  1.00  0.00    -0.370 C  
BRANCH   7   8
HETATM    8  C   UNL     1     -11.957  15.881  71.765  1.00  0.00    -0.573 C  
BRANCH   8   9
HETATM    9  C   UNL     1     -13.309  15.292  71.402  1.00  0.00    -0.573 C  
BRANCH   9  10
HETATM   10  C   UNL     1     -13.504  13.968  72.118  1.00  0.00    -0.567 C  
BRANCH  10  11
HETATM   11  C   UNL     1     -12.901  12.837  71.305  1.00  0.00    -0.355 C  
BRANCH  11  12
HETATM   12  C   UNL     1     -13.261  11.510  71.945  1.00  0.00    -0.479 C  
BRANCH  12  13
HETATM   13  C   UNL     1     -12.739  10.366  71.102  1.00  0.00    -0.514 C  
BRANCH  13  14
HETATM   14  C   UNL     1     -12.404  10.870  69.710  1.00  0.00    -0.326 C  
BRANCH  14  15
HETATM   15  C   UNL     1     -11.083  10.277  69.274  1.00  0.00    -0.293 C  
BRANCH  15  16
HETATM   16  C   UNL     1     -11.086   9.979  67.784  1.00  0.00    -0.246 C  
BRANCH  16  17
HETATM   17  C   UNL     1      -9.774  10.485  67.215  1.00  0.00    -0.197 C  
BRANCH  17  18
HETATM   18  C   UNL     1      -9.097  11.464  68.156  1.00  0.00    -0.174 C  
BRANCH  18  19
HETATM   19  N   UNL     1      -7.579  11.210  68.267  1.00  0.00    -0.105 N  
HETATM   20  C   UNL     1      -7.078  10.429  67.048  1.00  0.00    -0.092 C  
HETATM   21  C   UNL     1      -6.824  12.536  68.379  1.00  0.00    -0.085 C  
BRANCH  19  22
HETATM   22  C   UNL     1      -7.394  10.374  69.553  1.00  0.00    -0.144 C  
BRANCH  22  23
HETATM   23  C   UNL     1      -6.861   8.985  69.261  1.00  0.00    -0.050 C  
BRANCH  23  24
HETATM   24  C   UNL     1      -7.923   7.923  69.476  1.00  0.00    -0.116 C  
BRANCH  24  25
HETATM   25  C   UNL     1      -7.787   6.908  68.355  1.00  0.00    -0.121 C  
BRANCH  25  26
HETATM   26  C   UNL     1      -9.143   6.476  67.847  1.00  0.00    -0.113 C  
BRANCH  26  27
HETATM   27  C   UNL     1      -9.449   5.080  68.361  1.00  0.00    -0.178 C  
BRANCH  27  28
HETATM   28  C   UNL     1     -10.444   5.165  69.500  1.00  0.00    -0.233 C  
BRANCH  28  29
HETATM   29  C   UNL     1     -11.345   6.371  69.315  1.00  0.00    -0.405 C  
BRANCH  29  30
HETATM   30  C   UNL     1     -11.742   6.917  70.673  1.00  0.00    -0.417 C  
BRANCH  30  31
HETATM   31  C   UNL     1     -11.351   5.946  71.769  1.00  0.00    -0.289 C  
BRANCH  31  32
HETATM   32  C   UNL     1     -10.702   6.695  72.918  1.00  0.00    -0.285 C  
BRANCH  32  33
HETATM   33  C   UNL     1     -10.382   8.121  72.500  1.00  0.00    -0.401 C  
BRANCH  33  34
HETATM   34  C   UNL     1      -8.922   8.438  72.784  1.00  0.00    -0.291 C  
BRANCH  34  35
HETATM   35  C   UNL     1      -8.258   7.272  73.503  1.00  0.00    -0.146 C  
BRANCH  35  36
HETATM   36  C   UNL     1      -6.902   6.960  72.884  1.00  0.00    -0.070 C  
BRANCH  36  37
HETATM   37  C   UNL     1      -6.694   5.452  72.786  1.00  0.00    -0.072 C  
BRANCH  37  38
HETATM   38  C   UNL     1      -7.467   4.868  71.610  1.00  0.00    -0.079 C  
HETATM   39  C   UNL     1      -8.368   3.732  72.061  1.00  0.00    -0.090 C  
ENDBRANCH  37  38
ENDBRANCH  36  37
ENDBRANCH  35  36
ENDBRANCH  34  35
ENDBRANCH  33  34
ENDBRANCH  32  33
ENDBRANCH  31  32
ENDBRANCH  30  31
ENDBRANCH  29  30
ENDBRANCH  28  29
ENDBRANCH  27  28
ENDBRANCH  26  27
ENDBRANCH  25  26
ENDBRANCH  24  25
ENDBRANCH  23  24
ENDBRANCH  22  23
ENDBRANCH  19  22
ENDBRANCH  18  19
ENDBRANCH  17  18
ENDBRANCH  16  17
ENDBRANCH  15  16
ENDBRANCH  14  15
ENDBRANCH  13  14
ENDBRANCH  12  13
ENDBRANCH  11  12
ENDBRANCH  10  11
ENDBRANCH   9  10
ENDBRANCH   8   9
ENDBRANCH   7   8
ENDBRANCH   6   7
ENDBRANCH   5   6
ENDBRANCH   4   5
ENDBRANCH   3   4
ENDBRANCH   2   3
TORSDOF 34
ENDMDL
MODEL       30
REMARK 921   NORMALIZED FREE ENERGY PREDICTED BY IDOCK:   -3.92 KCAL/MOL
REMARK 922        TOTAL FREE ENERGY PREDICTED BY IDOCK:  -18.05 KCAL/MOL
REMARK 923 INTER-LIGAND FREE ENERGY PREDICTED BY IDOCK:  -12.63 KCAL/MOL
REMARK 924 INTRA-LIGAND FREE ENERGY PREDICTED BY IDOCK:   -5.42 KCAL/MOL
REMARK 927      BINDING AFFINITY PREDICTED BY RF-SCORE:    0.00 PKD
ROOT
HETATM    1  C   UNL     1     -10.510   3.929  64.424  1.00  0.00    -0.238 C  
HETATM    2  C   UNL     1     -10.549   4.619  65.776  1.00  0.00    -0.264 C  
ENDROOT
BRANCH   2   3
HETATM    3  C   UNL     1      -9.393   5.596  65.925  1.00  0.00    -0.119 C  
BRANCH   3   4
HETATM    4  C   UNL     1      -9.532   6.421  67.201  1.00  0.00    -0.145 C  
BRANCH   4   5
HETATM    5  C   UNL     1     -10.996   6.550  67.602  1.00  0.00    -0.426 C  
BRANCH   5   6
HETATM    6  C   UNL     1     -11.166   6.298  69.093  1.00  0.00    -0.439 C  
BRANCH   6   7
HETATM    7  C   UNL     1      -9.865   5.779  69.690  1.00  0.00    -0.230 C  
BRANCH   7   8
HETATM    8  C   UNL     1     -10.145   5.009  70.971  1.00  0.00    -0.297 C  
BRANCH   8   9
HETATM    9  C   UNL     1      -9.728   5.831  72.179  1.00  0.00    -0.174 C  
BRANCH   9  10
HETATM   10  C   UNL     1     -10.958   6.312  72.925  1.00  0.00    -0.283 C  
BRANCH  10  11
HETATM   11  C   UNL     1     -11.031   7.828  72.897  1.00  0.00    -0.467 C  
BRANCH  11  12
HETATM   12  C   UNL     1     -12.282   8.259  72.156  1.00  0.00    -0.418 C  
BRANCH  12  13
HETATM   13  C   UNL     1     -11.997   9.490  71.321  1.00  0.00    -0.445 C  
BRANCH  13  14
HETATM   14  C   UNL     1     -10.616   9.376  70.702  1.00  0.00    -0.354 C  
BRANCH  14  15
HETATM   15  C   UNL     1     -10.565  10.220  69.449  1.00  0.00    -0.262 C  
BRANCH  15  16
HETATM   16  C   UNL     1     -11.602  11.330  69.497  1.00  0.00    -0.398 C  
BRANCH  16  17
HETATM   17  C   UNL     1     -11.844  11.791  68.073  1.00  0.00    -0.304 C  
BRANCH  17  18
HETATM   18  C   UNL     1     -11.114  10.916  67.071  1.00  0.00    -0.202 C  
BRANCH  18  19
HETATM   19  N   UNL     1     -10.732  11.691  65.792  1.00  0.00    -0.274 N  
HETATM   20  C   UNL     1     -10.286  10.721  64.694  1.00  0.00    -0.350 C  
HETATM   21  C   UNL     1     -11.918  12.523  65.299  1.00  0.00    -0.438 C  
BRANCH  19  22
HETATM   22  C   UNL     1      -9.562  12.612  66.202  1.00  0.00    -0.222 C  
BRANCH  22  23
HETATM   23  C   UNL     1      -8.395  11.834  66.776  1.00  0.00    -0.165 C  
BRANCH  23  24
HETATM   24  C   UNL     1      -7.847  12.491  68.030  1.00  0.00    -0.147 C  
BRANCH  24  25
HETATM   25  C   UNL     1      -8.680  13.733  68.296  1.00  0.00    -0.179 C  
BRANCH  25  26
HETATM   26  C   UNL     1      -7.798  14.928  68.572  1.00  0.00    -0.126 C  
BRANCH  26  27
HETATM   27  C   UNL     1      -7.102  15.344  67.289  1.00  0.00    -0.206 C  
BRANCH  27  28
HETATM   28  C   UNL     1      -7.453  16.780  66.962  1.00  0.00    -0.236 C  
BRANCH  28  29
HETATM   29  C   UNL     1      -8.778  16.838  66.227  1.00  0.00    -0.342 C  
BRANCH  29  30
HETATM   30  C   UNL     1      -9.419  18.194  66.448  1.00  0.00    -0.284 C  
BRANCH  30  31
HETATM   31  C   UNL     1     -10.385  18.139  67.615  1.00  0.00    -0.411 C  
BRANCH  31  32
HETATM   32  C   UNL     1     -10.913  16.727  67.785  1.00  0.00    -0.217 C  
BRANCH  32  33
HETATM   33  C   UNL     1     -11.038  16.388  69.260  1.00  0.00    -0.297 C  
BRANCH  33  34
HETATM   34  C   UNL     1     -11.911  15.156  69.446  1.00  0.00    -0.357 C  
BRANCH  34  35
HETATM   35  C   UNL     1     -12.848  15.347  70.630  1.00  0.00    -0.484 C  
BRANCH  35  36
HETATM   36  C   UNL     1     -13.149  14.012  71.299  1.00  0.00    -0.399 C  
BRANCH  36  37
HETATM   37  C   UNL     1     -13.280  14.188  72.808  1.00  0.00    -0.604 C  
BRANCH  37  38
HETATM   38  C   UNL     1     -13.153  15.655  73.200  1.00  0.00    -0.666 C  
HETATM   39  C   UNL     1     -12.497  15.799  74.563  1.00  0.00    -0.755 C  
ENDBRANCH  37  38
ENDBRANCH  36  37
ENDBRANCH  35  36
ENDBRANCH  34  35
ENDBRANCH  33  34
ENDBRANCH  32  33
ENDBRANCH  31  32
ENDBRANCH  30  31
ENDBRANCH  29  30
ENDBRANCH  28  29
ENDBRANCH  27  28
ENDBRANCH  26  27
ENDBRANCH  25  26
ENDBRANCH  24  25
ENDBRANCH  23  24
ENDBRANCH  22  23
ENDBRANCH  19  22
ENDBRANCH  18  19
ENDBRANCH  17  18
ENDBRANCH  16  17
ENDBRANCH  15  16
ENDBRANCH  14  15
ENDBRANCH  13  14
ENDBRANCH  12  13
ENDBRANCH  11  12
ENDBRANCH  10  11
ENDBRANCH   9  10
ENDBRANCH   8   9
ENDBRANCH   7   8
ENDBRANCH   6   7
ENDBRANCH   5   6
ENDBRANCH   4   5
ENDBRANCH   3   4
ENDBRANCH   2   3
TORSDOF 34
ENDMDL
MODEL       31
REMARK 921   NORMALIZED FREE ENERGY PREDICTED BY IDOCK:   -3.92 KCAL/MOL
REMARK 922        TOTAL FREE ENERGY PREDICTED BY IDOCK:  -18.04 KCAL/MOL
REMARK 923 INTER-LIGAND FREE ENERGY PREDICTED BY IDOCK:  -12.02 KCAL/MOL
REMARK 924 INTRA-LIGAND FREE ENERGY PREDICTED BY IDOCK:   -6.02 KCAL/MOL
REMARK 927      BINDING AFFINITY PREDICTED BY RF-SCORE:    0.00 PKD
ROOT
HETATM    1  C   UNL     1      -7.286  14.088  67.398  1.00  0.00    -0.117 C  
HETATM    2  C   UNL     1      -7.625  14.220  68.872  1.00  0.00    -0.113 C  
ENDROOT
BRANCH   2   3
HETATM    3  C   UNL     1      -7.389  15.641  69.362  1.00  0.00    -0.216 C  
BRANCH   3   4
HETATM    4  C   UNL     1      -6.931  16.547  68.222  1.00  0.00    -0.143 C  
BRANCH   4   5
HETATM    5  C   UNL     1      -7.053  18.013  68.618  1.00  0.00    -0.269 C  
BRANCH   5   6
HETATM    6  C   UNL     1      -6.212  18.886  67.697  1.00  0.00    -0.206 C  
BRANCH   6   7
HETATM    7  C   UNL     1      -7.027  20.078  67.216  1.00  0.00    -0.267 C  
BRANCH   7   8
HETATM    8  C   UNL     1      -7.758  19.730  65.929  1.00  0.00    -0.328 C  
BRANCH   8   9
HETATM    9  C   UNL     1      -9.260  19.811  66.140  1.00  0.00    -0.418 C  
BRANCH   9  10
HETATM   10  C   UNL     1      -9.559  20.480  67.469  1.00  0.00    -0.545 C  
BRANCH  10  11
HETATM   11  C   UNL     1     -10.435  19.583  68.324  1.00  0.00    -0.442 C  
BRANCH  11  12
HETATM   12  C   UNL     1     -10.858  18.372  67.515  1.00  0.00    -0.304 C  
BRANCH  12  13
HETATM   13  C   UNL     1     -10.569  17.102  68.286  1.00  0.00    -0.375 C  
BRANCH  13  14
HETATM   14  C   UNL     1     -10.596  15.915  67.341  1.00  0.00    -0.315 C  
BRANCH  14  15
HETATM   15  C   UNL     1      -9.858  16.277  66.072  1.00  0.00    -0.371 C  
BRANCH  15  16
HETATM   16  C   UNL     1     -10.794  16.258  64.875  1.00  0.00    -0.315 C  
BRANCH  16  17
HETATM   17  C   UNL     1     -11.872  15.228  65.154  1.00  0.00    -0.035 C  
BRANCH  17  18
HETATM   18  C   UNL     1     -12.044  14.270  63.990  1.00  0.00    -0.316 C  
BRANCH  18  19
HETATM   19  N   UNL     1     -11.763  12.808  64.394  1.00  0.00    -0.345 N  
HETATM   20  C   UNL     1     -12.494  11.844  63.454  1.00  0.00    -0.463 C  
HETATM   21  C   UNL     1     -10.259  12.525  64.359  1.00  0.00    -0.320 C  
BRANCH  19  22
HETATM   22  C   UNL     1     -12.304  12.666  65.834  1.00  0.00    -0.176 C  
BRANCH  22  23
HETATM   23  C   UNL     1     -11.305  11.999  66.758  1.00  0.00    -0.398 C  
BRANCH  23  24
HETATM   24  C   UNL     1     -11.652  12.230  68.217  1.00  0.00    -0.385 C  
BRANCH  24  25
HETATM   25  C   UNL     1     -11.663  10.875  68.903  1.00  0.00    -0.376 C  
BRANCH  25  26
HETATM   26  C   UNL     1     -11.803  11.027  70.400  1.00  0.00    -0.460 C  
BRANCH  26  27
HETATM   27  C   UNL     1     -13.150  10.475  70.835  1.00  0.00    -0.390 C  
BRANCH  27  28
HETATM   28  C   UNL     1     -12.958   9.528  72.000  1.00  0.00    -0.514 C  
BRANCH  28  29
HETATM   29  C   UNL     1     -14.065   8.492  72.018  1.00  0.00    -0.516 C  
BRANCH  29  30
HETATM   30  C   UNL     1     -13.584   7.228  71.334  1.00  0.00    -0.399 C  
BRANCH  30  31
HETATM   31  C   UNL     1     -12.094   7.045  71.546  1.00  0.00    -0.392 C  
BRANCH  31  32
HETATM   32  C   UNL     1     -11.469   6.420  70.313  1.00  0.00    -0.468 C  
BRANCH  32  33
HETATM   33  C   UNL     1     -10.700   7.468  69.526  1.00  0.00    -0.222 C  
BRANCH  33  34
HETATM   34  C   UNL     1     -10.357   6.940  68.142  1.00  0.00    -0.223 C  
BRANCH  34  35
HETATM   35  C   UNL     1     -10.662   7.993  67.085  1.00  0.00    -0.285 C  
BRANCH  35  36
HETATM   36  C   UNL     1      -9.433   8.268  66.229  1.00  0.00    -0.271 C  
BRANCH  36  37
HETATM   37  C   UNL     1      -8.170   8.237  67.084  1.00  0.00    -0.119 C  
BRANCH  37  38
HETATM   38  C   UNL     1      -7.500   9.606  67.119  1.00  0.00    -0.088 C  
HETATM   39  C   UNL     1      -8.105  10.480  68.204  1.00  0.00    -0.113 C  
ENDBRANCH  37  38
ENDBRANCH  36  37
ENDBRANCH  35  36
ENDBRANCH  34  35
ENDBRANCH  33  34
ENDBRANCH  32  33
ENDBRANCH  31  32
ENDBRANCH  30  31
ENDBRANCH  29  30
ENDBRANCH  28  29
ENDBRANCH  27  28
ENDBRANCH  26  27
ENDBRANCH  25  26
ENDBRANCH  24  25
ENDBRANCH  23  24
ENDBRANCH  22  23
ENDBRANCH  19  22
ENDBRANCH  18  19
ENDBRANCH  17  18
ENDBRANCH  16  17
ENDBRANCH  15  16
ENDBRANCH  14  15
ENDBRANCH  13  14
ENDBRANCH  12  13
ENDBRANCH  11  12
ENDBRANCH  10  11
ENDBRANCH   9  10
ENDBRANCH   8   9
ENDBRANCH   7   8
ENDBRANCH   6   7
ENDBRANCH   5   6
ENDBRANCH   4   5
ENDBRANCH   3   4
ENDBRANCH   2   3
TORSDOF 34
ENDMDL
MODEL       32
REMARK 921   NORMALIZED FREE ENERGY PREDICTED BY IDOCK:   -3.91 KCAL/MOL
REMARK 922        TOTAL FREE ENERGY PREDICTED BY IDOCK:  -18.02 KCAL/MOL
REMARK 923 INTER-LIGAND FREE ENERGY PREDICTED BY IDOCK:  -11.53 KCAL/MOL
REMARK 924 INTRA-LIGAND FREE ENERGY PREDICTED BY IDOCK:   -6.49 KCAL/MOL
REMARK 927      BINDING AFFINITY PREDICTED BY RF-SCORE:    0.00 PKD
ROOT
HETATM    1  C   UNL     1     -11.026   6.647  67.123  1.00  0.00    -0.478 C  
HETATM    2  C   UNL     1     -11.086   6.284  68.596  1.00  0.00    -0.409 C  
ENDROOT
BRANCH   2   3
HETATM    3  C   UNL     1      -9.951   5.344  68.974  1.00  0.00    -0.260 C  
BRANCH   3   4
HETATM    4  C   UNL     1     -10.041   4.936  70.442  1.00  0.00    -0.316 C  
BRANCH   4   5
HETATM    5  C   UNL     1     -10.041   6.164  71.343  1.00  0.00    -0.230 C  
BRANCH   5   6
HETATM    6  C   UNL     1     -11.203   6.107  72.325  1.00  0.00    -0.334 C  
BRANCH   6   7
HETATM    7  C   UNL     1     -11.862   7.474  72.439  1.00  0.00    -0.305 C  
BRANCH   7   8
HETATM    8  C   UNL     1     -13.094   7.539  71.551  1.00  0.00    -0.402 C  
BRANCH   8   9
HETATM    9  C   UNL     1     -13.686   8.937  71.576  1.00  0.00    -0.394 C  
BRANCH   9  10
HETATM   10  C   UNL     1     -12.577   9.965  71.707  1.00  0.00    -0.506 C  
BRANCH  10  11
HETATM   11  C   UNL     1     -12.491  10.809  70.449  1.00  0.00    -0.430 C  
BRANCH  11  12
HETATM   12  C   UNL     1     -11.425  10.239  69.532  1.00  0.00    -0.273 C  
BRANCH  12  13
HETATM   13  C   UNL     1     -10.242   9.757  70.344  1.00  0.00    -0.343 C  
BRANCH  13  14
HETATM   14  C   UNL     1      -9.081   9.447  69.417  1.00  0.00    -0.162 C  
BRANCH  14  15
HETATM   15  C   UNL     1      -9.402   9.964  68.033  1.00  0.00    -0.140 C  
BRANCH  15  16
HETATM   16  C   UNL     1      -8.250  10.784  67.478  1.00  0.00    -0.112 C  
BRANCH  16  17
HETATM   17  C   UNL     1      -7.381   9.853  66.654  1.00  0.00    -0.099 C  
BRANCH  17  18
HETATM   18  C   UNL     1      -7.325  10.282  65.200  1.00  0.00    -0.127 C  
BRANCH  18  19
HETATM   19  N   UNL     1      -7.720   9.139  64.241  1.00  0.00    -0.115 N  
HETATM   20  C   UNL     1      -6.509   8.690  63.418  1.00  0.00    -0.089 C  
HETATM   21  C   UNL     1      -8.283   7.953  65.028  1.00  0.00    -0.131 C  
BRANCH  19  22
HETATM   22  C   UNL     1      -8.805   9.735  63.316  1.00  0.00    -0.245 C  
BRANCH  22  23
HETATM   23  C   UNL     1      -9.883  10.463  64.094  1.00  0.00    -0.379 C  
BRANCH  23  24
HETATM   24  C   UNL     1     -10.327  11.729  63.383  1.00  0.00    -0.481 C  
BRANCH  24  25
HETATM   25  C   UNL     1     -11.047  12.595  64.401  1.00  0.00    -0.385 C  
BRANCH  25  26
HETATM   26  C   UNL     1     -11.442  11.789  65.617  1.00  0.00    -0.249 C  
BRANCH  26  27
HETATM   27  C   UNL     1     -11.809  12.734  66.747  1.00  0.00    -0.452 C  
BRANCH  27  28
HETATM   28  C   UNL     1     -10.609  13.585  67.107  1.00  0.00    -0.264 C  
BRANCH  28  29
HETATM   29  C   UNL     1     -10.451  13.650  68.613  1.00  0.00    -0.242 C  
BRANCH  29  30
HETATM   30  C   UNL     1     -11.751  14.116  69.238  1.00  0.00    -0.368 C  
BRANCH  30  31
HETATM   31  C   UNL     1     -11.902  15.617  69.091  1.00  0.00    -0.378 C  
BRANCH  31  32
HETATM   32  C   UNL     1     -10.734  16.322  69.754  1.00  0.00    -0.345 C  
BRANCH  32  33
HETATM   33  C   UNL     1     -10.159  17.374  68.821  1.00  0.00    -0.346 C  
BRANCH  33  34
HETATM   34  C   UNL     1     -10.780  17.249  67.438  1.00  0.00    -0.247 C  
BRANCH  34  35
HETATM   35  C   UNL     1      -9.781  17.673  66.370  1.00  0.00    -0.303 C  
BRANCH  35  36
HETATM   36  C   UNL     1      -8.676  16.635  66.226  1.00  0.00    -0.359 C  
BRANCH  36  37
HETATM   37  C   UNL     1      -7.307  17.309  66.224  1.00  0.00    -0.342 C  
BRANCH  37  38
HETATM   38  C   UNL     1      -7.434  18.803  66.496  1.00  0.00    -0.260 C  
HETATM   39  C   UNL     1      -6.744  19.179  67.796  1.00  0.00    -0.229 C  
ENDBRANCH  37  38
ENDBRANCH  36  37
ENDBRANCH  35  36
ENDBRANCH  34  35
ENDBRANCH  33  34
ENDBRANCH  32  33
ENDBRANCH  31  32
ENDBRANCH  30  31
ENDBRANCH  29  30
ENDBRANCH  28  29
ENDBRANCH  27  28
ENDBRANCH  26  27
ENDBRANCH  25  26
ENDBRANCH  24  25
ENDBRANCH  23  24
ENDBRANCH  22  23
ENDBRANCH  19  22
ENDBRANCH  18  19
ENDBRANCH  17  18
ENDBRANCH  16  17
ENDBRANCH  15  16
ENDBRANCH  14  15
ENDBRANCH  13  14
ENDBRANCH  12  13
ENDBRANCH  11  12
ENDBRANCH  10  11
ENDBRANCH   9  10
ENDBRANCH   8   9
ENDBRANCH   7   8
ENDBRANCH   6   7
ENDBRANCH   5   6
ENDBRANCH   4   5
ENDBRANCH   3   4
ENDBRANCH   2   3
TORSDOF 34
ENDMDL
MODEL       33
REMARK 921   NORMALIZED FREE ENERGY PREDICTED BY IDOCK:   -3.90 KCAL/MOL
REMARK 922        TOTAL FREE ENERGY PREDICTED BY IDOCK:  -17.99 KCAL/MOL
REMARK 923 INTER-LIGAND FREE ENERGY PREDICTED BY IDOCK:  -11.13 KCAL/MOL
REMARK 924 INTRA-LIGAND FREE ENERGY PREDICTED BY IDOCK:   -6.86 KCAL/MOL
REMARK 927      BINDING AFFINITY PREDICTED BY RF-SCORE:    0.00 PKD
ROOT
HETATM    1  C   UNL     1     -12.089  13.821  66.781  1.00  0.00    -0.460 C  
HETATM    2  C   UNL     1     -10.931  14.799  66.699  1.00  0.00    -0.326 C  
ENDROOT
BRANCH   2   3
HETATM    3  C   UNL     1      -9.962  14.598  67.855  1.00  0.00    -0.221 C  
BRANCH   3   4
HETATM    4  C   UNL     1     -10.710  14.416  69.173  1.00  0.00    -0.254 C  
BRANCH   4   5
HETATM    5  C   UNL     1     -10.977  15.764  69.830  1.00  0.00    -0.316 C  
BRANCH   5   6
HETATM    6  C   UNL     1     -12.232  15.701  70.690  1.00  0.00    -0.446 C  
BRANCH   6   7
HETATM    7  C   UNL     1     -11.862  15.776  72.164  1.00  0.00    -0.593 C  
BRANCH   7   8
HETATM    8  C   UNL     1     -13.015  15.277  73.021  1.00  0.00    -0.599 C  
BRANCH   8   9
HETATM    9  C   UNL     1     -13.995  14.485  72.172  1.00  0.00    -0.597 C  
BRANCH   9  10
HETATM   10  C   UNL     1     -13.760  12.999  72.364  1.00  0.00    -0.593 C  
BRANCH  10  11
HETATM   11  C   UNL     1     -12.985  12.432  71.190  1.00  0.00    -0.232 C  
BRANCH  11  12
HETATM   12  C   UNL     1     -12.748  10.951  71.409  1.00  0.00    -0.539 C  
BRANCH  12  13
HETATM   13  C   UNL     1     -11.537  10.493  70.625  1.00  0.00    -0.445 C  
BRANCH  13  14
HETATM   14  C   UNL     1     -11.699  10.879  69.166  1.00  0.00    -0.397 C  
BRANCH  14  15
HETATM   15  C   UNL     1     -10.367  10.735  68.465  1.00  0.00    -0.202 C  
BRANCH  15  16
HETATM   16  C   UNL     1     -10.548  10.180  67.062  1.00  0.00    -0.290 C  
BRANCH  16  17
HETATM   17  C   UNL     1      -9.309  10.540  66.265  1.00  0.00    -0.202 C  
BRANCH  17  18
HETATM   18  C   UNL     1      -8.395  11.468  67.043  1.00  0.00    -0.165 C  
BRANCH  18  19
HETATM   19  N   UNL     1      -6.909  11.075  66.902  1.00  0.00    -0.111 N  
HETATM   20  C   UNL     1      -6.635  10.518  65.502  1.00  0.00    -0.097 C  
HETATM   21  C   UNL     1      -6.010  12.285  67.165  1.00  0.00    -0.117 C  
BRANCH  19  22
HETATM   22  C   UNL     1      -6.669   9.984  67.969  1.00  0.00    -0.064 C  
BRANCH  22  23
HETATM   23  C   UNL     1      -6.322   8.644  67.350  1.00  0.00    -0.057 C  
BRANCH  23  24
HETATM   24  C   UNL     1      -7.358   7.587  67.688  1.00  0.00    -0.103 C  
BRANCH  24  25
HETATM   25  C   UNL     1      -7.515   6.696  66.468  1.00  0.00    -0.078 C  
BRANCH  25  26
HETATM   26  C   UNL     1      -8.921   6.771  65.920  1.00  0.00    -0.095 C  
BRANCH  26  27
HETATM   27  C   UNL     1      -9.553   5.391  65.974  1.00  0.00    -0.149 C  
BRANCH  27  28
HETATM   28  C   UNL     1     -10.371   5.256  67.241  1.00  0.00    -0.254 C  
BRANCH  28  29
HETATM   29  C   UNL     1     -11.062   6.567  67.557  1.00  0.00    -0.396 C  
BRANCH  29  30
HETATM   30  C   UNL     1     -10.903   6.880  69.032  1.00  0.00    -0.247 C  
BRANCH  30  31
HETATM   31  C   UNL     1     -10.564   5.622  69.806  1.00  0.00    -0.400 C  
BRANCH  31  32
HETATM   32  C   UNL     1     -11.103   5.723  71.221  1.00  0.00    -0.267 C  
BRANCH  32  33
HETATM   33  C   UNL     1     -11.854   7.031  71.404  1.00  0.00    -0.359 C  
BRANCH  33  34
HETATM   34  C   UNL     1     -11.654   7.561  72.815  1.00  0.00    -0.299 C  
BRANCH  34  35
HETATM   35  C   UNL     1     -10.388   6.976  73.425  1.00  0.00    -0.370 C  
BRANCH  35  36
HETATM   36  C   UNL     1      -9.262   8.001  73.412  1.00  0.00    -0.332 C  
BRANCH  36  37
HETATM   37  C   UNL     1      -7.956   7.354  72.960  1.00  0.00    -0.125 C  
BRANCH  37  38
HETATM   38  C   UNL     1      -7.698   7.619  71.482  1.00  0.00    -0.085 C  
HETATM   39  C   UNL     1      -8.414   8.877  71.021  1.00  0.00    -0.244 C  
ENDBRANCH  37  38
ENDBRANCH  36  37
ENDBRANCH  35  36
ENDBRANCH  34  35
ENDBRANCH  33  34
ENDBRANCH  32  33
ENDBRANCH  31  32
ENDBRANCH  30  31
ENDBRANCH  29  30
ENDBRANCH  28  29
ENDBRANCH  27  28
ENDBRANCH  26  27
ENDBRANCH  25  26
ENDBRANCH  24  25
ENDBRANCH  23  24
ENDBRANCH  22  23
ENDBRANCH  19  22
ENDBRANCH  18  19
ENDBRANCH  17  18
ENDBRANCH  16  17
ENDBRANCH  15  16
ENDBRANCH  14  15
ENDBRANCH  13  14
ENDBRANCH  12  13
ENDBRANCH  11  12
ENDBRANCH  10  11
ENDBRANCH   9  10
ENDBRANCH   8   9
ENDBRANCH   7   8
ENDBRANCH   6   7
ENDBRANCH   5   6
ENDBRANCH   4   5
ENDBRANCH   3   4
ENDBRANCH   2   3
TORSDOF 34
ENDMDL
MODEL       34
REMARK 921   NORMALIZED FREE ENERGY PREDICTED BY IDOCK:   -3.90 KCAL/MOL
REMARK 922        TOTAL FREE ENERGY PREDICTED BY IDOCK:  -17.99 KCAL/MOL
REMARK 923 INTER-LIGAND FREE ENERGY PREDICTED BY IDOCK:  -11.48 KCAL/MOL
REMARK 924 INTRA-LIGAND FREE ENERGY PREDICTED BY IDOCK:   -6.51 KCAL/MOL
REMARK 927      BINDING AFFINITY PREDICTED BY RF-SCORE:    0.00 PKD
ROOT
HETATM    1  C   UNL     1     -11.004   6.238  67.574  1.00  0.00    -0.444 C  
HETATM    2  C   UNL     1     -11.211   6.292  69.077  1.00  0.00    -0.415 C  
ENDROOT
BRANCH   2   3
HETATM    3  C   UNL     1     -10.454   5.172  69.774  1.00  0.00    -0.274 C  
BRANCH   3   4
HETATM    4  C   UNL     1     -10.503   5.335  71.291  1.00  0.00    -0.274 C  
BRANCH   4   5
HETATM    5  C   UNL     1     -10.042   6.729  71.697  1.00  0.00    -0.197 C  
BRANCH   5   6
HETATM    6  C   UNL     1     -10.855   7.238  72.879  1.00  0.00    -0.380 C  
BRANCH   6   7
HETATM    7  C   UNL     1     -11.539   8.549  72.520  1.00  0.00    -0.376 C  
BRANCH   7   8
HETATM    8  C   UNL     1     -12.876   8.278  71.850  1.00  0.00    -0.371 C  
BRANCH   8   9
HETATM    9  C   UNL     1     -13.494   9.579  71.366  1.00  0.00    -0.405 C  
BRANCH   9  10
HETATM   10  C   UNL     1     -12.413  10.629  71.187  1.00  0.00    -0.523 C  
BRANCH  10  11
HETATM   11  C   UNL     1     -12.251  10.971  69.717  1.00  0.00    -0.388 C  
BRANCH  11  12
HETATM   12  C   UNL     1     -11.112  10.158  69.133  1.00  0.00    -0.257 C  
BRANCH  12  13
HETATM   13  C   UNL     1      -9.786  10.819  69.444  1.00  0.00    -0.088 C  
BRANCH  13  14
HETATM   14  C   UNL     1      -8.804   9.778  69.950  1.00  0.00    -0.248 C  
BRANCH  14  15
HETATM   15  C   UNL     1      -8.818   8.590  69.015  1.00  0.00    -0.145 C  
BRANCH  15  16
HETATM   16  C   UNL     1      -7.517   7.810  69.108  1.00  0.00    -0.094 C  
BRANCH  16  17
HETATM   17  C   UNL     1      -7.499   6.815  67.963  1.00  0.00    -0.099 C  
BRANCH  17  18
HETATM   18  C   UNL     1      -6.277   7.000  67.083  1.00  0.00    -0.044 C  
BRANCH  18  19
HETATM   19  N   UNL     1      -6.650   7.471  65.661  1.00  0.00    -0.045 N  
HETATM   20  C   UNL     1      -5.709   6.847  64.627  1.00  0.00    -0.032 C  
HETATM   21  C   UNL     1      -8.098   7.096  65.338  1.00  0.00    -0.137 C  
BRANCH  19  22
HETATM   22  C   UNL     1      -6.484   9.007  65.679  1.00  0.00    -0.067 C  
BRANCH  22  23
HETATM   23  C   UNL     1      -7.711   9.722  65.150  1.00  0.00    -0.124 C  
BRANCH  23  24
HETATM   24  C   UNL     1      -8.225  10.755  66.135  1.00  0.00    -0.163 C  
BRANCH  24  25
HETATM   25  C   UNL     1      -9.619  11.159  65.689  1.00  0.00    -0.259 C  
BRANCH  25  26
HETATM   26  C   UNL     1      -9.930  10.606  64.317  1.00  0.00    -0.413 C  
BRANCH  26  27
HETATM   27  C   UNL     1     -11.096  11.375  63.720  1.00  0.00    -0.417 C  
BRANCH  27  28
HETATM   28  C   UNL     1     -10.896  12.858  63.949  1.00  0.00    -0.402 C  
BRANCH  28  29
HETATM   29  C   UNL     1     -12.224  13.584  63.853  1.00  0.00    -0.458 C  
BRANCH  29  30
HETATM   30  C   UNL     1     -12.657  14.028  65.236  1.00  0.00    -0.495 C  
BRANCH  30  31
HETATM   31  C   UNL     1     -11.448  14.335  66.097  1.00  0.00    -0.357 C  
BRANCH  31  32
HETATM   32  C   UNL     1     -11.693  13.866  67.519  1.00  0.00    -0.416 C  
BRANCH  32  33
HETATM   33  C   UNL     1     -10.410  13.955  68.329  1.00  0.00    -0.249 C  
BRANCH  33  34
HETATM   34  C   UNL     1     -10.513  15.069  69.359  1.00  0.00    -0.254 C  
BRANCH  34  35
HETATM   35  C   UNL     1     -11.873  15.747  69.269  1.00  0.00    -0.358 C  
BRANCH  35  36
HETATM   36  C   UNL     1     -12.630  15.610  70.584  1.00  0.00    -0.461 C  
BRANCH  36  37
HETATM   37  C   UNL     1     -12.067  14.456  71.406  1.00  0.00    -0.397 C  
BRANCH  37  38
HETATM   38  C   UNL     1     -13.001  14.097  72.556  1.00  0.00    -0.498 C  
HETATM   39  C   UNL     1     -13.880  15.278  72.931  1.00  0.00    -0.459 C  
ENDBRANCH  37  38
ENDBRANCH  36  37
ENDBRANCH  35  36
ENDBRANCH  34  35
ENDBRANCH  33  34
ENDBRANCH  32  33
ENDBRANCH  31  32
ENDBRANCH  30  31
ENDBRANCH  29  30
ENDBRANCH  28  29
ENDBRANCH  27  28
ENDBRANCH  26  27
ENDBRANCH  25  26
ENDBRANCH  24  25
ENDBRANCH  23  24
ENDBRANCH  22  23
ENDBRANCH  19  22
ENDBRANCH  18  19
ENDBRANCH  17  18
ENDBRANCH  16  17
ENDBRANCH  15  16
ENDBRANCH  14  15
ENDBRANCH  13  14
ENDBRANCH  12  13
ENDBRANCH  11  12
ENDBRANCH  10  11
ENDBRANCH   9  10
ENDBRANCH   8   9
ENDBRANCH   7   8
ENDBRANCH   6   7
ENDBRANCH   5   6
ENDBRANCH   4   5
ENDBRANCH   3   4
ENDBRANCH   2   3
TORSDOF 34
ENDMDL
MODEL       35
REMARK 921   NORMALIZED FREE ENERGY PREDICTED BY IDOCK:   -3.89 KCAL/MOL
REMARK 922        TOTAL FREE ENERGY PREDICTED BY IDOCK:  -17.95 KCAL/MOL
REMARK 923 INTER-LIGAND FREE ENERGY PREDICTED BY IDOCK:  -11.61 KCAL/MOL
REMARK 924 INTRA-LIGAND FREE ENERGY PREDICTED BY IDOCK:   -6.34 KCAL/MOL
REMARK 927      BINDING AFFINITY PREDICTED BY RF-SCORE:    0.00 PKD
ROOT
HETATM    1  C   UNL     1     -11.227   6.104  68.936  1.00  0.00    -0.338 C  
HETATM    2  C   UNL     1     -10.285   5.510  67.904  1.00  0.00    -0.231 C  
ENDROOT
BRANCH   2   3
HETATM    3  C   UNL     1      -8.913   5.244  68.505  1.00  0.00    -0.118 C  
BRANCH   3   4
HETATM    4  C   UNL     1      -8.975   5.233  70.030  1.00  0.00    -0.154 C  
BRANCH   4   5
HETATM    5  C   UNL     1      -7.760   4.521  70.612  1.00  0.00    -0.053 C  
BRANCH   5   6
HETATM    6  C   UNL     1      -6.604   5.495  70.789  1.00  0.00    -0.043 C  
BRANCH   6   7
HETATM    7  C   UNL     1      -7.041   6.682  71.635  1.00  0.00    -0.080 C  
BRANCH   7   8
HETATM    8  C   UNL     1      -6.192   7.900  71.310  1.00  0.00    -0.034 C  
BRANCH   8   9
HETATM    9  C   UNL     1      -6.893   8.767  70.277  1.00  0.00    -0.042 C  
BRANCH   9  10
HETATM   10  C   UNL     1      -8.269   9.159  70.780  1.00  0.00    -0.226 C  
BRANCH  10  11
HETATM   11  C   UNL     1      -9.271   9.140  69.640  1.00  0.00    -0.172 C  
BRANCH  11  12
HETATM   12  C   UNL     1      -8.539   8.931  68.329  1.00  0.00    -0.134 C  
BRANCH  12  13
HETATM   13  C   UNL     1      -9.467   9.202  67.163  1.00  0.00    -0.197 C  
BRANCH  13  14
HETATM   14  C   UNL     1     -10.764   9.801  67.674  1.00  0.00    -0.334 C  
BRANCH  14  15
HETATM   15  C   UNL     1     -11.047  11.082  66.922  1.00  0.00    -0.280 C  
BRANCH  15  16
HETATM   16  C   UNL     1     -10.371  11.074  65.561  1.00  0.00    -0.321 C  
BRANCH  16  17
HETATM   17  C   UNL     1     -10.300  12.510  65.079  1.00  0.00    -0.323 C  
BRANCH  17  18
HETATM   18  C   UNL     1     -10.123  13.479  66.233  1.00  0.00    -0.298 C  
BRANCH  18  19
HETATM   19  N   UNL     1     -11.180  14.604  66.217  1.00  0.00    -0.337 N  
HETATM   20  C   UNL     1     -10.505  15.968  66.048  1.00  0.00    -0.345 C  
HETATM   21  C   UNL     1     -12.183  14.376  65.084  1.00  0.00    -0.393 C  
BRANCH  19  22
HETATM   22  C   UNL     1     -11.889  14.522  67.587  1.00  0.00    -0.364 C  
BRANCH  22  23
HETATM   23  C   UNL     1     -10.985  14.951  68.726  1.00  0.00    -0.259 C  
BRANCH  23  24
HETATM   24  C   UNL     1     -11.714  15.840  69.715  1.00  0.00    -0.355 C  
BRANCH  24  25
HETATM   25  C   UNL     1     -11.299  15.408  71.110  1.00  0.00    -0.427 C  
BRANCH  25  26
HETATM   26  C   UNL     1     -12.267  15.926  72.149  1.00  0.00    -0.578 C  
BRANCH  26  27
HETATM   27  C   UNL     1     -12.810  14.758  72.953  1.00  0.00    -0.559 C  
BRANCH  27  28
HETATM   28  C   UNL     1     -13.790  13.971  72.107  1.00  0.00    -0.627 C  
BRANCH  28  29
HETATM   29  C   UNL     1     -13.429  12.499  72.128  1.00  0.00    -0.523 C  
BRANCH  29  30
HETATM   30  C   UNL     1     -12.542  12.179  70.941  1.00  0.00    -0.340 C  
BRANCH  30  31
HETATM   31  C   UNL     1     -12.598  10.699  70.621  1.00  0.00    -0.454 C  
BRANCH  31  32
HETATM   32  C   UNL     1     -12.696   9.895  71.903  1.00  0.00    -0.501 C  
BRANCH  32  33
HETATM   33  C   UNL     1     -13.258   8.513  71.614  1.00  0.00    -0.371 C  
BRANCH  33  34
HETATM   34  C   UNL     1     -12.284   7.441  72.079  1.00  0.00    -0.315 C  
BRANCH  34  35
HETATM   35  C   UNL     1     -11.116   8.075  72.822  1.00  0.00    -0.448 C  
BRANCH  35  36
HETATM   36  C   UNL     1     -10.014   7.051  73.063  1.00  0.00    -0.227 C  
BRANCH  36  37
HETATM   37  C   UNL     1     -10.340   6.192  74.280  1.00  0.00    -0.291 C  
BRANCH  37  38
HETATM   38  C   UNL     1      -9.918   4.744  74.056  1.00  0.00    -0.200 C  
HETATM   39  C   UNL     1     -10.991   3.975  73.304  1.00  0.00    -0.313 C  
ENDBRANCH  37  38
ENDBRANCH  36  37
ENDBRANCH  35  36
ENDBRANCH  34  35
ENDBRANCH  33  34
ENDBRANCH  32  33
ENDBRANCH  31  32
ENDBRANCH  30  31
ENDBRANCH  29  30
ENDBRANCH  28  29
ENDBRANCH  27  28
ENDBRANCH  26  27
ENDBRANCH  25  26
ENDBRANCH  24  25
ENDBRANCH  23  24
ENDBRANCH  22  23
ENDBRANCH  19  22
ENDBRANCH  18  19
ENDBRANCH  17  18
ENDBRANCH  16  17
ENDBRANCH  15  16
ENDBRANCH  14  15
ENDBRANCH  13  14
ENDBRANCH  12  13
ENDBRANCH  11  12
ENDBRANCH  10  11
ENDBRANCH   9  10
ENDBRANCH   8   9
ENDBRANCH   7   8
ENDBRANCH   6   7
ENDBRANCH   5   6
ENDBRANCH   4   5
ENDBRANCH   3   4
ENDBRANCH   2   3
TORSDOF 34
ENDMDL
MODEL       36
REMARK 921   NORMALIZED FREE ENERGY PREDICTED BY IDOCK:   -3.89 KCAL/MOL
REMARK 922        TOTAL FREE ENERGY PREDICTED BY IDOCK:  -17.94 KCAL/MOL
REMARK 923 INTER-LIGAND FREE ENERGY PREDICTED BY IDOCK:  -12.33 KCAL/MOL
REMARK 924 INTRA-LIGAND FREE ENERGY PREDICTED BY IDOCK:   -5.62 KCAL/MOL
REMARK 927      BINDING AFFINITY PREDICTED BY RF-SCORE:    0.00 PKD
ROOT
HETATM    1  C   UNL     1      -6.897  18.203  68.403  1.00  0.00    -0.231 C  
HETATM    2  C   UNL     1      -7.401  19.617  68.627  1.00  0.00    -0.375 C  
ENDROOT
BRANCH   2   3
HETATM    3  C   UNL     1      -7.394  20.412  67.330  1.00  0.00    -0.359 C  
BRANCH   3   4
HETATM    4  C   UNL     1      -8.595  20.055  66.460  1.00  0.00    -0.366 C  
BRANCH   4   5
HETATM    5  C   UNL     1      -9.897  20.405  67.170  1.00  0.00    -0.601 C  
BRANCH   5   6
HETATM    6  C   UNL     1     -10.811  19.190  67.240  1.00  0.00    -0.529 C  
BRANCH   6   7
HETATM    7  C   UNL     1     -10.316  18.105  66.295  1.00  0.00    -0.407 C  
BRANCH   7   8
HETATM    8  C   UNL     1     -10.141  16.795  67.045  1.00  0.00    -0.276 C  
BRANCH   8   9
HETATM    9  C   UNL     1      -9.409  15.786  66.176  1.00  0.00    -0.381 C  
BRANCH   9  10
HETATM   10  C   UNL     1     -10.388  15.111  65.233  1.00  0.00    -0.425 C  
BRANCH  10  11
HETATM   11  C   UNL     1     -11.643  14.703  65.983  1.00  0.00    -0.328 C  
BRANCH  11  12
HETATM   12  C   UNL     1     -12.653  14.139  65.003  1.00  0.00    -0.399 C  
BRANCH  12  13
HETATM   13  C   UNL     1     -12.526  12.631  64.931  1.00  0.00    -0.564 C  
BRANCH  13  14
HETATM   14  C   UNL     1     -12.020  12.228  63.558  1.00  0.00    -0.625 C  
BRANCH  14  15
HETATM   15  C   UNL     1     -10.645  11.616  63.698  1.00  0.00    -0.493 C  
BRANCH  15  16
HETATM   16  C   UNL     1     -10.301  11.377  65.158  1.00  0.00    -0.344 C  
BRANCH  16  17
HETATM   17  C   UNL     1      -9.733   9.975  65.270  1.00  0.00    -0.373 C  
BRANCH  17  18
HETATM   18  C   UNL     1      -8.317   9.902  64.729  1.00  0.00    -0.160 C  
BRANCH  18  19
HETATM   19  N   UNL     1      -7.409   9.003  65.595  1.00  0.00    -0.085 N  
HETATM   20  C   UNL     1      -7.859   7.542  65.502  1.00  0.00    -0.114 C  
HETATM   21  C   UNL     1      -5.952   9.127  65.145  1.00  0.00    -0.059 C  
BRANCH  19  22
HETATM   22  C   UNL     1      -7.572   9.524  67.041  1.00  0.00    -0.091 C  
BRANCH  22  23
HETATM   23  C   UNL     1      -7.905   8.412  68.015  1.00  0.00    -0.111 C  
BRANCH  23  24
HETATM   24  C   UNL     1      -9.040   8.802  68.943  1.00  0.00    -0.141 C  
BRANCH  24  25
HETATM   25  C   UNL     1     -10.332   8.309  68.315  1.00  0.00    -0.242 C  
BRANCH  25  26
HETATM   26  C   UNL     1     -10.387   6.799  68.303  1.00  0.00    -0.215 C  
BRANCH  26  27
HETATM   27  C   UNL     1     -11.339   6.324  69.386  1.00  0.00    -0.448 C  
BRANCH  27  28
HETATM   28  C   UNL     1     -10.708   5.180  70.151  1.00  0.00    -0.105 C  
BRANCH  28  29
HETATM   29  C   UNL     1      -9.279   5.527  70.522  1.00  0.00    -0.179 C  
BRANCH  29  30
HETATM   30  C   UNL     1      -9.210   5.869  71.998  1.00  0.00    -0.154 C  
BRANCH  30  31
HETATM   31  C   UNL     1      -8.199   6.972  72.239  1.00  0.00    -0.102 C  
BRANCH  31  32
HETATM   32  C   UNL     1      -8.902   8.214  72.755  1.00  0.00    -0.297 C  
BRANCH  32  33
HETATM   33  C   UNL     1     -10.408   8.042  72.661  1.00  0.00    -0.398 C  
BRANCH  33  34
HETATM   34  C   UNL     1     -11.026   9.206  71.901  1.00  0.00    -0.372 C  
BRANCH  34  35
HETATM   35  C   UNL     1     -12.503   8.944  71.644  1.00  0.00    -0.403 C  
BRANCH  35  36
HETATM   36  C   UNL     1     -13.166  10.167  71.024  1.00  0.00    -0.412 C  
BRANCH  36  37
HETATM   37  C   UNL     1     -12.114  11.180  70.585  1.00  0.00    -0.477 C  
BRANCH  37  38
HETATM   38  C   UNL     1     -12.084  11.314  69.067  1.00  0.00    -0.325 C  
HETATM   39  C   UNL     1     -11.757  12.739  68.653  1.00  0.00    -0.360 C  
ENDBRANCH  37  38
ENDBRANCH  36  37
ENDBRANCH  35  36
ENDBRANCH  34  35
ENDBRANCH  33  34
ENDBRANCH  32  33
ENDBRANCH  31  32
ENDBRANCH  30  31
ENDBRANCH  29  30
ENDBRANCH  28  29
ENDBRANCH  27  28
ENDBRANCH  26  27
ENDBRANCH  25  26
ENDBRANCH  24  25
ENDBRANCH  23  24
ENDBRANCH  22  23
ENDBRANCH  19  22
ENDBRANCH  18  19
ENDBRANCH  17  18
ENDBRANCH  16  17
ENDBRANCH  15  16
ENDBRANCH  14  15
ENDBRANCH  13  14
ENDBRANCH  12  13
ENDBRANCH  11  12
ENDBRANCH  10  11
ENDBRANCH   9  10
ENDBRANCH   8   9
ENDBRANCH   7   8
ENDBRANCH   6   7
ENDBRANCH   5   6
ENDBRANCH   4   5
ENDBRANCH   3   4
ENDBRANCH   2   3
TORSDOF 34
ENDMDL
MODEL       37
REMARK 921   NORMALIZED FREE ENERGY PREDICTED BY IDOCK:   -3.88 KCAL/MOL
REMARK 922        TOTAL FREE ENERGY PREDICTED BY IDOCK:  -17.90 KCAL/MOL
REMARK 923 INTER-LIGAND FREE ENERGY PREDICTED BY IDOCK:  -10.81 KCAL/MOL
REMARK 924 INTRA-LIGAND FREE ENERGY PREDICTED BY IDOCK:   -7.10 KCAL/MOL
REMARK 927      BINDING AFFINITY PREDICTED BY RF-SCORE:    0.00 PKD
ROOT
HETATM    1  C   UNL     1      -8.494  10.978  68.673  1.00  0.00    -0.157 C  
HETATM    2  C   UNL     1      -9.735  11.726  68.217  1.00  0.00    -0.199 C  
ENDROOT
BRANCH   2   3
HETATM    3  C   UNL     1     -10.982  10.872  68.391  1.00  0.00    -0.288 C  
BRANCH   3   4
HETATM    4  C   UNL     1     -12.113  11.675  69.028  1.00  0.00    -0.288 C  
BRANCH   4   5
HETATM    5  C   UNL     1     -12.142  11.460  70.536  1.00  0.00    -0.487 C  
BRANCH   5   6
HETATM    6  C   UNL     1     -12.888  10.178  70.879  1.00  0.00    -0.442 C  
BRANCH   6   7
HETATM    7  C   UNL     1     -12.023   9.287  71.758  1.00  0.00    -0.455 C  
BRANCH   7   8
HETATM    8  C   UNL     1     -11.688   7.995  71.029  1.00  0.00    -0.295 C  
BRANCH   8   9
HETATM    9  C   UNL     1     -10.229   7.993  70.607  1.00  0.00    -0.205 C  
BRANCH   9  10
HETATM   10  C   UNL     1      -9.415   8.849  71.560  1.00  0.00    -0.347 C  
BRANCH  10  11
HETATM   11  C   UNL     1      -8.473   7.980  72.373  1.00  0.00    -0.211 C  
BRANCH  11  12
HETATM   12  C   UNL     1      -8.919   7.971  73.822  1.00  0.00    -0.288 C  
BRANCH  12  13
HETATM   13  C   UNL     1      -9.591   6.655  74.154  1.00  0.00    -0.281 C  
BRANCH  13  14
HETATM   14  C   UNL     1      -8.733   5.506  73.658  1.00  0.00    -0.122 C  
BRANCH  14  15
HETATM   15  C   UNL     1      -9.627   4.347  73.281  1.00  0.00    -0.142 C  
BRANCH  15  16
HETATM   16  C   UNL     1     -10.367   4.630  71.985  1.00  0.00    -0.234 C  
BRANCH  16  17
HETATM   17  C   UNL     1      -9.368   4.498  70.851  1.00  0.00    -0.219 C  
BRANCH  17  18
HETATM   18  C   UNL     1     -10.056   4.492  69.498  1.00  0.00    -0.069 C  
BRANCH  18  19
HETATM   19  N   UNL     1      -9.056   4.304  68.338  1.00  0.00    -0.119 N  
HETATM   20  C   UNL     1      -7.667   4.807  68.742  1.00  0.00    -0.072 C  
HETATM   21  C   UNL     1      -8.977   2.830  67.936  1.00  0.00    -0.161 C  
BRANCH  19  22
HETATM   22  C   UNL     1      -9.614   5.150  67.172  1.00  0.00    -0.146 C  
BRANCH  22  23
HETATM   23  C   UNL     1     -10.733   6.071  67.618  1.00  0.00    -0.377 C  
BRANCH  23  24
HETATM   24  C   UNL     1     -10.518   7.491  67.128  1.00  0.00    -0.407 C  
BRANCH  24  25
HETATM   25  C   UNL     1      -9.021   7.746  67.113  1.00  0.00    -0.138 C  
BRANCH  25  26
HETATM   26  C   UNL     1      -8.603   8.441  65.838  1.00  0.00    -0.179 C  
BRANCH  26  27
HETATM   27  C   UNL     1      -9.741   9.320  65.351  1.00  0.00    -0.170 C  
BRANCH  27  28
HETATM   28  C   UNL     1      -9.293  10.102  64.133  1.00  0.00    -0.340 C  
BRANCH  28  29
HETATM   29  C   UNL     1      -9.733  11.548  64.252  1.00  0.00    -0.229 C  
BRANCH  29  30
HETATM   30  C   UNL     1     -11.202  11.660  63.893  1.00  0.00    -0.479 C  
BRANCH  30  31
HETATM   31  C   UNL     1     -11.987  12.242  65.051  1.00  0.00    -0.413 C  
BRANCH  31  32
HETATM   32  C   UNL     1     -12.522  13.612  64.677  1.00  0.00    -0.359 C  
BRANCH  32  33
HETATM   33  C   UNL     1     -12.307  14.589  65.821  1.00  0.00    -0.249 C  
BRANCH  33  34
HETATM   34  C   UNL     1     -10.834  14.950  65.937  1.00  0.00    -0.336 C  
BRANCH  34  35
HETATM   35  C   UNL     1     -10.427  15.042  67.401  1.00  0.00    -0.257 C  
BRANCH  35  36
HETATM   36  C   UNL     1     -11.652  15.206  68.290  1.00  0.00    -0.357 C  
BRANCH  36  37
HETATM   37  C   UNL     1     -11.251  15.177  69.762  1.00  0.00    -0.298 C  
BRANCH  37  38
HETATM   38  C   UNL     1     -12.439  15.509  70.658  1.00  0.00    -0.483 C  
HETATM   39  C   UNL     1     -12.042  15.467  72.124  1.00  0.00    -0.509 C  
ENDBRANCH  37  38
ENDBRANCH  36  37
ENDBRANCH  35  36
ENDBRANCH  34  35
ENDBRANCH  33  34
ENDBRANCH  32  33
ENDBRANCH  31  32
ENDBRANCH  30  31
ENDBRANCH  29  30
ENDBRANCH  28  29
ENDBRANCH  27  28
ENDBRANCH  26  27
ENDBRANCH  25  26
ENDBRANCH  24  25
ENDBRANCH  23  24
ENDBRANCH  22  23
ENDBRANCH  19  22
ENDBRANCH  18  19
ENDBRANCH  17  18
ENDBRANCH  16  17
ENDBRANCH  15  16
ENDBRANCH  14  15
ENDBRANCH  13  14
ENDBRANCH  12  13
ENDBRANCH  11  12
ENDBRANCH  10  11
ENDBRANCH   9  10
ENDBRANCH   8   9
ENDBRANCH   7   8
ENDBRANCH   6   7
ENDBRANCH   5   6
ENDBRANCH   4   5
ENDBRANCH   3   4
ENDBRANCH   2   3
TORSDOF 34
ENDMDL
MODEL       38
REMARK 921   NORMALIZED FREE ENERGY PREDICTED BY IDOCK:   -3.84 KCAL/MOL
REMARK 922        TOTAL FREE ENERGY PREDICTED BY IDOCK:  -17.79 KCAL/MOL
REMARK 923 INTER-LIGAND FREE ENERGY PREDICTED BY IDOCK:  -11.99 KCAL/MOL
REMARK 924 INTRA-LIGAND FREE ENERGY PREDICTED BY IDOCK:   -5.80 KCAL/MOL
REMARK 927      BINDING AFFINITY PREDICTED BY RF-SCORE:    0.00 PKD
ROOT
HETATM    1  C   UNL     1     -12.416  15.371  73.570  1.00  0.00    -0.666 C  
HETATM    2  C   UNL     1     -13.520  14.909  72.635  1.00  0.00    -0.573 C  
ENDROOT
BRANCH   2   3
HETATM    3  C   UNL     1     -13.262  15.379  71.211  1.00  0.00    -0.585 C  
BRANCH   3   4
HETATM    4  C   UNL     1     -11.799  15.773  71.019  1.00  0.00    -0.460 C  
BRANCH   4   5
HETATM    5  C   UNL     1     -11.421  15.735  69.544  1.00  0.00    -0.356 C  
BRANCH   5   6
HETATM    6  C   UNL     1      -9.999  15.221  69.370  1.00  0.00    -0.257 C  
BRANCH   6   7
HETATM    7  C   UNL     1      -9.500  15.523  67.964  1.00  0.00    -0.194 C  
BRANCH   7   8
HETATM    8  C   UNL     1     -10.675  15.769  67.031  1.00  0.00    -0.306 C  
BRANCH   8   9
HETATM    9  C   UNL     1     -10.268  15.498  65.593  1.00  0.00    -0.403 C  
BRANCH   9  10
HETATM   10  C   UNL     1     -11.449  14.942  64.819  1.00  0.00    -0.410 C  
BRANCH  10  11
HETATM   11  C   UNL     1     -12.320  14.093  65.726  1.00  0.00    -0.481 C  
BRANCH  11  12
HETATM   12  C   UNL     1     -12.111  12.627  65.397  1.00  0.00    -0.516 C  
BRANCH  12  13
HETATM   13  C   UNL     1     -11.373  11.938  66.526  1.00  0.00    -0.403 C  
BRANCH  13  14
HETATM   14  C   UNL     1     -11.885  12.455  67.858  1.00  0.00    -0.370 C  
BRANCH  14  15
HETATM   15  C   UNL     1     -11.791  11.350  68.886  1.00  0.00    -0.413 C  
BRANCH  15  16
HETATM   16  C   UNL     1     -11.981  11.897  70.290  1.00  0.00    -0.416 C  
BRANCH  16  17
HETATM   17  C   UNL     1     -12.328  10.728  71.192  1.00  0.00    -0.498 C  
BRANCH  17  18
HETATM   18  C   UNL     1     -11.331   9.594  71.045  1.00  0.00    -0.374 C  
BRANCH  18  19
HETATM   19  N   UNL     1     -11.861   8.272  71.639  1.00  0.00    -0.284 N  
HETATM   20  C   UNL     1     -13.327   8.423  72.055  1.00  0.00    -0.343 C  
HETATM   21  C   UNL     1     -11.724   7.138  70.622  1.00  0.00    -0.307 C  
BRANCH  19  22
HETATM   22  C   UNL     1     -10.979   7.994  72.877  1.00  0.00    -0.330 C  
BRANCH  22  23
HETATM   23  C   UNL     1     -10.727   6.513  73.079  1.00  0.00    -0.291 C  
BRANCH  23  24
HETATM   24  C   UNL     1      -9.713   6.263  74.181  1.00  0.00    -0.244 C  
BRANCH  24  25
HETATM   25  C   UNL     1      -8.625   7.314  74.047  1.00  0.00    -0.234 C  
BRANCH  25  26
HETATM   26  C   UNL     1      -7.357   6.714  73.487  1.00  0.00    -0.080 C  
BRANCH  26  27
HETATM   27  C   UNL     1      -6.890   7.544  72.305  1.00  0.00    -0.060 C  
BRANCH  27  28
HETATM   28  C   UNL     1      -7.719   7.202  71.084  1.00  0.00    -0.090 C  
BRANCH  28  29
HETATM   29  C   UNL     1      -7.807   5.697  70.920  1.00  0.00    -0.105 C  
BRANCH  29  30
HETATM   30  C   UNL     1      -7.951   5.358  69.449  1.00  0.00    -0.089 C  
BRANCH  30  31
HETATM   31  C   UNL     1      -9.274   4.664  69.193  1.00  0.00    -0.184 C  
BRANCH  31  32
HETATM   32  C   UNL     1      -9.429   4.373  67.712  1.00  0.00    -0.207 C  
BRANCH  32  33
HETATM   33  C   UNL     1      -9.387   5.666  66.916  1.00  0.00    -0.129 C  
BRANCH  33  34
HETATM   34  C   UNL     1     -10.742   6.355  66.957  1.00  0.00    -0.434 C  
BRANCH  34  35
HETATM   35  C   UNL     1     -10.565   7.856  67.139  1.00  0.00    -0.383 C  
BRANCH  35  36
HETATM   36  C   UNL     1      -9.134   8.184  67.542  1.00  0.00    -0.147 C  
BRANCH  36  37
HETATM   37  C   UNL     1      -9.109   9.358  68.516  1.00  0.00    -0.131 C  
BRANCH  37  38
HETATM   38  C   UNL     1      -7.852  10.199  68.326  1.00  0.00    -0.093 C  
HETATM   39  C   UNL     1      -8.203  11.667  68.149  1.00  0.00    -0.151 C  
ENDBRANCH  37  38
ENDBRANCH  36  37
ENDBRANCH  35  36
ENDBRANCH  34  35
ENDBRANCH  33  34
ENDBRANCH  32  33
ENDBRANCH  31  32
ENDBRANCH  30  31
ENDBRANCH  29  30
ENDBRANCH  28  29
ENDBRANCH  27  28
ENDBRANCH  26  27
ENDBRANCH  25  26
ENDBRANCH  24  25
ENDBRANCH  23  24
ENDBRANCH  22  23
ENDBRANCH  19  22
ENDBRANCH  18  19
ENDBRANCH  17  18
ENDBRANCH  16  17
ENDBRANCH  15  16
ENDBRANCH  14  15
ENDBRANCH  13  14
ENDBRANCH  12  13
ENDBRANCH  11  12
ENDBRANCH  10  11
ENDBRANCH   9  10
ENDBRANCH   8   9
ENDBRANCH   7   8
ENDBRANCH   6   7
ENDBRANCH   5   6
ENDBRANCH   4   5
ENDBRANCH   3   4
ENDBRANCH   2   3
TORSDOF 34
ENDMDL
MODEL       39
REMARK 921   NORMALIZED FREE ENERGY PREDICTED BY IDOCK:   -3.83 KCAL/MOL
REMARK 922        TOTAL FREE ENERGY PREDICTED BY IDOCK:  -17.76 KCAL/MOL
REMARK 923 INTER-LIGAND FREE ENERGY PREDICTED BY IDOCK:  -11.54 KCAL/MOL
REMARK 924 INTRA-LIGAND FREE ENERGY PREDICTED BY IDOCK:   -6.23 KCAL/MOL
REMARK 927      BINDING AFFINITY PREDICTED BY RF-SCORE:    0.00 PKD
ROOT
HETATM    1  C   UNL     1      -6.446  14.408  69.023  1.00  0.00    -0.098 C  
HETATM    2  C   UNL     1      -7.378  14.775  67.882  1.00  0.00    -0.162 C  
ENDROOT
BRANCH   2   3
HETATM    3  C   UNL     1      -8.824  14.827  68.352  1.00  0.00    -0.181 C  
BRANCH   3   4
HETATM    4  C   UNL     1      -9.626  15.850  67.553  1.00  0.00    -0.221 C  
BRANCH   4   5
HETATM    5  C   UNL     1      -9.347  15.706  66.062  1.00  0.00    -0.384 C  
BRANCH   5   6
HETATM    6  C   UNL     1     -10.647  15.535  65.289  1.00  0.00    -0.446 C  
BRANCH   6   7
HETATM    7  C   UNL     1     -11.722  14.946  66.192  1.00  0.00    -0.178 C  
BRANCH   7   8
HETATM    8  C   UNL     1     -12.487  13.858  65.455  1.00  0.00    -0.541 C  
BRANCH   8   9
HETATM    9  C   UNL     1     -12.150  13.890  63.974  1.00  0.00    -0.437 C  
BRANCH   9  10
HETATM   10  C   UNL     1     -11.761  12.500  63.504  1.00  0.00    -0.595 C  
BRANCH  10  11
HETATM   11  C   UNL     1     -11.332  11.647  64.684  1.00  0.00    -0.284 C  
BRANCH  11  12
HETATM   12  C   UNL     1      -9.818  11.561  64.719  1.00  0.00    -0.286 C  
BRANCH  12  13
HETATM   13  C   UNL     1      -9.293  12.132  66.019  1.00  0.00    -0.174 C  
BRANCH  13  14
HETATM   14  C   UNL     1     -10.182  11.689  67.166  1.00  0.00    -0.240 C  
BRANCH  14  15
HETATM   15  C   UNL     1      -9.314  11.226  68.315  1.00  0.00    -0.180 C  
BRANCH  15  16
HETATM   16  C   UNL     1      -7.846  11.234  67.924  1.00  0.00    -0.116 C  
BRANCH  16  17
HETATM   17  C   UNL     1      -7.348   9.803  67.990  1.00  0.00    -0.081 C  
BRANCH  17  18
HETATM   18  C   UNL     1      -7.690   9.034  66.727  1.00  0.00    -0.093 C  
BRANCH  18  19
HETATM   19  N   UNL     1      -8.505   7.758  67.026  1.00  0.00    -0.123 N  
HETATM   20  C   UNL     1      -9.992   7.996  66.747  1.00  0.00    -0.274 C  
HETATM   21  C   UNL     1      -7.998   6.591  66.175  1.00  0.00    -0.110 C  
BRANCH  19  22
HETATM   22  C   UNL     1      -8.280   7.467  68.526  1.00  0.00    -0.125 C  
BRANCH  22  23
HETATM   23  C   UNL     1      -9.482   6.803  69.167  1.00  0.00    -0.141 C  
BRANCH  23  24
HETATM   24  C   UNL     1      -9.075   5.622  70.030  1.00  0.00    -0.157 C  
BRANCH  24  25
HETATM   25  C   UNL     1     -10.348   4.949  70.512  1.00  0.00    -0.242 C  
BRANCH  25  26
HETATM   26  C   UNL     1     -10.440   4.979  72.020  1.00  0.00    -0.269 C  
BRANCH  26  27
HETATM   27  C   UNL     1     -11.461   6.021  72.439  1.00  0.00    -0.357 C  
BRANCH  27  28
HETATM   28  C   UNL     1     -10.750   7.291  72.854  1.00  0.00    -0.365 C  
BRANCH  28  29
HETATM   29  C   UNL     1     -11.207   8.450  71.990  1.00  0.00    -0.404 C  
BRANCH  29  30
HETATM   30  C   UNL     1     -12.678   8.288  71.664  1.00  0.00    -0.351 C  
BRANCH  30  31
HETATM   31  C   UNL     1     -13.305   9.634  71.360  1.00  0.00    -0.444 C  
BRANCH  31  32
HETATM   32  C   UNL     1     -12.225  10.646  71.031  1.00  0.00    -0.498 C  
BRANCH  32  33
HETATM   33  C   UNL     1     -12.836  12.025  70.849  1.00  0.00    -0.205 C  
BRANCH  33  34
HETATM   34  C   UNL     1     -11.812  12.982  70.258  1.00  0.00    -0.294 C  
BRANCH  34  35
HETATM   35  C   UNL     1     -12.512  14.154  69.584  1.00  0.00    -0.207 C  
BRANCH  35  36
HETATM   36  C   UNL     1     -12.267  15.443  70.357  1.00  0.00    -0.430 C  
BRANCH  36  37
HETATM   37  C   UNL     1     -13.140  15.490  71.607  1.00  0.00    -0.561 C  
BRANCH  37  38
HETATM   38  C   UNL     1     -12.388  16.116  72.776  1.00  0.00    -0.585 C  
HETATM   39  C   UNL     1     -12.238  15.126  73.918  1.00  0.00    -0.698 C  
ENDBRANCH  37  38
ENDBRANCH  36  37
ENDBRANCH  35  36
ENDBRANCH  34  35
ENDBRANCH  33  34
ENDBRANCH  32  33
ENDBRANCH  31  32
ENDBRANCH  30  31
ENDBRANCH  29  30
ENDBRANCH  28  29
ENDBRANCH  27  28
ENDBRANCH  26  27
ENDBRANCH  25  26
ENDBRANCH  24  25
ENDBRANCH  23  24
ENDBRANCH  22  23
ENDBRANCH  19  22
ENDBRANCH  18  19
ENDBRANCH  17  18
ENDBRANCH  16  17
ENDBRANCH  15  16
ENDBRANCH  14  15
ENDBRANCH  13  14
ENDBRANCH  12  13
ENDBRANCH  11  12
ENDBRANCH  10  11
ENDBRANCH   9  10
ENDBRANCH   8   9
ENDBRANCH   7   8
ENDBRANCH   6   7
ENDBRANCH   5   6
ENDBRANCH   4   5
ENDBRANCH   3   4
ENDBRANCH   2   3
TORSDOF 34
ENDMDL
MODEL       40
REMARK 921   NORMALIZED FREE ENERGY PREDICTED BY IDOCK:   -3.82 KCAL/MOL
REMARK 922        TOTAL FREE ENERGY PREDICTED BY IDOCK:  -17.73 KCAL/MOL
REMARK 923 INTER-LIGAND FREE ENERGY PREDICTED BY IDOCK:  -12.35 KCAL/MOL
REMARK 924 INTRA-LIGAND FREE ENERGY PREDICTED BY IDOCK:   -5.38 KCAL/MOL
REMARK 927      BINDING AFFINITY PREDICTED BY RF-SCORE:    0.00 PKD
ROOT
HETATM    1  C   UNL     1     -10.610  19.690  66.030  1.00  0.00    -0.584 C  
HETATM    2  C   UNL     1     -10.807  19.259  67.473  1.00  0.00    -0.524 C  
ENDROOT
BRANCH   2   3
HETATM    3  C   UNL     1      -9.923  18.068  67.812  1.00  0.00    -0.329 C  
BRANCH   3   4
HETATM    4  C   UNL     1      -8.954  17.761  66.674  1.00  0.00    -0.283 C  
BRANCH   4   5
HETATM    5  C   UNL     1      -8.919  16.265  66.386  1.00  0.00    -0.343 C  
BRANCH   5   6
HETATM    6  C   UNL     1     -10.280  15.780  65.910  1.00  0.00    -0.377 C  
BRANCH   6   7
HETATM    7  C   UNL     1     -10.816  14.711  66.852  1.00  0.00    -0.305 C  
BRANCH   7   8
HETATM    8  C   UNL     1     -12.150  14.185  66.346  1.00  0.00    -0.475 C  
BRANCH   8   9
HETATM    9  C   UNL     1     -11.989  12.771  65.815  1.00  0.00    -0.502 C  
BRANCH   9  10
HETATM   10  C   UNL     1     -12.712  12.632  64.489  1.00  0.00    -0.439 C  
BRANCH  10  11
HETATM   11  C   UNL     1     -11.720  12.688  63.341  1.00  0.00    -0.571 C  
BRANCH  11  12
HETATM   12  C   UNL     1     -10.351  12.263  63.837  1.00  0.00    -0.455 C  
BRANCH  12  13
HETATM   13  C   UNL     1      -9.737  11.261  62.883  1.00  0.00    -0.351 C  
BRANCH  13  14
HETATM   14  C   UNL     1      -9.019  10.181  63.671  1.00  0.00    -0.269 C  
BRANCH  14  15
HETATM   15  C   UNL     1      -9.701  10.009  65.009  1.00  0.00    -0.386 C  
BRANCH  15  16
HETATM   16  C   UNL     1      -9.093   8.853  65.785  1.00  0.00    -0.276 C  
BRANCH  16  17
HETATM   17  C   UNL     1      -7.670   9.240  66.139  1.00  0.00    -0.096 C  
BRANCH  17  18
HETATM   18  C   UNL     1      -7.375   9.000  67.608  1.00  0.00    -0.084 C  
BRANCH  18  19
HETATM   19  N   UNL     1      -7.256  10.318  68.401  1.00  0.00    -0.078 N  
HETATM   20  C   UNL     1      -6.053  10.266  69.348  1.00  0.00    -0.042 C  
HETATM   21  C   UNL     1      -7.113  11.504  67.445  1.00  0.00    -0.119 C  
BRANCH  19  22
HETATM   22  C   UNL     1      -8.569  10.433  69.208  1.00  0.00    -0.150 C  
BRANCH  22  23
HETATM   23  C   UNL     1      -9.614  11.259  68.485  1.00  0.00    -0.199 C  
BRANCH  23  24
HETATM   24  C   UNL     1     -11.021  10.832  68.862  1.00  0.00    -0.289 C  
BRANCH  24  25
HETATM   25  C   UNL     1     -11.716  12.038  69.471  1.00  0.00    -0.408 C  
BRANCH  25  26
HETATM   26  C   UNL     1     -12.417  11.667  70.757  1.00  0.00    -0.425 C  
BRANCH  26  27
HETATM   27  C   UNL     1     -13.146  10.349  70.568  1.00  0.00    -0.203 C  
BRANCH  27  28
HETATM   28  C   UNL     1     -13.244   9.627  71.895  1.00  0.00    -0.538 C  
BRANCH  28  29
HETATM   29  C   UNL     1     -12.900   8.162  71.718  1.00  0.00    -0.355 C  
BRANCH  29  30
HETATM   30  C   UNL     1     -11.710   7.814  72.591  1.00  0.00    -0.364 C  
BRANCH  30  31
HETATM   31  C   UNL     1     -10.458   8.497  72.076  1.00  0.00    -0.407 C  
BRANCH  31  32
HETATM   32  C   UNL     1      -9.293   7.526  72.096  1.00  0.00    -0.176 C  
BRANCH  32  33
HETATM   33  C   UNL     1      -9.778   6.130  72.450  1.00  0.00    -0.169 C  
BRANCH  33  34
HETATM   34  C   UNL     1      -8.985   5.085  71.681  1.00  0.00    -0.152 C  
BRANCH  34  35
HETATM   35  C   UNL     1      -9.833   4.494  70.564  1.00  0.00    -0.297 C  
BRANCH  35  36
HETATM   36  C   UNL     1      -9.622   5.262  69.265  1.00  0.00    -0.214 C  
BRANCH  36  37
HETATM   37  C   UNL     1     -10.878   6.045  68.897  1.00  0.00    -0.400 C  
BRANCH  37  38
HETATM   38  C   UNL     1     -11.021   6.168  67.384  1.00  0.00    -0.409 C  
HETATM   39  C   UNL     1     -10.349   5.003  66.678  1.00  0.00    -0.312 C  
ENDBRANCH  37  38
ENDBRANCH  36  37
ENDBRANCH  35  36
ENDBRANCH  34  35
ENDBRANCH  33  34
ENDBRANCH  32  33
ENDBRANCH  31  32
ENDBRANCH  30  31
ENDBRANCH  29  30
ENDBRANCH  28  29
ENDBRANCH  27  28
ENDBRANCH  26  27
ENDBRANCH  25  26
ENDBRANCH  24  25
ENDBRANCH  23  24
ENDBRANCH  22  23
ENDBRANCH  19  22
ENDBRANCH  18  19
ENDBRANCH  17  18
ENDBRANCH  16  17
ENDBRANCH  15  16
ENDBRANCH  14  15
ENDBRANCH  13  14
ENDBRANCH  12  13
ENDBRANCH  11  12
ENDBRANCH  10  11
ENDBRANCH   9  10
ENDBRANCH   8   9
ENDBRANCH   7   8
ENDBRANCH   6   7
ENDBRANCH   5   6
ENDBRANCH   4   5
ENDBRANCH   3   4
ENDBRANCH   2   3
TORSDOF 34
ENDMDL
MODEL       41
REMARK 921   NORMALIZED FREE ENERGY PREDICTED BY IDOCK:   -3.80 KCAL/MOL
REMARK 922        TOTAL FREE ENERGY PREDICTED BY IDOCK:  -17.67 KCAL/MOL
REMARK 923 INTER-LIGAND FREE ENERGY PREDICTED BY IDOCK:  -10.16 KCAL/MOL
REMARK 924 INTRA-LIGAND FREE ENERGY PREDICTED BY IDOCK:   -7.51 KCAL/MOL
REMARK 927      BINDING AFFINITY PREDICTED BY RF-SCORE:    0.00 PKD
ROOT
HETATM    1  C   UNL     1     -11.155   6.372  68.852  1.00  0.00    -0.420 C  
HETATM    2  C   UNL     1     -10.481   5.463  69.865  1.00  0.00    -0.378 C  
ENDROOT
BRANCH   2   3
HETATM    3  C   UNL     1      -9.496   4.524  69.185  1.00  0.00    -0.233 C  
BRANCH   3   4
HETATM    4  C   UNL     1      -8.253   4.315  70.045  1.00  0.00    -0.070 C  
BRANCH   4   5
HETATM    5  C   UNL     1      -8.197   5.343  71.168  1.00  0.00    -0.119 C  
BRANCH   5   6
HETATM    6  C   UNL     1      -7.589   4.731  72.422  1.00  0.00    -0.086 C  
BRANCH   6   7
HETATM    7  C   UNL     1      -8.498   4.973  73.618  1.00  0.00    -0.105 C  
BRANCH   7   8
HETATM    8  C   UNL     1      -9.758   4.131  73.499  1.00  0.00    -0.146 C  
BRANCH   8   9
HETATM    9  C   UNL     1     -10.986   5.026  73.474  1.00  0.00    -0.393 C  
BRANCH   9  10
HETATM   10  C   UNL     1     -10.596   6.448  73.830  1.00  0.00    -0.271 C  
BRANCH  10  11
HETATM   11  C   UNL     1     -11.197   7.422  72.833  1.00  0.00    -0.368 C  
BRANCH  11  12
HETATM   12  C   UNL     1     -10.129   8.395  72.373  1.00  0.00    -0.386 C  
BRANCH  12  13
HETATM   13  C   UNL     1     -10.658   9.256  71.245  1.00  0.00    -0.417 C  
BRANCH  13  14
HETATM   14  C   UNL     1      -9.566   9.468  70.212  1.00  0.00    -0.314 C  
BRANCH  14  15
HETATM   15  C   UNL     1      -8.234   9.083  70.814  1.00  0.00    -0.213 C  
BRANCH  15  16
HETATM   16  C   UNL     1      -7.254   8.653  69.735  1.00  0.00    -0.051 C  
BRANCH  16  17
HETATM   17  C   UNL     1      -8.047   8.424  68.463  1.00  0.00    -0.123 C  
BRANCH  17  18
HETATM   18  C   UNL     1      -7.159   8.479  67.234  1.00  0.00    -0.076 C  
BRANCH  18  19
HETATM   19  N   UNL     1      -7.974   8.651  65.934  1.00  0.00    -0.101 N  
HETATM   20  C   UNL     1      -7.500   7.655  64.871  1.00  0.00    -0.092 C  
HETATM   21  C   UNL     1      -9.465   8.446  66.210  1.00  0.00    -0.224 C  
BRANCH  19  22
HETATM   22  C   UNL     1      -7.707  10.099  65.469  1.00  0.00    -0.145 C  
BRANCH  22  23
HETATM   23  C   UNL     1      -8.838  11.038  65.840  1.00  0.00    -0.204 C  
BRANCH  23  24
HETATM   24  C   UNL     1      -8.419  12.020  66.918  1.00  0.00    -0.172 C  
BRANCH  24  25
HETATM   25  C   UNL     1      -9.589  12.175  67.873  1.00  0.00    -0.198 C  
BRANCH  25  26
HETATM   26  C   UNL     1     -10.813  11.455  67.354  1.00  0.00    -0.301 C  
BRANCH  26  27
HETATM   27  C   UNL     1     -12.028  11.898  68.148  1.00  0.00    -0.222 C  
BRANCH  27  28
HETATM   28  C   UNL     1     -11.581  12.650  69.385  1.00  0.00    -0.369 C  
BRANCH  28  29
HETATM   29  C   UNL     1     -12.437  13.885  69.582  1.00  0.00    -0.192 C  
BRANCH  29  30
HETATM   30  C   UNL     1     -12.073  14.548  70.896  1.00  0.00    -0.404 C  
BRANCH  30  31
HETATM   31  C   UNL     1     -11.345  15.853  70.647  1.00  0.00    -0.421 C  
BRANCH  31  32
HETATM   32  C   UNL     1     -11.091  16.030  69.162  1.00  0.00    -0.317 C  
BRANCH  32  33
HETATM   33  C   UNL     1      -9.607  15.900  68.864  1.00  0.00    -0.230 C  
BRANCH  33  34
HETATM   34  C   UNL     1      -9.378  15.778  67.365  1.00  0.00    -0.214 C  
BRANCH  34  35
HETATM   35  C   UNL     1     -10.694  15.499  66.652  1.00  0.00    -0.306 C  
BRANCH  35  36
HETATM   36  C   UNL     1     -10.451  14.741  65.353  1.00  0.00    -0.401 C  
BRANCH  36  37
HETATM   37  C   UNL     1     -11.674  13.907  64.984  1.00  0.00    -0.365 C  
BRANCH  37  38
HETATM   38  C   UNL     1     -11.342  12.906  63.884  1.00  0.00    -0.489 C  
HETATM   39  C   UNL     1     -12.558  12.072  63.523  1.00  0.00    -0.625 C  
ENDBRANCH  37  38
ENDBRANCH  36  37
ENDBRANCH  35  36
ENDBRANCH  34  35
ENDBRANCH  33  34
ENDBRANCH  32  33
ENDBRANCH  31  32
ENDBRANCH  30  31
ENDBRANCH  29  30
ENDBRANCH  28  29
ENDBRANCH  27  28
ENDBRANCH  26  27
ENDBRANCH  25  26
ENDBRANCH  24  25
ENDBRANCH  23  24
ENDBRANCH  22  23
ENDBRANCH  19  22
ENDBRANCH  18  19
ENDBRANCH  17  18
ENDBRANCH  16  17
ENDBRANCH  15  16
ENDBRANCH  14  15
ENDBRANCH  13  14
ENDBRANCH  12  13
ENDBRANCH  11  12
ENDBRANCH  10  11
ENDBRANCH   9  10
ENDBRANCH   8   9
ENDBRANCH   7   8
ENDBRANCH   6   7
ENDBRANCH   5   6
ENDBRANCH   4   5
ENDBRANCH   3   4
ENDBRANCH   2   3
TORSDOF 34
ENDMDL
MODEL       42
REMARK 921   NORMALIZED FREE ENERGY PREDICTED BY IDOCK:   -3.79 KCAL/MOL
REMARK 922        TOTAL FREE ENERGY PREDICTED BY IDOCK:  -17.64 KCAL/MOL
REMARK 923 INTER-LIGAND FREE ENERGY PREDICTED BY IDOCK:  -12.14 KCAL/MOL
REMARK 924 INTRA-LIGAND FREE ENERGY PREDICTED BY IDOCK:   -5.50 KCAL/MOL
REMARK 927      BINDING AFFINITY PREDICTED BY RF-SCORE:    0.00 PKD
ROOT
HETATM    1  C   UNL     1     -10.390  19.534  66.108  1.00  0.00    -0.614 C  
HETATM    2  C   UNL     1      -9.386  19.228  67.205  1.00  0.00    -0.366 C  
ENDROOT
BRANCH   2   3
HETATM    3  C   UNL     1      -9.996  18.327  68.268  1.00  0.00    -0.382 C  
BRANCH   3   4
HETATM    4  C   UNL     1     -10.637  17.093  67.640  1.00  0.00    -0.343 C  
BRANCH   4   5
HETATM    5  C   UNL     1      -9.603  15.993  67.438  1.00  0.00    -0.225 C  
BRANCH   5   6
HETATM    6  C   UNL     1     -10.103  14.967  66.431  1.00  0.00    -0.296 C  
BRANCH   6   7
HETATM    7  C   UNL     1     -10.562  15.662  65.157  1.00  0.00    -0.449 C  
BRANCH   7   8
HETATM    8  C   UNL     1     -11.718  14.899  64.531  1.00  0.00    -0.388 C  
BRANCH   8   9
HETATM    9  C   UNL     1     -12.226  13.836  65.489  1.00  0.00    -0.470 C  
BRANCH   9  10
HETATM   10  C   UNL     1     -12.314  12.499  64.777  1.00  0.00    -0.544 C  
BRANCH  10  11
HETATM   11  C   UNL     1     -11.668  12.589  63.407  1.00  0.00    -0.567 C  
BRANCH  11  12
HETATM   12  C   UNL     1     -10.444  11.696  63.367  1.00  0.00    -0.482 C  
BRANCH  12  13
HETATM   13  C   UNL     1     -10.380  10.840  64.614  1.00  0.00    -0.394 C  
BRANCH  13  14
HETATM   14  C   UNL     1      -9.189  11.256  65.458  1.00  0.00    -0.220 C  
BRANCH  14  15
HETATM   15  C   UNL     1      -9.559  11.157  66.920  1.00  0.00    -0.208 C  
BRANCH  15  16
HETATM   16  C   UNL     1      -8.503  10.390  67.698  1.00  0.00    -0.114 C  
BRANCH  16  17
HETATM   17  C   UNL     1      -9.210   9.289  68.465  1.00  0.00    -0.135 C  
BRANCH  17  18
HETATM   18  C   UNL     1     -10.194   8.540  67.586  1.00  0.00    -0.236 C  
BRANCH  18  19
HETATM   19  N   UNL     1      -9.909   7.023  67.554  1.00  0.00    -0.141 N  
HETATM   20  C   UNL     1     -11.137   6.259  67.051  1.00  0.00    -0.297 C  
HETATM   21  C   UNL     1      -8.707   6.726  66.655  1.00  0.00    -0.127 C  
BRANCH  19  22
HETATM   22  C   UNL     1      -9.596   6.633  69.016  1.00  0.00    -0.133 C  
BRANCH  22  23
HETATM   23  C   UNL     1     -10.702   5.800  69.635  1.00  0.00    -0.416 C  
BRANCH  23  24
HETATM   24  C   UNL     1     -10.147   4.600  70.380  1.00  0.00    -0.275 C  
BRANCH  24  25
HETATM   25  C   UNL     1      -8.634   4.650  70.264  1.00  0.00    -0.105 C  
BRANCH  25  26
HETATM   26  C   UNL     1      -7.977   4.235  71.560  1.00  0.00    -0.082 C  
BRANCH  26  27
HETATM   27  C   UNL     1      -9.026   3.644  72.486  1.00  0.00    -0.127 C  
BRANCH  27  28
HETATM   28  C   UNL     1      -9.031   4.401  73.797  1.00  0.00    -0.102 C  
BRANCH  28  29
HETATM   29  C   UNL     1     -10.385   5.045  74.021  1.00  0.00    -0.299 C  
BRANCH  29  30
HETATM   30  C   UNL     1     -10.205   6.535  74.240  1.00  0.00    -0.373 C  
BRANCH  30  31
HETATM   31  C   UNL     1     -10.093   7.256  72.912  1.00  0.00    -0.272 C  
BRANCH  31  32
HETATM   32  C   UNL     1     -11.361   8.043  72.641  1.00  0.00    -0.469 C  
BRANCH  32  33
HETATM   33  C   UNL     1     -11.155   8.979  71.461  1.00  0.00    -0.419 C  
BRANCH  33  34
HETATM   34  C   UNL     1     -12.448   9.713  71.139  1.00  0.00    -0.421 C  
BRANCH  34  35
HETATM   35  C   UNL     1     -12.202  11.214  71.082  1.00  0.00    -0.387 C  
BRANCH  35  36
HETATM   36  C   UNL     1     -11.908  11.656  69.654  1.00  0.00    -0.419 C  
BRANCH  36  37
HETATM   37  C   UNL     1     -11.295  13.053  69.643  1.00  0.00    -0.176 C  
BRANCH  37  38
HETATM   38  C   UNL     1     -12.276  14.075  69.080  1.00  0.00    -0.299 C  
HETATM   39  C   UNL     1     -12.358  15.300  69.975  1.00  0.00    -0.366 C  
ENDBRANCH  37  38
ENDBRANCH  36  37
ENDBRANCH  35  36
ENDBRANCH  34  35
ENDBRANCH  33  34
ENDBRANCH  32  33
ENDBRANCH  31  32
ENDBRANCH  30  31
ENDBRANCH  29  30
ENDBRANCH  28  29
ENDBRANCH  27  28
ENDBRANCH  26  27
ENDBRANCH  25  26
ENDBRANCH  24  25
ENDBRANCH  23  24
ENDBRANCH  22  23
ENDBRANCH  19  22
ENDBRANCH  18  19
ENDBRANCH  17  18
ENDBRANCH  16  17
ENDBRANCH  15  16
ENDBRANCH  14  15
ENDBRANCH  13  14
ENDBRANCH  12  13
ENDBRANCH  11  12
ENDBRANCH  10  11
ENDBRANCH   9  10
ENDBRANCH   8   9
ENDBRANCH   7   8
ENDBRANCH   6   7
ENDBRANCH   5   6
ENDBRANCH   4   5
ENDBRANCH   3   4
ENDBRANCH   2   3
TORSDOF 34
ENDMDL
MODEL       43
REMARK 921   NORMALIZED FREE ENERGY PREDICTED BY IDOCK:   -3.78 KCAL/MOL
REMARK 922        TOTAL FREE ENERGY PREDICTED BY IDOCK:  -17.63 KCAL/MOL
REMARK 923 INTER-LIGAND FREE ENERGY PREDICTED BY IDOCK:   -9.54 KCAL/MOL
REMARK 924 INTRA-LIGAND FREE ENERGY PREDICTED BY IDOCK:   -8.09 KCAL/MOL
REMARK 927      BINDING AFFINITY PREDICTED BY RF-SCORE:    0.00 PKD
ROOT
HETATM    1  C   UNL     1     -10.751   8.188  68.120  1.00  0.00    -0.090 C  
HETATM    2  C   UNL     1     -10.845   7.082  67.084  1.00  0.00    -0.427 C  
ENDROOT
BRANCH   2   3
HETATM    3  C   UNL     1      -9.489   6.432  66.853  1.00  0.00    -0.166 C  
BRANCH   3   4
HETATM    4  C   UNL     1      -8.479   6.879  67.907  1.00  0.00    -0.120 C  
BRANCH   4   5
HETATM    5  C   UNL     1      -7.057   6.578  67.451  1.00  0.00    -0.080 C  
BRANCH   5   6
HETATM    6  C   UNL     1      -6.061   6.904  68.555  1.00  0.00    -0.026 C  
BRANCH   6   7
HETATM    7  C   UNL     1      -6.796   7.374  69.803  1.00  0.00    -0.052 C  
BRANCH   7   8
HETATM    8  C   UNL     1      -6.022   8.497  70.475  1.00  0.00    -0.031 C  
BRANCH   8   9
HETATM    9  C   UNL     1      -6.340   9.825  69.810  1.00  0.00    -0.050 C  
BRANCH   9  10
HETATM   10  C   UNL     1      -7.836  10.074  69.843  1.00  0.00    -0.185 C  
BRANCH  10  11
HETATM   11  C   UNL     1      -8.292  10.711  68.543  1.00  0.00    -0.130 C  
BRANCH  11  12
HETATM   12  C   UNL     1      -7.118  10.803  67.588  1.00  0.00    -0.091 C  
BRANCH  12  13
HETATM   13  C   UNL     1      -7.612  10.933  66.163  1.00  0.00    -0.119 C  
BRANCH  13  14
HETATM   14  C   UNL     1      -8.279   9.638  65.735  1.00  0.00    -0.120 C  
BRANCH  14  15
HETATM   15  C   UNL     1      -9.493   9.961  64.893  1.00  0.00    -0.355 C  
BRANCH  15  16
HETATM   16  C   UNL     1      -9.088  10.625  63.588  1.00  0.00    -0.248 C  
BRANCH  16  17
HETATM   17  C   UNL     1     -10.189  11.596  63.209  1.00  0.00    -0.445 C  
BRANCH  17  18
HETATM   18  C   UNL     1     -10.362  12.681  64.256  1.00  0.00    -0.374 C  
BRANCH  18  19
HETATM   19  N   UNL     1     -11.848  12.981  64.545  1.00  0.00    -0.356 N  
HETATM   20  C   UNL     1     -12.117  14.486  64.454  1.00  0.00    -0.472 C  
HETATM   21  C   UNL     1     -12.744  12.233  63.555  1.00  0.00    -0.393 C  
BRANCH  19  22
HETATM   22  C   UNL     1     -12.097  12.477  65.984  1.00  0.00    -0.321 C  
BRANCH  22  23
HETATM   23  C   UNL     1     -10.924  12.761  66.901  1.00  0.00    -0.291 C  
BRANCH  23  24
HETATM   24  C   UNL     1     -11.351  13.544  68.128  1.00  0.00    -0.319 C  
BRANCH  24  25
HETATM   25  C   UNL     1     -11.622  12.543  69.237  1.00  0.00    -0.378 C  
BRANCH  25  26
HETATM   26  C   UNL     1     -12.141  13.234  70.477  1.00  0.00    -0.391 C  
BRANCH  26  27
HETATM   27  C   UNL     1     -12.695  12.195  71.435  1.00  0.00    -0.368 C  
BRANCH  27  28
HETATM   28  C   UNL     1     -12.646  10.828  70.784  1.00  0.00    -0.476 C  
BRANCH  28  29
HETATM   29  C   UNL     1     -13.255   9.790  71.706  1.00  0.00    -0.532 C  
BRANCH  29  30
HETATM   30  C   UNL     1     -12.279   8.644  71.892  1.00  0.00    -0.419 C  
BRANCH  30  31
HETATM   31  C   UNL     1     -10.856   9.123  71.688  1.00  0.00    -0.442 C  
BRANCH  31  32
HETATM   32  C   UNL     1      -9.888   7.973  71.893  1.00  0.00    -0.251 C  
BRANCH  32  33
HETATM   33  C   UNL     1     -10.624   6.646  71.803  1.00  0.00    -0.242 C  
BRANCH  33  34
HETATM   34  C   UNL     1      -9.693   5.562  71.282  1.00  0.00    -0.215 C  
BRANCH  34  35
HETATM   35  C   UNL     1     -10.357   4.797  70.146  1.00  0.00    -0.168 C  
BRANCH  35  36
HETATM   36  C   UNL     1      -9.410   3.748  69.578  1.00  0.00    -0.249 C  
BRANCH  36  37
HETATM   37  C   UNL     1      -8.093   3.746  70.346  1.00  0.00    -0.061 C  
BRANCH  37  38
HETATM   38  C   UNL     1      -6.914   3.504  69.410  1.00  0.00    -0.042 C  
HETATM   39  C   UNL     1      -7.359   2.779  68.152  1.00  0.00    -0.049 C  
ENDBRANCH  37  38
ENDBRANCH  36  37
ENDBRANCH  35  36
ENDBRANCH  34  35
ENDBRANCH  33  34
ENDBRANCH  32  33
ENDBRANCH  31  32
ENDBRANCH  30  31
ENDBRANCH  29  30
ENDBRANCH  28  29
ENDBRANCH  27  28
ENDBRANCH  26  27
ENDBRANCH  25  26
ENDBRANCH  24  25
ENDBRANCH  23  24
ENDBRANCH  22  23
ENDBRANCH  19  22
ENDBRANCH  18  19
ENDBRANCH  17  18
ENDBRANCH  16  17
ENDBRANCH  15  16
ENDBRANCH  14  15
ENDBRANCH  13  14
ENDBRANCH  12  13
ENDBRANCH  11  12
ENDBRANCH  10  11
ENDBRANCH   9  10
ENDBRANCH   8   9
ENDBRANCH   7   8
ENDBRANCH   6   7
ENDBRANCH   5   6
ENDBRANCH   4   5
ENDBRANCH   3   4
ENDBRANCH   2   3
TORSDOF 34
ENDMDL
MODEL       44
REMARK 921   NORMALIZED FREE ENERGY PREDICTED BY IDOCK:   -3.78 KCAL/MOL
REMARK 922        TOTAL FREE ENERGY PREDICTED BY IDOCK:  -17.63 KCAL/MOL
REMARK 923 INTER-LIGAND FREE ENERGY PREDICTED BY IDOCK:  -13.42 KCAL/MOL
REMARK 924 INTRA-LIGAND FREE ENERGY PREDICTED BY IDOCK:   -4.20 KCAL/MOL
REMARK 927      BINDING AFFINITY PREDICTED BY RF-SCORE:    0.00 PKD
ROOT
HETATM    1  C   UNL     1      -9.771  19.960  66.220  1.00  0.00    -0.551 C  
HETATM    2  C   UNL     1      -9.833  18.462  66.461  1.00  0.00    -0.368 C  
ENDROOT
BRANCH   2   3
HETATM    3  C   UNL     1     -10.701  18.138  67.668  1.00  0.00    -0.364 C  
BRANCH   3   4
HETATM    4  C   UNL     1     -10.396  16.742  68.205  1.00  0.00    -0.319 C  
BRANCH   4   5
HETATM    5  C   UNL     1     -11.676  15.930  68.349  1.00  0.00    -0.246 C  
BRANCH   5   6
HETATM    6  C   UNL     1     -11.492  14.535  67.769  1.00  0.00    -0.362 C  
BRANCH   6   7
HETATM    7  C   UNL     1     -10.528  14.578  66.592  1.00  0.00    -0.274 C  
BRANCH   7   8
HETATM    8  C   UNL     1     -11.298  14.609  65.282  1.00  0.00    -0.354 C  
BRANCH   8   9
HETATM    9  C   UNL     1     -12.600  13.837  65.421  1.00  0.00    -0.534 C  
BRANCH   9  10
HETATM   10  C   UNL     1     -12.423  12.427  64.891  1.00  0.00    -0.439 C  
BRANCH  10  11
HETATM   11  C   UNL     1     -11.729  12.455  63.541  1.00  0.00    -0.592 C  
BRANCH  11  12
HETATM   12  C   UNL     1     -10.561  11.490  63.554  1.00  0.00    -0.487 C  
BRANCH  12  13
HETATM   13  C   UNL     1     -10.175  11.155  64.980  1.00  0.00    -0.354 C  
BRANCH  13  14
HETATM   14  C   UNL     1      -9.241   9.959  64.987  1.00  0.00    -0.295 C  
BRANCH  14  15
HETATM   15  C   UNL     1      -9.071   9.473  66.409  1.00  0.00    -0.195 C  
BRANCH  15  16
HETATM   16  C   UNL     1     -10.409   9.089  67.016  1.00  0.00    -0.339 C  
BRANCH  16  17
HETATM   17  C   UNL     1     -10.490   7.574  67.022  1.00  0.00    -0.409 C  
BRANCH  17  18
HETATM   18  C   UNL     1      -9.521   6.967  68.020  1.00  0.00    -0.125 C  
BRANCH  18  19
HETATM   19  N   UNL     1      -8.743   5.775  67.425  1.00  0.00    -0.109 N  
HETATM   20  C   UNL     1      -8.974   5.687  65.913  1.00  0.00    -0.155 C  
HETATM   21  C   UNL     1      -7.247   5.916  67.714  1.00  0.00    -0.076 C  
BRANCH  19  22
HETATM   22  C   UNL     1      -9.311   4.521  68.127  1.00  0.00    -0.140 C  
BRANCH  22  23
HETATM   23  C   UNL     1      -9.707   4.800  69.563  1.00  0.00    -0.271 C  
BRANCH  23  24
HETATM   24  C   UNL     1      -8.936   3.926  70.535  1.00  0.00    -0.160 C  
BRANCH  24  25
HETATM   25  C   UNL     1      -9.900   3.499  71.628  1.00  0.00    -0.227 C  
BRANCH  25  26
HETATM   26  C   UNL     1      -9.444   4.000  72.979  1.00  0.00    -0.145 C  
BRANCH  26  27
HETATM   27  C   UNL     1     -10.639   4.550  73.738  1.00  0.00    -0.319 C  
BRANCH  27  28
HETATM   28  C   UNL     1     -11.399   5.517  72.854  1.00  0.00    -0.348 C  
BRANCH  28  29
HETATM   29  C   UNL     1     -10.786   6.900  72.946  1.00  0.00    -0.308 C  
BRANCH  29  30
HETATM   30  C   UNL     1     -11.021   7.644  71.646  1.00  0.00    -0.267 C  
BRANCH  30  31
HETATM   31  C   UNL     1     -10.587   9.090  71.777  1.00  0.00    -0.426 C  
BRANCH  31  32
HETATM   32  C   UNL     1     -11.001   9.869  70.543  1.00  0.00    -0.391 C  
BRANCH  32  33
HETATM   33  C   UNL     1     -12.493  10.153  70.578  1.00  0.00    -0.304 C  
BRANCH  33  34
HETATM   34  C   UNL     1     -12.850  10.947  71.825  1.00  0.00    -0.509 C  
BRANCH  34  35
HETATM   35  C   UNL     1     -12.752  12.441  71.546  1.00  0.00    -0.333 C  
BRANCH  35  36
HETATM   36  C   UNL     1     -13.832  13.201  72.305  1.00  0.00    -0.586 C  
BRANCH  36  37
HETATM   37  C   UNL     1     -13.261  14.483  72.903  1.00  0.00    -0.612 C  
BRANCH  37  38
HETATM   38  C   UNL     1     -13.178  15.586  71.854  1.00  0.00    -0.553 C  
HETATM   39  C   UNL     1     -11.787  16.197  71.817  1.00  0.00    -0.581 C  
ENDBRANCH  37  38
ENDBRANCH  36  37
ENDBRANCH  35  36
ENDBRANCH  34  35
ENDBRANCH  33  34
ENDBRANCH  32  33
ENDBRANCH  31  32
ENDBRANCH  30  31
ENDBRANCH  29  30
ENDBRANCH  28  29
ENDBRANCH  27  28
ENDBRANCH  26  27
ENDBRANCH  25  26
ENDBRANCH  24  25
ENDBRANCH  23  24
ENDBRANCH  22  23
ENDBRANCH  19  22
ENDBRANCH  18  19
ENDBRANCH  17  18
ENDBRANCH  16  17
ENDBRANCH  15  16
ENDBRANCH  14  15
ENDBRANCH  13  14
ENDBRANCH  12  13
ENDBRANCH  11  12
ENDBRANCH  10  11
ENDBRANCH   9  10
ENDBRANCH   8   9
ENDBRANCH   7   8
ENDBRANCH   6   7
ENDBRANCH   5   6
ENDBRANCH   4   5
ENDBRANCH   3   4
ENDBRANCH   2   3
TORSDOF 34
ENDMDL
MODEL       45
REMARK 921   NORMALIZED FREE ENERGY PREDICTED BY IDOCK:   -3.78 KCAL/MOL
REMARK 922        TOTAL FREE ENERGY PREDICTED BY IDOCK:  -17.62 KCAL/MOL
REMARK 923 INTER-LIGAND FREE ENERGY PREDICTED BY IDOCK:  -10.76 KCAL/MOL
REMARK 924 INTRA-LIGAND FREE ENERGY PREDICTED BY IDOCK:   -6.86 KCAL/MOL
REMARK 927      BINDING AFFINITY PREDICTED BY RF-SCORE:    0.00 PKD
ROOT
HETATM    1  C   UNL     1     -11.161   6.626  69.364  1.00  0.00    -0.365 C  
HETATM    2  C   UNL     1     -10.584   5.374  70.001  1.00  0.00    -0.354 C  
ENDROOT
BRANCH   2   3
HETATM    3  C   UNL     1      -9.081   5.505  70.200  1.00  0.00    -0.162 C  
BRANCH   3   4
HETATM    4  C   UNL     1      -8.360   4.221  69.801  1.00  0.00    -0.077 C  
BRANCH   4   5
HETATM    5  C   UNL     1      -9.284   3.018  69.947  1.00  0.00    -0.225 C  
BRANCH   5   6
HETATM    6  C   UNL     1      -9.396   2.266  68.628  1.00  0.00    -0.238 C  
BRANCH   6   7
HETATM    7  C   UNL     1      -8.498   2.908  67.580  1.00  0.00    -0.102 C  
BRANCH   7   8
HETATM    8  C   UNL     1      -9.314   3.299  66.358  1.00  0.00    -0.139 C  
BRANCH   8   9
HETATM    9  C   UNL     1      -9.991   4.640  66.586  1.00  0.00    -0.260 C  
BRANCH   9  10
HETATM   10  C   UNL     1      -9.440   5.668  65.616  1.00  0.00     0.023 C  
BRANCH  10  11
HETATM   11  C   UNL     1      -8.097   6.182  66.100  1.00  0.00    -0.115 C  
BRANCH  11  12
HETATM   12  C   UNL     1      -8.293   7.500  66.824  1.00  0.00    -0.126 C  
BRANCH  12  13
HETATM   13  C   UNL     1      -9.199   8.408  66.019  1.00  0.00    -0.247 C  
BRANCH  13  14
HETATM   14  C   UNL     1     -10.185   9.094  66.946  1.00  0.00    -0.336 C  
BRANCH  14  15
HETATM   15  C   UNL     1     -10.553  10.442  66.368  1.00  0.00    -0.198 C  
BRANCH  15  16
HETATM   16  C   UNL     1     -10.134  10.541  64.911  1.00  0.00    -0.403 C  
BRANCH  16  17
HETATM   17  C   UNL     1     -10.545  11.912  64.410  1.00  0.00    -0.366 C  
BRANCH  17  18
HETATM   18  C   UNL     1     -10.268  12.990  65.442  1.00  0.00    -0.288 C  
BRANCH  18  19
HETATM   19  N   UNL     1     -11.254  14.171  65.329  1.00  0.00    -0.314 N  
HETATM   20  C   UNL     1     -10.492  15.498  65.259  1.00  0.00    -0.411 C  
HETATM   21  C   UNL     1     -12.135  14.013  64.088  1.00  0.00    -0.422 C  
BRANCH  19  22
HETATM   22  C   UNL     1     -12.114  14.114  66.611  1.00  0.00    -0.451 C  
BRANCH  22  23
HETATM   23  C   UNL     1     -11.279  13.855  67.849  1.00  0.00    -0.302 C  
BRANCH  23  24
HETATM   24  C   UNL     1     -11.945  14.405  69.097  1.00  0.00    -0.357 C  
BRANCH  24  25
HETATM   25  C   UNL     1     -12.112  13.252  70.071  1.00  0.00    -0.385 C  
BRANCH  25  26
HETATM   26  C   UNL     1     -12.823  13.701  71.327  1.00  0.00    -0.424 C  
BRANCH  26  27
HETATM   27  C   UNL     1     -13.278  12.481  72.108  1.00  0.00    -0.508 C  
BRANCH  27  28
HETATM   28  C   UNL     1     -12.766  11.226  71.433  1.00  0.00    -0.501 C  
BRANCH  28  29
HETATM   29  C   UNL     1     -13.503  10.012  71.962  1.00  0.00    -0.448 C  
BRANCH  29  30
HETATM   30  C   UNL     1     -12.557   8.828  72.012  1.00  0.00    -0.447 C  
BRANCH  30  31
HETATM   31  C   UNL     1     -11.132   9.279  71.761  1.00  0.00    -0.398 C  
BRANCH  31  32
HETATM   32  C   UNL     1     -10.163   8.346  72.463  1.00  0.00    -0.369 C  
BRANCH  32  33
HETATM   33  C   UNL     1      -8.740   8.635  72.016  1.00  0.00    -0.235 C  
BRANCH  33  34
HETATM   34  C   UNL     1      -8.740   9.264  70.631  1.00  0.00    -0.282 C  
BRANCH  34  35
HETATM   35  C   UNL     1      -7.479   8.872  69.873  1.00  0.00    -0.058 C  
BRANCH  35  36
HETATM   36  C   UNL     1      -6.847  10.091  69.213  1.00  0.00    -0.059 C  
BRANCH  36  37
HETATM   37  C   UNL     1      -7.920  11.102  68.821  1.00  0.00    -0.144 C  
BRANCH  37  38
HETATM   38  C   UNL     1      -7.446  11.983  67.672  1.00  0.00    -0.132 C  
HETATM   39  C   UNL     1      -6.685  11.169  66.639  1.00  0.00    -0.137 C  
ENDBRANCH  37  38
ENDBRANCH  36  37
ENDBRANCH  35  36
ENDBRANCH  34  35
ENDBRANCH  33  34
ENDBRANCH  32  33
ENDBRANCH  31  32
ENDBRANCH  30  31
ENDBRANCH  29  30
ENDBRANCH  28  29
ENDBRANCH  27  28
ENDBRANCH  26  27
ENDBRANCH  25  26
ENDBRANCH  24  25
ENDBRANCH  23  24
ENDBRANCH  22  23
ENDBRANCH  19  22
ENDBRANCH  18  19
ENDBRANCH  17  18
ENDBRANCH  16  17
ENDBRANCH  15  16
ENDBRANCH  14  15
ENDBRANCH  13  14
ENDBRANCH  12  13
ENDBRANCH  11  12
ENDBRANCH  10  11
ENDBRANCH   9  10
ENDBRANCH   8   9
ENDBRANCH   7   8
ENDBRANCH   6   7
ENDBRANCH   5   6
ENDBRANCH   4   5
ENDBRANCH   3   4
ENDBRANCH   2   3
TORSDOF 34
ENDMDL
MODEL       46
REMARK 921   NORMALIZED FREE ENERGY PREDICTED BY IDOCK:   -3.77 KCAL/MOL
REMARK 922        TOTAL FREE ENERGY PREDICTED BY IDOCK:  -17.60 KCAL/MOL
REMARK 923 INTER-LIGAND FREE ENERGY PREDICTED BY IDOCK:  -10.84 KCAL/MOL
REMARK 924 INTRA-LIGAND FREE ENERGY PREDICTED BY IDOCK:   -6.76 KCAL/MOL
REMARK 927      BINDING AFFINITY PREDICTED BY RF-SCORE:    0.00 PKD
ROOT
HETATM    1  C   UNL     1     -11.053   6.344  67.447  1.00  0.00    -0.412 C  
HETATM    2  C   UNL     1     -11.226   6.270  68.954  1.00  0.00    -0.387 C  
ENDROOT
BRANCH   2   3
HETATM    3  C   UNL     1     -10.330   5.197  69.554  1.00  0.00    -0.292 C  
BRANCH   3   4
HETATM    4  C   UNL     1     -10.265   5.321  71.074  1.00  0.00    -0.299 C  
BRANCH   4   5
HETATM    5  C   UNL     1      -9.764   6.702  71.479  1.00  0.00    -0.172 C  
BRANCH   5   6
HETATM    6  C   UNL     1     -10.694   7.326  72.510  1.00  0.00    -0.301 C  
BRANCH   6   7
HETATM    7  C   UNL     1     -11.204   8.670  72.012  1.00  0.00    -0.434 C  
BRANCH   7   8
HETATM    8  C   UNL     1     -12.699   8.598  71.744  1.00  0.00    -0.401 C  
BRANCH   8   9
HETATM    9  C   UNL     1     -13.205   9.935  71.230  1.00  0.00    -0.465 C  
BRANCH   9  10
HETATM   10  C   UNL     1     -12.039  10.778  70.748  1.00  0.00    -0.473 C  
BRANCH  10  11
HETATM   11  C   UNL     1     -12.129  10.992  69.249  1.00  0.00    -0.363 C  
BRANCH  11  12
HETATM   12  C   UNL     1     -10.952  10.317  68.572  1.00  0.00    -0.294 C  
BRANCH  12  13
HETATM   13  C   UNL     1      -9.694  11.137  68.769  1.00  0.00    -0.194 C  
BRANCH  13  14
HETATM   14  C   UNL     1      -8.567  10.234  69.238  1.00  0.00    -0.175 C  
BRANCH  14  15
HETATM   15  C   UNL     1      -8.794   8.840  68.700  1.00  0.00    -0.138 C  
BRANCH  15  16
HETATM   16  C   UNL     1      -7.544   7.989  68.850  1.00  0.00    -0.099 C  
BRANCH  16  17
HETATM   17  C   UNL     1      -7.580   6.929  67.766  1.00  0.00    -0.107 C  
BRANCH  17  18
HETATM   18  C   UNL     1      -6.185   6.471  67.385  1.00  0.00    -0.036 C  
BRANCH  18  19
HETATM   19  N   UNL     1      -6.032   6.273  65.862  1.00  0.00    -0.025 N  
HETATM   20  C   UNL     1      -5.179   5.037  65.567  1.00  0.00    -0.012 C  
HETATM   21  C   UNL     1      -7.406   6.125  65.204  1.00  0.00    -0.073 C  
BRANCH  19  22
HETATM   22  C   UNL     1      -5.325   7.548  65.350  1.00  0.00    -0.029 C  
BRANCH  22  23
HETATM   23  C   UNL     1      -6.308   8.579  64.832  1.00  0.00    -0.064 C  
BRANCH  23  24
HETATM   24  C   UNL     1      -6.200   9.886  65.595  1.00  0.00    -0.078 C  
BRANCH  24  25
HETATM   25  C   UNL     1      -7.574  10.533  65.590  1.00  0.00    -0.134 C  
BRANCH  25  26
HETATM   26  C   UNL     1      -8.582   9.659  64.878  1.00  0.00    -0.188 C  
BRANCH  26  27
HETATM   27  C   UNL     1      -9.981  10.179  65.159  1.00  0.00    -0.379 C  
BRANCH  27  28
HETATM   28  C   UNL     1      -9.983  11.692  65.094  1.00  0.00    -0.297 C  
BRANCH  28  29
HETATM   29  C   UNL     1     -11.342  12.191  64.646  1.00  0.00    -0.382 C  
BRANCH  29  30
HETATM   30  C   UNL     1     -12.067  12.810  65.826  1.00  0.00    -0.505 C  
BRANCH  30  31
HETATM   31  C   UNL     1     -11.108  13.630  66.665  1.00  0.00    -0.312 C  
BRANCH  31  32
HETATM   32  C   UNL     1     -11.877  14.415  67.711  1.00  0.00    -0.402 C  
BRANCH  32  33
HETATM   33  C   UNL     1     -11.038  14.578  68.967  1.00  0.00    -0.279 C  
BRANCH  33  34
HETATM   34  C   UNL     1     -10.985  16.041  69.380  1.00  0.00    -0.321 C  
BRANCH  34  35
HETATM   35  C   UNL     1     -10.045  16.813  68.466  1.00  0.00    -0.281 C  
BRANCH  35  36
HETATM   36  C   UNL     1     -10.737  18.047  67.901  1.00  0.00    -0.329 C  
BRANCH  36  37
HETATM   37  C   UNL     1     -10.080  19.318  68.430  1.00  0.00    -0.518 C  
BRANCH  37  38
HETATM   38  C   UNL     1      -9.777  20.289  67.296  1.00  0.00    -0.590 C  
HETATM   39  C   UNL     1     -10.274  19.746  65.967  1.00  0.00    -0.600 C  
ENDBRANCH  37  38
ENDBRANCH  36  37
ENDBRANCH  35  36
ENDBRANCH  34  35
ENDBRANCH  33  34
ENDBRANCH  32  33
ENDBRANCH  31  32
ENDBRANCH  30  31
ENDBRANCH  29  30
ENDBRANCH  28  29
ENDBRANCH  27  28
ENDBRANCH  26  27
ENDBRANCH  25  26
ENDBRANCH  24  25
ENDBRANCH  23  24
ENDBRANCH  22  23
ENDBRANCH  19  22
ENDBRANCH  18  19
ENDBRANCH  17  18
ENDBRANCH  16  17
ENDBRANCH  15  16
ENDBRANCH  14  15
ENDBRANCH  13  14
ENDBRANCH  12  13
ENDBRANCH  11  12
ENDBRANCH  10  11
ENDBRANCH   9  10
ENDBRANCH   8   9
ENDBRANCH   7   8
ENDBRANCH   6   7
ENDBRANCH   5   6
ENDBRANCH   4   5
ENDBRANCH   3   4
ENDBRANCH   2   3
TORSDOF 34
ENDMDL
MODEL       47
REMARK 921   NORMALIZED FREE ENERGY PREDICTED BY IDOCK:   -3.77 KCAL/MOL
REMARK 922        TOTAL FREE ENERGY PREDICTED BY IDOCK:  -17.58 KCAL/MOL
REMARK 923 INTER-LIGAND FREE ENERGY PREDICTED BY IDOCK:  -11.36 KCAL/MOL
REMARK 924 INTRA-LIGAND FREE ENERGY PREDICTED BY IDOCK:   -6.23 KCAL/MOL
REMARK 927      BINDING AFFINITY PREDICTED BY RF-SCORE:    0.00 PKD
ROOT
HETATM    1  C   UNL     1     -10.509  18.989  66.313  1.00  0.00    -0.534 C  
HETATM    2  C   UNL     1      -9.275  19.215  67.168  1.00  0.00    -0.340 C  
ENDROOT
BRANCH   2   3
HETATM    3  C   UNL     1      -8.408  17.966  67.216  1.00  0.00    -0.232 C  
BRANCH   3   4
HETATM    4  C   UNL     1      -8.972  16.870  66.315  1.00  0.00    -0.305 C  
BRANCH   4   5
HETATM    5  C   UNL     1      -9.002  15.535  67.048  1.00  0.00    -0.249 C  
BRANCH   5   6
HETATM    6  C   UNL     1     -10.097  15.530  68.106  1.00  0.00    -0.218 C  
BRANCH   6   7
HETATM    7  C   UNL     1     -10.384  14.105  68.558  1.00  0.00    -0.249 C  
BRANCH   7   8
HETATM    8  C   UNL     1     -11.798  13.705  68.166  1.00  0.00    -0.407 C  
BRANCH   8   9
HETATM    9  C   UNL     1     -11.781  12.932  66.859  1.00  0.00    -0.445 C  
BRANCH   9  10
HETATM   10  C   UNL     1     -12.548  13.698  65.797  1.00  0.00    -0.511 C  
BRANCH  10  11
HETATM   11  C   UNL     1     -11.595  14.240  64.748  1.00  0.00    -0.404 C  
BRANCH  11  12
HETATM   12  C   UNL     1     -10.542  13.195  64.435  1.00  0.00    -0.441 C  
BRANCH  12  13
HETATM   13  C   UNL     1     -11.075  12.204  63.421  1.00  0.00    -0.495 C  
BRANCH  13  14
HETATM   14  C   UNL     1     -10.140  11.012  63.335  1.00  0.00    -0.424 C  
BRANCH  14  15
HETATM   15  C   UNL     1     -10.001  10.392  64.707  1.00  0.00    -0.409 C  
BRANCH  15  16
HETATM   16  C   UNL     1      -8.788   9.478  64.771  1.00  0.00    -0.244 C  
BRANCH  16  17
HETATM   17  C   UNL     1      -7.581  10.343  65.078  1.00  0.00    -0.086 C  
BRANCH  17  18
HETATM   18  C   UNL     1      -6.804   9.815  66.270  1.00  0.00    -0.092 C  
BRANCH  18  19
HETATM   19  N   UNL     1      -7.018  10.677  67.532  1.00  0.00    -0.082 N  
HETATM   20  C   UNL     1      -5.670  11.054  68.155  1.00  0.00    -0.046 C  
HETATM   21  C   UNL     1      -7.802  11.944  67.185  1.00  0.00    -0.168 C  
BRANCH  19  22
HETATM   22  C   UNL     1      -7.829   9.791  68.504  1.00  0.00    -0.081 C  
BRANCH  22  23
HETATM   23  C   UNL     1      -9.315  10.078  68.435  1.00  0.00    -0.139 C  
BRANCH  23  24
HETATM   24  C   UNL     1      -9.962  10.009  69.806  1.00  0.00    -0.276 C  
BRANCH  24  25
HETATM   25  C   UNL     1     -11.411  10.435  69.650  1.00  0.00    -0.333 C  
BRANCH  25  26
HETATM   26  C   UNL     1     -12.057  10.665  70.997  1.00  0.00    -0.473 C  
BRANCH  26  27
HETATM   27  C   UNL     1     -13.207   9.690  71.173  1.00  0.00    -0.373 C  
BRANCH  27  28
HETATM   28  C   UNL     1     -13.015   8.904  72.453  1.00  0.00    -0.467 C  
BRANCH  28  29
HETATM   29  C   UNL     1     -11.772   8.041  72.353  1.00  0.00    -0.444 C  
BRANCH  29  30
HETATM   30  C   UNL     1     -12.028   6.898  71.390  1.00  0.00    -0.393 C  
BRANCH  30  31
HETATM   31  C   UNL     1     -10.795   6.025  71.265  1.00  0.00    -0.331 C  
BRANCH  31  32
HETATM   32  C   UNL     1     -10.537   5.699  69.806  1.00  0.00    -0.400 C  
BRANCH  32  33
HETATM   33  C   UNL     1     -11.281   6.676  68.911  1.00  0.00    -0.273 C  
BRANCH  33  34
HETATM   34  C   UNL     1     -10.776   6.569  67.480  1.00  0.00    -0.395 C  
BRANCH  34  35
HETATM   35  C   UNL     1     -10.106   5.220  67.256  1.00  0.00    -0.234 C  
BRANCH  35  36
HETATM   36  C   UNL     1      -8.977   5.343  66.240  1.00  0.00    -0.137 C  
BRANCH  36  37
HETATM   37  C   UNL     1      -7.977   6.407  66.679  1.00  0.00    -0.109 C  
BRANCH  37  38
HETATM   38  C   UNL     1      -6.773   5.774  67.368  1.00  0.00    -0.059 C  
HETATM   39  C   UNL     1      -6.680   6.218  68.817  1.00  0.00    -0.061 C  
ENDBRANCH  37  38
ENDBRANCH  36  37
ENDBRANCH  35  36
ENDBRANCH  34  35
ENDBRANCH  33  34
ENDBRANCH  32  33
ENDBRANCH  31  32
ENDBRANCH  30  31
ENDBRANCH  29  30
ENDBRANCH  28  29
ENDBRANCH  27  28
ENDBRANCH  26  27
ENDBRANCH  25  26
ENDBRANCH  24  25
ENDBRANCH  23  24
ENDBRANCH  22  23
ENDBRANCH  19  22
ENDBRANCH  18  19
ENDBRANCH  17  18
ENDBRANCH  16  17
ENDBRANCH  15  16
ENDBRANCH  14  15
ENDBRANCH  13  14
ENDBRANCH  12  13
ENDBRANCH  11  12
ENDBRANCH  10  11
ENDBRANCH   9  10
ENDBRANCH   8   9
ENDBRANCH   7   8
ENDBRANCH   6   7
ENDBRANCH   5   6
ENDBRANCH   4   5
ENDBRANCH   3   4
ENDBRANCH   2   3
TORSDOF 34
ENDMDL
MODEL       48
REMARK 921   NORMALIZED FREE ENERGY PREDICTED BY IDOCK:   -3.75 KCAL/MOL
REMARK 922        TOTAL FREE ENERGY PREDICTED BY IDOCK:  -17.54 KCAL/MOL
REMARK 923 INTER-LIGAND FREE ENERGY PREDICTED BY IDOCK:  -12.39 KCAL/MOL
REMARK 924 INTRA-LIGAND FREE ENERGY PREDICTED BY IDOCK:   -5.15 KCAL/MOL
REMARK 927      BINDING AFFINITY PREDICTED BY RF-SCORE:    0.00 PKD
ROOT
HETATM    1  C   UNL     1     -13.845  15.341  72.235  1.00  0.00    -0.632 C  
HETATM    2  C   UNL     1     -12.472  15.904  72.557  1.00  0.00    -0.566 C  
ENDROOT
BRANCH   2   3
HETATM    3  C   UNL     1     -11.668  16.143  71.288  1.00  0.00    -0.480 C  
BRANCH   3   4
HETATM    4  C   UNL     1     -12.197  15.294  70.135  1.00  0.00    -0.402 C  
BRANCH   4   5
HETATM    5  C   UNL     1     -11.907  15.964  68.798  1.00  0.00    -0.277 C  
BRANCH   5   6
HETATM    6  C   UNL     1     -10.873  17.069  68.966  1.00  0.00    -0.206 C  
BRANCH   6   7
HETATM    7  C   UNL     1     -10.687  17.818  67.654  1.00  0.00    -0.330 C  
BRANCH   7   8
HETATM    8  C   UNL     1     -10.737  19.318  67.894  1.00  0.00    -0.417 C  
BRANCH   8   9
HETATM    9  C   UNL     1      -9.732  20.026  67.002  1.00  0.00    -0.555 C  
BRANCH   9  10
HETATM   10  C   UNL     1      -8.369  20.038  67.668  1.00  0.00    -0.364 C  
BRANCH  10  11
HETATM   11  C   UNL     1      -7.275  20.160  66.623  1.00  0.00    -0.296 C  
BRANCH  11  12
HETATM   12  C   UNL     1      -6.925  18.782  66.096  1.00  0.00    -0.285 C  
BRANCH  12  13
HETATM   13  C   UNL     1      -6.969  17.767  67.218  1.00  0.00    -0.197 C  
BRANCH  13  14
HETATM   14  C   UNL     1      -7.592  16.478  66.715  1.00  0.00    -0.298 C  
BRANCH  14  15
HETATM   15  C   UNL     1      -7.395  15.395  67.751  1.00  0.00    -0.180 C  
BRANCH  15  16
HETATM   16  C   UNL     1      -8.695  14.654  68.017  1.00  0.00    -0.167 C  
BRANCH  16  17
HETATM   17  C   UNL     1      -9.009  13.827  66.785  1.00  0.00    -0.202 C  
BRANCH  17  18
HETATM   18  C   UNL     1     -10.185  14.399  66.014  1.00  0.00    -0.315 C  
BRANCH  18  19
HETATM   19  N   UNL     1     -11.164  13.301  65.548  1.00  0.00    -0.286 N  
HETATM   20  C   UNL     1     -12.608  13.805  65.626  1.00  0.00    -0.509 C  
HETATM   21  C   UNL     1     -10.841  12.871  64.116  1.00  0.00    -0.416 C  
BRANCH  19  22
HETATM   22  C   UNL     1     -10.955  12.121  66.524  1.00  0.00    -0.284 C  
BRANCH  22  23
HETATM   23  C   UNL     1     -11.987  12.107  67.634  1.00  0.00    -0.190 C  
BRANCH  23  24
HETATM   24  C   UNL     1     -11.573  11.191  68.771  1.00  0.00    -0.389 C  
BRANCH  24  25
HETATM   25  C   UNL     1     -11.692  11.982  70.061  1.00  0.00    -0.346 C  
BRANCH  25  26
HETATM   26  C   UNL     1     -12.545  11.248  71.070  1.00  0.00    -0.495 C  
BRANCH  26  27
HETATM   27  C   UNL     1     -11.861   9.947  71.450  1.00  0.00    -0.476 C  
BRANCH  27  28
HETATM   28  C   UNL     1     -12.866   8.815  71.409  1.00  0.00    -0.319 C  
BRANCH  28  29
HETATM   29  C   UNL     1     -12.208   7.517  71.834  1.00  0.00    -0.339 C  
BRANCH  29  30
HETATM   30  C   UNL     1     -11.088   7.816  72.812  1.00  0.00    -0.457 C  
BRANCH  30  31
HETATM   31  C   UNL     1      -9.853   7.008  72.467  1.00  0.00    -0.175 C  
BRANCH  31  32
HETATM   32  C   UNL     1      -8.674   7.936  72.243  1.00  0.00    -0.198 C  
BRANCH  32  33
HETATM   33  C   UNL     1      -8.040   7.661  70.890  1.00  0.00    -0.103 C  
BRANCH  33  34
HETATM   34  C   UNL     1      -8.429   8.744  69.895  1.00  0.00    -0.131 C  
BRANCH  34  35
HETATM   35  C   UNL     1      -8.925   8.117  68.600  1.00  0.00    -0.137 C  
BRANCH  35  36
HETATM   36  C   UNL     1     -10.447   8.064  68.577  1.00  0.00    -0.200 C  
BRANCH  36  37
HETATM   37  C   UNL     1     -10.929   6.621  68.463  1.00  0.00    -0.314 C  
BRANCH  37  38
HETATM   38  C   UNL     1      -9.824   5.716  67.930  1.00  0.00    -0.158 C  
HETATM   39  C   UNL     1     -10.196   5.146  66.572  1.00  0.00    -0.300 C  
ENDBRANCH  37  38
ENDBRANCH  36  37
ENDBRANCH  35  36
ENDBRANCH  34  35
ENDBRANCH  33  34
ENDBRANCH  32  33
ENDBRANCH  31  32
ENDBRANCH  30  31
ENDBRANCH  29  30
ENDBRANCH  28  29
ENDBRANCH  27  28
ENDBRANCH  26  27
ENDBRANCH  25  26
ENDBRANCH  24  25
ENDBRANCH  23  24
ENDBRANCH  22  23
ENDBRANCH  19  22
ENDBRANCH  18  19
ENDBRANCH  17  18
ENDBRANCH  16  17
ENDBRANCH  15  16
ENDBRANCH  14  15
ENDBRANCH  13  14
ENDBRANCH  12  13
ENDBRANCH  11  12
ENDBRANCH  10  11
ENDBRANCH   9  10
ENDBRANCH   8   9
ENDBRANCH   7   8
ENDBRANCH   6   7
ENDBRANCH   5   6
ENDBRANCH   4   5
ENDBRANCH   3   4
ENDBRANCH   2   3
TORSDOF 34
ENDMDL
MODEL       49
REMARK 921   NORMALIZED FREE ENERGY PREDICTED BY IDOCK:   -3.75 KCAL/MOL
REMARK 922        TOTAL FREE ENERGY PREDICTED BY IDOCK:  -17.53 KCAL/MOL
REMARK 923 INTER-LIGAND FREE ENERGY PREDICTED BY IDOCK:  -11.43 KCAL/MOL
REMARK 924 INTRA-LIGAND FREE ENERGY PREDICTED BY IDOCK:   -6.10 KCAL/MOL
REMARK 927      BINDING AFFINITY PREDICTED BY RF-SCORE:    0.00 PKD
ROOT
HETATM    1  C   UNL     1      -7.342  12.710  67.366  1.00  0.00    -0.140 C  
HETATM    2  C   UNL     1      -8.545  13.606  67.130  1.00  0.00    -0.203 C  
ENDROOT
BRANCH   2   3
HETATM    3  C   UNL     1      -9.473  13.604  68.335  1.00  0.00    -0.190 C  
BRANCH   3   4
HETATM    4  C   UNL     1      -9.196  14.798  69.244  1.00  0.00    -0.035 C  
BRANCH   4   5
HETATM    5  C   UNL     1      -9.883  16.049  68.713  1.00  0.00    -0.223 C  
BRANCH   5   6
HETATM    6  C   UNL     1     -11.314  16.131  69.225  1.00  0.00    -0.328 C  
BRANCH   6   7
HETATM    7  C   UNL     1     -11.322  16.285  70.739  1.00  0.00    -0.327 C  
BRANCH   7   8
HETATM    8  C   UNL     1     -12.643  15.794  71.310  1.00  0.00    -0.504 C  
BRANCH   8   9
HETATM    9  C   UNL     1     -13.147  14.601  70.515  1.00  0.00    -0.252 C  
BRANCH   9  10
HETATM   10  C   UNL     1     -12.817  13.315  71.249  1.00  0.00    -0.398 C  
BRANCH  10  11
HETATM   11  C   UNL     1     -12.038  12.379  70.345  1.00  0.00    -0.381 C  
BRANCH  11  12
HETATM   12  C   UNL     1     -12.172  10.957  70.855  1.00  0.00    -0.485 C  
BRANCH  12  13
HETATM   13  C   UNL     1     -13.255  10.881  71.911  1.00  0.00    -0.508 C  
BRANCH  13  14
HETATM   14  C   UNL     1     -13.507   9.431  72.279  1.00  0.00    -0.539 C  
BRANCH  14  15
HETATM   15  C   UNL     1     -12.375   8.582  71.747  1.00  0.00    -0.388 C  
BRANCH  15  16
HETATM   16  C   UNL     1     -12.878   7.217  71.309  1.00  0.00    -0.399 C  
BRANCH  16  17
HETATM   17  C   UNL     1     -11.735   6.234  71.478  1.00  0.00    -0.329 C  
BRANCH  17  18
HETATM   18  C   UNL     1     -10.663   6.777  72.405  1.00  0.00    -0.226 C  
BRANCH  18  19
HETATM   19  N   UNL     1      -9.887   5.651  73.120  1.00  0.00    -0.165 N  
HETATM   20  C   UNL     1      -9.336   6.149  74.459  1.00  0.00    -0.181 C  
HETATM   21  C   UNL     1     -10.794   4.440  73.350  1.00  0.00    -0.267 C  
BRANCH  19  22
HETATM   22  C   UNL     1      -8.728   5.281  72.168  1.00  0.00    -0.130 C  
BRANCH  22  23
HETATM   23  C   UNL     1      -8.979   3.975  71.440  1.00  0.00    -0.160 C  
BRANCH  23  24
HETATM   24  C   UNL     1      -9.119   4.187  69.944  1.00  0.00    -0.179 C  
BRANCH  24  25
HETATM   25  C   UNL     1      -8.484   5.525  69.611  1.00  0.00    -0.101 C  
BRANCH  25  26
HETATM   26  C   UNL     1      -8.842   5.961  68.209  1.00  0.00    -0.110 C  
BRANCH  26  27
HETATM   27  C   UNL     1     -10.351   6.087  68.094  1.00  0.00    -0.251 C  
BRANCH  27  28
HETATM   28  C   UNL     1     -10.702   7.407  67.440  1.00  0.00    -0.348 C  
BRANCH  28  29
HETATM   29  C   UNL     1     -10.385   8.554  68.379  1.00  0.00    -0.241 C  
BRANCH  29  30
HETATM   30  C   UNL     1     -10.487   9.866  67.626  1.00  0.00    -0.296 C  
BRANCH  30  31
HETATM   31  C   UNL     1      -9.430   9.938  66.542  1.00  0.00    -0.230 C  
BRANCH  31  32
HETATM   32  C   UNL     1     -10.064  10.349  65.227  1.00  0.00    -0.370 C  
BRANCH  32  33
HETATM   33  C   UNL     1      -9.118  11.246  64.446  1.00  0.00     0.014 C  
BRANCH  33  34
HETATM   34  C   UNL     1      -9.892  12.066  63.425  1.00  0.00    -0.306 C  
BRANCH  34  35
HETATM   35  C   UNL     1     -11.387  11.815  63.569  1.00  0.00    -0.496 C  
BRANCH  35  36
HETATM   36  C   UNL     1     -12.109  13.090  63.985  1.00  0.00    -0.519 C  
BRANCH  36  37
HETATM   37  C   UNL     1     -12.292  13.131  65.499  1.00  0.00    -0.529 C  
BRANCH  37  38
HETATM   38  C   UNL     1     -11.986  14.519  66.049  1.00  0.00    -0.319 C  
HETATM   39  C   UNL     1     -11.202  15.343  65.041  1.00  0.00    -0.393 C  
ENDBRANCH  37  38
ENDBRANCH  36  37
ENDBRANCH  35  36
ENDBRANCH  34  35
ENDBRANCH  33  34
ENDBRANCH  32  33
ENDBRANCH  31  32
ENDBRANCH  30  31
ENDBRANCH  29  30
ENDBRANCH  28  29
ENDBRANCH  27  28
ENDBRANCH  26  27
ENDBRANCH  25  26
ENDBRANCH  24  25
ENDBRANCH  23  24
ENDBRANCH  22  23
ENDBRANCH  19  22
ENDBRANCH  18  19
ENDBRANCH  17  18
ENDBRANCH  16  17
ENDBRANCH  15  16
ENDBRANCH  14  15
ENDBRANCH  13  14
ENDBRANCH  12  13
ENDBRANCH  11  12
ENDBRANCH  10  11
ENDBRANCH   9  10
ENDBRANCH   8   9
ENDBRANCH   7   8
ENDBRANCH   6   7
ENDBRANCH   5   6
ENDBRANCH   4   5
ENDBRANCH   3   4
ENDBRANCH   2   3
TORSDOF 34
ENDMDL
MODEL       50
REMARK 921   NORMALIZED FREE ENERGY PREDICTED BY IDOCK:   -3.75 KCAL/MOL
REMARK 922        TOTAL FREE ENERGY PREDICTED BY IDOCK:  -17.53 KCAL/MOL
REMARK 923 INTER-LIGAND FREE ENERGY PREDICTED BY IDOCK:  -10.37 KCAL/MOL
REMARK 924 INTRA-LIGAND FREE ENERGY PREDICTED BY IDOCK:   -7.16 KCAL/MOL
REMARK 927      BINDING AFFINITY PREDICTED BY RF-SCORE:    0.00 PKD
ROOT
HETATM    1  C   UNL     1      -7.161   9.648  64.903  1.00  0.00    -0.118 C  
HETATM    2  C   UNL     1      -8.428   9.025  64.343  1.00  0.00    -0.190 C  
ENDROOT
BRANCH   2   3
HETATM    3  C   UNL     1      -9.598   9.994  64.431  1.00  0.00    -0.325 C  
BRANCH   3   4
HETATM    4  C   UNL     1      -9.618  10.942  63.235  1.00  0.00    -0.377 C  
BRANCH   4   5
HETATM    5  C   UNL     1     -10.601  12.081  63.468  1.00  0.00    -0.514 C  
BRANCH   5   6
HETATM    6  C   UNL     1     -11.421  11.831  64.726  1.00  0.00    -0.281 C  
BRANCH   6   7
HETATM    7  C   UNL     1     -12.561  12.836  64.818  1.00  0.00    -0.518 C  
BRANCH   7   8
HETATM    8  C   UNL     1     -12.507  13.570  66.148  1.00  0.00    -0.424 C  
BRANCH   8   9
HETATM    9  C   UNL     1     -11.283  14.470  66.201  1.00  0.00    -0.339 C  
BRANCH   9  10
HETATM   10  C   UNL     1     -11.073  14.972  67.617  1.00  0.00    -0.317 C  
BRANCH  10  11
HETATM   11  C   UNL     1     -11.919  14.171  68.590  1.00  0.00    -0.373 C  
BRANCH  11  12
HETATM   12  C   UNL     1     -11.871  14.825  69.957  1.00  0.00    -0.362 C  
BRANCH  12  13
HETATM   13  C   UNL     1     -12.507  13.921  70.992  1.00  0.00    -0.452 C  
BRANCH  13  14
HETATM   14  C   UNL     1     -12.394  12.476  70.544  1.00  0.00    -0.345 C  
BRANCH  14  15
HETATM   15  C   UNL     1     -12.989  11.580  71.607  1.00  0.00    -0.499 C  
BRANCH  15  16
HETATM   16  C   UNL     1     -13.217  10.177  71.070  1.00  0.00    -0.412 C  
BRANCH  16  17
HETATM   17  C   UNL     1     -12.579   9.206  72.046  1.00  0.00    -0.463 C  
BRANCH  17  18
HETATM   18  C   UNL     1     -11.107   8.998  71.745  1.00  0.00    -0.374 C  
BRANCH  18  19
HETATM   19  N   UNL     1     -10.672   7.532  71.954  1.00  0.00    -0.214 N  
HETATM   20  C   UNL     1     -10.651   7.188  73.446  1.00  0.00    -0.382 C  
HETATM   21  C   UNL     1     -11.620   6.585  71.216  1.00  0.00    -0.327 C  
BRANCH  19  22
HETATM   22  C   UNL     1      -9.248   7.437  71.362  1.00  0.00    -0.141 C  
BRANCH  22  23
HETATM   23  C   UNL     1      -8.597   8.798  71.215  1.00  0.00    -0.258 C  
BRANCH  23  24
HETATM   24  C   UNL     1      -7.159   8.682  70.743  1.00  0.00    -0.061 C  
BRANCH  24  25
HETATM   25  C   UNL     1      -7.056   9.408  69.413  1.00  0.00    -0.054 C  
BRANCH  25  26
HETATM   26  C   UNL     1      -6.852  10.891  69.619  1.00  0.00    -0.137 C  
BRANCH  26  27
HETATM   27  C   UNL     1      -7.700  11.656  68.619  1.00  0.00    -0.134 C  
BRANCH  27  28
HETATM   28  C   UNL     1      -8.617  10.696  67.891  1.00  0.00    -0.124 C  
BRANCH  28  29
HETATM   29  C   UNL     1     -10.066  11.069  68.138  1.00  0.00    -0.195 C  
BRANCH  29  30
HETATM   30  C   UNL     1     -10.944   9.852  67.927  1.00  0.00    -0.281 C  
BRANCH  30  31
HETATM   31  C   UNL     1     -10.106   8.590  67.913  1.00  0.00    -0.258 C  
BRANCH  31  32
HETATM   32  C   UNL     1     -10.818   7.503  67.129  1.00  0.00    -0.298 C  
BRANCH  32  33
HETATM   33  C   UNL     1      -9.817   6.477  66.627  1.00  0.00    -0.203 C  
BRANCH  33  34
HETATM   34  C   UNL     1      -8.439   6.757  67.206  1.00  0.00    -0.120 C  
BRANCH  34  35
HETATM   35  C   UNL     1      -7.438   5.722  66.711  1.00  0.00    -0.084 C  
BRANCH  35  36
HETATM   36  C   UNL     1      -7.178   4.671  67.781  1.00  0.00    -0.066 C  
BRANCH  36  37
HETATM   37  C   UNL     1      -7.198   5.304  69.168  1.00  0.00    -0.058 C  
BRANCH  37  38
HETATM   38  C   UNL     1      -7.852   4.374  70.184  1.00  0.00    -0.056 C  
HETATM   39  C   UNL     1      -9.304   4.110  69.824  1.00  0.00    -0.237 C  
ENDBRANCH  37  38
ENDBRANCH  36  37
ENDBRANCH  35  36
ENDBRANCH  34  35
ENDBRANCH  33  34
ENDBRANCH  32  33
ENDBRANCH  31  32
ENDBRANCH  30  31
ENDBRANCH  29  30
ENDBRANCH  28  29
ENDBRANCH  27  28
ENDBRANCH  26  27
ENDBRANCH  25  26
ENDBRANCH  24  25
ENDBRANCH  23  24
ENDBRANCH  22  23
ENDBRANCH  19  22
ENDBRANCH  18  19
ENDBRANCH  17  18
ENDBRANCH  16  17
ENDBRANCH  15  16
ENDBRANCH  14  15
ENDBRANCH  13  14
ENDBRANCH  12  13
ENDBRANCH  11  12
ENDBRANCH  10  11
ENDBRANCH   9  10
ENDBRANCH   8   9
ENDBRANCH   7   8
ENDBRANCH   6   7
ENDBRANCH   5   6
ENDBRANCH   4   5
ENDBRANCH   3   4
ENDBRANCH   2   3
TORSDOF 34
ENDMDL
MODEL       51
REMARK 921   NORMALIZED FREE ENERGY PREDICTED BY IDOCK:   -3.74 KCAL/MOL
REMARK 922        TOTAL FREE ENERGY PREDICTED BY IDOCK:  -17.51 KCAL/MOL
REMARK 923 INTER-LIGAND FREE ENERGY PREDICTED BY IDOCK:  -11.32 KCAL/MOL
REMARK 924 INTRA-LIGAND FREE ENERGY PREDICTED BY IDOCK:   -6.19 KCAL/MOL
REMARK 927      BINDING AFFINITY PREDICTED BY RF-SCORE:    0.00 PKD
ROOT
HETATM    1  C   UNL     1      -7.371  10.200  69.963  1.00  0.00    -0.172 C  
HETATM    2  C   UNL     1      -8.717  10.214  69.260  1.00  0.00    -0.186 C  
ENDROOT
BRANCH   2   3
HETATM    3  C   UNL     1      -9.796   9.592  70.134  1.00  0.00    -0.310 C  
BRANCH   3   4
HETATM    4  C   UNL     1     -11.176  10.137  69.774  1.00  0.00    -0.325 C  
BRANCH   4   5
HETATM    5  C   UNL     1     -11.912  10.604  71.023  1.00  0.00    -0.442 C  
BRANCH   5   6
HETATM    6  C   UNL     1     -13.301   9.986  71.088  1.00  0.00    -0.379 C  
BRANCH   6   7
HETATM    7  C   UNL     1     -13.355   8.929  72.181  1.00  0.00    -0.489 C  
BRANCH   7   8
HETATM    8  C   UNL     1     -13.226   7.540  71.576  1.00  0.00    -0.404 C  
BRANCH   8   9
HETATM    9  C   UNL     1     -11.868   6.947  71.908  1.00  0.00    -0.351 C  
BRANCH   9  10
HETATM   10  C   UNL     1     -11.248   7.696  73.073  1.00  0.00    -0.388 C  
BRANCH  10  11
HETATM   11  C   UNL     1      -9.765   7.392  73.165  1.00  0.00    -0.281 C  
BRANCH  11  12
HETATM   12  C   UNL     1      -9.536   5.915  72.907  1.00  0.00    -0.154 C  
BRANCH  12  13
HETATM   13  C   UNL     1      -8.072   5.656  72.621  1.00  0.00    -0.102 C  
BRANCH  13  14
HETATM   14  C   UNL     1      -7.357   6.974  72.388  1.00  0.00    -0.084 C  
BRANCH  14  15
HETATM   15  C   UNL     1      -6.337   6.796  71.286  1.00  0.00    -0.041 C  
BRANCH  15  16
HETATM   16  C   UNL     1      -6.734   5.663  70.355  1.00  0.00    -0.048 C  
BRANCH  16  17
HETATM   17  C   UNL     1      -7.151   6.282  69.035  1.00  0.00    -0.081 C  
BRANCH  17  18
HETATM   18  C   UNL     1      -8.631   6.085  68.768  1.00  0.00    -0.112 C  
BRANCH  18  19
HETATM   19  N   UNL     1      -8.887   5.241  67.501  1.00  0.00    -0.106 N  
HETATM   20  C   UNL     1      -7.596   5.089  66.691  1.00  0.00    -0.088 C  
HETATM   21  C   UNL     1      -9.427   3.861  67.882  1.00  0.00    -0.173 C  
BRANCH  19  22
HETATM   22  C   UNL     1      -9.941   6.026  66.689  1.00  0.00    -0.166 C  
BRANCH  22  23
HETATM   23  C   UNL     1     -10.503   7.201  67.464  1.00  0.00    -0.331 C  
BRANCH  23  24
HETATM   24  C   UNL     1     -10.466   8.479  66.647  1.00  0.00    -0.235 C  
BRANCH  24  25
HETATM   25  C   UNL     1      -9.066   8.615  66.075  1.00  0.00    -0.255 C  
BRANCH  25  26
HETATM   26  C   UNL     1      -8.879   9.962  65.415  1.00  0.00    -0.196 C  
BRANCH  26  27
HETATM   27  C   UNL     1     -10.237  10.529  65.042  1.00  0.00    -0.365 C  
BRANCH  27  28
HETATM   28  C   UNL     1     -10.129  11.287  63.736  1.00  0.00    -0.412 C  
BRANCH  28  29
HETATM   29  C   UNL     1     -10.508  12.740  63.944  1.00  0.00    -0.402 C  
BRANCH  29  30
HETATM   30  C   UNL     1     -12.003  12.905  63.751  1.00  0.00    -0.582 C  
BRANCH  30  31
HETATM   31  C   UNL     1     -12.646  13.431  65.019  1.00  0.00    -0.459 C  
BRANCH  31  32
HETATM   32  C   UNL     1     -11.619  14.178  65.849  1.00  0.00    -0.349 C  
BRANCH  32  33
HETATM   33  C   UNL     1     -12.006  14.143  67.318  1.00  0.00    -0.449 C  
BRANCH  33  34
HETATM   34  C   UNL     1     -10.882  13.539  68.145  1.00  0.00    -0.271 C  
BRANCH  34  35
HETATM   35  C   UNL     1     -10.927  14.077  69.569  1.00  0.00    -0.138 C  
BRANCH  35  36
HETATM   36  C   UNL     1     -11.810  15.315  69.648  1.00  0.00    -0.363 C  
BRANCH  36  37
HETATM   37  C   UNL     1     -12.355  15.493  71.061  1.00  0.00    -0.471 C  
BRANCH  37  38
HETATM   38  C   UNL     1     -13.656  14.720  71.246  1.00  0.00    -0.480 C  
HETATM   39  C   UNL     1     -13.586  13.822  72.469  1.00  0.00    -0.680 C  
ENDBRANCH  37  38
ENDBRANCH  36  37
ENDBRANCH  35  36
ENDBRANCH  34  35
ENDBRANCH  33  34
ENDBRANCH  32  33
ENDBRANCH  31  32
ENDBRANCH  30  31
ENDBRANCH  29  30
ENDBRANCH  28  29
ENDBRANCH  27  28
ENDBRANCH  26  27
ENDBRANCH  25  26
ENDBRANCH  24  25
ENDBRANCH  23  24
ENDBRANCH  22  23
ENDBRANCH  19  22
ENDBRANCH  18  19
ENDBRANCH  17  18
ENDBRANCH  16  17
ENDBRANCH  15  16
ENDBRANCH  14  15
ENDBRANCH  13  14
ENDBRANCH  12  13
ENDBRANCH  11  12
ENDBRANCH  10  11
ENDBRANCH   9  10
ENDBRANCH   8   9
ENDBRANCH   7   8
ENDBRANCH   6   7
ENDBRANCH   5   6
ENDBRANCH   4   5
ENDBRANCH   3   4
ENDBRANCH   2   3
TORSDOF 34
ENDMDL
MODEL       52
REMARK 921   NORMALIZED FREE ENERGY PREDICTED BY IDOCK:   -3.74 KCAL/MOL
REMARK 922        TOTAL FREE ENERGY PREDICTED BY IDOCK:  -17.50 KCAL/MOL
REMARK 923 INTER-LIGAND FREE ENERGY PREDICTED BY IDOCK:  -10.97 KCAL/MOL
REMARK 924 INTRA-LIGAND FREE ENERGY PREDICTED BY IDOCK:   -6.53 KCAL/MOL
REMARK 927      BINDING AFFINITY PREDICTED BY RF-SCORE:    0.00 PKD
ROOT
HETATM    1  C   UNL     1      -7.562  11.599  68.890  1.00  0.00    -0.087 C  
HETATM    2  C   UNL     1      -6.831  10.551  69.710  1.00  0.00    -0.138 C  
ENDROOT
BRANCH   2   3
HETATM    3  C   UNL     1      -7.810   9.586  70.361  1.00  0.00    -0.190 C  
BRANCH   3   4
HETATM    4  C   UNL     1      -7.091   8.627  71.306  1.00  0.00    -0.086 C  
BRANCH   4   5
HETATM    5  C   UNL     1      -8.075   7.994  72.281  1.00  0.00    -0.179 C  
BRANCH   5   6
HETATM    6  C   UNL     1      -9.421   8.704  72.219  1.00  0.00    -0.336 C  
BRANCH   6   7
HETATM    7  C   UNL     1     -10.501   7.836  72.847  1.00  0.00    -0.412 C  
BRANCH   7   8
HETATM    8  C   UNL     1     -11.879   8.342  72.449  1.00  0.00    -0.461 C  
BRANCH   8   9
HETATM    9  C   UNL     1     -12.569   7.331  71.549  1.00  0.00    -0.415 C  
BRANCH   9  10
HETATM   10  C   UNL     1     -11.585   6.255  71.131  1.00  0.00    -0.339 C  
BRANCH  10  11
HETATM   11  C   UNL     1     -11.405   6.265  69.624  1.00  0.00    -0.492 C  
BRANCH  11  12
HETATM   12  C   UNL     1     -10.311   5.287  69.240  1.00  0.00    -0.286 C  
BRANCH  12  13
HETATM   13  C   UNL     1      -8.953   5.862  69.583  1.00  0.00    -0.133 C  
BRANCH  13  14
HETATM   14  C   UNL     1      -8.006   5.663  68.414  1.00  0.00    -0.100 C  
BRANCH  14  15
HETATM   15  C   UNL     1      -8.540   4.561  67.527  1.00  0.00    -0.105 C  
BRANCH  15  16
HETATM   16  C   UNL     1      -8.173   4.807  66.074  1.00  0.00    -0.111 C  
BRANCH  16  17
HETATM   17  C   UNL     1      -7.489   6.159  65.998  1.00  0.00    -0.082 C  
BRANCH  17  18
HETATM   18  C   UNL     1      -8.011   6.985  64.838  1.00  0.00    -0.127 C  
BRANCH  18  19
HETATM   19  N   UNL     1      -8.513   8.372  65.291  1.00  0.00    -0.173 N  
HETATM   20  C   UNL     1      -7.454   9.070  66.149  1.00  0.00    -0.091 C  
HETATM   21  C   UNL     1      -8.850   9.240  64.076  1.00  0.00    -0.133 C  
BRANCH  19  22
HETATM   22  C   UNL     1      -9.784   8.098  66.125  1.00  0.00    -0.084 C  
BRANCH  22  23
HETATM   23  C   UNL     1      -9.735   8.773  67.481  1.00  0.00    -0.214 C  
BRANCH  23  24
HETATM   24  C   UNL     1     -10.838   9.805  67.632  1.00  0.00    -0.301 C  
BRANCH  24  25
HETATM   25  C   UNL     1     -11.170   9.905  69.110  1.00  0.00    -0.151 C  
BRANCH  25  26
HETATM   26  C   UNL     1     -11.318  11.347  69.536  1.00  0.00    -0.357 C  
BRANCH  26  27
HETATM   27  C   UNL     1     -12.323  11.433  70.671  1.00  0.00    -0.466 C  
BRANCH  27  28
HETATM   28  C   UNL     1     -12.693  12.882  70.913  1.00  0.00    -0.291 C  
BRANCH  28  29
HETATM   29  C   UNL     1     -13.483  13.010  72.201  1.00  0.00    -0.638 C  
BRANCH  29  30
HETATM   30  C   UNL     1     -13.251  14.383  72.800  1.00  0.00    -0.611 C  
BRANCH  30  31
HETATM   31  C   UNL     1     -13.161  15.430  71.708  1.00  0.00    -0.544 C  
BRANCH  31  32
HETATM   32  C   UNL     1     -11.783  16.064  71.710  1.00  0.00    -0.593 C  
BRANCH  32  33
HETATM   33  C   UNL     1     -11.316  16.310  70.285  1.00  0.00    -0.299 C  
BRANCH  33  34
HETATM   34  C   UNL     1     -10.156  15.389  69.944  1.00  0.00    -0.253 C  
BRANCH  34  35
HETATM   35  C   UNL     1     -10.319  14.833  68.536  1.00  0.00    -0.237 C  
BRANCH  35  36
HETATM   36  C   UNL     1     -11.769  14.939  68.082  1.00  0.00    -0.344 C  
BRANCH  36  37
HETATM   37  C   UNL     1     -12.152  13.732  67.232  1.00  0.00    -0.393 C  
BRANCH  37  38
HETATM   38  C   UNL     1     -11.500  13.804  65.856  1.00  0.00    -0.330 C  
HETATM   39  C   UNL     1     -12.512  14.199  64.794  1.00  0.00    -0.395 C  
ENDBRANCH  37  38
ENDBRANCH  36  37
ENDBRANCH  35  36
ENDBRANCH  34  35
ENDBRANCH  33  34
ENDBRANCH  32  33
ENDBRANCH  31  32
ENDBRANCH  30  31
ENDBRANCH  29  30
ENDBRANCH  28  29
ENDBRANCH  27  28
ENDBRANCH  26  27
ENDBRANCH  25  26
ENDBRANCH  24  25
ENDBRANCH  23  24
ENDBRANCH  22  23
ENDBRANCH  19  22
ENDBRANCH  18  19
ENDBRANCH  17  18
ENDBRANCH  16  17
ENDBRANCH  15  16
ENDBRANCH  14  15
ENDBRANCH  13  14
ENDBRANCH  12  13
ENDBRANCH  11  12
ENDBRANCH  10  11
ENDBRANCH   9  10
ENDBRANCH   8   9
ENDBRANCH   7   8
ENDBRANCH   6   7
ENDBRANCH   5   6
ENDBRANCH   4   5
ENDBRANCH   3   4
ENDBRANCH   2   3
TORSDOF 34
ENDMDL
MODEL       53
REMARK 921   NORMALIZED FREE ENERGY PREDICTED BY IDOCK:   -3.74 KCAL/MOL
REMARK 922        TOTAL FREE ENERGY PREDICTED BY IDOCK:  -17.49 KCAL/MOL
REMARK 923 INTER-LIGAND FREE ENERGY PREDICTED BY IDOCK:  -11.63 KCAL/MOL
REMARK 924 INTRA-LIGAND FREE ENERGY PREDICTED BY IDOCK:   -5.86 KCAL/MOL
REMARK 927      BINDING AFFINITY PREDICTED BY RF-SCORE:    0.00 PKD
ROOT
HETATM    1  C   UNL     1     -10.441   3.817  64.350  1.00  0.00    -0.227 C  
HETATM    2  C   UNL     1     -10.012   4.437  65.668  1.00  0.00    -0.247 C  
ENDROOT
BRANCH   2   3
HETATM    3  C   UNL     1      -8.753   5.273  65.495  1.00  0.00    -0.149 C  
BRANCH   3   4
HETATM    4  C   UNL     1      -8.551   6.215  66.679  1.00  0.00    -0.118 C  
BRANCH   4   5
HETATM    5  C   UNL     1      -9.235   7.552  66.425  1.00  0.00    -0.212 C  
BRANCH   5   6
HETATM    6  C   UNL     1     -10.426   7.730  67.357  1.00  0.00    -0.362 C  
BRANCH   6   7
HETATM    7  C   UNL     1     -10.142   7.077  68.702  1.00  0.00    -0.168 C  
BRANCH   7   8
HETATM    8  C   UNL     1     -11.402   6.420  69.244  1.00  0.00    -0.405 C  
BRANCH   8   9
HETATM    9  C   UNL     1     -11.289   6.228  70.746  1.00  0.00    -0.397 C  
BRANCH   9  10
HETATM   10  C   UNL     1     -12.408   6.974  71.448  1.00  0.00    -0.419 C  
BRANCH  10  11
HETATM   11  C   UNL     1     -11.862   8.207  72.145  1.00  0.00    -0.417 C  
BRANCH  11  12
HETATM   12  C   UNL     1     -12.916   9.297  72.138  1.00  0.00    -0.503 C  
BRANCH  12  13
HETATM   13  C   UNL     1     -12.627  10.297  71.038  1.00  0.00    -0.487 C  
BRANCH  13  14
HETATM   14  C   UNL     1     -11.176  10.179  70.611  1.00  0.00    -0.418 C  
BRANCH  14  15
HETATM   15  C   UNL     1     -11.018  10.761  69.225  1.00  0.00    -0.292 C  
BRANCH  15  16
HETATM   16  C   UNL     1     -11.839  12.030  69.071  1.00  0.00    -0.372 C  
BRANCH  16  17
HETATM   17  C   UNL     1     -11.734  12.470  67.623  1.00  0.00    -0.423 C  
BRANCH  17  18
HETATM   18  C   UNL     1     -11.278  11.334  66.727  1.00  0.00    -0.195 C  
BRANCH  18  19
HETATM   19  N   UNL     1     -10.436  11.836  65.534  1.00  0.00    -0.257 N  
HETATM   20  C   UNL     1     -10.146  10.687  64.564  1.00  0.00    -0.353 C  
HETATM   21  C   UNL     1     -11.170  12.961  64.801  1.00  0.00    -0.306 C  
BRANCH  19  22
HETATM   22  C   UNL     1      -9.121  12.362  66.151  1.00  0.00    -0.040 C  
BRANCH  22  23
HETATM   23  C   UNL     1      -8.258  11.244  66.700  1.00  0.00    -0.164 C  
BRANCH  23  24
HETATM   24  C   UNL     1      -7.622  11.627  68.023  1.00  0.00    -0.117 C  
BRANCH  24  25
HETATM   25  C   UNL     1      -8.028  13.058  68.328  1.00  0.00    -0.151 C  
BRANCH  25  26
HETATM   26  C   UNL     1      -6.817  13.956  68.429  1.00  0.00    -0.101 C  
BRANCH  26  27
HETATM   27  C   UNL     1      -7.099  15.260  67.704  1.00  0.00    -0.206 C  
BRANCH  27  28
HETATM   28  C   UNL     1      -7.109  16.402  68.699  1.00  0.00    -0.163 C  
BRANCH  28  29
HETATM   29  C   UNL     1      -6.738  17.698  68.007  1.00  0.00    -0.187 C  
BRANCH  29  30
HETATM   30  C   UNL     1      -6.848  18.846  68.992  1.00  0.00    -0.336 C  
BRANCH  30  31
HETATM   31  C   UNL     1      -7.227  20.126  68.274  1.00  0.00    -0.280 C  
BRANCH  31  32
HETATM   32  C   UNL     1      -8.063  19.805  67.050  1.00  0.00    -0.327 C  
BRANCH  32  33
HETATM   33  C   UNL     1      -9.449  20.411  67.187  1.00  0.00    -0.567 C  
BRANCH  33  34
HETATM   34  C   UNL     1     -10.513  19.369  66.876  1.00  0.00    -0.569 C  
BRANCH  34  35
HETATM   35  C   UNL     1     -10.465  18.244  67.900  1.00  0.00    -0.408 C  
BRANCH  35  36
HETATM   36  C   UNL     1     -10.502  16.887  67.210  1.00  0.00    -0.301 C  
BRANCH  36  37
HETATM   37  C   UNL     1     -10.747  15.776  68.226  1.00  0.00    -0.281 C  
BRANCH  37  38
HETATM   38  C   UNL     1     -10.643  16.307  69.651  1.00  0.00    -0.320 C  
HETATM   39  C   UNL     1     -11.618  15.592  70.570  1.00  0.00    -0.383 C  
ENDBRANCH  37  38
ENDBRANCH  36  37
ENDBRANCH  35  36
ENDBRANCH  34  35
ENDBRANCH  33  34
ENDBRANCH  32  33
ENDBRANCH  31  32
ENDBRANCH  30  31
ENDBRANCH  29  30
ENDBRANCH  28  29
ENDBRANCH  27  28
ENDBRANCH  26  27
ENDBRANCH  25  26
ENDBRANCH  24  25
ENDBRANCH  23  24
ENDBRANCH  22  23
ENDBRANCH  19  22
ENDBRANCH  18  19
ENDBRANCH  17  18
ENDBRANCH  16  17
ENDBRANCH  15  16
ENDBRANCH  14  15
ENDBRANCH  13  14
ENDBRANCH  12  13
ENDBRANCH  11  12
ENDBRANCH  10  11
ENDBRANCH   9  10
ENDBRANCH   8   9
ENDBRANCH   7   8
ENDBRANCH   6   7
ENDBRANCH   5   6
ENDBRANCH   4   5
ENDBRANCH   3   4
ENDBRANCH   2   3
TORSDOF 34
ENDMDL
MODEL       54
REMARK 921   NORMALIZED FREE ENERGY PREDICTED BY IDOCK:   -3.73 KCAL/MOL
REMARK 922        TOTAL FREE ENERGY PREDICTED BY IDOCK:  -17.48 KCAL/MOL
REMARK 923 INTER-LIGAND FREE ENERGY PREDICTED BY IDOCK:  -11.08 KCAL/MOL
REMARK 924 INTRA-LIGAND FREE ENERGY PREDICTED BY IDOCK:   -6.40 KCAL/MOL
REMARK 927      BINDING AFFINITY PREDICTED BY RF-SCORE:    0.00 PKD
ROOT
HETATM    1  C   UNL     1      -8.095   4.188  65.902  1.00  0.00    -0.101 C  
HETATM    2  C   UNL     1      -9.489   3.960  66.461  1.00  0.00    -0.211 C  
ENDROOT
BRANCH   2   3
HETATM    3  C   UNL     1      -9.564   4.367  67.925  1.00  0.00    -0.205 C  
BRANCH   3   4
HETATM    4  C   UNL     1      -9.481   5.884  68.079  1.00  0.00    -0.111 C  
BRANCH   4   5
HETATM    5  C   UNL     1     -10.820   6.532  67.750  1.00  0.00    -0.395 C  
BRANCH   5   6
HETATM    6  C   UNL     1     -10.619   7.757  66.869  1.00  0.00    -0.347 C  
BRANCH   6   7
HETATM    7  C   UNL     1      -9.133   8.032  66.683  1.00  0.00    -0.199 C  
BRANCH   7   8
HETATM    8  C   UNL     1      -8.932   9.293  65.858  1.00  0.00    -0.225 C  
BRANCH   8   9
HETATM    9  C   UNL     1     -10.267   9.970  65.601  1.00  0.00    -0.258 C  
BRANCH   9  10
HETATM   10  C   UNL     1     -10.259  11.369  66.190  1.00  0.00    -0.282 C  
BRANCH  10  11
HETATM   11  C   UNL     1     -11.526  11.611  66.988  1.00  0.00    -0.336 C  
BRANCH  11  12
HETATM   12  C   UNL     1     -11.395  10.963  68.352  1.00  0.00    -0.370 C  
BRANCH  12  13
HETATM   13  C   UNL     1     -10.032  11.258  68.942  1.00  0.00    -0.169 C  
BRANCH  13  14
HETATM   14  C   UNL     1      -9.495  10.017  69.630  1.00  0.00    -0.247 C  
BRANCH  14  15
HETATM   15  C   UNL     1      -7.997   9.954  69.438  1.00  0.00    -0.135 C  
BRANCH  15  16
HETATM   16  C   UNL     1      -7.380   8.885  70.324  1.00  0.00    -0.067 C  
BRANCH  16  17
HETATM   17  C   UNL     1      -8.407   8.515  71.376  1.00  0.00    -0.204 C  
BRANCH  17  18
HETATM   18  C   UNL     1      -7.873   7.467  72.335  1.00  0.00    -0.098 C  
BRANCH  18  19
HETATM   19  N   UNL     1      -8.951   6.436  72.731  1.00  0.00    -0.125 N  
HETATM   20  C   UNL     1      -8.347   5.030  72.796  1.00  0.00    -0.112 C  
HETATM   21  C   UNL     1      -9.566   6.801  74.083  1.00  0.00    -0.267 C  
BRANCH  19  22
HETATM   22  C   UNL     1     -10.019   6.509  71.617  1.00  0.00    -0.177 C  
BRANCH  22  23
HETATM   23  C   UNL     1     -11.381   6.048  72.098  1.00  0.00    -0.351 C  
BRANCH  23  24
HETATM   24  C   UNL     1     -12.503   6.794  71.400  1.00  0.00    -0.379 C  
BRANCH  24  25
HETATM   25  C   UNL     1     -12.022   8.212  71.149  1.00  0.00    -0.296 C  
BRANCH  25  26
HETATM   26  C   UNL     1     -12.541   9.156  72.208  1.00  0.00    -0.425 C  
BRANCH  26  27
HETATM   27  C   UNL     1     -13.467  10.172  71.561  1.00  0.00    -0.351 C  
BRANCH  27  28
HETATM   28  C   UNL     1     -12.805  11.534  71.561  1.00  0.00    -0.485 C  
BRANCH  28  29
HETATM   29  C   UNL     1     -13.717  12.556  72.211  1.00  0.00    -0.356 C  
BRANCH  29  30
HETATM   30  C   UNL     1     -13.112  13.938  72.064  1.00  0.00    -0.480 C  
BRANCH  30  31
HETATM   31  C   UNL     1     -12.167  13.980  70.880  1.00  0.00    -0.436 C  
BRANCH  31  32
HETATM   32  C   UNL     1     -12.047  15.400  70.362  1.00  0.00    -0.408 C  
BRANCH  32  33
HETATM   33  C   UNL     1     -10.690  15.609  69.712  1.00  0.00    -0.309 C  
BRANCH  33  34
HETATM   34  C   UNL     1     -10.698  15.072  68.289  1.00  0.00    -0.253 C  
BRANCH  34  35
HETATM   35  C   UNL     1     -10.541  16.212  67.293  1.00  0.00    -0.305 C  
BRANCH  35  36
HETATM   36  C   UNL     1      -9.542  15.841  66.205  1.00  0.00    -0.364 C  
BRANCH  36  37
HETATM   37  C   UNL     1     -10.077  14.692  65.357  1.00  0.00    -0.403 C  
BRANCH  37  38
HETATM   38  C   UNL     1     -11.398  15.069  64.697  1.00  0.00    -0.357 C  
HETATM   39  C   UNL     1     -12.156  13.830  64.251  1.00  0.00    -0.481 C  
ENDBRANCH  37  38
ENDBRANCH  36  37
ENDBRANCH  35  36
ENDBRANCH  34  35
ENDBRANCH  33  34
ENDBRANCH  32  33
ENDBRANCH  31  32
ENDBRANCH  30  31
ENDBRANCH  29  30
ENDBRANCH  28  29
ENDBRANCH  27  28
ENDBRANCH  26  27
ENDBRANCH  25  26
ENDBRANCH  24  25
ENDBRANCH  23  24
ENDBRANCH  22  23
ENDBRANCH  19  22
ENDBRANCH  18  19
ENDBRANCH  17  18
ENDBRANCH  16  17
ENDBRANCH  15  16
ENDBRANCH  14  15
ENDBRANCH  13  14
ENDBRANCH  12  13
ENDBRANCH  11  12
ENDBRANCH  10  11
ENDBRANCH   9  10
ENDBRANCH   8   9
ENDBRANCH   7   8
ENDBRANCH   6   7
ENDBRANCH   5   6
ENDBRANCH   4   5
ENDBRANCH   3   4
ENDBRANCH   2   3
TORSDOF 34
ENDMDL
MODEL       55
REMARK 921   NORMALIZED FREE ENERGY PREDICTED BY IDOCK:   -3.73 KCAL/MOL
REMARK 922        TOTAL FREE ENERGY PREDICTED BY IDOCK:  -17.47 KCAL/MOL
REMARK 923 INTER-LIGAND FREE ENERGY PREDICTED BY IDOCK:  -12.26 KCAL/MOL
REMARK 924 INTRA-LIGAND FREE ENERGY PREDICTED BY IDOCK:   -5.22 KCAL/MOL
REMARK 927      BINDING AFFINITY PREDICTED BY RF-SCORE:    0.00 PKD
ROOT
HETATM    1  C   UNL     1     -13.823  14.412  71.735  1.00  0.00    -0.527 C  
HETATM    2  C   UNL     1     -13.148  15.697  72.180  1.00  0.00    -0.540 C  
ENDROOT
BRANCH   2   3
HETATM    3  C   UNL     1     -11.994  16.057  71.257  1.00  0.00    -0.475 C  
BRANCH   3   4
HETATM    4  C   UNL     1     -11.884  15.065  70.102  1.00  0.00    -0.357 C  
BRANCH   4   5
HETATM    5  C   UNL     1     -11.831  15.796  68.767  1.00  0.00    -0.321 C  
BRANCH   5   6
HETATM    6  C   UNL     1     -10.785  16.902  68.805  1.00  0.00    -0.333 C  
BRANCH   6   7
HETATM    7  C   UNL     1     -10.507  17.410  67.398  1.00  0.00    -0.336 C  
BRANCH   7   8
HETATM    8  C   UNL     1     -10.779  18.904  67.316  1.00  0.00    -0.523 C  
BRANCH   8   9
HETATM    9  C   UNL     1      -9.565  19.629  66.762  1.00  0.00    -0.474 C  
BRANCH   9  10
HETATM   10  C   UNL     1      -8.419  19.548  67.753  1.00  0.00    -0.352 C  
BRANCH  10  11
HETATM   11  C   UNL     1      -7.090  19.691  67.033  1.00  0.00    -0.230 C  
BRANCH  11  12
HETATM   12  C   UNL     1      -6.566  18.316  66.667  1.00  0.00    -0.224 C  
BRANCH  12  13
HETATM   13  C   UNL     1      -6.724  17.367  67.837  1.00  0.00    -0.179 C  
BRANCH  13  14
HETATM   14  C   UNL     1      -6.944  15.957  67.322  1.00  0.00    -0.241 C  
BRANCH  14  15
HETATM   15  C   UNL     1      -7.098  15.019  68.499  1.00  0.00    -0.110 C  
BRANCH  15  16
HETATM   16  C   UNL     1      -8.407  14.253  68.416  1.00  0.00    -0.164 C  
BRANCH  16  17
HETATM   17  C   UNL     1      -8.452  13.571  67.062  1.00  0.00    -0.137 C  
BRANCH  17  18
HETATM   18  C   UNL     1      -9.697  13.957  66.284  1.00  0.00    -0.289 C  
BRANCH  18  19
HETATM   19  N   UNL     1     -10.502  12.723  65.826  1.00  0.00    -0.271 N  
HETATM   20  C   UNL     1     -11.989  12.909  66.140  1.00  0.00    -0.429 C  
HETATM   21  C   UNL     1     -10.313  12.490  64.325  1.00  0.00    -0.370 C  
BRANCH  19  22
HETATM   22  C   UNL     1      -9.929  11.535  66.631  1.00  0.00    -0.207 C  
BRANCH  22  23
HETATM   23  C   UNL     1     -10.997  10.523  66.996  1.00  0.00    -0.247 C  
BRANCH  23  24
HETATM   24  C   UNL     1     -10.847  10.043  68.428  1.00  0.00    -0.277 C  
BRANCH  24  25
HETATM   25  C   UNL     1     -10.569  11.262  69.291  1.00  0.00    -0.187 C  
BRANCH  25  26
HETATM   26  C   UNL     1     -11.848  11.815  69.875  1.00  0.00    -0.423 C  
BRANCH  26  27
HETATM   27  C   UNL     1     -12.757  10.665  70.269  1.00  0.00    -0.277 C  
BRANCH  27  28
HETATM   28  C   UNL     1     -13.126  10.787  71.732  1.00  0.00    -0.573 C  
BRANCH  28  29
HETATM   29  C   UNL     1     -13.449   9.421  72.304  1.00  0.00    -0.539 C  
BRANCH  29  30
HETATM   30  C   UNL     1     -13.322   8.374  71.214  1.00  0.00    -0.149 C  
BRANCH  30  31
HETATM   31  C   UNL     1     -12.316   7.313  71.613  1.00  0.00    -0.387 C  
BRANCH  31  32
HETATM   32  C   UNL     1     -11.473   7.808  72.773  1.00  0.00    -0.415 C  
BRANCH  32  33
HETATM   33  C   UNL     1     -10.354   6.822  73.066  1.00  0.00    -0.252 C  
BRANCH  33  34
HETATM   34  C   UNL     1     -10.914   5.414  73.201  1.00  0.00    -0.353 C  
BRANCH  34  35
HETATM   35  C   UNL     1      -9.810   4.386  72.998  1.00  0.00    -0.180 C  
BRANCH  35  36
HETATM   36  C   UNL     1      -9.890   3.779  71.604  1.00  0.00    -0.240 C  
BRANCH  36  37
HETATM   37  C   UNL     1      -9.175   4.668  70.592  1.00  0.00    -0.197 C  
BRANCH  37  38
HETATM   38  C   UNL     1     -10.132   5.138  69.503  1.00  0.00    -0.316 C  
HETATM   39  C   UNL     1      -9.865   6.586  69.131  1.00  0.00    -0.156 C  
ENDBRANCH  37  38
ENDBRANCH  36  37
ENDBRANCH  35  36
ENDBRANCH  34  35
ENDBRANCH  33  34
ENDBRANCH  32  33
ENDBRANCH  31  32
ENDBRANCH  30  31
ENDBRANCH  29  30
ENDBRANCH  28  29
ENDBRANCH  27  28
ENDBRANCH  26  27
ENDBRANCH  25  26
ENDBRANCH  24  25
ENDBRANCH  23  24
ENDBRANCH  22  23
ENDBRANCH  19  22
ENDBRANCH  18  19
ENDBRANCH  17  18
ENDBRANCH  16  17
ENDBRANCH  15  16
ENDBRANCH  14  15
ENDBRANCH  13  14
ENDBRANCH  12  13
ENDBRANCH  11  12
ENDBRANCH  10  11
ENDBRANCH   9  10
ENDBRANCH   8   9
ENDBRANCH   7   8
ENDBRANCH   6   7
ENDBRANCH   5   6
ENDBRANCH   4   5
ENDBRANCH   3   4
ENDBRANCH   2   3
TORSDOF 34
ENDMDL
MODEL       56
REMARK 921   NORMALIZED FREE ENERGY PREDICTED BY IDOCK:   -3.72 KCAL/MOL
REMARK 922        TOTAL FREE ENERGY PREDICTED BY IDOCK:  -17.44 KCAL/MOL
REMARK 923 INTER-LIGAND FREE ENERGY PREDICTED BY IDOCK:  -10.78 KCAL/MOL
REMARK 924 INTRA-LIGAND FREE ENERGY PREDICTED BY IDOCK:   -6.66 KCAL/MOL
REMARK 927      BINDING AFFINITY PREDICTED BY RF-SCORE:    0.00 PKD
ROOT
HETATM    1  C   UNL     1     -10.923   6.234  68.849  1.00  0.00    -0.435 C  
HETATM    2  C   UNL     1     -11.616   6.714  70.112  1.00  0.00    -0.446 C  
ENDROOT
BRANCH   2   3
HETATM    3  C   UNL     1     -10.768   6.429  71.342  1.00  0.00    -0.290 C  
BRANCH   3   4
HETATM    4  C   UNL     1     -11.155   7.345  72.500  1.00  0.00    -0.350 C  
BRANCH   4   5
HETATM    5  C   UNL     1     -11.359   8.773  72.011  1.00  0.00    -0.441 C  
BRANCH   5   6
HETATM    6  C   UNL     1     -12.833   9.149  72.062  1.00  0.00    -0.483 C  
BRANCH   6   7
HETATM    7  C   UNL     1     -13.172  10.098  70.921  1.00  0.00    -0.360 C  
BRANCH   7   8
HETATM    8  C   UNL     1     -11.934  10.869  70.494  1.00  0.00    -0.466 C  
BRANCH   8   9
HETATM    9  C   UNL     1     -11.906  11.021  68.982  1.00  0.00    -0.399 C  
BRANCH   9  10
HETATM   10  C   UNL     1     -10.763  10.209  68.403  1.00  0.00    -0.266 C  
BRANCH  10  11
HETATM   11  C   UNL     1      -9.459  10.573  69.088  1.00  0.00    -0.205 C  
BRANCH  11  12
HETATM   12  C   UNL     1      -8.592   9.335  69.212  1.00  0.00    -0.139 C  
BRANCH  12  13
HETATM   13  C   UNL     1      -8.030   9.228  70.614  1.00  0.00    -0.189 C  
BRANCH  13  14
HETATM   14  C   UNL     1      -7.442   7.845  70.823  1.00  0.00    -0.072 C  
BRANCH  14  15
HETATM   15  C   UNL     1      -7.401   7.119  69.497  1.00  0.00    -0.089 C  
BRANCH  15  16
HETATM   16  C   UNL     1      -7.306   5.617  69.702  1.00  0.00    -0.066 C  
BRANCH  16  17
HETATM   17  C   UNL     1      -7.019   4.989  68.351  1.00  0.00    -0.057 C  
BRANCH  17  18
HETATM   18  C   UNL     1      -8.053   3.939  67.992  1.00  0.00    -0.088 C  
BRANCH  18  19
HETATM   19  N   UNL     1      -8.144   3.709  66.468  1.00  0.00    -0.095 N  
HETATM   20  C   UNL     1      -6.775   3.915  65.814  1.00  0.00    -0.045 C  
HETATM   21  C   UNL     1      -8.653   2.296  66.173  1.00  0.00    -0.112 C  
BRANCH  19  22
HETATM   22  C   UNL     1      -9.150   4.762  65.952  1.00  0.00    -0.137 C  
BRANCH  22  23
HETATM   23  C   UNL     1      -8.460   5.922  65.263  1.00  0.00    -0.144 C  
BRANCH  23  24
HETATM   24  C   UNL     1      -8.853   7.252  65.879  1.00  0.00    -0.136 C  
BRANCH  24  25
HETATM   25  C   UNL     1      -7.592   8.089  66.002  1.00  0.00    -0.085 C  
BRANCH  25  26
HETATM   26  C   UNL     1      -7.382   8.937  64.769  1.00  0.00    -0.097 C  
BRANCH  26  27
HETATM   27  C   UNL     1      -8.690   9.613  64.398  1.00  0.00    -0.230 C  
BRANCH  27  28
HETATM   28  C   UNL     1      -8.851  10.884  65.205  1.00  0.00    -0.167 C  
BRANCH  28  29
HETATM   29  C   UNL     1     -10.255  11.432  65.039  1.00  0.00    -0.333 C  
BRANCH  29  30
HETATM   30  C   UNL     1     -10.358  12.164  63.715  1.00  0.00    -0.465 C  
BRANCH  30  31
HETATM   31  C   UNL     1     -11.732  12.786  63.560  1.00  0.00    -0.597 C  
BRANCH  31  32
HETATM   32  C   UNL     1     -12.501  12.675  64.862  1.00  0.00    -0.564 C  
BRANCH  32  33
HETATM   33  C   UNL     1     -12.526  14.018  65.573  1.00  0.00    -0.533 C  
BRANCH  33  34
HETATM   34  C   UNL     1     -12.264  13.833  67.060  1.00  0.00    -0.381 C  
BRANCH  34  35
HETATM   35  C   UNL     1     -11.250  14.857  67.549  1.00  0.00    -0.334 C  
BRANCH  35  36
HETATM   36  C   UNL     1     -11.778  15.593  68.774  1.00  0.00    -0.382 C  
BRANCH  36  37
HETATM   37  C   UNL     1     -12.411  14.612  69.756  1.00  0.00    -0.306 C  
BRANCH  37  38
HETATM   38  C   UNL     1     -11.626  14.565  71.062  1.00  0.00    -0.231 C  
HETATM   39  C   UNL     1     -11.901  15.797  71.906  1.00  0.00    -0.568 C  
ENDBRANCH  37  38
ENDBRANCH  36  37
ENDBRANCH  35  36
ENDBRANCH  34  35
ENDBRANCH  33  34
ENDBRANCH  32  33
ENDBRANCH  31  32
ENDBRANCH  30  31
ENDBRANCH  29  30
ENDBRANCH  28  29
ENDBRANCH  27  28
ENDBRANCH  26  27
ENDBRANCH  25  26
ENDBRANCH  24  25
ENDBRANCH  23  24
ENDBRANCH  22  23
ENDBRANCH  19  22
ENDBRANCH  18  19
ENDBRANCH  17  18
ENDBRANCH  16  17
ENDBRANCH  15  16
ENDBRANCH  14  15
ENDBRANCH  13  14
ENDBRANCH  12  13
ENDBRANCH  11  12
ENDBRANCH  10  11
ENDBRANCH   9  10
ENDBRANCH   8   9
ENDBRANCH   7   8
ENDBRANCH   6   7
ENDBRANCH   5   6
ENDBRANCH   4   5
ENDBRANCH   3   4
ENDBRANCH   2   3
TORSDOF 34
ENDMDL
MODEL       57
REMARK 921   NORMALIZED FREE ENERGY PREDICTED BY IDOCK:   -3.71 KCAL/MOL
REMARK 922        TOTAL FREE ENERGY PREDICTED BY IDOCK:  -17.41 KCAL/MOL
REMARK 923 INTER-LIGAND FREE ENERGY PREDICTED BY IDOCK:  -12.06 KCAL/MOL
REMARK 924 INTRA-LIGAND FREE ENERGY PREDICTED BY IDOCK:   -5.35 KCAL/MOL
REMARK 927      BINDING AFFINITY PREDICTED BY RF-SCORE:    0.00 PKD
ROOT
HETATM    1  C   UNL     1     -11.161  10.530  68.101  1.00  0.00    -0.357 C  
HETATM    2  C   UNL     1     -11.893  11.287  69.195  1.00  0.00    -0.423 C  
ENDROOT
BRANCH   2   3
HETATM    3  C   UNL     1     -11.654  10.649  70.555  1.00  0.00    -0.444 C  
BRANCH   3   4
HETATM    4  C   UNL     1     -12.855  10.851  71.475  1.00  0.00    -0.560 C  
BRANCH   4   5
HETATM    5  C   UNL     1     -13.244   9.540  72.147  1.00  0.00    -0.539 C  
BRANCH   5   6
HETATM    6  C   UNL     1     -12.146   8.501  71.968  1.00  0.00    -0.428 C  
BRANCH   6   7
HETATM    7  C   UNL     1     -12.715   7.242  71.330  1.00  0.00    -0.400 C  
BRANCH   7   8
HETATM    8  C   UNL     1     -11.702   6.111  71.405  1.00  0.00    -0.236 C  
BRANCH   8   9
HETATM    9  C   UNL     1     -11.410   5.764  72.855  1.00  0.00    -0.298 C  
BRANCH   9  10
HETATM   10  C   UNL     1     -10.203   4.848  72.934  1.00  0.00    -0.217 C  
BRANCH  10  11
HETATM   11  C   UNL     1      -8.988   5.619  73.417  1.00  0.00    -0.129 C  
BRANCH  11  12
HETATM   12  C   UNL     1      -9.439   6.912  74.068  1.00  0.00    -0.273 C  
BRANCH  12  13
HETATM   13  C   UNL     1      -8.564   8.060  73.609  1.00  0.00    -0.322 C  
BRANCH  13  14
HETATM   14  C   UNL     1      -8.105   7.813  72.184  1.00  0.00    -0.136 C  
BRANCH  14  15
HETATM   15  C   UNL     1      -8.586   8.947  71.306  1.00  0.00    -0.259 C  
BRANCH  15  16
HETATM   16  C   UNL     1      -8.884   8.456  69.899  1.00  0.00    -0.137 C  
BRANCH  16  17
HETATM   17  C   UNL     1      -8.466   7.000  69.825  1.00  0.00    -0.137 C  
BRANCH  17  18
HETATM   18  C   UNL     1      -9.212   6.260  68.731  1.00  0.00    -0.125 C  
BRANCH  18  19
HETATM   19  N   UNL     1      -8.254   5.592  67.722  1.00  0.00    -0.101 N  
HETATM   20  C   UNL     1      -6.815   6.059  67.963  1.00  0.00    -0.063 C  
HETATM   21  C   UNL     1      -8.332   4.069  67.841  1.00  0.00    -0.093 C  
BRANCH  19  22
HETATM   22  C   UNL     1      -8.739   6.049  66.328  1.00  0.00    -0.138 C  
BRANCH  22  23
HETATM   23  C   UNL     1      -8.724   7.558  66.183  1.00  0.00    -0.174 C  
BRANCH  23  24
HETATM   24  C   UNL     1      -8.340   7.980  64.777  1.00  0.00    -0.086 C  
BRANCH  24  25
HETATM   25  C   UNL     1      -8.785   9.420  64.595  1.00  0.00    -0.229 C  
BRANCH  25  26
HETATM   26  C   UNL     1      -8.902   9.770  63.130  1.00  0.00    -0.257 C  
BRANCH  26  27
HETATM   27  C   UNL     1      -9.890  10.912  62.966  1.00  0.00    -0.358 C  
BRANCH  27  28
HETATM   28  C   UNL     1     -10.464  11.285  64.317  1.00  0.00    -0.419 C  
BRANCH  28  29
HETATM   29  C   UNL     1     -11.056  12.679  64.265  1.00  0.00    -0.405 C  
BRANCH  29  30
HETATM   30  C   UNL     1     -12.312  12.726  65.113  1.00  0.00    -0.555 C  
BRANCH  30  31
HETATM   31  C   UNL     1     -12.451  14.081  65.779  1.00  0.00    -0.523 C  
BRANCH  31  32
HETATM   32  C   UNL     1     -11.264  14.335  66.689  1.00  0.00    -0.337 C  
BRANCH  32  33
HETATM   33  C   UNL     1     -11.653  15.293  67.803  1.00  0.00    -0.277 C  
BRANCH  33  34
HETATM   34  C   UNL     1     -11.373  14.665  69.159  1.00  0.00    -0.305 C  
BRANCH  34  35
HETATM   35  C   UNL     1     -12.642  14.634  69.999  1.00  0.00    -0.276 C  
BRANCH  35  36
HETATM   36  C   UNL     1     -12.311  14.393  71.466  1.00  0.00    -0.427 C  
BRANCH  36  37
HETATM   37  C   UNL     1     -11.578  15.596  72.053  1.00  0.00    -0.540 C  
BRANCH  37  38
HETATM   38  C   UNL     1     -12.387  16.233  73.177  1.00  0.00    -0.598 C  
HETATM   39  C   UNL     1     -13.854  15.851  73.075  1.00  0.00    -0.477 C  
ENDBRANCH  37  38
ENDBRANCH  36  37
ENDBRANCH  35  36
ENDBRANCH  34  35
ENDBRANCH  33  34
ENDBRANCH  32  33
ENDBRANCH  31  32
ENDBRANCH  30  31
ENDBRANCH  29  30
ENDBRANCH  28  29
ENDBRANCH  27  28
ENDBRANCH  26  27
ENDBRANCH  25  26
ENDBRANCH  24  25
ENDBRANCH  23  24
ENDBRANCH  22  23
ENDBRANCH  19  22
ENDBRANCH  18  19
ENDBRANCH  17  18
ENDBRANCH  16  17
ENDBRANCH  15  16
ENDBRANCH  14  15
ENDBRANCH  13  14
ENDBRANCH  12  13
ENDBRANCH  11  12
ENDBRANCH  10  11
ENDBRANCH   9  10
ENDBRANCH   8   9
ENDBRANCH   7   8
ENDBRANCH   6   7
ENDBRANCH   5   6
ENDBRANCH   4   5
ENDBRANCH   3   4
ENDBRANCH   2   3
TORSDOF 34
ENDMDL
MODEL       58
REMARK 921   NORMALIZED FREE ENERGY PREDICTED BY IDOCK:   -3.70 KCAL/MOL
REMARK 922        TOTAL FREE ENERGY PREDICTED BY IDOCK:  -17.39 KCAL/MOL
REMARK 923 INTER-LIGAND FREE ENERGY PREDICTED BY IDOCK:  -11.59 KCAL/MOL
REMARK 924 INTRA-LIGAND FREE ENERGY PREDICTED BY IDOCK:   -5.80 KCAL/MOL
REMARK 927      BINDING AFFINITY PREDICTED BY RF-SCORE:    0.00 PKD
ROOT
HETATM    1  C   UNL     1      -9.664   4.170  64.726  1.00  0.00    -0.187 C  
HETATM    2  C   UNL     1     -10.418   4.644  65.956  1.00  0.00    -0.303 C  
ENDROOT
BRANCH   2   3
HETATM    3  C   UNL     1     -10.004   6.057  66.340  1.00  0.00    -0.145 C  
BRANCH   3   4
HETATM    4  C   UNL     1      -8.484   6.192  66.379  1.00  0.00    -0.123 C  
BRANCH   4   5
HETATM    5  C   UNL     1      -8.081   7.574  66.877  1.00  0.00    -0.116 C  
BRANCH   5   6
HETATM    6  C   UNL     1      -8.237   7.665  68.389  1.00  0.00    -0.125 C  
BRANCH   6   7
HETATM    7  C   UNL     1      -7.756   6.379  69.045  1.00  0.00    -0.101 C  
BRANCH   7   8
HETATM    8  C   UNL     1      -8.624   6.046  70.248  1.00  0.00    -0.143 C  
BRANCH   8   9
HETATM    9  C   UNL     1      -9.870   5.298  69.806  1.00  0.00    -0.282 C  
BRANCH   9  10
HETATM   10  C   UNL     1      -9.564   3.817  69.678  1.00  0.00    -0.242 C  
BRANCH  10  11
HETATM   11  C   UNL     1      -8.970   3.289  70.970  1.00  0.00    -0.163 C  
BRANCH  11  12
HETATM   12  C   UNL     1      -9.843   2.171  71.506  1.00  0.00    -0.202 C  
BRANCH  12  13
HETATM   13  C   UNL     1     -10.068   2.351  72.993  1.00  0.00    -0.201 C  
BRANCH  13  14
HETATM   14  C   UNL     1     -10.787   3.663  73.244  1.00  0.00    -0.290 C  
BRANCH  14  15
HETATM   15  C   UNL     1     -10.071   4.417  74.342  1.00  0.00    -0.247 C  
BRANCH  15  16
HETATM   16  C   UNL     1      -9.879   5.876  73.963  1.00  0.00    -0.201 C  
BRANCH  16  17
HETATM   17  C   UNL     1     -11.009   6.257  73.026  1.00  0.00    -0.271 C  
BRANCH  17  18
HETATM   18  C   UNL     1     -11.105   7.761  72.850  1.00  0.00    -0.398 C  
BRANCH  18  19
HETATM   19  N   UNL     1     -12.174   8.159  71.810  1.00  0.00    -0.303 N  
HETATM   20  C   UNL     1     -13.101   6.975  71.518  1.00  0.00    -0.339 C  
HETATM   21  C   UNL     1     -12.993   9.348  72.316  1.00  0.00    -0.400 C  
BRANCH  19  22
HETATM   22  C   UNL     1     -11.387   8.549  70.539  1.00  0.00    -0.217 C  
BRANCH  22  23
HETATM   23  C   UNL     1     -10.312   9.579  70.825  1.00  0.00    -0.377 C  
BRANCH  23  24
HETATM   24  C   UNL     1     -10.118  10.525  69.655  1.00  0.00    -0.177 C  
BRANCH  24  25
HETATM   25  C   UNL     1     -11.335  10.394  68.755  1.00  0.00    -0.275 C  
BRANCH  25  26
HETATM   26  C   UNL     1     -10.927  10.261  67.307  1.00  0.00    -0.277 C  
BRANCH  26  27
HETATM   27  C   UNL     1      -9.601  10.970  67.094  1.00  0.00    -0.189 C  
BRANCH  27  28
HETATM   28  C   UNL     1      -9.322  11.091  65.610  1.00  0.00    -0.239 C  
BRANCH  28  29
HETATM   29  C   UNL     1     -10.622  11.048  64.830  1.00  0.00    -0.328 C  
BRANCH  29  30
HETATM   30  C   UNL     1     -11.025  12.456  64.442  1.00  0.00    -0.377 C  
BRANCH  30  31
HETATM   31  C   UNL     1     -12.454  12.733  64.862  1.00  0.00    -0.563 C  
BRANCH  31  32
HETATM   32  C   UNL     1     -12.513  13.996  65.701  1.00  0.00    -0.531 C  
BRANCH  32  33
HETATM   33  C   UNL     1     -12.068  13.702  67.123  1.00  0.00    -0.404 C  
BRANCH  33  34
HETATM   34  C   UNL     1     -11.058  14.740  67.586  1.00  0.00    -0.311 C  
BRANCH  34  35
HETATM   35  C   UNL     1     -11.587  15.487  68.802  1.00  0.00    -0.390 C  
BRANCH  35  36
HETATM   36  C   UNL     1     -12.092  14.510  69.855  1.00  0.00    -0.389 C  
BRANCH  36  37
HETATM   37  C   UNL     1     -12.986  15.225  70.863  1.00  0.00    -0.522 C  
BRANCH  37  38
HETATM   38  C   UNL     1     -12.152  15.982  71.891  1.00  0.00    -0.590 C  
HETATM   39  C   UNL     1     -12.767  15.873  73.276  1.00  0.00    -0.650 C  
ENDBRANCH  37  38
ENDBRANCH  36  37
ENDBRANCH  35  36
ENDBRANCH  34  35
ENDBRANCH  33  34
ENDBRANCH  32  33
ENDBRANCH  31  32
ENDBRANCH  30  31
ENDBRANCH  29  30
ENDBRANCH  28  29
ENDBRANCH  27  28
ENDBRANCH  26  27
ENDBRANCH  25  26
ENDBRANCH  24  25
ENDBRANCH  23  24
ENDBRANCH  22  23
ENDBRANCH  19  22
ENDBRANCH  18  19
ENDBRANCH  17  18
ENDBRANCH  16  17
ENDBRANCH  15  16
ENDBRANCH  14  15
ENDBRANCH  13  14
ENDBRANCH  12  13
ENDBRANCH  11  12
ENDBRANCH  10  11
ENDBRANCH   9  10
ENDBRANCH   8   9
ENDBRANCH   7   8
ENDBRANCH   6   7
ENDBRANCH   5   6
ENDBRANCH   4   5
ENDBRANCH   3   4
ENDBRANCH   2   3
TORSDOF 34
ENDMDL
MODEL       59
REMARK 921   NORMALIZED FREE ENERGY PREDICTED BY IDOCK:   -3.70 KCAL/MOL
REMARK 922        TOTAL FREE ENERGY PREDICTED BY IDOCK:  -17.38 KCAL/MOL
REMARK 923 INTER-LIGAND FREE ENERGY PREDICTED BY IDOCK:  -12.17 KCAL/MOL
REMARK 924 INTRA-LIGAND FREE ENERGY PREDICTED BY IDOCK:   -5.21 KCAL/MOL
REMARK 927      BINDING AFFINITY PREDICTED BY RF-SCORE:    0.00 PKD
ROOT
HETATM    1  C   UNL     1     -11.255  10.651  68.281  1.00  0.00    -0.362 C  
HETATM    2  C   UNL     1     -11.344  10.162  69.715  1.00  0.00    -0.312 C  
ENDROOT
BRANCH   2   3
HETATM    3  C   UNL     1     -12.389  10.945  70.495  1.00  0.00    -0.463 C  
BRANCH   3   4
HETATM    4  C   UNL     1     -12.852  10.169  71.726  1.00  0.00    -0.554 C  
BRANCH   4   5
HETATM    5  C   UNL     1     -13.254   8.749  71.346  1.00  0.00    -0.290 C  
BRANCH   5   6
HETATM    6  C   UNL     1     -12.597   7.741  72.278  1.00  0.00    -0.186 C  
BRANCH   6   7
HETATM    7  C   UNL     1     -11.179   8.180  72.611  1.00  0.00    -0.447 C  
BRANCH   7   8
HETATM    8  C   UNL     1     -10.458   7.087  73.385  1.00  0.00    -0.383 C  
BRANCH   8   9
HETATM    9  C   UNL     1     -10.151   5.913  72.471  1.00  0.00    -0.204 C  
BRANCH   9  10
HETATM   10  C   UNL     1      -8.863   6.174  71.712  1.00  0.00    -0.138 C  
BRANCH  10  11
HETATM   11  C   UNL     1      -9.151   6.346  70.232  1.00  0.00    -0.155 C  
BRANCH  11  12
HETATM   12  C   UNL     1     -10.324   5.468  69.841  1.00  0.00    -0.368 C  
BRANCH  12  13
HETATM   13  C   UNL     1     -11.388   6.295  69.151  1.00  0.00    -0.358 C  
BRANCH  13  14
HETATM   14  C   UNL     1     -10.783   7.007  67.955  1.00  0.00    -0.274 C  
BRANCH  14  15
HETATM   15  C   UNL     1     -10.676   6.035  66.802  1.00  0.00    -0.374 C  
BRANCH  15  16
HETATM   16  C   UNL     1      -9.323   6.145  66.121  1.00  0.00    -0.128 C  
BRANCH  16  17
HETATM   17  C   UNL     1      -8.864   7.585  66.249  1.00  0.00    -0.184 C  
BRANCH  17  18
HETATM   18  C   UNL     1      -8.007   8.005  65.069  1.00  0.00    -0.126 C  
BRANCH  18  19
HETATM   19  N   UNL     1      -8.010   9.535  64.862  1.00  0.00    -0.115 N  
HETATM   20  C   UNL     1      -8.313  10.251  66.182  1.00  0.00    -0.140 C  
HETATM   21  C   UNL     1      -6.659  10.001  64.316  1.00  0.00    -0.130 C  
BRANCH  19  22
HETATM   22  C   UNL     1      -9.130   9.809  63.834  1.00  0.00    -0.233 C  
BRANCH  22  23
HETATM   23  C   UNL     1     -10.186  10.752  64.376  1.00  0.00    -0.432 C  
BRANCH  23  24
HETATM   24  C   UNL     1     -10.581  11.798  63.349  1.00  0.00    -0.479 C  
BRANCH  24  25
HETATM   25  C   UNL     1     -12.078  12.019  63.476  1.00  0.00    -0.628 C  
BRANCH  25  26
HETATM   26  C   UNL     1     -12.398  12.894  64.666  1.00  0.00    -0.501 C  
BRANCH  26  27
HETATM   27  C   UNL     1     -12.195  14.350  64.285  1.00  0.00    -0.450 C  
BRANCH  27  28
HETATM   28  C   UNL     1     -11.015  14.915  65.047  1.00  0.00    -0.432 C  
BRANCH  28  29
HETATM   29  C   UNL     1     -10.913  14.259  66.410  1.00  0.00    -0.311 C  
BRANCH  29  30
HETATM   30  C   UNL     1      -9.523  13.680  66.589  1.00  0.00    -0.285 C  
BRANCH  30  31
HETATM   31  C   UNL     1      -9.130  13.687  68.053  1.00  0.00    -0.192 C  
BRANCH  31  32
HETATM   32  C   UNL     1      -7.620  13.735  68.184  1.00  0.00    -0.128 C  
BRANCH  32  33
HETATM   33  C   UNL     1      -7.169  15.139  68.549  1.00  0.00    -0.118 C  
BRANCH  33  34
HETATM   34  C   UNL     1      -8.338  15.943  69.096  1.00  0.00    -0.253 C  
BRANCH  34  35
HETATM   35  C   UNL     1      -8.306  17.363  68.548  1.00  0.00    -0.271 C  
BRANCH  35  36
HETATM   36  C   UNL     1      -9.242  17.499  67.354  1.00  0.00    -0.238 C  
BRANCH  36  37
HETATM   37  C   UNL     1     -10.504  18.260  67.748  1.00  0.00    -0.430 C  
BRANCH  37  38
HETATM   38  C   UNL     1     -10.262  19.765  67.732  1.00  0.00    -0.571 C  
HETATM   39  C   UNL     1      -9.549  20.187  66.458  1.00  0.00    -0.529 C  
ENDBRANCH  37  38
ENDBRANCH  36  37
ENDBRANCH  35  36
ENDBRANCH  34  35
ENDBRANCH  33  34
ENDBRANCH  32  33
ENDBRANCH  31  32
ENDBRANCH  30  31
ENDBRANCH  29  30
ENDBRANCH  28  29
ENDBRANCH  27  28
ENDBRANCH  26  27
ENDBRANCH  25  26
ENDBRANCH  24  25
ENDBRANCH  23  24
ENDBRANCH  22  23
ENDBRANCH  19  22
ENDBRANCH  18  19
ENDBRANCH  17  18
ENDBRANCH  16  17
ENDBRANCH  15  16
ENDBRANCH  14  15
ENDBRANCH  13  14
ENDBRANCH  12  13
ENDBRANCH  11  12
ENDBRANCH  10  11
ENDBRANCH   9  10
ENDBRANCH   8   9
ENDBRANCH   7   8
ENDBRANCH   6   7
ENDBRANCH   5   6
ENDBRANCH   4   5
ENDBRANCH   3   4
ENDBRANCH   2   3
TORSDOF 34
ENDMDL
MODEL       60
REMARK 921   NORMALIZED FREE ENERGY PREDICTED BY IDOCK:   -3.69 KCAL/MOL
REMARK 922        TOTAL FREE ENERGY PREDICTED BY IDOCK:  -17.34 KCAL/MOL
REMARK 923 INTER-LIGAND FREE ENERGY PREDICTED BY IDOCK:  -11.78 KCAL/MOL
REMARK 924 INTRA-LIGAND FREE ENERGY PREDICTED BY IDOCK:   -5.56 KCAL/MOL
REMARK 927      BINDING AFFINITY PREDICTED BY RF-SCORE:    0.00 PKD
ROOT
HETATM    1  C   UNL     1      -6.683  14.661  67.877  1.00  0.00    -0.175 C  
HETATM    2  C   UNL     1      -7.150  14.855  69.309  1.00  0.00    -0.160 C  
ENDROOT
BRANCH   2   3
HETATM    3  C   UNL     1      -7.026  16.311  69.731  1.00  0.00     0.034 C  
BRANCH   3   4
HETATM    4  C   UNL     1      -6.923  17.229  68.516  1.00  0.00    -0.209 C  
BRANCH   4   5
HETATM    5  C   UNL     1      -6.814  18.685  68.949  1.00  0.00    -0.304 C  
BRANCH   5   6
HETATM    6  C   UNL     1      -6.084  19.504  67.893  1.00  0.00    -0.230 C  
BRANCH   6   7
HETATM    7  C   UNL     1      -7.008  20.572  67.326  1.00  0.00    -0.359 C  
BRANCH   7   8
HETATM    8  C   UNL     1      -7.591  20.111  66.000  1.00  0.00    -0.283 C  
BRANCH   8   9
HETATM    9  C   UNL     1      -9.097  19.947  66.117  1.00  0.00    -0.393 C  
BRANCH   9  10
HETATM   10  C   UNL     1      -9.585  20.574  67.409  1.00  0.00    -0.578 C  
BRANCH  10  11
HETATM   11  C   UNL     1     -10.381  19.564  68.215  1.00  0.00    -0.524 C  
BRANCH  11  12
HETATM   12  C   UNL     1     -10.433  18.248  67.465  1.00  0.00    -0.431 C  
BRANCH  12  13
HETATM   13  C   UNL     1     -10.568  17.096  68.438  1.00  0.00    -0.371 C  
BRANCH  13  14
HETATM   14  C   UNL     1     -10.454  15.781  67.690  1.00  0.00    -0.282 C  
BRANCH  14  15
HETATM   15  C   UNL     1      -9.944  16.050  66.292  1.00  0.00    -0.329 C  
BRANCH  15  16
HETATM   16  C   UNL     1     -10.679  15.197  65.272  1.00  0.00    -0.422 C  
BRANCH  16  17
HETATM   17  C   UNL     1     -11.336  14.054  66.021  1.00  0.00    -0.328 C  
BRANCH  17  18
HETATM   18  C   UNL     1     -11.037  12.715  65.372  1.00  0.00    -0.292 C  
BRANCH  18  19
HETATM   19  N   UNL     1     -10.373  11.728  66.354  1.00  0.00    -0.216 N  
HETATM   20  C   UNL     1     -10.001  10.428  65.635  1.00  0.00    -0.272 C  
HETATM   21  C   UNL     1      -9.122  12.354  66.975  1.00  0.00    -0.207 C  
BRANCH  19  22
HETATM   22  C   UNL     1     -11.434  11.453  67.443  1.00  0.00    -0.251 C  
BRANCH  22  23
HETATM   23  C   UNL     1     -10.915  11.749  68.836  1.00  0.00    -0.288 C  
BRANCH  23  24
HETATM   24  C   UNL     1     -11.611  10.899  69.884  1.00  0.00    -0.410 C  
BRANCH  24  25
HETATM   25  C   UNL     1     -12.352  11.841  70.816  1.00  0.00    -0.433 C  
BRANCH  25  26
HETATM   26  C   UNL     1     -13.180  11.071  71.819  1.00  0.00    -0.505 C  
BRANCH  26  27
HETATM   27  C   UNL     1     -12.650   9.651  71.919  1.00  0.00    -0.481 C  
BRANCH  27  28
HETATM   28  C   UNL     1     -13.810   8.678  71.964  1.00  0.00    -0.491 C  
BRANCH  28  29
HETATM   29  C   UNL     1     -13.365   7.314  71.476  1.00  0.00    -0.435 C  
BRANCH  29  30
HETATM   30  C   UNL     1     -11.963   7.030  71.980  1.00  0.00    -0.334 C  
BRANCH  30  31
HETATM   31  C   UNL     1     -11.227   6.123  71.014  1.00  0.00    -0.361 C  
BRANCH  31  32
HETATM   32  C   UNL     1     -11.639   6.440  69.589  1.00  0.00    -0.351 C  
BRANCH  32  33
HETATM   33  C   UNL     1     -10.415   6.507  68.691  1.00  0.00    -0.252 C  
BRANCH  33  34
HETATM   34  C   UNL     1     -10.068   7.955  68.380  1.00  0.00    -0.218 C  
BRANCH  34  35
HETATM   35  C   UNL     1      -8.691   8.298  68.931  1.00  0.00    -0.137 C  
BRANCH  35  36
HETATM   36  C   UNL     1      -8.812   9.089  70.227  1.00  0.00    -0.210 C  
BRANCH  36  37
HETATM   37  C   UNL     1      -8.377   8.238  71.416  1.00  0.00    -0.163 C  
BRANCH  37  38
HETATM   38  C   UNL     1      -6.998   8.656  71.912  1.00  0.00    -0.091 C  
HETATM   39  C   UNL     1      -5.999   7.523  71.760  1.00  0.00    -0.036 C  
ENDBRANCH  37  38
ENDBRANCH  36  37
ENDBRANCH  35  36
ENDBRANCH  34  35
ENDBRANCH  33  34
ENDBRANCH  32  33
ENDBRANCH  31  32
ENDBRANCH  30  31
ENDBRANCH  29  30
ENDBRANCH  28  29
ENDBRANCH  27  28
ENDBRANCH  26  27
ENDBRANCH  25  26
ENDBRANCH  24  25
ENDBRANCH  23  24
ENDBRANCH  22  23
ENDBRANCH  19  22
ENDBRANCH  18  19
ENDBRANCH  17  18
ENDBRANCH  16  17
ENDBRANCH  15  16
ENDBRANCH  14  15
ENDBRANCH  13  14
ENDBRANCH  12  13
ENDBRANCH  11  12
ENDBRANCH  10  11
ENDBRANCH   9  10
ENDBRANCH   8   9
ENDBRANCH   7   8
ENDBRANCH   6   7
ENDBRANCH   5   6
ENDBRANCH   4   5
ENDBRANCH   3   4
ENDBRANCH   2   3
TORSDOF 34
ENDMDL
MODEL       61
REMARK 921   NORMALIZED FREE ENERGY PREDICTED BY IDOCK:   -3.68 KCAL/MOL
REMARK 922        TOTAL FREE ENERGY PREDICTED BY IDOCK:  -17.32 KCAL/MOL
REMARK 923 INTER-LIGAND FREE ENERGY PREDICTED BY IDOCK:  -10.91 KCAL/MOL
REMARK 924 INTRA-LIGAND FREE ENERGY PREDICTED BY IDOCK:   -6.41 KCAL/MOL
REMARK 927      BINDING AFFINITY PREDICTED BY RF-SCORE:    0.00 PKD
ROOT
HETATM    1  C   UNL     1      -9.532   3.724  64.246  1.00  0.00    -0.158 C  
HETATM    2  C   UNL     1      -8.923   4.404  65.459  1.00  0.00    -0.135 C  
ENDROOT
BRANCH   2   3
HETATM    3  C   UNL     1      -8.255   3.390  66.376  1.00  0.00    -0.097 C  
BRANCH   3   4
HETATM    4  C   UNL     1      -8.046   3.968  67.773  1.00  0.00    -0.090 C  
BRANCH   4   5
HETATM    5  C   UNL     1      -9.076   3.409  68.746  1.00  0.00    -0.204 C  
BRANCH   5   6
HETATM    6  C   UNL     1      -9.716   4.532  69.550  1.00  0.00    -0.282 C  
BRANCH   6   7
HETATM    7  C   UNL     1      -9.594   5.851  68.799  1.00  0.00    -0.152 C  
BRANCH   7   8
HETATM    8  C   UNL     1     -10.926   6.220  68.166  1.00  0.00    -0.412 C  
BRANCH   8   9
HETATM    9  C   UNL     1     -10.712   7.211  67.035  1.00  0.00    -0.420 C  
BRANCH   9  10
HETATM   10  C   UNL     1     -10.560   8.612  67.598  1.00  0.00    -0.272 C  
BRANCH  10  11
HETATM   11  C   UNL     1     -10.024   9.551  66.533  1.00  0.00    -0.329 C  
BRANCH  11  12
HETATM   12  C   UNL     1     -10.699  10.902  66.667  1.00  0.00    -0.289 C  
BRANCH  12  13
HETATM   13  C   UNL     1      -9.758  12.002  66.221  1.00  0.00    -0.251 C  
BRANCH  13  14
HETATM   14  C   UNL     1      -8.419  11.839  66.915  1.00  0.00    -0.174 C  
BRANCH  14  15
HETATM   15  C   UNL     1      -8.385  12.724  68.141  1.00  0.00    -0.172 C  
BRANCH  15  16
HETATM   16  C   UNL     1      -7.240  13.719  68.062  1.00  0.00    -0.137 C  
BRANCH  16  17
HETATM   17  C   UNL     1      -7.586  14.886  68.968  1.00  0.00    -0.151 C  
BRANCH  17  18
HETATM   18  C   UNL     1      -7.955  16.122  68.169  1.00  0.00    -0.148 C  
BRANCH  18  19
HETATM   19  N   UNL     1      -9.457  16.458  68.278  1.00  0.00    -0.213 N  
HETATM   20  C   UNL     1      -9.669  17.974  68.237  1.00  0.00    -0.330 C  
HETATM   21  C   UNL     1     -10.235  15.794  67.139  1.00  0.00    -0.279 C  
BRANCH  19  22
HETATM   22  C   UNL     1      -9.909  15.890  69.641  1.00  0.00    -0.238 C  
BRANCH  22  23
HETATM   23  C   UNL     1     -11.233  15.159  69.547  1.00  0.00    -0.286 C  
BRANCH  23  24
HETATM   24  C   UNL     1     -11.798  14.846  70.920  1.00  0.00    -0.375 C  
BRANCH  24  25
HETATM   25  C   UNL     1     -12.455  13.479  70.842  1.00  0.00    -0.448 C  
BRANCH  25  26
HETATM   26  C   UNL     1     -11.930  12.691  69.663  1.00  0.00    -0.352 C  
BRANCH  26  27
HETATM   27  C   UNL     1     -11.964  11.210  69.996  1.00  0.00    -0.447 C  
BRANCH  27  28
HETATM   28  C   UNL     1     -12.839  10.983  71.211  1.00  0.00    -0.528 C  
BRANCH  28  29
HETATM   29  C   UNL     1     -12.575   9.608  71.793  1.00  0.00    -0.497 C  
BRANCH  29  30
HETATM   30  C   UNL     1     -13.891   8.881  71.988  1.00  0.00    -0.511 C  
BRANCH  30  31
HETATM   31  C   UNL     1     -13.738   7.410  71.659  1.00  0.00    -0.468 C  
BRANCH  31  32
HETATM   32  C   UNL     1     -12.310   7.121  71.234  1.00  0.00    -0.418 C  
BRANCH  32  33
HETATM   33  C   UNL     1     -11.657   6.159  72.212  1.00  0.00    -0.362 C  
BRANCH  33  34
HETATM   34  C   UNL     1     -10.608   6.883  73.042  1.00  0.00    -0.307 C  
BRANCH  34  35
HETATM   35  C   UNL     1      -9.339   7.087  72.228  1.00  0.00    -0.150 C  
BRANCH  35  36
HETATM   36  C   UNL     1      -8.935   8.556  72.222  1.00  0.00    -0.299 C  
BRANCH  36  37
HETATM   37  C   UNL     1      -8.932   9.103  70.798  1.00  0.00    -0.296 C  
BRANCH  37  38
HETATM   38  C   UNL     1      -7.538   9.571  70.395  1.00  0.00    -0.169 C  
HETATM   39  C   UNL     1      -7.152   9.018  69.034  1.00  0.00    -0.064 C  
ENDBRANCH  37  38
ENDBRANCH  36  37
ENDBRANCH  35  36
ENDBRANCH  34  35
ENDBRANCH  33  34
ENDBRANCH  32  33
ENDBRANCH  31  32
ENDBRANCH  30  31
ENDBRANCH  29  30
ENDBRANCH  28  29
ENDBRANCH  27  28
ENDBRANCH  26  27
ENDBRANCH  25  26
ENDBRANCH  24  25
ENDBRANCH  23  24
ENDBRANCH  22  23
ENDBRANCH  19  22
ENDBRANCH  18  19
ENDBRANCH  17  18
ENDBRANCH  16  17
ENDBRANCH  15  16
ENDBRANCH  14  15
ENDBRANCH  13  14
ENDBRANCH  12  13
ENDBRANCH  11  12
ENDBRANCH  10  11
ENDBRANCH   9  10
ENDBRANCH   8   9
ENDBRANCH   7   8
ENDBRANCH   6   7
ENDBRANCH   5   6
ENDBRANCH   4   5
ENDBRANCH   3   4
ENDBRANCH   2   3
TORSDOF 34
ENDMDL
MODEL       62
REMARK 921   NORMALIZED FREE ENERGY PREDICTED BY IDOCK:   -3.66 KCAL/MOL
REMARK 922        TOTAL FREE ENERGY PREDICTED BY IDOCK:  -17.26 KCAL/MOL
REMARK 923 INTER-LIGAND FREE ENERGY PREDICTED BY IDOCK:  -12.21 KCAL/MOL
REMARK 924 INTRA-LIGAND FREE ENERGY PREDICTED BY IDOCK:   -5.05 KCAL/MOL
REMARK 927      BINDING AFFINITY PREDICTED BY RF-SCORE:    0.00 PKD
ROOT
HETATM    1  C   UNL     1      -6.526  16.731  66.922  1.00  0.00    -0.243 C  
HETATM    2  C   UNL     1      -6.976  17.157  68.308  1.00  0.00    -0.187 C  
ENDROOT
BRANCH   2   3
HETATM    3  C   UNL     1      -6.546  18.586  68.607  1.00  0.00    -0.258 C  
BRANCH   3   4
HETATM    4  C   UNL     1      -6.482  19.419  67.330  1.00  0.00    -0.204 C  
BRANCH   4   5
HETATM    5  C   UNL     1      -7.276  20.709  67.488  1.00  0.00    -0.382 C  
BRANCH   5   6
HETATM    6  C   UNL     1      -8.770  20.431  67.400  1.00  0.00    -0.415 C  
BRANCH   6   7
HETATM    7  C   UNL     1      -9.095  19.714  66.098  1.00  0.00    -0.380 C  
BRANCH   7   8
HETATM    8  C   UNL     1     -10.497  19.128  66.157  1.00  0.00    -0.558 C  
BRANCH   8   9
HETATM    9  C   UNL     1     -10.497  17.848  66.975  1.00  0.00    -0.345 C  
BRANCH   9  10
HETATM   10  C   UNL     1     -10.049  16.684  66.112  1.00  0.00    -0.361 C  
BRANCH  10  11
HETATM   11  C   UNL     1     -11.158  16.280  65.157  1.00  0.00    -0.219 C  
BRANCH  11  12
HETATM   12  C   UNL     1     -10.972  14.831  64.753  1.00  0.00    -0.393 C  
BRANCH  12  13
HETATM   13  C   UNL     1     -12.256  14.059  64.972  1.00  0.00    -0.448 C  
BRANCH  13  14
HETATM   14  C   UNL     1     -12.204  12.755  64.198  1.00  0.00    -0.506 C  
BRANCH  14  15
HETATM   15  C   UNL     1     -10.948  12.003  64.577  1.00  0.00    -0.369 C  
BRANCH  15  16
HETATM   16  C   UNL     1     -11.014  11.526  66.018  1.00  0.00    -0.316 C  
BRANCH  16  17
HETATM   17  C   UNL     1     -10.122  10.305  66.136  1.00  0.00    -0.307 C  
BRANCH  17  18
HETATM   18  C   UNL     1      -9.607   9.857  64.781  1.00  0.00    -0.271 C  
BRANCH  18  19
HETATM   19  N   UNL     1      -8.209   9.209  64.875  1.00  0.00    -0.143 N  
HETATM   20  C   UNL     1      -7.853   8.513  63.558  1.00  0.00    -0.151 C  
HETATM   21  C   UNL     1      -7.153  10.267  65.205  1.00  0.00    -0.130 C  
BRANCH  19  22
HETATM   22  C   UNL     1      -8.310   8.175  66.018  1.00  0.00    -0.131 C  
BRANCH  22  23
HETATM   23  C   UNL     1      -8.583   6.776  65.501  1.00  0.00    -0.095 C  
BRANCH  23  24
HETATM   24  C   UNL     1      -9.257   5.913  66.552  1.00  0.00    -0.154 C  
BRANCH  24  25
HETATM   25  C   UNL     1     -10.676   6.425  66.723  1.00  0.00    -0.355 C  
BRANCH  25  26
HETATM   26  C   UNL     1     -11.080   6.429  68.179  1.00  0.00    -0.358 C  
BRANCH  26  27
HETATM   27  C   UNL     1     -10.595   7.712  68.829  1.00  0.00    -0.169 C  
BRANCH  27  28
HETATM   28  C   UNL     1     -10.491   7.515  70.327  1.00  0.00    -0.227 C  
BRANCH  28  29
HETATM   29  C   UNL     1     -11.302   6.307  70.751  1.00  0.00    -0.397 C  
BRANCH  29  30
HETATM   30  C   UNL     1     -11.990   6.598  72.070  1.00  0.00    -0.361 C  
BRANCH  30  31
HETATM   31  C   UNL     1     -11.906   8.076  72.396  1.00  0.00    -0.429 C  
BRANCH  31  32
HETATM   32  C   UNL     1     -13.262   8.728  72.203  1.00  0.00    -0.456 C  
BRANCH  32  33
HETATM   33  C   UNL     1     -13.094  10.202  71.878  1.00  0.00    -0.571 C  
BRANCH  33  34
HETATM   34  C   UNL     1     -13.158  10.422  70.374  1.00  0.00    -0.112 C  
BRANCH  34  35
HETATM   35  C   UNL     1     -11.868  11.060  69.879  1.00  0.00    -0.431 C  
BRANCH  35  36
HETATM   36  C   UNL     1     -11.906  12.570  70.075  1.00  0.00    -0.363 C  
BRANCH  36  37
HETATM   37  C   UNL     1     -11.103  13.271  68.983  1.00  0.00    -0.291 C  
BRANCH  37  38
HETATM   38  C   UNL     1     -11.710  14.627  68.643  1.00  0.00    -0.362 C  
HETATM   39  C   UNL     1     -11.562  15.595  69.804  1.00  0.00    -0.360 C  
ENDBRANCH  37  38
ENDBRANCH  36  37
ENDBRANCH  35  36
ENDBRANCH  34  35
ENDBRANCH  33  34
ENDBRANCH  32  33
ENDBRANCH  31  32
ENDBRANCH  30  31
ENDBRANCH  29  30
ENDBRANCH  28  29
ENDBRANCH  27  28
ENDBRANCH  26  27
ENDBRANCH  25  26
ENDBRANCH  24  25
ENDBRANCH  23  24
ENDBRANCH  22  23
ENDBRANCH  19  22
ENDBRANCH  18  19
ENDBRANCH  17  18
ENDBRANCH  16  17
ENDBRANCH  15  16
ENDBRANCH  14  15
ENDBRANCH  13  14
ENDBRANCH  12  13
ENDBRANCH  11  12
ENDBRANCH  10  11
ENDBRANCH   9  10
ENDBRANCH   8   9
ENDBRANCH   7   8
ENDBRANCH   6   7
ENDBRANCH   5   6
ENDBRANCH   4   5
ENDBRANCH   3   4
ENDBRANCH   2   3
TORSDOF 34
ENDMDL
MODEL       63
REMARK 921   NORMALIZED FREE ENERGY PREDICTED BY IDOCK:   -3.65 KCAL/MOL
REMARK 922        TOTAL FREE ENERGY PREDICTED BY IDOCK:  -17.24 KCAL/MOL
REMARK 923 INTER-LIGAND FREE ENERGY PREDICTED BY IDOCK:  -11.55 KCAL/MOL
REMARK 924 INTRA-LIGAND FREE ENERGY PREDICTED BY IDOCK:   -5.69 KCAL/MOL
REMARK 927      BINDING AFFINITY PREDICTED BY RF-SCORE:    0.00 PKD
ROOT
HETATM    1  C   UNL     1      -8.591   9.316  70.719  1.00  0.00    -0.254 C  
HETATM    2  C   UNL     1      -8.687   8.509  72.002  1.00  0.00    -0.265 C  
ENDROOT
BRANCH   2   3
HETATM    3  C   UNL     1     -10.120   8.462  72.511  1.00  0.00    -0.362 C  
BRANCH   3   4
HETATM    4  C   UNL     1     -10.326   7.289  73.465  1.00  0.00    -0.412 C  
BRANCH   4   5
HETATM    5  C   UNL     1     -11.401   6.348  72.937  1.00  0.00    -0.169 C  
BRANCH   5   6
HETATM    6  C   UNL     1     -11.015   4.898  73.194  1.00  0.00    -0.376 C  
BRANCH   6   7
HETATM    7  C   UNL     1      -9.730   4.832  74.005  1.00  0.00    -0.156 C  
BRANCH   7   8
HETATM    8  C   UNL     1      -8.730   3.906  73.332  1.00  0.00    -0.094 C  
BRANCH   8   9
HETATM    9  C   UNL     1      -8.942   3.910  71.827  1.00  0.00    -0.153 C  
BRANCH   9  10
HETATM   10  C   UNL     1      -7.973   4.876  71.172  1.00  0.00    -0.092 C  
BRANCH  10  11
HETATM   11  C   UNL     1      -8.642   5.583  70.008  1.00  0.00    -0.120 C  
BRANCH  11  12
HETATM   12  C   UNL     1     -10.042   5.031  69.820  1.00  0.00    -0.337 C  
BRANCH  12  13
HETATM   13  C   UNL     1     -11.029   6.163  69.628  1.00  0.00    -0.459 C  
BRANCH  13  14
HETATM   14  C   UNL     1     -10.518   7.106  68.554  1.00  0.00    -0.229 C  
BRANCH  14  15
HETATM   15  C   UNL     1     -10.924   6.577  67.197  1.00  0.00    -0.480 C  
BRANCH  15  16
HETATM   16  C   UNL     1      -9.726   6.013  66.453  1.00  0.00    -0.158 C  
BRANCH  16  17
HETATM   17  C   UNL     1      -8.620   7.049  66.517  1.00  0.00    -0.130 C  
BRANCH  17  18
HETATM   18  C   UNL     1      -8.642   7.966  65.309  1.00  0.00    -0.060 C  
BRANCH  18  19
HETATM   19  N   UNL     1      -8.555   9.455  65.706  1.00  0.00    -0.138 N  
HETATM   20  C   UNL     1      -8.020   9.596  67.134  1.00  0.00    -0.106 C  
HETATM   21  C   UNL     1      -7.648  10.213  64.734  1.00  0.00    -0.139 C  
BRANCH  19  22
HETATM   22  C   UNL     1     -10.002   9.990  65.620  1.00  0.00    -0.285 C  
BRANCH  22  23
HETATM   23  C   UNL     1     -10.567  10.333  66.984  1.00  0.00    -0.302 C  
BRANCH  23  24
HETATM   24  C   UNL     1     -11.188  11.718  67.000  1.00  0.00    -0.382 C  
BRANCH  24  25
HETATM   25  C   UNL     1     -11.719  11.964  68.401  1.00  0.00    -0.387 C  
BRANCH  25  26
HETATM   26  C   UNL     1     -11.654  10.705  69.234  1.00  0.00    -0.346 C  
BRANCH  26  27
HETATM   27  C   UNL     1     -12.398  10.930  70.538  1.00  0.00    -0.463 C  
BRANCH  27  28
HETATM   28  C   UNL     1     -12.581  12.416  70.769  1.00  0.00    -0.298 C  
BRANCH  28  29
HETATM   29  C   UNL     1     -13.289  12.655  72.088  1.00  0.00    -0.570 C  
BRANCH  29  30
HETATM   30  C   UNL     1     -13.263  14.135  72.414  1.00  0.00    -0.566 C  
BRANCH  30  31
HETATM   31  C   UNL     1     -13.401  14.959  71.149  1.00  0.00    -0.480 C  
BRANCH  31  32
HETATM   32  C   UNL     1     -12.069  15.590  70.793  1.00  0.00    -0.435 C  
BRANCH  32  33
HETATM   33  C   UNL     1     -11.944  15.738  69.286  1.00  0.00    -0.305 C  
BRANCH  33  34
HETATM   34  C   UNL     1     -10.479  15.761  68.878  1.00  0.00    -0.223 C  
BRANCH  34  35
HETATM   35  C   UNL     1     -10.355  15.850  67.363  1.00  0.00    -0.288 C  
BRANCH  35  36
HETATM   36  C   UNL     1      -9.638  17.130  66.957  1.00  0.00    -0.262 C  
BRANCH  36  37
HETATM   37  C   UNL     1     -10.646  18.213  66.588  1.00  0.00    -0.296 C  
BRANCH  37  38
HETATM   38  C   UNL     1     -10.753  19.259  67.692  1.00  0.00    -0.533 C  
HETATM   39  C   UNL     1      -9.443  19.386  68.450  1.00  0.00    -0.439 C  
ENDBRANCH  37  38
ENDBRANCH  36  37
ENDBRANCH  35  36
ENDBRANCH  34  35
ENDBRANCH  33  34
ENDBRANCH  32  33
ENDBRANCH  31  32
ENDBRANCH  30  31
ENDBRANCH  29  30
ENDBRANCH  28  29
ENDBRANCH  27  28
ENDBRANCH  26  27
ENDBRANCH  25  26
ENDBRANCH  24  25
ENDBRANCH  23  24
ENDBRANCH  22  23
ENDBRANCH  19  22
ENDBRANCH  18  19
ENDBRANCH  17  18
ENDBRANCH  16  17
ENDBRANCH  15  16
ENDBRANCH  14  15
ENDBRANCH  13  14
ENDBRANCH  12  13
ENDBRANCH  11  12
ENDBRANCH  10  11
ENDBRANCH   9  10
ENDBRANCH   8   9
ENDBRANCH   7   8
ENDBRANCH   6   7
ENDBRANCH   5   6
ENDBRANCH   4   5
ENDBRANCH   3   4
ENDBRANCH   2   3
TORSDOF 34
ENDMDL
MODEL       64
REMARK 921   NORMALIZED FREE ENERGY PREDICTED BY IDOCK:   -3.63 KCAL/MOL
REMARK 922        TOTAL FREE ENERGY PREDICTED BY IDOCK:  -17.17 KCAL/MOL
REMARK 923 INTER-LIGAND FREE ENERGY PREDICTED BY IDOCK:  -11.23 KCAL/MOL
REMARK 924 INTRA-LIGAND FREE ENERGY PREDICTED BY IDOCK:   -5.95 KCAL/MOL
REMARK 927      BINDING AFFINITY PREDICTED BY RF-SCORE:    0.00 PKD
ROOT
HETATM    1  C   UNL     1      -7.910   4.717  68.766  1.00  0.00    -0.076 C  
HETATM    2  C   UNL     1      -9.353   4.260  68.883  1.00  0.00    -0.222 C  
ENDROOT
BRANCH   2   3
HETATM    3  C   UNL     1      -9.660   3.774  70.291  1.00  0.00    -0.257 C  
BRANCH   3   4
HETATM    4  C   UNL     1      -8.549   4.164  71.262  1.00  0.00    -0.122 C  
BRANCH   4   5
HETATM    5  C   UNL     1      -9.110   4.967  72.428  1.00  0.00    -0.146 C  
BRANCH   5   6
HETATM    6  C   UNL     1      -8.218   6.163  72.733  1.00  0.00    -0.117 C  
BRANCH   6   7
HETATM    7  C   UNL     1      -8.489   7.286  71.743  1.00  0.00    -0.116 C  
BRANCH   7   8
HETATM    8  C   UNL     1      -9.952   7.697  71.802  1.00  0.00    -0.208 C  
BRANCH   8   9
HETATM    9  C   UNL     1     -10.558   7.680  70.409  1.00  0.00    -0.233 C  
BRANCH   9  10
HETATM   10  C   UNL     1     -11.753   6.746  70.377  1.00  0.00    -0.418 C  
BRANCH  10  11
HETATM   11  C   UNL     1     -12.569   6.892  71.648  1.00  0.00    -0.410 C  
BRANCH  11  12
HETATM   12  C   UNL     1     -13.918   7.499  71.313  1.00  0.00    -0.384 C  
BRANCH  12  13
HETATM   13  C   UNL     1     -14.245   8.614  72.283  1.00  0.00    -0.497 C  
BRANCH  13  14
HETATM   14  C   UNL     1     -13.138   9.652  72.257  1.00  0.00    -0.468 C  
BRANCH  14  15
HETATM   15  C   UNL     1     -13.108  10.309  70.896  1.00  0.00    -0.423 C  
BRANCH  15  16
HETATM   16  C   UNL     1     -12.611  11.742  70.995  1.00  0.00    -0.409 C  
BRANCH  16  17
HETATM   17  C   UNL     1     -11.726  12.002  69.790  1.00  0.00    -0.390 C  
BRANCH  17  18
HETATM   18  C   UNL     1     -11.683  10.804  68.860  1.00  0.00    -0.267 C  
BRANCH  18  19
HETATM   19  N   UNL     1     -10.734  11.030  67.664  1.00  0.00    -0.220 N  
HETATM   20  C   UNL     1     -10.567   9.736  66.863  1.00  0.00    -0.173 C  
HETATM   21  C   UNL     1     -11.275  12.137  66.756  1.00  0.00    -0.322 C  
BRANCH  19  22
HETATM   22  C   UNL     1      -9.384  11.455  68.284  1.00  0.00    -0.187 C  
BRANCH  22  23
HETATM   23  C   UNL     1      -8.840  12.723  67.658  1.00  0.00    -0.189 C  
BRANCH  23  24
HETATM   24  C   UNL     1      -7.634  13.247  68.414  1.00  0.00    -0.137 C  
BRANCH  24  25
HETATM   25  C   UNL     1      -7.329  14.636  67.882  1.00  0.00    -0.164 C  
BRANCH  25  26
HETATM   26  C   UNL     1      -6.978  15.583  69.006  1.00  0.00    -0.141 C  
BRANCH  26  27
HETATM   27  C   UNL     1      -7.342  17.000  68.598  1.00  0.00    -0.229 C  
BRANCH  27  28
HETATM   28  C   UNL     1      -6.897  17.248  67.172  1.00  0.00    -0.209 C  
BRANCH  28  29
HETATM   29  C   UNL     1      -6.470  18.693  67.004  1.00  0.00    -0.199 C  
BRANCH  29  30
HETATM   30  C   UNL     1      -7.280  19.571  67.937  1.00  0.00    -0.306 C  
BRANCH  30  31
HETATM   31  C   UNL     1      -8.130  20.544  67.144  1.00  0.00    -0.358 C  
BRANCH  31  32
HETATM   32  C   UNL     1      -9.579  20.440  67.579  1.00  0.00    -0.560 C  
BRANCH  32  33
HETATM   33  C   UNL     1     -10.319  19.443  66.704  1.00  0.00    -0.555 C  
BRANCH  33  34
HETATM   34  C   UNL     1     -10.629  18.178  67.491  1.00  0.00    -0.419 C  
BRANCH  34  35
HETATM   35  C   UNL     1     -10.519  16.956  66.591  1.00  0.00    -0.257 C  
BRANCH  35  36
HETATM   36  C   UNL     1     -10.730  15.678  67.392  1.00  0.00    -0.309 C  
BRANCH  36  37
HETATM   37  C   UNL     1     -11.440  15.983  68.708  1.00  0.00    -0.375 C  
BRANCH  37  38
HETATM   38  C   UNL     1     -10.653  15.436  69.893  1.00  0.00    -0.315 C  
HETATM   39  C   UNL     1     -11.461  15.539  71.176  1.00  0.00    -0.442 C  
ENDBRANCH  37  38
ENDBRANCH  36  37
ENDBRANCH  35  36
ENDBRANCH  34  35
ENDBRANCH  33  34
ENDBRANCH  32  33
ENDBRANCH  31  32
ENDBRANCH  30  31
ENDBRANCH  29  30
ENDBRANCH  28  29
ENDBRANCH  27  28
ENDBRANCH  26  27
ENDBRANCH  25  26
ENDBRANCH  24  25
ENDBRANCH  23  24
ENDBRANCH  22  23
ENDBRANCH  19  22
ENDBRANCH  18  19
ENDBRANCH  17  18
ENDBRANCH  16  17
ENDBRANCH  15  16
ENDBRANCH  14  15
ENDBRANCH  13  14
ENDBRANCH  12  13
ENDBRANCH  11  12
ENDBRANCH  10  11
ENDBRANCH   9  10
ENDBRANCH   8   9
ENDBRANCH   7   8
ENDBRANCH   6   7
ENDBRANCH   5   6
ENDBRANCH   4   5
ENDBRANCH   3   4
ENDBRANCH   2   3
TORSDOF 34
ENDMDL
MODEL       65
REMARK 921   NORMALIZED FREE ENERGY PREDICTED BY IDOCK:   -3.63 KCAL/MOL
REMARK 922        TOTAL FREE ENERGY PREDICTED BY IDOCK:  -17.17 KCAL/MOL
REMARK 923 INTER-LIGAND FREE ENERGY PREDICTED BY IDOCK:  -11.86 KCAL/MOL
REMARK 924 INTRA-LIGAND FREE ENERGY PREDICTED BY IDOCK:   -5.31 KCAL/MOL
REMARK 927      BINDING AFFINITY PREDICTED BY RF-SCORE:    0.00 PKD
ROOT
HETATM    1  C   UNL     1      -6.385  17.908  67.172  1.00  0.00    -0.184 C  
HETATM    2  C   UNL     1      -7.163  18.391  68.383  1.00  0.00    -0.281 C  
ENDROOT
BRANCH   2   3
HETATM    3  C   UNL     1      -7.857  19.714  68.094  1.00  0.00    -0.346 C  
BRANCH   3   4
HETATM    4  C   UNL     1      -8.322  19.784  66.642  1.00  0.00    -0.360 C  
BRANCH   4   5
HETATM    5  C   UNL     1      -9.808  20.113  66.568  1.00  0.00    -0.574 C  
BRANCH   5   6
HETATM    6  C   UNL     1     -10.621  19.091  67.349  1.00  0.00    -0.559 C  
BRANCH   6   7
HETATM    7  C   UNL     1     -10.467  17.711  66.727  1.00  0.00    -0.289 C  
BRANCH   7   8
HETATM    8  C   UNL     1     -10.472  16.643  67.809  1.00  0.00    -0.316 C  
BRANCH   8   9
HETATM    9  C   UNL     1      -9.659  15.440  67.363  1.00  0.00    -0.210 C  
BRANCH   9  10
HETATM   10  C   UNL     1     -10.255  14.854  66.096  1.00  0.00    -0.314 C  
BRANCH  10  11
HETATM   11  C   UNL     1     -11.721  14.523  66.309  1.00  0.00    -0.364 C  
BRANCH  11  12
HETATM   12  C   UNL     1     -12.368  14.217  64.973  1.00  0.00    -0.434 C  
BRANCH  12  13
HETATM   13  C   UNL     1     -12.646  12.734  64.854  1.00  0.00    -0.541 C  
BRANCH  13  14
HETATM   14  C   UNL     1     -12.014  12.197  63.583  1.00  0.00    -0.628 C  
BRANCH  14  15
HETATM   15  C   UNL     1     -10.576  11.825  63.863  1.00  0.00    -0.445 C  
BRANCH  15  16
HETATM   16  C   UNL     1     -10.440  11.172  65.228  1.00  0.00    -0.326 C  
BRANCH  16  17
HETATM   17  C   UNL     1      -9.623   9.906  65.049  1.00  0.00    -0.364 C  
BRANCH  17  18
HETATM   18  C   UNL     1      -8.670  10.019  63.874  1.00  0.00    -0.206 C  
BRANCH  18  19
HETATM   19  N   UNL     1      -7.429   9.116  64.042  1.00  0.00    -0.107 N  
HETATM   20  C   UNL     1      -7.261   8.208  62.820  1.00  0.00    -0.097 C  
HETATM   21  C   UNL     1      -6.172   9.968  64.233  1.00  0.00    -0.132 C  
BRANCH  19  22
HETATM   22  C   UNL     1      -7.703   8.271  65.305  1.00  0.00    -0.106 C  
BRANCH  22  23
HETATM   23  C   UNL     1      -7.874   6.799  64.984  1.00  0.00    -0.118 C  
BRANCH  23  24
HETATM   24  C   UNL     1      -8.044   5.968  66.242  1.00  0.00    -0.112 C  
BRANCH  24  25
HETATM   25  C   UNL     1      -9.380   5.254  66.139  1.00  0.00    -0.164 C  
BRANCH  25  26
HETATM   26  C   UNL     1     -10.107   5.271  67.464  1.00  0.00    -0.222 C  
BRANCH  26  27
HETATM   27  C   UNL     1     -10.841   6.592  67.615  1.00  0.00    -0.393 C  
BRANCH  27  28
HETATM   28  C   UNL     1     -10.638   7.129  69.016  1.00  0.00    -0.225 C  
BRANCH  28  29
HETATM   29  C   UNL     1     -11.064   6.093  70.037  1.00  0.00    -0.462 C  
BRANCH  29  30
HETATM   30  C   UNL     1     -11.654   6.790  71.248  1.00  0.00    -0.366 C  
BRANCH  30  31
HETATM   31  C   UNL     1     -11.375   8.279  71.190  1.00  0.00    -0.298 C  
BRANCH  31  32
HETATM   32  C   UNL     1     -12.595   9.052  71.654  1.00  0.00    -0.414 C  
BRANCH  32  33
HETATM   33  C   UNL     1     -12.432  10.529  71.336  1.00  0.00    -0.516 C  
BRANCH  33  34
HETATM   34  C   UNL     1     -12.069  10.716  69.870  1.00  0.00    -0.372 C  
BRANCH  34  35
HETATM   35  C   UNL     1     -11.537  12.122  69.634  1.00  0.00    -0.361 C  
BRANCH  35  36
HETATM   36  C   UNL     1     -10.294  12.085  68.754  1.00  0.00    -0.181 C  
BRANCH  36  37
HETATM   37  C   UNL     1      -9.688  10.686  68.744  1.00  0.00    -0.193 C  
BRANCH  37  38
HETATM   38  C   UNL     1      -8.190  10.741  68.467  1.00  0.00    -0.136 C  
HETATM   39  C   UNL     1      -7.817  12.025  67.746  1.00  0.00    -0.145 C  
ENDBRANCH  37  38
ENDBRANCH  36  37
ENDBRANCH  35  36
ENDBRANCH  34  35
ENDBRANCH  33  34
ENDBRANCH  32  33
ENDBRANCH  31  32
ENDBRANCH  30  31
ENDBRANCH  29  30
ENDBRANCH  28  29
ENDBRANCH  27  28
ENDBRANCH  26  27
ENDBRANCH  25  26
ENDBRANCH  24  25
ENDBRANCH  23  24
ENDBRANCH  22  23
ENDBRANCH  19  22
ENDBRANCH  18  19
ENDBRANCH  17  18
ENDBRANCH  16  17
ENDBRANCH  15  16
ENDBRANCH  14  15
ENDBRANCH  13  14
ENDBRANCH  12  13
ENDBRANCH  11  12
ENDBRANCH  10  11
ENDBRANCH   9  10
ENDBRANCH   8   9
ENDBRANCH   7   8
ENDBRANCH   6   7
ENDBRANCH   5   6
ENDBRANCH   4   5
ENDBRANCH   3   4
ENDBRANCH   2   3
TORSDOF 34
ENDMDL
MODEL       66
REMARK 921   NORMALIZED FREE ENERGY PREDICTED BY IDOCK:   -3.63 KCAL/MOL
REMARK 922        TOTAL FREE ENERGY PREDICTED BY IDOCK:  -17.16 KCAL/MOL
REMARK 923 INTER-LIGAND FREE ENERGY PREDICTED BY IDOCK:  -10.12 KCAL/MOL
REMARK 924 INTRA-LIGAND FREE ENERGY PREDICTED BY IDOCK:   -7.04 KCAL/MOL
REMARK 927      BINDING AFFINITY PREDICTED BY RF-SCORE:    0.00 PKD
ROOT
HETATM    1  C   UNL     1      -9.665   4.122  70.019  1.00  0.00    -0.282 C  
HETATM    2  C   UNL     1      -9.602   4.617  68.585  1.00  0.00    -0.226 C  
ENDROOT
BRANCH   2   3
HETATM    3  C   UNL     1     -10.591   5.750  68.354  1.00  0.00    -0.289 C  
BRANCH   3   4
HETATM    4  C   UNL     1      -9.869   7.085  68.196  1.00  0.00    -0.151 C  
BRANCH   4   5
HETATM    5  C   UNL     1      -8.599   6.916  67.372  1.00  0.00    -0.121 C  
BRANCH   5   6
HETATM    6  C   UNL     1      -8.936   6.767  65.895  1.00  0.00    -0.095 C  
BRANCH   6   7
HETATM    7  C   UNL     1      -7.841   5.986  65.183  1.00  0.00    -0.109 C  
BRANCH   7   8
HETATM    8  C   UNL     1      -7.464   6.677  63.883  1.00  0.00    -0.094 C  
BRANCH   8   9
HETATM    9  C   UNL     1      -6.421   7.751  64.142  1.00  0.00    -0.057 C  
BRANCH   9  10
HETATM   10  C   UNL     1      -6.983   9.113  63.781  1.00  0.00    -0.089 C  
BRANCH  10  11
HETATM   11  C   UNL     1      -8.144   8.964  62.815  1.00  0.00    -0.169 C  
BRANCH  11  12
HETATM   12  C   UNL     1      -9.228   9.963  63.172  1.00  0.00    -0.281 C  
BRANCH  12  13
HETATM   13  C   UNL     1      -8.993  10.514  64.563  1.00  0.00    -0.231 C  
BRANCH  13  14
HETATM   14  C   UNL     1     -10.155  10.136  65.463  1.00  0.00    -0.338 C  
BRANCH  14  15
HETATM   15  C   UNL     1      -9.791  10.446  66.897  1.00  0.00    -0.236 C  
BRANCH  15  16
HETATM   16  C   UNL     1      -8.556  11.327  66.966  1.00  0.00    -0.148 C  
BRANCH  16  17
HETATM   17  C   UNL     1      -8.299  11.640  68.428  1.00  0.00    -0.157 C  
BRANCH  17  18
HETATM   18  C   UNL     1      -8.306  10.382  69.278  1.00  0.00    -0.155 C  
BRANCH  18  19
HETATM   19  N   UNL     1      -6.902  10.038  69.818  1.00  0.00    -0.079 N  
HETATM   20  C   UNL     1      -6.079   9.316  68.747  1.00  0.00    -0.044 C  
HETATM   21  C   UNL     1      -6.175  11.309  70.262  1.00  0.00    -0.124 C  
BRANCH  19  22
HETATM   22  C   UNL     1      -7.143   9.107  71.027  1.00  0.00    -0.098 C  
BRANCH  22  23
HETATM   23  C   UNL     1      -8.615   8.812  71.238  1.00  0.00    -0.258 C  
BRANCH  23  24
HETATM   24  C   UNL     1      -8.848   7.356  71.596  1.00  0.00    -0.125 C  
BRANCH  24  25
HETATM   25  C   UNL     1      -9.176   7.297  73.078  1.00  0.00    -0.190 C  
BRANCH  25  26
HETATM   26  C   UNL     1     -10.670   7.249  73.301  1.00  0.00    -0.428 C  
BRANCH  26  27
HETATM   27  C   UNL     1     -11.334   6.602  72.099  1.00  0.00    -0.309 C  
BRANCH  27  28
HETATM   28  C   UNL     1     -12.430   7.506  71.576  1.00  0.00    -0.375 C  
BRANCH  28  29
HETATM   29  C   UNL     1     -12.264   8.904  72.138  1.00  0.00    -0.437 C  
BRANCH  29  30
HETATM   30  C   UNL     1     -13.455   9.753  71.740  1.00  0.00    -0.463 C  
BRANCH  30  31
HETATM   31  C   UNL     1     -13.006  11.147  71.348  1.00  0.00    -0.506 C  
BRANCH  31  32
HETATM   32  C   UNL     1     -11.810  11.063  70.419  1.00  0.00    -0.460 C  
BRANCH  32  33
HETATM   33  C   UNL     1     -12.098  11.806  69.125  1.00  0.00    -0.290 C  
BRANCH  33  34
HETATM   34  C   UNL     1     -11.440  13.177  69.146  1.00  0.00    -0.358 C  
BRANCH  34  35
HETATM   35  C   UNL     1     -12.019  14.057  68.047  1.00  0.00    -0.386 C  
BRANCH  35  36
HETATM   36  C   UNL     1     -11.313  13.797  66.723  1.00  0.00    -0.345 C  
BRANCH  36  37
HETATM   37  C   UNL     1     -12.290  13.222  65.701  1.00  0.00    -0.521 C  
BRANCH  37  38
HETATM   38  C   UNL     1     -11.812  13.489  64.279  1.00  0.00    -0.471 C  
HETATM   39  C   UNL     1     -12.239  12.372  63.343  1.00  0.00    -0.623 C  
ENDBRANCH  37  38
ENDBRANCH  36  37
ENDBRANCH  35  36
ENDBRANCH  34  35
ENDBRANCH  33  34
ENDBRANCH  32  33
ENDBRANCH  31  32
ENDBRANCH  30  31
ENDBRANCH  29  30
ENDBRANCH  28  29
ENDBRANCH  27  28
ENDBRANCH  26  27
ENDBRANCH  25  26
ENDBRANCH  24  25
ENDBRANCH  23  24
ENDBRANCH  22  23
ENDBRANCH  19  22
ENDBRANCH  18  19
ENDBRANCH  17  18
ENDBRANCH  16  17
ENDBRANCH  15  16
ENDBRANCH  14  15
ENDBRANCH  13  14
ENDBRANCH  12  13
ENDBRANCH  11  12
ENDBRANCH  10  11
ENDBRANCH   9  10
ENDBRANCH   8   9
ENDBRANCH   7   8
ENDBRANCH   6   7
ENDBRANCH   5   6
ENDBRANCH   4   5
ENDBRANCH   3   4
ENDBRANCH   2   3
TORSDOF 34
ENDMDL
MODEL       67
REMARK 921   NORMALIZED FREE ENERGY PREDICTED BY IDOCK:   -3.62 KCAL/MOL
REMARK 922        TOTAL FREE ENERGY PREDICTED BY IDOCK:  -17.14 KCAL/MOL
REMARK 923 INTER-LIGAND FREE ENERGY PREDICTED BY IDOCK:   -9.73 KCAL/MOL
REMARK 924 INTRA-LIGAND FREE ENERGY PREDICTED BY IDOCK:   -7.41 KCAL/MOL
REMARK 927      BINDING AFFINITY PREDICTED BY RF-SCORE:    0.00 PKD
ROOT
HETATM    1  C   UNL     1     -10.580   5.577  69.212  1.00  0.00    -0.325 C  
HETATM    2  C   UNL     1     -10.985   6.237  67.906  1.00  0.00    -0.421 C  
ENDROOT
BRANCH   2   3
HETATM    3  C   UNL     1     -10.655   5.345  66.718  1.00  0.00    -0.339 C  
BRANCH   3   4
HETATM    4  C   UNL     1      -9.854   4.121  67.156  1.00  0.00    -0.182 C  
BRANCH   4   5
HETATM    5  C   UNL     1      -8.718   3.844  66.180  1.00  0.00    -0.115 C  
BRANCH   5   6
HETATM    6  C   UNL     1      -7.462   3.419  66.928  1.00  0.00    -0.075 C  
BRANCH   6   7
HETATM    7  C   UNL     1      -7.420   4.077  68.299  1.00  0.00    -0.059 C  
BRANCH   7   8
HETATM    8  C   UNL     1      -6.032   4.637  68.570  1.00  0.00    -0.026 C  
BRANCH   8   9
HETATM    9  C   UNL     1      -5.954   6.086  68.120  1.00  0.00    -0.016 C  
BRANCH   9  10
HETATM   10  C   UNL     1      -7.297   6.762  68.322  1.00  0.00    -0.093 C  
BRANCH  10  11
HETATM   11  C   UNL     1      -7.457   7.915  67.348  1.00  0.00    -0.093 C  
BRANCH  11  12
HETATM   12  C   UNL     1      -7.653   7.368  65.947  1.00  0.00    -0.089 C  
BRANCH  12  13
HETATM   13  C   UNL     1      -8.345   8.396  65.077  1.00  0.00    -0.169 C  
BRANCH  13  14
HETATM   14  C   UNL     1      -9.457   9.063  65.864  1.00  0.00    -0.317 C  
BRANCH  14  15
HETATM   15  C   UNL     1      -9.475  10.540  65.541  1.00  0.00    -0.265 C  
BRANCH  15  16
HETATM   16  C   UNL     1     -10.271  10.810  64.275  1.00  0.00    -0.422 C  
BRANCH  16  17
HETATM   17  C   UNL     1     -11.170  12.001  64.546  1.00  0.00    -0.390 C  
BRANCH  17  18
HETATM   18  C   UNL     1     -10.480  13.035  65.416  1.00  0.00    -0.296 C  
BRANCH  18  19
HETATM   19  N   UNL     1     -11.272  14.358  65.486  1.00  0.00    -0.320 N  
HETATM   20  C   UNL     1     -10.318  15.555  65.417  1.00  0.00    -0.394 C  
HETATM   21  C   UNL     1     -12.284  14.435  64.340  1.00  0.00    -0.458 C  
BRANCH  19  22
HETATM   22  C   UNL     1     -12.001  14.331  66.847  1.00  0.00    -0.438 C  
BRANCH  22  23
HETATM   23  C   UNL     1     -11.139  13.743  67.947  1.00  0.00    -0.285 C  
BRANCH  23  24
HETATM   24  C   UNL     1     -11.930  13.531  69.224  1.00  0.00    -0.378 C  
BRANCH  24  25
HETATM   25  C   UNL     1     -11.715  12.092  69.660  1.00  0.00    -0.405 C  
BRANCH  25  26
HETATM   26  C   UNL     1     -11.713  11.160  68.471  1.00  0.00    -0.368 C  
BRANCH  26  27
HETATM   27  C   UNL     1     -11.024   9.862  68.854  1.00  0.00    -0.214 C  
BRANCH  27  28
HETATM   28  C   UNL     1     -10.147  10.092  70.067  1.00  0.00    -0.289 C  
BRANCH  28  29
HETATM   29  C   UNL     1      -9.329   8.850  70.361  1.00  0.00    -0.223 C  
BRANCH  29  30
HETATM   30  C   UNL     1      -9.459   8.496  71.830  1.00  0.00    -0.328 C  
BRANCH  30  31
HETATM   31  C   UNL     1     -10.919   8.384  72.220  1.00  0.00    -0.431 C  
BRANCH  31  32
HETATM   32  C   UNL     1     -11.109   7.233  73.191  1.00  0.00    -0.336 C  
BRANCH  32  33
HETATM   33  C   UNL     1     -11.821   6.080  72.505  1.00  0.00    -0.236 C  
BRANCH  33  34
HETATM   34  C   UNL     1     -11.379   4.755  73.107  1.00  0.00    -0.380 C  
BRANCH  34  35
HETATM   35  C   UNL     1      -9.897   4.800  73.452  1.00  0.00    -0.165 C  
BRANCH  35  36
HETATM   36  C   UNL     1      -9.074   4.100  72.379  1.00  0.00    -0.143 C  
BRANCH  36  37
HETATM   37  C   UNL     1      -8.175   5.101  71.659  1.00  0.00    -0.116 C  
BRANCH  37  38
HETATM   38  C   UNL     1      -7.100   5.642  72.596  1.00  0.00    -0.089 C  
HETATM   39  C   UNL     1      -6.260   6.702  71.904  1.00  0.00    -0.042 C  
ENDBRANCH  37  38
ENDBRANCH  36  37
ENDBRANCH  35  36
ENDBRANCH  34  35
ENDBRANCH  33  34
ENDBRANCH  32  33
ENDBRANCH  31  32
ENDBRANCH  30  31
ENDBRANCH  29  30
ENDBRANCH  28  29
ENDBRANCH  27  28
ENDBRANCH  26  27
ENDBRANCH  25  26
ENDBRANCH  24  25
ENDBRANCH  23  24
ENDBRANCH  22  23
ENDBRANCH  19  22
ENDBRANCH  18  19
ENDBRANCH  17  18
ENDBRANCH  16  17
ENDBRANCH  15  16
ENDBRANCH  14  15
ENDBRANCH  13  14
ENDBRANCH  12  13
ENDBRANCH  11  12
ENDBRANCH  10  11
ENDBRANCH   9  10
ENDBRANCH   8   9
ENDBRANCH   7   8
ENDBRANCH   6   7
ENDBRANCH   5   6
ENDBRANCH   4   5
ENDBRANCH   3   4
ENDBRANCH   2   3
TORSDOF 34
ENDMDL
MODEL       68
REMARK 921   NORMALIZED FREE ENERGY PREDICTED BY IDOCK:   -3.61 KCAL/MOL
REMARK 922        TOTAL FREE ENERGY PREDICTED BY IDOCK:  -17.12 KCAL/MOL
REMARK 923 INTER-LIGAND FREE ENERGY PREDICTED BY IDOCK:   -9.92 KCAL/MOL
REMARK 924 INTRA-LIGAND FREE ENERGY PREDICTED BY IDOCK:   -7.20 KCAL/MOL
REMARK 927      BINDING AFFINITY PREDICTED BY RF-SCORE:    0.00 PKD
ROOT
HETATM    1  C   UNL     1      -7.419   8.830  70.712  1.00  0.00    -0.087 C  
HETATM    2  C   UNL     1      -8.342   8.647  71.903  1.00  0.00    -0.189 C  
ENDROOT
BRANCH   2   3
HETATM    3  C   UNL     1      -9.794   8.871  71.508  1.00  0.00    -0.384 C  
BRANCH   3   4
HETATM    4  C   UNL     1     -10.741   8.139  72.455  1.00  0.00    -0.419 C  
BRANCH   4   5
HETATM    5  C   UNL     1     -11.886   7.498  71.682  1.00  0.00    -0.322 C  
BRANCH   5   6
HETATM    6  C   UNL     1     -11.922   5.996  71.927  1.00  0.00    -0.185 C  
BRANCH   6   7
HETATM    7  C   UNL     1     -11.153   5.652  73.194  1.00  0.00    -0.315 C  
BRANCH   7   8
HETATM    8  C   UNL     1     -10.171   4.523  72.923  1.00  0.00    -0.228 C  
BRANCH   8   9
HETATM    9  C   UNL     1     -10.018   4.309  71.427  1.00  0.00    -0.238 C  
BRANCH   9  10
HETATM   10  C   UNL     1      -8.706   4.905  70.952  1.00  0.00    -0.140 C  
BRANCH  10  11
HETATM   11  C   UNL     1      -8.877   5.524  69.577  1.00  0.00    -0.115 C  
BRANCH  11  12
HETATM   12  C   UNL     1     -10.233   5.142  69.017  1.00  0.00    -0.241 C  
BRANCH  12  13
HETATM   13  C   UNL     1     -10.859   6.327  68.312  1.00  0.00    -0.397 C  
BRANCH  13  14
HETATM   14  C   UNL     1      -9.857   7.464  68.239  1.00  0.00    -0.173 C  
BRANCH  14  15
HETATM   15  C   UNL     1      -9.710   7.902  66.799  1.00  0.00    -0.303 C  
BRANCH  15  16
HETATM   16  C   UNL     1      -9.156   6.777  65.942  1.00  0.00    -0.049 C  
BRANCH  16  17
HETATM   17  C   UNL     1      -7.869   7.275  65.312  1.00  0.00    -0.121 C  
BRANCH  17  18
HETATM   18  C   UNL     1      -7.682   8.765  65.526  1.00  0.00    -0.092 C  
BRANCH  18  19
HETATM   19  N   UNL     1      -7.688   9.549  64.196  1.00  0.00    -0.118 N  
HETATM   20  C   UNL     1      -6.262   9.947  63.805  1.00  0.00    -0.125 C  
HETATM   21  C   UNL     1      -8.315   8.706  63.083  1.00  0.00    -0.144 C  
BRANCH  19  22
HETATM   22  C   UNL     1      -8.542  10.808  64.463  1.00  0.00    -0.047 C  
BRANCH  22  23
HETATM   23  C   UNL     1     -10.001  10.595  64.111  1.00  0.00    -0.406 C  
BRANCH  23  24
HETATM   24  C   UNL     1     -10.531  11.708  63.226  1.00  0.00    -0.438 C  
BRANCH  24  25
HETATM   25  C   UNL     1     -11.948  12.014  63.676  1.00  0.00    -0.612 C  
BRANCH  25  26
HETATM   26  C   UNL     1     -11.955  12.672  65.036  1.00  0.00    -0.467 C  
BRANCH  26  27
HETATM   27  C   UNL     1     -12.376  14.123  64.888  1.00  0.00    -0.446 C  
BRANCH  27  28
HETATM   28  C   UNL     1     -11.186  15.025  65.141  1.00  0.00    -0.391 C  
BRANCH  28  29
HETATM   29  C   UNL     1     -10.060  14.236  65.779  1.00  0.00    -0.356 C  
BRANCH  29  30
HETATM   30  C   UNL     1      -9.062  15.193  66.400  1.00  0.00    -0.331 C  
BRANCH  30  31
HETATM   31  C   UNL     1      -8.554  14.647  67.720  1.00  0.00    -0.175 C  
BRANCH  31  32
HETATM   32  C   UNL     1      -7.215  13.963  67.517  1.00  0.00    -0.178 C  
BRANCH  32  33
HETATM   33  C   UNL     1      -7.405  12.459  67.410  1.00  0.00    -0.149 C  
BRANCH  33  34
HETATM   34  C   UNL     1      -8.327  11.964  68.513  1.00  0.00    -0.118 C  
BRANCH  34  35
HETATM   35  C   UNL     1      -9.519  11.229  67.915  1.00  0.00    -0.179 C  
BRANCH  35  36
HETATM   36  C   UNL     1     -10.671  11.173  68.910  1.00  0.00    -0.246 C  
BRANCH  36  37
HETATM   37  C   UNL     1     -11.756  12.173  68.527  1.00  0.00    -0.382 C  
BRANCH  37  38
HETATM   38  C   UNL     1     -11.736  13.384  69.452  1.00  0.00    -0.382 C  
HETATM   39  C   UNL     1     -12.106  14.650  68.699  1.00  0.00    -0.237 C  
ENDBRANCH  37  38
ENDBRANCH  36  37
ENDBRANCH  35  36
ENDBRANCH  34  35
ENDBRANCH  33  34
ENDBRANCH  32  33
ENDBRANCH  31  32
ENDBRANCH  30  31
ENDBRANCH  29  30
ENDBRANCH  28  29
ENDBRANCH  27  28
ENDBRANCH  26  27
ENDBRANCH  25  26
ENDBRANCH  24  25
ENDBRANCH  23  24
ENDBRANCH  22  23
ENDBRANCH  19  22
ENDBRANCH  18  19
ENDBRANCH  17  18
ENDBRANCH  16  17
ENDBRANCH  15  16
ENDBRANCH  14  15
ENDBRANCH  13  14
ENDBRANCH  12  13
ENDBRANCH  11  12
ENDBRANCH  10  11
ENDBRANCH   9  10
ENDBRANCH   8   9
ENDBRANCH   7   8
ENDBRANCH   6   7
ENDBRANCH   5   6
ENDBRANCH   4   5
ENDBRANCH   3   4
ENDBRANCH   2   3
TORSDOF 34
ENDMDL
MODEL       69
REMARK 921   NORMALIZED FREE ENERGY PREDICTED BY IDOCK:   -3.61 KCAL/MOL
REMARK 922        TOTAL FREE ENERGY PREDICTED BY IDOCK:  -17.11 KCAL/MOL
REMARK 923 INTER-LIGAND FREE ENERGY PREDICTED BY IDOCK:  -11.04 KCAL/MOL
REMARK 924 INTRA-LIGAND FREE ENERGY PREDICTED BY IDOCK:   -6.07 KCAL/MOL
REMARK 927      BINDING AFFINITY PREDICTED BY RF-SCORE:    0.00 PKD
ROOT
HETATM    1  C   UNL     1     -11.465   6.237  70.784  1.00  0.00    -0.383 C  
HETATM    2  C   UNL     1     -12.741   7.057  70.722  1.00  0.00    -0.133 C  
ENDROOT
BRANCH   2   3
HETATM    3  C   UNL     1     -13.010   7.751  72.049  1.00  0.00    -0.248 C  
BRANCH   3   4
HETATM    4  C   UNL     1     -13.684   9.104  71.836  1.00  0.00    -0.485 C  
BRANCH   4   5
HETATM    5  C   UNL     1     -12.651  10.224  71.827  1.00  0.00    -0.488 C  
BRANCH   5   6
HETATM    6  C   UNL     1     -12.446  10.750  70.413  1.00  0.00    -0.430 C  
BRANCH   6   7
HETATM    7  C   UNL     1     -11.077  10.336  69.893  1.00  0.00    -0.362 C  
BRANCH   7   8
HETATM    8  C   UNL     1     -10.264   9.695  71.006  1.00  0.00    -0.252 C  
BRANCH   8   9
HETATM    9  C   UNL     1      -9.080   8.942  70.423  1.00  0.00    -0.217 C  
BRANCH   9  10
HETATM   10  C   UNL     1      -8.460   8.053  71.485  1.00  0.00    -0.147 C  
BRANCH  10  11
HETATM   11  C   UNL     1      -9.130   8.291  72.826  1.00  0.00    -0.332 C  
BRANCH  11  12
HETATM   12  C   UNL     1      -8.910   7.086  73.720  1.00  0.00    -0.197 C  
BRANCH  12  13
HETATM   13  C   UNL     1     -10.237   6.562  74.227  1.00  0.00    -0.373 C  
BRANCH  13  14
HETATM   14  C   UNL     1     -10.278   5.052  74.080  1.00  0.00    -0.279 C  
BRANCH  14  15
HETATM   15  C   UNL     1      -8.880   4.544  73.808  1.00  0.00    -0.104 C  
BRANCH  15  16
HETATM   16  C   UNL     1      -8.894   3.459  72.745  1.00  0.00    -0.096 C  
BRANCH  16  17
HETATM   17  C   UNL     1      -8.586   4.119  71.414  1.00  0.00    -0.124 C  
BRANCH  17  18
HETATM   18  C   UNL     1      -9.210   3.362  70.257  1.00  0.00    -0.156 C  
BRANCH  18  19
HETATM   19  N   UNL     1      -8.530   3.692  68.911  1.00  0.00    -0.072 N  
HETATM   20  C   UNL     1      -7.088   3.177  68.901  1.00  0.00    -0.049 C  
HETATM   21  C   UNL     1      -9.312   3.069  67.753  1.00  0.00    -0.202 C  
BRANCH  19  22
HETATM   22  C   UNL     1      -8.550   5.233  68.807  1.00  0.00    -0.091 C  
BRANCH  22  23
HETATM   23  C   UNL     1      -9.637   5.730  67.874  1.00  0.00    -0.124 C  
BRANCH  23  24
HETATM   24  C   UNL     1      -9.278   7.071  67.262  1.00  0.00    -0.141 C  
BRANCH  24  25
HETATM   25  C   UNL     1     -10.565   7.864  67.114  1.00  0.00    -0.383 C  
BRANCH  25  26
HETATM   26  C   UNL     1     -10.299   9.221  66.504  1.00  0.00    -0.270 C  
BRANCH  26  27
HETATM   27  C   UNL     1      -9.220   9.089  65.444  1.00  0.00    -0.241 C  
BRANCH  27  28
HETATM   28  C   UNL     1      -9.352  10.216  64.441  1.00  0.00    -0.348 C  
BRANCH  28  29
HETATM   29  C   UNL     1     -10.095  11.382  65.063  1.00  0.00    -0.323 C  
BRANCH  29  30
HETATM   30  C   UNL     1     -10.413  12.407  63.993  1.00  0.00    -0.443 C  
BRANCH  30  31
HETATM   31  C   UNL     1     -10.868  13.708  64.623  1.00  0.00    -0.416 C  
BRANCH  31  32
HETATM   32  C   UNL     1     -12.332  13.614  65.008  1.00  0.00    -0.462 C  
BRANCH  32  33
HETATM   33  C   UNL     1     -12.520  14.018  66.460  1.00  0.00    -0.351 C  
BRANCH  33  34
HETATM   34  C   UNL     1     -11.169  14.218  67.131  1.00  0.00    -0.333 C  
BRANCH  34  35
HETATM   35  C   UNL     1     -11.241  13.805  68.594  1.00  0.00    -0.308 C  
BRANCH  35  36
HETATM   36  C   UNL     1     -11.091  15.018  69.503  1.00  0.00    -0.292 C  
BRANCH  36  37
HETATM   37  C   UNL     1     -12.354  15.224  70.332  1.00  0.00    -0.422 C  
BRANCH  37  38
HETATM   38  C   UNL     1     -12.082  14.985  71.813  1.00  0.00    -0.428 C  
HETATM   39  C   UNL     1     -13.076  13.996  72.395  1.00  0.00    -0.536 C  
ENDBRANCH  37  38
ENDBRANCH  36  37
ENDBRANCH  35  36
ENDBRANCH  34  35
ENDBRANCH  33  34
ENDBRANCH  32  33
ENDBRANCH  31  32
ENDBRANCH  30  31
ENDBRANCH  29  30
ENDBRANCH  28  29
ENDBRANCH  27  28
ENDBRANCH  26  27
ENDBRANCH  25  26
ENDBRANCH  24  25
ENDBRANCH  23  24
ENDBRANCH  22  23
ENDBRANCH  19  22
ENDBRANCH  18  19
ENDBRANCH  17  18
ENDBRANCH  16  17
ENDBRANCH  15  16
ENDBRANCH  14  15
ENDBRANCH  13  14
ENDBRANCH  12  13
ENDBRANCH  11  12
ENDBRANCH  10  11
ENDBRANCH   9  10
ENDBRANCH   8   9
ENDBRANCH   7   8
ENDBRANCH   6   7
ENDBRANCH   5   6
ENDBRANCH   4   5
ENDBRANCH   3   4
ENDBRANCH   2   3
TORSDOF 34
ENDMDL
MODEL       70
REMARK 921   NORMALIZED FREE ENERGY PREDICTED BY IDOCK:   -3.59 KCAL/MOL
REMARK 922        TOTAL FREE ENERGY PREDICTED BY IDOCK:  -17.06 KCAL/MOL
REMARK 923 INTER-LIGAND FREE ENERGY PREDICTED BY IDOCK:  -11.14 KCAL/MOL
REMARK 924 INTRA-LIGAND FREE ENERGY PREDICTED BY IDOCK:   -5.92 KCAL/MOL
REMARK 927      BINDING AFFINITY PREDICTED BY RF-SCORE:    0.00 PKD
ROOT
HETATM    1  C   UNL     1     -11.016   9.902  67.884  1.00  0.00    -0.281 C  
HETATM    2  C   UNL     1     -11.720  11.009  68.650  1.00  0.00    -0.367 C  
ENDROOT
BRANCH   2   3
HETATM    3  C   UNL     1     -11.464  10.887  70.144  1.00  0.00    -0.405 C  
BRANCH   3   4
HETATM    4  C   UNL     1     -12.771  10.930  70.931  1.00  0.00    -0.464 C  
BRANCH   4   5
HETATM    5  C   UNL     1     -12.901   9.705  71.826  1.00  0.00    -0.514 C  
BRANCH   5   6
HETATM    6  C   UNL     1     -11.554   9.014  71.985  1.00  0.00    -0.413 C  
BRANCH   6   7
HETATM    7  C   UNL     1     -11.748   7.601  72.518  1.00  0.00    -0.352 C  
BRANCH   7   8
HETATM    8  C   UNL     1     -12.457   6.743  71.483  1.00  0.00    -0.390 C  
BRANCH   8   9
HETATM    9  C   UNL     1     -11.559   6.525  70.277  1.00  0.00    -0.473 C  
BRANCH   9  10
HETATM   10  C   UNL     1     -10.453   5.548  70.627  1.00  0.00    -0.342 C  
BRANCH  10  11
HETATM   11  C   UNL     1      -9.096   6.169  70.349  1.00  0.00    -0.158 C  
BRANCH  11  12
HETATM   12  C   UNL     1      -9.283   7.474  69.601  1.00  0.00    -0.146 C  
BRANCH  12  13
HETATM   13  C   UNL     1      -8.411   8.553  70.207  1.00  0.00    -0.125 C  
BRANCH  13  14
HETATM   14  C   UNL     1      -7.071   8.585  69.496  1.00  0.00    -0.052 C  
BRANCH  14  15
HETATM   15  C   UNL     1      -7.299   8.477  68.005  1.00  0.00    -0.092 C  
BRANCH  15  16
HETATM   16  C   UNL     1      -6.209   7.650  67.346  1.00  0.00    -0.053 C  
BRANCH  16  17
HETATM   17  C   UNL     1      -6.752   6.246  67.158  1.00  0.00    -0.060 C  
BRANCH  17  18
HETATM   18  C   UNL     1      -8.017   6.244  66.321  1.00  0.00    -0.110 C  
BRANCH  18  19
HETATM   19  N   UNL     1      -7.900   5.321  65.090  1.00  0.00    -0.089 N  
HETATM   20  C   UNL     1      -6.610   4.498  65.161  1.00  0.00    -0.044 C  
HETATM   21  C   UNL     1      -9.108   4.386  65.007  1.00  0.00    -0.150 C  
BRANCH  19  22
HETATM   22  C   UNL     1      -7.866   6.266  63.868  1.00  0.00    -0.112 C  
BRANCH  22  23
HETATM   23  C   UNL     1      -8.179   7.701  64.245  1.00  0.00    -0.009 C  
BRANCH  23  24
HETATM   24  C   UNL     1      -7.146   8.663  63.688  1.00  0.00    -0.089 C  
BRANCH  24  25
HETATM   25  C   UNL     1      -7.267   9.963  64.465  1.00  0.00    -0.137 C  
BRANCH  25  26
HETATM   26  C   UNL     1      -8.523   9.977  65.305  1.00  0.00    -0.161 C  
BRANCH  26  27
HETATM   27  C   UNL     1      -9.281  11.267  65.050  1.00  0.00    -0.147 C  
BRANCH  27  28
HETATM   28  C   UNL     1     -10.537  10.969  64.257  1.00  0.00    -0.402 C  
BRANCH  28  29
HETATM   29  C   UNL     1     -10.882  12.146  63.366  1.00  0.00    -0.474 C  
BRANCH  29  30
HETATM   30  C   UNL     1     -12.262  12.663  63.723  1.00  0.00    -0.600 C  
BRANCH  30  31
HETATM   31  C   UNL     1     -12.158  13.985  64.456  1.00  0.00    -0.484 C  
BRANCH  31  32
HETATM   32  C   UNL     1     -12.348  13.768  65.945  1.00  0.00    -0.516 C  
BRANCH  32  33
HETATM   33  C   UNL     1     -11.107  14.209  66.702  1.00  0.00    -0.314 C  
BRANCH  33  34
HETATM   34  C   UNL     1     -11.476  15.217  67.780  1.00  0.00    -0.312 C  
BRANCH  34  35
HETATM   35  C   UNL     1     -11.248  14.620  69.161  1.00  0.00    -0.291 C  
BRANCH  35  36
HETATM   36  C   UNL     1     -12.525  14.678  69.989  1.00  0.00    -0.333 C  
BRANCH  36  37
HETATM   37  C   UNL     1     -12.300  15.485  71.263  1.00  0.00    -0.468 C  
BRANCH  37  38
HETATM   38  C   UNL     1     -13.560  15.514  72.121  1.00  0.00    -0.596 C  
HETATM   39  C   UNL     1     -14.282  14.178  72.072  1.00  0.00    -0.617 C  
ENDBRANCH  37  38
ENDBRANCH  36  37
ENDBRANCH  35  36
ENDBRANCH  34  35
ENDBRANCH  33  34
ENDBRANCH  32  33
ENDBRANCH  31  32
ENDBRANCH  30  31
ENDBRANCH  29  30
ENDBRANCH  28  29
ENDBRANCH  27  28
ENDBRANCH  26  27
ENDBRANCH  25  26
ENDBRANCH  24  25
ENDBRANCH  23  24
ENDBRANCH  22  23
ENDBRANCH  19  22
ENDBRANCH  18  19
ENDBRANCH  17  18
ENDBRANCH  16  17
ENDBRANCH  15  16
ENDBRANCH  14  15
ENDBRANCH  13  14
ENDBRANCH  12  13
ENDBRANCH  11  12
ENDBRANCH  10  11
ENDBRANCH   9  10
ENDBRANCH   8   9
ENDBRANCH   7   8
ENDBRANCH   6   7
ENDBRANCH   5   6
ENDBRANCH   4   5
ENDBRANCH   3   4
ENDBRANCH   2   3
TORSDOF 34
ENDMDL
MODEL       71
REMARK 921   NORMALIZED FREE ENERGY PREDICTED BY IDOCK:   -3.59 KCAL/MOL
REMARK 922        TOTAL FREE ENERGY PREDICTED BY IDOCK:  -17.06 KCAL/MOL
REMARK 923 INTER-LIGAND FREE ENERGY PREDICTED BY IDOCK:   -9.52 KCAL/MOL
REMARK 924 INTRA-LIGAND FREE ENERGY PREDICTED BY IDOCK:   -7.54 KCAL/MOL
REMARK 927      BINDING AFFINITY PREDICTED BY RF-SCORE:    0.00 PKD
ROOT
HETATM    1  C   UNL     1     -11.405   5.969  70.875  1.00  0.00    -0.299 C  
HETATM    2  C   UNL     1     -12.461   7.033  70.632  1.00  0.00    -0.173 C  
ENDROOT
BRANCH   2   3
HETATM    3  C   UNL     1     -12.831   7.740  71.927  1.00  0.00    -0.317 C  
BRANCH   3   4
HETATM    4  C   UNL     1     -13.609   9.024  71.649  1.00  0.00    -0.446 C  
BRANCH   4   5
HETATM    5  C   UNL     1     -12.665  10.218  71.570  1.00  0.00    -0.557 C  
BRANCH   5   6
HETATM    6  C   UNL     1     -12.613  10.764  70.150  1.00  0.00    -0.309 C  
BRANCH   6   7
HETATM    7  C   UNL     1     -11.329  10.322  69.464  1.00  0.00    -0.299 C  
BRANCH   7   8
HETATM    8  C   UNL     1     -10.221  10.142  70.489  1.00  0.00    -0.034 C  
BRANCH   8   9
HETATM    9  C   UNL     1      -9.209   9.121  69.995  1.00  0.00    -0.209 C  
BRANCH   9  10
HETATM   10  C   UNL     1      -8.550   8.434  71.176  1.00  0.00    -0.187 C  
BRANCH  10  11
HETATM   11  C   UNL     1      -9.413   8.577  72.416  1.00  0.00    -0.350 C  
BRANCH  11  12
HETATM   12  C   UNL     1      -8.784   7.804  73.559  1.00  0.00    -0.296 C  
BRANCH  12  13
HETATM   13  C   UNL     1      -9.760   6.778  74.095  1.00  0.00    -0.325 C  
BRANCH  13  14
HETATM   14  C   UNL     1      -9.221   5.382  73.846  1.00  0.00    -0.122 C  
BRANCH  14  15
HETATM   15  C   UNL     1      -7.733   5.465  73.590  1.00  0.00    -0.102 C  
BRANCH  15  16
HETATM   16  C   UNL     1      -7.301   4.443  72.552  1.00  0.00    -0.073 C  
BRANCH  16  17
HETATM   17  C   UNL     1      -7.912   4.853  71.226  1.00  0.00    -0.101 C  
BRANCH  17  18
HETATM   18  C   UNL     1      -8.340   3.647  70.411  1.00  0.00    -0.056 C  
BRANCH  18  19
HETATM   19  N   UNL     1      -8.210   3.895  68.893  1.00  0.00    -0.072 N  
HETATM   20  C   UNL     1      -6.833   3.446  68.394  1.00  0.00    -0.046 C  
HETATM   21  C   UNL     1      -9.307   3.144  68.135  1.00  0.00    -0.191 C  
BRANCH  19  22
HETATM   22  C   UNL     1      -8.376   5.420  68.708  1.00  0.00    -0.097 C  
BRANCH  22  23
HETATM   23  C   UNL     1      -9.488   5.761  67.737  1.00  0.00    -0.116 C  
BRANCH  23  24
HETATM   24  C   UNL     1      -9.147   6.981  66.902  1.00  0.00    -0.156 C  
BRANCH  24  25
HETATM   25  C   UNL     1     -10.359   7.896  66.914  1.00  0.00    -0.400 C  
BRANCH  25  26
HETATM   26  C   UNL     1     -10.022   9.250  66.334  1.00  0.00    -0.356 C  
BRANCH  26  27
HETATM   27  C   UNL     1      -8.934   9.089  65.287  1.00  0.00    -0.233 C  
BRANCH  27  28
HETATM   28  C   UNL     1      -9.086  10.160  64.227  1.00  0.00    -0.288 C  
BRANCH  28  29
HETATM   29  C   UNL     1     -10.452  10.808  64.333  1.00  0.00    -0.344 C  
BRANCH  29  30
HETATM   30  C   UNL     1     -10.545  11.955  63.346  1.00  0.00    -0.485 C  
BRANCH  30  31
HETATM   31  C   UNL     1     -11.177  13.167  64.001  1.00  0.00    -0.418 C  
BRANCH  31  32
HETATM   32  C   UNL     1     -12.329  12.736  64.888  1.00  0.00    -0.551 C  
BRANCH  32  33
HETATM   33  C   UNL     1     -12.230  13.415  66.244  1.00  0.00    -0.456 C  
BRANCH  33  34
HETATM   34  C   UNL     1     -10.867  14.068  66.408  1.00  0.00    -0.299 C  
BRANCH  34  35
HETATM   35  C   UNL     1     -10.187  13.562  67.672  1.00  0.00    -0.239 C  
BRANCH  35  36
HETATM   36  C   UNL     1      -9.122  12.527  67.332  1.00  0.00    -0.185 C  
BRANCH  36  37
HETATM   37  C   UNL     1      -7.884  12.730  68.200  1.00  0.00    -0.146 C  
BRANCH  37  38
HETATM   38  C   UNL     1      -6.661  12.077  67.568  1.00  0.00    -0.123 C  
HETATM   39  C   UNL     1      -6.561  10.613  67.961  1.00  0.00    -0.063 C  
ENDBRANCH  37  38
ENDBRANCH  36  37
ENDBRANCH  35  36
ENDBRANCH  34  35
ENDBRANCH  33  34
ENDBRANCH  32  33
ENDBRANCH  31  32
ENDBRANCH  30  31
ENDBRANCH  29  30
ENDBRANCH  28  29
ENDBRANCH  27  28
ENDBRANCH  26  27
ENDBRANCH  25  26
ENDBRANCH  24  25
ENDBRANCH  23  24
ENDBRANCH  22  23
ENDBRANCH  19  22
ENDBRANCH  18  19
ENDBRANCH  17  18
ENDBRANCH  16  17
ENDBRANCH  15  16
ENDBRANCH  14  15
ENDBRANCH  13  14
ENDBRANCH  12  13
ENDBRANCH  11  12
ENDBRANCH  10  11
ENDBRANCH   9  10
ENDBRANCH   8   9
ENDBRANCH   7   8
ENDBRANCH   6   7
ENDBRANCH   5   6
ENDBRANCH   4   5
ENDBRANCH   3   4
ENDBRANCH   2   3
TORSDOF 34
ENDMDL
MODEL       72
REMARK 921   NORMALIZED FREE ENERGY PREDICTED BY IDOCK:   -3.58 KCAL/MOL
REMARK 922        TOTAL FREE ENERGY PREDICTED BY IDOCK:  -17.02 KCAL/MOL
REMARK 923 INTER-LIGAND FREE ENERGY PREDICTED BY IDOCK:  -13.10 KCAL/MOL
REMARK 924 INTRA-LIGAND FREE ENERGY PREDICTED BY IDOCK:   -3.92 KCAL/MOL
REMARK 927      BINDING AFFINITY PREDICTED BY RF-SCORE:    0.00 PKD
ROOT
HETATM    1  C   UNL     1      -8.718  19.908  66.280  1.00  0.00    -0.384 C  
HETATM    2  C   UNL     1     -10.216  19.888  66.530  1.00  0.00    -0.611 C  
ENDROOT
BRANCH   2   3
HETATM    3  C   UNL     1     -10.549  19.095  67.785  1.00  0.00    -0.498 C  
BRANCH   3   4
HETATM    4  C   UNL     1      -9.640  17.877  67.924  1.00  0.00    -0.286 C  
BRANCH   4   5
HETATM    5  C   UNL     1     -10.291  16.647  67.306  1.00  0.00    -0.298 C  
BRANCH   5   6
HETATM    6  C   UNL     1      -9.605  16.277  65.999  1.00  0.00    -0.371 C  
BRANCH   6   7
HETATM    7  C   UNL     1     -10.591  15.595  65.062  1.00  0.00    -0.422 C  
BRANCH   7   8
HETATM    8  C   UNL     1     -11.399  14.553  65.819  1.00  0.00    -0.336 C  
BRANCH   8   9
HETATM    9  C   UNL     1     -12.601  14.122  64.997  1.00  0.00    -0.399 C  
BRANCH   9  10
HETATM   10  C   UNL     1     -12.551  12.625  64.753  1.00  0.00    -0.530 C  
BRANCH  10  11
HETATM   11  C   UNL     1     -11.917  12.333  63.405  1.00  0.00    -0.588 C  
BRANCH  11  12
HETATM   12  C   UNL     1     -10.594  11.624  63.613  1.00  0.00    -0.493 C  
BRANCH  12  13
HETATM   13  C   UNL     1     -10.530  11.035  65.007  1.00  0.00    -0.344 C  
BRANCH  13  14
HETATM   14  C   UNL     1      -9.480   9.941  65.050  1.00  0.00    -0.343 C  
BRANCH  14  15
HETATM   15  C   UNL     1      -9.010   9.650  63.642  1.00  0.00    -0.248 C  
BRANCH  15  16
HETATM   16  C   UNL     1      -7.618   9.042  63.648  1.00  0.00    -0.115 C  
BRANCH  16  17
HETATM   17  C   UNL     1      -7.778   7.536  63.720  1.00  0.00    -0.126 C  
BRANCH  17  18
HETATM   18  C   UNL     1      -7.349   6.992  65.070  1.00  0.00    -0.083 C  
BRANCH  18  19
HETATM   19  N   UNL     1      -7.529   5.463  65.166  1.00  0.00    -0.072 N  
HETATM   20  C   UNL     1      -7.403   4.822  63.781  1.00  0.00    -0.054 C  
HETATM   21  C   UNL     1      -6.489   4.862  66.113  1.00  0.00    -0.044 C  
BRANCH  19  22
HETATM   22  C   UNL     1      -8.953   5.251  65.727  1.00  0.00    -0.154 C  
BRANCH  22  23
HETATM   23  C   UNL     1      -9.370   6.364  66.666  1.00  0.00    -0.175 C  
BRANCH  23  24
HETATM   24  C   UNL     1     -10.100   5.826  67.883  1.00  0.00    -0.197 C  
BRANCH  24  25
HETATM   25  C   UNL     1     -10.687   7.013  68.626  1.00  0.00    -0.225 C  
BRANCH  25  26
HETATM   26  C   UNL     1     -11.726   6.566  69.628  1.00  0.00    -0.231 C  
BRANCH  26  27
HETATM   27  C   UNL     1     -11.175   6.741  71.032  1.00  0.00    -0.335 C  
BRANCH  27  28
HETATM   28  C   UNL     1     -12.302   7.093  71.980  1.00  0.00    -0.298 C  
BRANCH  28  29
HETATM   29  C   UNL     1     -12.155   8.524  72.457  1.00  0.00    -0.395 C  
BRANCH  29  30
HETATM   30  C   UNL     1     -13.323   9.348  71.951  1.00  0.00    -0.508 C  
BRANCH  30  31
HETATM   31  C   UNL     1     -12.835  10.665  71.382  1.00  0.00    -0.556 C  
BRANCH  31  32
HETATM   32  C   UNL     1     -11.525  10.458  70.645  1.00  0.00    -0.438 C  
BRANCH  32  33
HETATM   33  C   UNL     1     -11.606  11.058  69.252  1.00  0.00    -0.384 C  
BRANCH  33  34
HETATM   34  C   UNL     1     -10.937  12.424  69.226  1.00  0.00    -0.145 C  
BRANCH  34  35
HETATM   35  C   UNL     1     -11.896  13.471  68.680  1.00  0.00    -0.404 C  
BRANCH  35  36
HETATM   36  C   UNL     1     -11.991  14.660  69.628  1.00  0.00    -0.368 C  
BRANCH  36  37
HETATM   37  C   UNL     1     -12.787  14.287  70.874  1.00  0.00    -0.416 C  
BRANCH  37  38
HETATM   38  C   UNL     1     -13.165  15.529  71.673  1.00  0.00    -0.575 C  
HETATM   39  C   UNL     1     -11.976  16.051  72.461  1.00  0.00    -0.649 C  
ENDBRANCH  37  38
ENDBRANCH  36  37
ENDBRANCH  35  36
ENDBRANCH  34  35
ENDBRANCH  33  34
ENDBRANCH  32  33
ENDBRANCH  31  32
ENDBRANCH  30  31
ENDBRANCH  29  30
ENDBRANCH  28  29
ENDBRANCH  27  28
ENDBRANCH  26  27
ENDBRANCH  25  26
ENDBRANCH  24  25
ENDBRANCH  23  24
ENDBRANCH  22  23
ENDBRANCH  19  22
ENDBRANCH  18  19
ENDBRANCH  17  18
ENDBRANCH  16  17
ENDBRANCH  15  16
ENDBRANCH  14  15
ENDBRANCH  13  14
ENDBRANCH  12  13
ENDBRANCH  11  12
ENDBRANCH  10  11
ENDBRANCH   9  10
ENDBRANCH   8   9
ENDBRANCH   7   8
ENDBRANCH   6   7
ENDBRANCH   5   6
ENDBRANCH   4   5
ENDBRANCH   3   4
ENDBRANCH   2   3
TORSDOF 34
ENDMDL
MODEL       73
REMARK 921   NORMALIZED FREE ENERGY PREDICTED BY IDOCK:   -3.56 KCAL/MOL
REMARK 922        TOTAL FREE ENERGY PREDICTED BY IDOCK:  -16.98 KCAL/MOL
REMARK 923 INTER-LIGAND FREE ENERGY PREDICTED BY IDOCK:  -11.07 KCAL/MOL
REMARK 924 INTRA-LIGAND FREE ENERGY PREDICTED BY IDOCK:   -5.91 KCAL/MOL
REMARK 927      BINDING AFFINITY PREDICTED BY RF-SCORE:    0.00 PKD
ROOT
HETATM    1  C   UNL     1      -7.982   5.922  67.684  1.00  0.00    -0.102 C  
HETATM    2  C   UNL     1      -6.567   6.458  67.809  1.00  0.00    -0.062 C  
ENDROOT
BRANCH   2   3
HETATM    3  C   UNL     1      -6.485   7.899  67.329  1.00  0.00    -0.056 C  
BRANCH   3   4
HETATM    4  C   UNL     1      -7.781   8.325  66.643  1.00  0.00    -0.093 C  
BRANCH   4   5
HETATM    5  C   UNL     1      -7.598   9.658  65.930  1.00  0.00    -0.103 C  
BRANCH   5   6
HETATM    6  C   UNL     1      -8.828   9.992  65.097  1.00  0.00    -0.207 C  
BRANCH   6   7
HETATM    7  C   UNL     1      -9.157  11.473  65.215  1.00  0.00    -0.027 C  
BRANCH   7   8
HETATM    8  C   UNL     1     -10.342  11.820  64.329  1.00  0.00    -0.359 C  
BRANCH   8   9
HETATM    9  C   UNL     1     -11.166  12.927  64.965  1.00  0.00    -0.324 C  
BRANCH   9  10
HETATM   10  C   UNL     1     -12.072  12.346  66.034  1.00  0.00    -0.327 C  
BRANCH  10  11
HETATM   11  C   UNL     1     -11.967  13.160  67.311  1.00  0.00    -0.389 C  
BRANCH  11  12
HETATM   12  C   UNL     1     -11.310  12.321  68.390  1.00  0.00    -0.340 C  
BRANCH  12  13
HETATM   13  C   UNL     1     -11.681  10.863  68.217  1.00  0.00    -0.259 C  
BRANCH  13  14
HETATM   14  C   UNL     1     -10.422  10.017  68.185  1.00  0.00    -0.250 C  
BRANCH  14  15
HETATM   15  C   UNL     1     -10.389   9.132  69.410  1.00  0.00    -0.220 C  
BRANCH  15  16
HETATM   16  C   UNL     1      -9.075   9.285  70.157  1.00  0.00    -0.248 C  
BRANCH  16  17
HETATM   17  C   UNL     1      -9.087   8.297  71.308  1.00  0.00    -0.202 C  
BRANCH  17  18
HETATM   18  C   UNL     1     -10.060   7.160  71.059  1.00  0.00    -0.192 C  
BRANCH  18  19
HETATM   19  N   UNL     1     -10.538   6.504  72.371  1.00  0.00    -0.209 N  
HETATM   20  C   UNL     1      -9.782   5.196  72.621  1.00  0.00    -0.152 C  
HETATM   21  C   UNL     1     -10.329   7.457  73.550  1.00  0.00    -0.353 C  
BRANCH  19  22
HETATM   22  C   UNL     1     -12.043   6.223  72.167  1.00  0.00    -0.252 C  
BRANCH  22  23
HETATM   23  C   UNL     1     -12.682   7.200  71.200  1.00  0.00    -0.363 C  
BRANCH  23  24
HETATM   24  C   UNL     1     -14.149   7.422  71.516  1.00  0.00    -0.541 C  
BRANCH  24  25
HETATM   25  C   UNL     1     -14.260   8.734  72.272  1.00  0.00    -0.498 C  
BRANCH  25  26
HETATM   26  C   UNL     1     -12.957   9.498  72.226  1.00  0.00    -0.466 C  
BRANCH  26  27
HETATM   27  C   UNL     1     -13.082  10.642  71.235  1.00  0.00    -0.456 C  
BRANCH  27  28
HETATM   28  C   UNL     1     -12.664  11.937  71.899  1.00  0.00    -0.214 C  
BRANCH  28  29
HETATM   29  C   UNL     1     -13.887  12.756  72.260  1.00  0.00    -0.395 C  
BRANCH  29  30
HETATM   30  C   UNL     1     -13.470  14.182  72.559  1.00  0.00    -0.634 C  
BRANCH  30  31
HETATM   31  C   UNL     1     -14.071  15.134  71.545  1.00  0.00    -0.636 C  
BRANCH  31  32
HETATM   32  C   UNL     1     -13.164  15.241  70.334  1.00  0.00    -0.171 C  
BRANCH  32  33
HETATM   33  C   UNL     1     -11.709  15.273  70.769  1.00  0.00    -0.377 C  
BRANCH  33  34
HETATM   34  C   UNL     1     -10.929  16.274  69.930  1.00  0.00    -0.365 C  
BRANCH  34  35
HETATM   35  C   UNL     1     -11.484  16.321  68.513  1.00  0.00    -0.272 C  
BRANCH  35  36
HETATM   36  C   UNL     1     -10.408  16.759  67.529  1.00  0.00    -0.301 C  
BRANCH  36  37
HETATM   37  C   UNL     1      -9.060  16.152  67.906  1.00  0.00    -0.192 C  
BRANCH  37  38
HETATM   38  C   UNL     1      -8.654  15.066  66.916  1.00  0.00    -0.280 C  
HETATM   39  C   UNL     1      -8.084  13.857  67.639  1.00  0.00    -0.183 C  
ENDBRANCH  37  38
ENDBRANCH  36  37
ENDBRANCH  35  36
ENDBRANCH  34  35
ENDBRANCH  33  34
ENDBRANCH  32  33
ENDBRANCH  31  32
ENDBRANCH  30  31
ENDBRANCH  29  30
ENDBRANCH  28  29
ENDBRANCH  27  28
ENDBRANCH  26  27
ENDBRANCH  25  26
ENDBRANCH  24  25
ENDBRANCH  23  24
ENDBRANCH  22  23
ENDBRANCH  19  22
ENDBRANCH  18  19
ENDBRANCH  17  18
ENDBRANCH  16  17
ENDBRANCH  15  16
ENDBRANCH  14  15
ENDBRANCH  13  14
ENDBRANCH  12  13
ENDBRANCH  11  12
ENDBRANCH  10  11
ENDBRANCH   9  10
ENDBRANCH   8   9
ENDBRANCH   7   8
ENDBRANCH   6   7
ENDBRANCH   5   6
ENDBRANCH   4   5
ENDBRANCH   3   4
ENDBRANCH   2   3
TORSDOF 34
ENDMDL
MODEL       74
REMARK 921   NORMALIZED FREE ENERGY PREDICTED BY IDOCK:   -3.55 KCAL/MOL
REMARK 922        TOTAL FREE ENERGY PREDICTED BY IDOCK:  -16.93 KCAL/MOL
REMARK 923 INTER-LIGAND FREE ENERGY PREDICTED BY IDOCK:  -12.43 KCAL/MOL
REMARK 924 INTRA-LIGAND FREE ENERGY PREDICTED BY IDOCK:   -4.50 KCAL/MOL
REMARK 927      BINDING AFFINITY PREDICTED BY RF-SCORE:    0.00 PKD
ROOT
HETATM    1  C   UNL     1      -9.572   4.387  73.348  1.00  0.00    -0.139 C  
HETATM    2  C   UNL     1     -10.279   5.716  73.552  1.00  0.00    -0.227 C  
ENDROOT
BRANCH   2   3
HETATM    3  C   UNL     1      -9.283   6.865  73.586  1.00  0.00    -0.190 C  
BRANCH   3   4
HETATM    4  C   UNL     1      -9.803   8.067  72.804  1.00  0.00    -0.351 C  
BRANCH   4   5
HETATM    5  C   UNL     1     -11.326   8.091  72.805  1.00  0.00    -0.439 C  
BRANCH   5   6
HETATM    6  C   UNL     1     -11.856   8.486  71.433  1.00  0.00    -0.345 C  
BRANCH   6   7
HETATM    7  C   UNL     1     -13.257   9.067  71.559  1.00  0.00    -0.388 C  
BRANCH   7   8
HETATM    8  C   UNL     1     -13.184  10.530  71.965  1.00  0.00    -0.483 C  
BRANCH   8   9
HETATM    9  C   UNL     1     -12.460  11.335  70.901  1.00  0.00    -0.493 C  
BRANCH   9  10
HETATM   10  C   UNL     1     -12.705  12.817  71.118  1.00  0.00    -0.355 C  
BRANCH  10  11
HETATM   11  C   UNL     1     -13.604  13.030  72.321  1.00  0.00    -0.643 C  
BRANCH  11  12
HETATM   12  C   UNL     1     -13.533  14.482  72.752  1.00  0.00    -0.575 C  
BRANCH  12  13
HETATM   13  C   UNL     1     -13.323  15.375  71.548  1.00  0.00    -0.586 C  
BRANCH  13  14
HETATM   14  C   UNL     1     -12.072  16.211  71.745  1.00  0.00    -0.517 C  
BRANCH  14  15
HETATM   15  C   UNL     1     -11.079  15.881  70.654  1.00  0.00    -0.368 C  
BRANCH  15  16
HETATM   16  C   UNL     1     -11.762  15.817  69.298  1.00  0.00    -0.384 C  
BRANCH  16  17
HETATM   17  C   UNL     1     -10.826  16.449  68.285  1.00  0.00    -0.347 C  
BRANCH  17  18
HETATM   18  C   UNL     1      -9.449  16.692  68.874  1.00  0.00    -0.251 C  
BRANCH  18  19
HETATM   19  N   UNL     1      -8.361  16.799  67.784  1.00  0.00    -0.186 N  
HETATM   20  C   UNL     1      -8.890  16.271  66.447  1.00  0.00    -0.311 C  
HETATM   21  C   UNL     1      -7.907  18.252  67.625  1.00  0.00    -0.229 C  
BRANCH  19  22
HETATM   22  C   UNL     1      -7.191  15.922  68.282  1.00  0.00    -0.116 C  
BRANCH  22  23
HETATM   23  C   UNL     1      -7.668  14.597  68.843  1.00  0.00    -0.141 C  
BRANCH  23  24
HETATM   24  C   UNL     1      -7.254  13.435  67.959  1.00  0.00    -0.123 C  
BRANCH  24  25
HETATM   25  C   UNL     1      -8.336  12.374  68.064  1.00  0.00    -0.170 C  
BRANCH  25  26
HETATM   26  C   UNL     1      -9.695  13.003  68.265  1.00  0.00    -0.221 C  
BRANCH  26  27
HETATM   27  C   UNL     1     -10.765  12.059  67.747  1.00  0.00    -0.243 C  
BRANCH  27  28
HETATM   28  C   UNL     1     -12.007  12.847  67.387  1.00  0.00    -0.360 C  
BRANCH  28  29
HETATM   29  C   UNL     1     -11.733  13.732  66.187  1.00  0.00    -0.392 C  
BRANCH  29  30
HETATM   30  C   UNL     1     -12.730  13.416  65.089  1.00  0.00    -0.459 C  
BRANCH  30  31
HETATM   31  C   UNL     1     -12.027  13.308  63.750  1.00  0.00    -0.551 C  
BRANCH  31  32
HETATM   32  C   UNL     1     -11.660  11.862  63.474  1.00  0.00    -0.537 C  
BRANCH  32  33
HETATM   33  C   UNL     1     -10.151  11.713  63.379  1.00  0.00    -0.468 C  
BRANCH  33  34
HETATM   34  C   UNL     1      -9.750  10.262  63.594  1.00  0.00    -0.276 C  
BRANCH  34  35
HETATM   35  C   UNL     1      -8.581   9.898  62.689  1.00  0.00    -0.194 C  
BRANCH  35  36
HETATM   36  C   UNL     1      -7.288   9.809  63.490  1.00  0.00    -0.123 C  
BRANCH  36  37
HETATM   37  C   UNL     1      -7.447   8.836  64.654  1.00  0.00    -0.104 C  
BRANCH  37  38
HETATM   38  C   UNL     1      -7.101   9.507  65.978  1.00  0.00    -0.092 C  
HETATM   39  C   UNL     1      -5.808   8.951  66.548  1.00  0.00    -0.055 C  
ENDBRANCH  37  38
ENDBRANCH  36  37
ENDBRANCH  35  36
ENDBRANCH  34  35
ENDBRANCH  33  34
ENDBRANCH  32  33
ENDBRANCH  31  32
ENDBRANCH  30  31
ENDBRANCH  29  30
ENDBRANCH  28  29
ENDBRANCH  27  28
ENDBRANCH  26  27
ENDBRANCH  25  26
ENDBRANCH  24  25
ENDBRANCH  23  24
ENDBRANCH  22  23
ENDBRANCH  19  22
ENDBRANCH  18  19
ENDBRANCH  17  18
ENDBRANCH  16  17
ENDBRANCH  15  16
ENDBRANCH  14  15
ENDBRANCH  13  14
ENDBRANCH  12  13
ENDBRANCH  11  12
ENDBRANCH  10  11
ENDBRANCH   9  10
ENDBRANCH   8   9
ENDBRANCH   7   8
ENDBRANCH   6   7
ENDBRANCH   5   6
ENDBRANCH   4   5
ENDBRANCH   3   4
ENDBRANCH   2   3
TORSDOF 34
ENDMDL
MODEL       75
REMARK 921   NORMALIZED FREE ENERGY PREDICTED BY IDOCK:   -3.55 KCAL/MOL
REMARK 922        TOTAL FREE ENERGY PREDICTED BY IDOCK:  -16.92 KCAL/MOL
REMARK 923 INTER-LIGAND FREE ENERGY PREDICTED BY IDOCK:  -10.17 KCAL/MOL
REMARK 924 INTRA-LIGAND FREE ENERGY PREDICTED BY IDOCK:   -6.75 KCAL/MOL
REMARK 927      BINDING AFFINITY PREDICTED BY RF-SCORE:    0.00 PKD
ROOT
HETATM    1  C   UNL     1     -10.457  15.641  65.418  1.00  0.00    -0.435 C  
HETATM    2  C   UNL     1     -11.144  15.326  66.735  1.00  0.00    -0.278 C  
ENDROOT
BRANCH   2   3
HETATM    3  C   UNL     1     -11.950  14.040  66.636  1.00  0.00    -0.473 C  
BRANCH   3   4
HETATM    4  C   UNL     1     -12.590  13.896  65.258  1.00  0.00    -0.508 C  
BRANCH   4   5
HETATM    5  C   UNL     1     -12.409  12.481  64.725  1.00  0.00    -0.544 C  
BRANCH   5   6
HETATM    6  C   UNL     1     -11.609  12.496  63.430  1.00  0.00    -0.547 C  
BRANCH   6   7
HETATM    7  C   UNL     1     -10.258  11.828  63.640  1.00  0.00    -0.461 C  
BRANCH   7   8
HETATM    8  C   UNL     1     -10.403  10.626  64.559  1.00  0.00    -0.352 C  
BRANCH   8   9
HETATM    9  C   UNL     1      -9.172   9.741  64.463  1.00  0.00    -0.310 C  
BRANCH   9  10
HETATM   10  C   UNL     1      -7.928  10.549  64.783  1.00  0.00    -0.046 C  
BRANCH  10  11
HETATM   11  C   UNL     1      -7.538  10.360  66.237  1.00  0.00    -0.127 C  
BRANCH  11  12
HETATM   12  C   UNL     1      -7.406  11.715  66.904  1.00  0.00    -0.125 C  
BRANCH  12  13
HETATM   13  C   UNL     1      -8.775  12.321  67.130  1.00  0.00    -0.193 C  
BRANCH  13  14
HETATM   14  C   UNL     1      -9.373  11.766  68.410  1.00  0.00    -0.185 C  
BRANCH  14  15
HETATM   15  C   UNL     1     -10.556  10.891  68.065  1.00  0.00    -0.239 C  
BRANCH  15  16
HETATM   16  C   UNL     1     -11.764  11.251  68.914  1.00  0.00    -0.409 C  
BRANCH  16  17
HETATM   17  C   UNL     1     -11.552  10.646  70.289  1.00  0.00    -0.424 C  
BRANCH  17  18
HETATM   18  C   UNL     1     -11.779   9.146  70.280  1.00  0.00    -0.017 C  
BRANCH  18  19
HETATM   19  N   UNL     1     -12.341   8.634  71.623  1.00  0.00    -0.317 N  
HETATM   20  C   UNL     1     -13.314   9.656  72.218  1.00  0.00    -0.408 C  
HETATM   21  C   UNL     1     -13.052   7.294  71.427  1.00  0.00    -0.361 C  
BRANCH  19  22
HETATM   22  C   UNL     1     -11.114   8.463  72.545  1.00  0.00    -0.326 C  
BRANCH  22  23
HETATM   23  C   UNL     1      -9.999   7.684  71.876  1.00  0.00    -0.217 C  
BRANCH  23  24
HETATM   24  C   UNL     1      -8.634   8.238  72.238  1.00  0.00    -0.257 C  
BRANCH  24  25
HETATM   25  C   UNL     1      -8.120   9.010  71.036  1.00  0.00    -0.199 C  
BRANCH  25  26
HETATM   26  C   UNL     1      -8.544   8.347  69.745  1.00  0.00    -0.132 C  
BRANCH  26  27
HETATM   27  C   UNL     1      -7.320   7.774  69.052  1.00  0.00    -0.089 C  
BRANCH  27  28
HETATM   28  C   UNL     1      -7.702   7.282  67.672  1.00  0.00    -0.112 C  
BRANCH  28  29
HETATM   29  C   UNL     1      -9.211   7.226  67.538  1.00  0.00    -0.138 C  
BRANCH  29  30
HETATM   30  C   UNL     1      -9.587   6.188  66.499  1.00  0.00    -0.183 C  
BRANCH  30  31
HETATM   31  C   UNL     1     -10.280   5.010  67.154  1.00  0.00    -0.234 C  
BRANCH  31  32
HETATM   32  C   UNL     1     -10.488   5.287  68.631  1.00  0.00    -0.148 C  
BRANCH  32  33
HETATM   33  C   UNL     1      -9.883   4.171  69.465  1.00  0.00    -0.183 C  
BRANCH  33  34
HETATM   34  C   UNL     1      -8.679   4.684  70.239  1.00  0.00    -0.113 C  
BRANCH  34  35
HETATM   35  C   UNL     1      -8.331   3.727  71.370  1.00  0.00    -0.085 C  
BRANCH  35  36
HETATM   36  C   UNL     1      -9.590   3.273  72.096  1.00  0.00    -0.208 C  
BRANCH  36  37
HETATM   37  C   UNL     1      -9.366   3.275  73.605  1.00  0.00    -0.109 C  
BRANCH  37  38
HETATM   38  C   UNL     1     -10.406   4.137  74.311  1.00  0.00    -0.272 C  
HETATM   39  C   UNL     1     -11.336   4.798  73.308  1.00  0.00    -0.408 C  
ENDBRANCH  37  38
ENDBRANCH  36  37
ENDBRANCH  35  36
ENDBRANCH  34  35
ENDBRANCH  33  34
ENDBRANCH  32  33
ENDBRANCH  31  32
ENDBRANCH  30  31
ENDBRANCH  29  30
ENDBRANCH  28  29
ENDBRANCH  27  28
ENDBRANCH  26  27
ENDBRANCH  25  26
ENDBRANCH  24  25
ENDBRANCH  23  24
ENDBRANCH  22  23
ENDBRANCH  19  22
ENDBRANCH  18  19
ENDBRANCH  17  18
ENDBRANCH  16  17
ENDBRANCH  15  16
ENDBRANCH  14  15
ENDBRANCH  13  14
ENDBRANCH  12  13
ENDBRANCH  11  12
ENDBRANCH  10  11
ENDBRANCH   9  10
ENDBRANCH   8   9
ENDBRANCH   7   8
ENDBRANCH   6   7
ENDBRANCH   5   6
ENDBRANCH   4   5
ENDBRANCH   3   4
ENDBRANCH   2   3
TORSDOF 34
ENDMDL
MODEL       76
REMARK 921   NORMALIZED FREE ENERGY PREDICTED BY IDOCK:   -3.54 KCAL/MOL
REMARK 922        TOTAL FREE ENERGY PREDICTED BY IDOCK:  -16.89 KCAL/MOL
REMARK 923 INTER-LIGAND FREE ENERGY PREDICTED BY IDOCK:   -9.82 KCAL/MOL
REMARK 924 INTRA-LIGAND FREE ENERGY PREDICTED BY IDOCK:   -7.07 KCAL/MOL
REMARK 927      BINDING AFFINITY PREDICTED BY RF-SCORE:    0.00 PKD
ROOT
HETATM    1  C   UNL     1      -6.963  14.142  69.572  1.00  0.00    -0.042 C  
HETATM    2  C   UNL     1      -7.496  13.610  68.254  1.00  0.00    -0.124 C  
ENDROOT
BRANCH   2   3
HETATM    3  C   UNL     1      -8.829  12.903  68.450  1.00  0.00    -0.120 C  
BRANCH   3   4
HETATM    4  C   UNL     1      -9.991  13.889  68.368  1.00  0.00    -0.233 C  
BRANCH   4   5
HETATM    5  C   UNL     1      -9.771  14.888  67.240  1.00  0.00    -0.228 C  
BRANCH   5   6
HETATM    6  C   UNL     1     -11.082  15.188  66.528  1.00  0.00    -0.305 C  
BRANCH   6   7
HETATM    7  C   UNL     1     -12.135  14.158  66.909  1.00  0.00    -0.466 C  
BRANCH   7   8
HETATM    8  C   UNL     1     -12.769  13.568  65.660  1.00  0.00    -0.478 C  
BRANCH   8   9
HETATM    9  C   UNL     1     -12.279  14.304  64.425  1.00  0.00    -0.471 C  
BRANCH   9  10
HETATM   10  C   UNL     1     -11.981  13.312  63.316  1.00  0.00    -0.376 C  
BRANCH  10  11
HETATM   11  C   UNL     1     -11.817  11.917  63.889  1.00  0.00    -0.509 C  
BRANCH  11  12
HETATM   12  C   UNL     1     -10.364  11.496  63.782  1.00  0.00    -0.450 C  
BRANCH  12  13
HETATM   13  C   UNL     1      -9.682  11.623  65.128  1.00  0.00    -0.245 C  
BRANCH  13  14
HETATM   14  C   UNL     1     -10.394  10.749  66.144  1.00  0.00    -0.300 C  
BRANCH  14  15
HETATM   15  C   UNL     1      -9.625   9.458  66.310  1.00  0.00    -0.297 C  
BRANCH  15  16
HETATM   16  C   UNL     1      -8.320   9.694  67.051  1.00  0.00    -0.117 C  
BRANCH  16  17
HETATM   17  C   UNL     1      -7.572   8.375  67.089  1.00  0.00    -0.093 C  
BRANCH  17  18
HETATM   18  C   UNL     1      -8.208   7.345  66.175  1.00  0.00    -0.130 C  
BRANCH  18  19
HETATM   19  N   UNL     1      -8.067   5.910  66.727  1.00  0.00    -0.102 N  
HETATM   20  C   UNL     1      -9.444   5.325  67.051  1.00  0.00    -0.134 C  
HETATM   21  C   UNL     1      -7.349   5.018  65.713  1.00  0.00    -0.077 C  
BRANCH  19  22
HETATM   22  C   UNL     1      -7.225   6.046  68.015  1.00  0.00    -0.080 C  
BRANCH  22  23
HETATM   23  C   UNL     1      -7.752   5.173  69.138  1.00  0.00    -0.080 C  
BRANCH  23  24
HETATM   24  C   UNL     1      -6.753   5.063  70.275  1.00  0.00    -0.036 C  
BRANCH  24  25
HETATM   25  C   UNL     1      -7.523   5.224  71.575  1.00  0.00    -0.096 C  
BRANCH  25  26
HETATM   26  C   UNL     1      -7.182   6.533  72.248  1.00  0.00    -0.086 C  
BRANCH  26  27
HETATM   27  C   UNL     1      -7.955   6.642  73.551  1.00  0.00    -0.097 C  
BRANCH  27  28
HETATM   28  C   UNL     1      -8.868   7.849  73.501  1.00  0.00    -0.333 C  
BRANCH  28  29
HETATM   29  C   UNL     1     -10.316   7.410  73.584  1.00  0.00    -0.367 C  
BRANCH  29  30
HETATM   30  C   UNL     1     -10.378   5.924  73.879  1.00  0.00    -0.287 C  
BRANCH  30  31
HETATM   31  C   UNL     1     -11.251   5.218  72.862  1.00  0.00    -0.375 C  
BRANCH  31  32
HETATM   32  C   UNL     1     -11.747   6.210  71.826  1.00  0.00    -0.312 C  
BRANCH  32  33
HETATM   33  C   UNL     1     -11.056   5.968  70.495  1.00  0.00    -0.385 C  
BRANCH  33  34
HETATM   34  C   UNL     1     -11.106   7.225  69.639  1.00  0.00    -0.161 C  
BRANCH  34  35
HETATM   35  C   UNL     1      -9.880   8.090  69.900  1.00  0.00    -0.186 C  
BRANCH  35  36
HETATM   36  C   UNL     1     -10.265   9.349  70.665  1.00  0.00    -0.353 C  
BRANCH  36  37
HETATM   37  C   UNL     1     -11.107  10.270  69.789  1.00  0.00    -0.340 C  
BRANCH  37  38
HETATM   38  C   UNL     1     -12.436  10.598  70.461  1.00  0.00    -0.445 C  
HETATM   39  C   UNL     1     -12.559   9.889  71.799  1.00  0.00    -0.506 C  
ENDBRANCH  37  38
ENDBRANCH  36  37
ENDBRANCH  35  36
ENDBRANCH  34  35
ENDBRANCH  33  34
ENDBRANCH  32  33
ENDBRANCH  31  32
ENDBRANCH  30  31
ENDBRANCH  29  30
ENDBRANCH  28  29
ENDBRANCH  27  28
ENDBRANCH  26  27
ENDBRANCH  25  26
ENDBRANCH  24  25
ENDBRANCH  23  24
ENDBRANCH  22  23
ENDBRANCH  19  22
ENDBRANCH  18  19
ENDBRANCH  17  18
ENDBRANCH  16  17
ENDBRANCH  15  16
ENDBRANCH  14  15
ENDBRANCH  13  14
ENDBRANCH  12  13
ENDBRANCH  11  12
ENDBRANCH  10  11
ENDBRANCH   9  10
ENDBRANCH   8   9
ENDBRANCH   7   8
ENDBRANCH   6   7
ENDBRANCH   5   6
ENDBRANCH   4   5
ENDBRANCH   3   4
ENDBRANCH   2   3
TORSDOF 34
ENDMDL
MODEL       77
REMARK 921   NORMALIZED FREE ENERGY PREDICTED BY IDOCK:   -3.53 KCAL/MOL
REMARK 922        TOTAL FREE ENERGY PREDICTED BY IDOCK:  -16.88 KCAL/MOL
REMARK 923 INTER-LIGAND FREE ENERGY PREDICTED BY IDOCK:  -10.66 KCAL/MOL
REMARK 924 INTRA-LIGAND FREE ENERGY PREDICTED BY IDOCK:   -6.23 KCAL/MOL
REMARK 927      BINDING AFFINITY PREDICTED BY RF-SCORE:    0.00 PKD
ROOT
HETATM    1  C   UNL     1      -6.758  17.450  66.079  1.00  0.00    -0.199 C  
HETATM    2  C   UNL     1      -6.766  16.326  67.099  1.00  0.00    -0.237 C  
ENDROOT
BRANCH   2   3
HETATM    3  C   UNL     1      -7.834  15.295  66.768  1.00  0.00    -0.041 C  
BRANCH   3   4
HETATM    4  C   UNL     1      -8.438  14.701  68.038  1.00  0.00    -0.154 C  
BRANCH   4   5
HETATM    5  C   UNL     1      -8.763  15.799  69.043  1.00  0.00    -0.237 C  
BRANCH   5   6
HETATM    6  C   UNL     1     -10.255  16.101  69.040  1.00  0.00    -0.250 C  
BRANCH   6   7
HETATM    7  C   UNL     1     -10.486  17.605  69.082  1.00  0.00    -0.128 C  
BRANCH   7   8
HETATM    8  C   UNL     1      -9.185  18.344  68.813  1.00  0.00    -0.277 C  
BRANCH   8   9
HETATM    9  C   UNL     1      -9.343  19.264  67.615  1.00  0.00    -0.371 C  
BRANCH   9  10
HETATM   10  C   UNL     1     -10.769  19.200  67.099  1.00  0.00    -0.567 C  
BRANCH  10  11
HETATM   11  C   UNL     1     -10.784  18.750  65.650  1.00  0.00    -0.164 C  
BRANCH  11  12
HETATM   12  C   UNL     1     -10.307  17.313  65.564  1.00  0.00    -0.108 C  
BRANCH  12  13
HETATM   13  C   UNL     1     -11.256  16.498  64.710  1.00  0.00    -0.150 C  
BRANCH  13  14
HETATM   14  C   UNL     1     -10.920  15.024  64.842  1.00  0.00    -0.427 C  
BRANCH  14  15
HETATM   15  C   UNL     1     -12.178  14.260  65.189  1.00  0.00    -0.422 C  
BRANCH  15  16
HETATM   16  C   UNL     1     -11.846  12.970  65.921  1.00  0.00    -0.468 C  
BRANCH  16  17
HETATM   17  C   UNL     1     -10.435  12.574  65.530  1.00  0.00    -0.305 C  
BRANCH  17  18
HETATM   18  C   UNL     1     -10.411  11.250  64.790  1.00  0.00    -0.323 C  
BRANCH  18  19
HETATM   19  N   UNL     1      -9.198  10.383  65.186  1.00  0.00    -0.191 N  
HETATM   20  C   UNL     1      -9.664   9.041  65.758  1.00  0.00    -0.184 C  
HETATM   21  C   UNL     1      -8.294  10.145  63.974  1.00  0.00    -0.172 C  
BRANCH  19  22
HETATM   22  C   UNL     1      -8.447  11.194  66.266  1.00  0.00    -0.168 C  
BRANCH  22  23
HETATM   23  C   UNL     1      -8.145  10.364  67.498  1.00  0.00    -0.107 C  
BRANCH  23  24
HETATM   24  C   UNL     1      -8.683  11.017  68.758  1.00  0.00    -0.146 C  
BRANCH  24  25
HETATM   25  C   UNL     1      -9.913  10.237  69.187  1.00  0.00    -0.235 C  
BRANCH  25  26
HETATM   26  C   UNL     1     -11.164  10.812  68.566  1.00  0.00    -0.340 C  
BRANCH  26  27
HETATM   27  C   UNL     1     -12.157  11.151  69.663  1.00  0.00    -0.406 C  
BRANCH  27  28
HETATM   28  C   UNL     1     -11.747  10.464  70.949  1.00  0.00    -0.455 C  
BRANCH  28  29
HETATM   29  C   UNL     1     -12.976  10.021  71.718  1.00  0.00    -0.560 C  
BRANCH  29  30
HETATM   30  C   UNL     1     -12.689   8.705  72.413  1.00  0.00    -0.423 C  
BRANCH  30  31
HETATM   31  C   UNL     1     -13.056   7.540  71.516  1.00  0.00    -0.402 C  
BRANCH  31  32
HETATM   32  C   UNL     1     -12.118   6.374  71.771  1.00  0.00    -0.351 C  
BRANCH  32  33
HETATM   33  C   UNL     1     -11.155   6.212  70.607  1.00  0.00    -0.384 C  
BRANCH  33  34
HETATM   34  C   UNL     1     -10.136   5.125  70.914  1.00  0.00    -0.302 C  
BRANCH  34  35
HETATM   35  C   UNL     1      -8.763   5.528  70.395  1.00  0.00    -0.136 C  
BRANCH  35  36
HETATM   36  C   UNL     1      -8.670   7.040  70.236  1.00  0.00    -0.144 C  
BRANCH  36  37
HETATM   37  C   UNL     1      -7.916   7.655  71.411  1.00  0.00    -0.094 C  
BRANCH  37  38
HETATM   38  C   UNL     1      -8.846   8.498  72.276  1.00  0.00    -0.279 C  
HETATM   39  C   UNL     1      -9.192   7.775  73.567  1.00  0.00    -0.350 C  
ENDBRANCH  37  38
ENDBRANCH  36  37
ENDBRANCH  35  36
ENDBRANCH  34  35
ENDBRANCH  33  34
ENDBRANCH  32  33
ENDBRANCH  31  32
ENDBRANCH  30  31
ENDBRANCH  29  30
ENDBRANCH  28  29
ENDBRANCH  27  28
ENDBRANCH  26  27
ENDBRANCH  25  26
ENDBRANCH  24  25
ENDBRANCH  23  24
ENDBRANCH  22  23
ENDBRANCH  19  22
ENDBRANCH  18  19
ENDBRANCH  17  18
ENDBRANCH  16  17
ENDBRANCH  15  16
ENDBRANCH  14  15
ENDBRANCH  13  14
ENDBRANCH  12  13
ENDBRANCH  11  12
ENDBRANCH  10  11
ENDBRANCH   9  10
ENDBRANCH   8   9
ENDBRANCH   7   8
ENDBRANCH   6   7
ENDBRANCH   5   6
ENDBRANCH   4   5
ENDBRANCH   3   4
ENDBRANCH   2   3
TORSDOF 34
ENDMDL
MODEL       78
REMARK 921   NORMALIZED FREE ENERGY PREDICTED BY IDOCK:   -3.53 KCAL/MOL
REMARK 922        TOTAL FREE ENERGY PREDICTED BY IDOCK:  -16.87 KCAL/MOL
REMARK 923 INTER-LIGAND FREE ENERGY PREDICTED BY IDOCK:   -9.57 KCAL/MOL
REMARK 924 INTRA-LIGAND FREE ENERGY PREDICTED BY IDOCK:   -7.31 KCAL/MOL
REMARK 927      BINDING AFFINITY PREDICTED BY RF-SCORE:    0.00 PKD
ROOT
HETATM    1  C   UNL     1      -6.437   6.971  67.151  1.00  0.00    -0.053 C  
HETATM    2  C   UNL     1      -6.695   6.586  65.705  1.00  0.00    -0.048 C  
ENDROOT
BRANCH   2   3
HETATM    3  C   UNL     1      -7.489   7.666  64.986  1.00  0.00    -0.090 C  
BRANCH   3   4
HETATM    4  C   UNL     1      -6.677   8.951  64.857  1.00  0.00    -0.069 C  
BRANCH   4   5
HETATM    5  C   UNL     1      -7.326   9.900  63.857  1.00  0.00    -0.131 C  
BRANCH   5   6
HETATM    6  C   UNL     1      -8.786   9.531  63.640  1.00  0.00    -0.236 C  
BRANCH   6   7
HETATM    7  C   UNL     1      -9.573  10.749  63.177  1.00  0.00    -0.385 C  
BRANCH   7   8
HETATM    8  C   UNL     1     -10.543  11.191  64.260  1.00  0.00    -0.425 C  
BRANCH   8   9
HETATM    9  C   UNL     1     -11.749  11.874  63.637  1.00  0.00    -0.572 C  
BRANCH   9  10
HETATM   10  C   UNL     1     -12.408  12.785  64.656  1.00  0.00    -0.524 C  
BRANCH  10  11
HETATM   11  C   UNL     1     -11.733  12.640  66.007  1.00  0.00    -0.470 C  
BRANCH  11  12
HETATM   12  C   UNL     1     -11.312  14.007  66.509  1.00  0.00    -0.343 C  
BRANCH  12  13
HETATM   13  C   UNL     1     -11.978  14.304  67.837  1.00  0.00    -0.364 C  
BRANCH  13  14
HETATM   14  C   UNL     1     -11.110  13.785  68.969  1.00  0.00    -0.296 C  
BRANCH  14  15
HETATM   15  C   UNL     1     -11.983  13.072  69.975  1.00  0.00    -0.383 C  
BRANCH  15  16
HETATM   16  C   UNL     1     -12.276  11.649  69.529  1.00  0.00    -0.257 C  
BRANCH  16  17
HETATM   17  C   UNL     1     -12.353  10.787  70.775  1.00  0.00    -0.480 C  
BRANCH  17  18
HETATM   18  C   UNL     1     -11.761   9.410  70.539  1.00  0.00    -0.198 C  
BRANCH  18  19
HETATM   19  N   UNL     1     -12.127   8.419  71.664  1.00  0.00    -0.297 N  
HETATM   20  C   UNL     1     -13.276   8.972  72.511  1.00  0.00    -0.406 C  
HETATM   21  C   UNL     1     -12.523   7.064  71.072  1.00  0.00    -0.326 C  
BRANCH  19  22
HETATM   22  C   UNL     1     -10.849   8.278  72.521  1.00  0.00    -0.351 C  
BRANCH  22  23
HETATM   23  C   UNL     1      -9.615   8.777  71.795  1.00  0.00    -0.371 C  
BRANCH  23  24
HETATM   24  C   UNL     1      -8.537   7.712  71.727  1.00  0.00    -0.130 C  
BRANCH  24  25
HETATM   25  C   UNL     1      -7.625   8.058  70.564  1.00  0.00    -0.076 C  
BRANCH  25  26
HETATM   26  C   UNL     1      -6.532   9.008  70.996  1.00  0.00    -0.068 C  
BRANCH  26  27
HETATM   27  C   UNL     1      -6.723  10.342  70.296  1.00  0.00    -0.143 C  
BRANCH  27  28
HETATM   28  C   UNL     1      -7.226  10.109  68.887  1.00  0.00    -0.079 C  
BRANCH  28  29
HETATM   29  C   UNL     1      -8.084  11.276  68.440  1.00  0.00    -0.143 C  
BRANCH  29  30
HETATM   30  C   UNL     1      -9.189  10.772  67.534  1.00  0.00    -0.150 C  
BRANCH  30  31
HETATM   31  C   UNL     1      -9.233   9.257  67.543  1.00  0.00    -0.140 C  
BRANCH  31  32
HETATM   32  C   UNL     1     -10.593   8.775  67.076  1.00  0.00    -0.283 C  
BRANCH  32  33
HETATM   33  C   UNL     1     -10.530   7.302  66.709  1.00  0.00    -0.311 C  
BRANCH  33  34
HETATM   34  C   UNL     1     -11.021   6.448  67.868  1.00  0.00    -0.416 C  
BRANCH  34  35
HETATM   35  C   UNL     1      -9.845   5.775  68.562  1.00  0.00    -0.177 C  
BRANCH  35  36
HETATM   36  C   UNL     1      -9.593   4.393  67.973  1.00  0.00    -0.204 C  
BRANCH  36  37
HETATM   37  C   UNL     1      -8.259   3.839  68.462  1.00  0.00    -0.083 C  
BRANCH  37  38
HETATM   38  C   UNL     1      -7.894   4.417  69.825  1.00  0.00    -0.057 C  
HETATM   39  C   UNL     1      -6.387   4.493  69.997  1.00  0.00    -0.027 C  
ENDBRANCH  37  38
ENDBRANCH  36  37
ENDBRANCH  35  36
ENDBRANCH  34  35
ENDBRANCH  33  34
ENDBRANCH  32  33
ENDBRANCH  31  32
ENDBRANCH  30  31
ENDBRANCH  29  30
ENDBRANCH  28  29
ENDBRANCH  27  28
ENDBRANCH  26  27
ENDBRANCH  25  26
ENDBRANCH  24  25
ENDBRANCH  23  24
ENDBRANCH  22  23
ENDBRANCH  19  22
ENDBRANCH  18  19
ENDBRANCH  17  18
ENDBRANCH  16  17
ENDBRANCH  15  16
ENDBRANCH  14  15
ENDBRANCH  13  14
ENDBRANCH  12  13
ENDBRANCH  11  12
ENDBRANCH  10  11
ENDBRANCH   9  10
ENDBRANCH   8   9
ENDBRANCH   7   8
ENDBRANCH   6   7
ENDBRANCH   5   6
ENDBRANCH   4   5
ENDBRANCH   3   4
ENDBRANCH   2   3
TORSDOF 34
ENDMDL
MODEL       79
REMARK 921   NORMALIZED FREE ENERGY PREDICTED BY IDOCK:   -3.52 KCAL/MOL
REMARK 922        TOTAL FREE ENERGY PREDICTED BY IDOCK:  -16.83 KCAL/MOL
REMARK 923 INTER-LIGAND FREE ENERGY PREDICTED BY IDOCK:  -10.17 KCAL/MOL
REMARK 924 INTRA-LIGAND FREE ENERGY PREDICTED BY IDOCK:   -6.67 KCAL/MOL
REMARK 927      BINDING AFFINITY PREDICTED BY RF-SCORE:    0.00 PKD
ROOT
HETATM    1  C   UNL     1      -9.105  10.268  63.593  1.00  0.00    -0.284 C  
HETATM    2  C   UNL     1      -8.799  10.163  65.077  1.00  0.00    -0.205 C  
ENDROOT
BRANCH   2   3
HETATM    3  C   UNL     1     -10.020   9.693  65.854  1.00  0.00    -0.351 C  
BRANCH   3   4
HETATM    4  C   UNL     1      -9.714   8.422  66.642  1.00  0.00    -0.320 C  
BRANCH   4   5
HETATM    5  C   UNL     1      -8.223   8.113  66.606  1.00  0.00    -0.103 C  
BRANCH   5   6
HETATM    6  C   UNL     1      -7.982   6.697  66.101  1.00  0.00    -0.110 C  
BRANCH   6   7
HETATM    7  C   UNL     1      -8.818   5.706  66.898  1.00  0.00    -0.113 C  
BRANCH   7   8
HETATM    8  C   UNL     1      -8.089   5.310  68.172  1.00  0.00    -0.095 C  
BRANCH   8   9
HETATM    9  C   UNL     1      -8.775   5.924  69.381  1.00  0.00    -0.116 C  
BRANCH   9  10
HETATM   10  C   UNL     1     -10.137   5.285  69.582  1.00  0.00    -0.327 C  
BRANCH  10  11
HETATM   11  C   UNL     1     -11.236   6.285  69.276  1.00  0.00    -0.458 C  
BRANCH  11  12
HETATM   12  C   UNL     1     -10.978   7.569  70.041  1.00  0.00    -0.252 C  
BRANCH  12  13
HETATM   13  C   UNL     1     -11.842   7.620  71.283  1.00  0.00    -0.316 C  
BRANCH  13  14
HETATM   14  C   UNL     1     -11.060   8.250  72.421  1.00  0.00    -0.447 C  
BRANCH  14  15
HETATM   15  C   UNL     1      -9.695   8.659  71.917  1.00  0.00    -0.383 C  
BRANCH  15  16
HETATM   16  C   UNL     1      -8.595   8.011  72.740  1.00  0.00    -0.252 C  
BRANCH  16  17
HETATM   17  C   UNL     1      -7.308   8.112  71.943  1.00  0.00    -0.099 C  
BRANCH  17  18
HETATM   18  C   UNL     1      -7.464   9.031  70.746  1.00  0.00    -0.115 C  
BRANCH  18  19
HETATM   19  N   UNL     1      -6.109   9.593  70.264  1.00  0.00    -0.055 N  
HETATM   20  C   UNL     1      -5.214   9.929  71.460  1.00  0.00    -0.076 C  
HETATM   21  C   UNL     1      -5.406   8.581  69.357  1.00  0.00    -0.031 C  
BRANCH  19  22
HETATM   22  C   UNL     1      -6.453  10.875  69.474  1.00  0.00    -0.095 C  
BRANCH  22  23
HETATM   23  C   UNL     1      -7.886  10.876  68.979  1.00  0.00    -0.138 C  
BRANCH  23  24
HETATM   24  C   UNL     1      -8.211  12.142  68.209  1.00  0.00    -0.168 C  
BRANCH  24  25
HETATM   25  C   UNL     1      -6.910  12.671  67.631  1.00  0.00    -0.144 C  
BRANCH  25  26
HETATM   26  C   UNL     1      -6.876  14.182  67.665  1.00  0.00    -0.196 C  
BRANCH  26  27
HETATM   27  C   UNL     1      -8.291  14.710  67.821  1.00  0.00    -0.168 C  
BRANCH  27  28
HETATM   28  C   UNL     1      -8.595  15.688  66.705  1.00  0.00    -0.330 C  
BRANCH  28  29
HETATM   29  C   UNL     1      -9.709  15.150  65.829  1.00  0.00    -0.379 C  
BRANCH  29  30
HETATM   30  C   UNL     1     -10.583  14.215  66.642  1.00  0.00    -0.278 C  
BRANCH  30  31
HETATM   31  C   UNL     1     -11.347  13.276  65.730  1.00  0.00    -0.328 C  
BRANCH  31  32
HETATM   32  C   UNL     1     -11.908  12.117  66.531  1.00  0.00    -0.322 C  
BRANCH  32  33
HETATM   33  C   UNL     1     -11.926  12.462  68.011  1.00  0.00    -0.264 C  
BRANCH  33  34
HETATM   34  C   UNL     1     -11.770  11.202  68.848  1.00  0.00    -0.406 C  
BRANCH  34  35
HETATM   35  C   UNL     1     -11.724  11.554  70.328  1.00  0.00    -0.379 C  
BRANCH  35  36
HETATM   36  C   UNL     1     -12.409  12.890  70.584  1.00  0.00    -0.385 C  
BRANCH  36  37
HETATM   37  C   UNL     1     -13.184  12.850  71.897  1.00  0.00    -0.521 C  
BRANCH  37  38
HETATM   38  C   UNL     1     -14.047  14.096  72.061  1.00  0.00    -0.619 C  
HETATM   39  C   UNL     1     -13.543  15.226  71.180  1.00  0.00    -0.540 C  
ENDBRANCH  37  38
ENDBRANCH  36  37
ENDBRANCH  35  36
ENDBRANCH  34  35
ENDBRANCH  33  34
ENDBRANCH  32  33
ENDBRANCH  31  32
ENDBRANCH  30  31
ENDBRANCH  29  30
ENDBRANCH  28  29
ENDBRANCH  27  28
ENDBRANCH  26  27
ENDBRANCH  25  26
ENDBRANCH  24  25
ENDBRANCH  23  24
ENDBRANCH  22  23
ENDBRANCH  19  22
ENDBRANCH  18  19
ENDBRANCH  17  18
ENDBRANCH  16  17
ENDBRANCH  15  16
ENDBRANCH  14  15
ENDBRANCH  13  14
ENDBRANCH  12  13
ENDBRANCH  11  12
ENDBRANCH  10  11
ENDBRANCH   9  10
ENDBRANCH   8   9
ENDBRANCH   7   8
ENDBRANCH   6   7
ENDBRANCH   5   6
ENDBRANCH   4   5
ENDBRANCH   3   4
ENDBRANCH   2   3
TORSDOF 34
ENDMDL
MODEL       80
REMARK 921   NORMALIZED FREE ENERGY PREDICTED BY IDOCK:   -3.51 KCAL/MOL
REMARK 922        TOTAL FREE ENERGY PREDICTED BY IDOCK:  -16.81 KCAL/MOL
REMARK 923 INTER-LIGAND FREE ENERGY PREDICTED BY IDOCK:   -9.69 KCAL/MOL
REMARK 924 INTRA-LIGAND FREE ENERGY PREDICTED BY IDOCK:   -7.12 KCAL/MOL
REMARK 927      BINDING AFFINITY PREDICTED BY RF-SCORE:    0.00 PKD
ROOT
HETATM    1  C   UNL     1     -10.532   5.865  68.887  1.00  0.00    -0.325 C  
HETATM    2  C   UNL     1     -10.979   6.322  67.510  1.00  0.00    -0.444 C  
ENDROOT
BRANCH   2   3
HETATM    3  C   UNL     1     -10.631   5.286  66.451  1.00  0.00    -0.338 C  
BRANCH   3   4
HETATM    4  C   UNL     1      -9.790   4.158  67.042  1.00  0.00    -0.190 C  
BRANCH   4   5
HETATM    5  C   UNL     1      -8.847   3.584  65.993  1.00  0.00    -0.129 C  
BRANCH   5   6
HETATM    6  C   UNL     1      -7.403   3.940  66.319  1.00  0.00    -0.076 C  
BRANCH   6   7
HETATM    7  C   UNL     1      -7.261   4.248  67.802  1.00  0.00    -0.064 C  
BRANCH   7   8
HETATM    8  C   UNL     1      -6.556   5.580  67.997  1.00  0.00    -0.049 C  
BRANCH   8   9
HETATM    9  C   UNL     1      -6.675   6.425  66.740  1.00  0.00    -0.060 C  
BRANCH   9  10
HETATM   10  C   UNL     1      -7.469   7.683  67.037  1.00  0.00    -0.095 C  
BRANCH  10  11
HETATM   11  C   UNL     1      -8.347   8.043  65.853  1.00  0.00    -0.136 C  
BRANCH  11  12
HETATM   12  C   UNL     1      -7.961   7.189  64.661  1.00  0.00    -0.114 C  
BRANCH  12  13
HETATM   13  C   UNL     1      -7.676   8.066  63.460  1.00  0.00    -0.140 C  
BRANCH  13  14
HETATM   14  C   UNL     1      -7.637   9.521  63.890  1.00  0.00    -0.122 C  
BRANCH  14  15
HETATM   15  C   UNL     1      -8.076  10.391  62.734  1.00  0.00    -0.165 C  
BRANCH  15  16
HETATM   16  C   UNL     1      -9.587  10.547  62.714  1.00  0.00    -0.323 C  
BRANCH  16  17
HETATM   17  C   UNL     1     -10.011  11.055  64.078  1.00  0.00    -0.390 C  
BRANCH  17  18
HETATM   18  C   UNL     1     -10.306  12.544  64.053  1.00  0.00    -0.404 C  
BRANCH  18  19
HETATM   19  N   UNL     1     -11.765  12.855  64.447  1.00  0.00    -0.349 N  
HETATM   20  C   UNL     1     -12.058  14.348  64.273  1.00  0.00    -0.436 C  
HETATM   21  C   UNL     1     -12.734  12.033  63.595  1.00  0.00    -0.431 C  
BRANCH  19  22
HETATM   22  C   UNL     1     -11.884  12.455  65.935  1.00  0.00    -0.405 C  
BRANCH  22  23
HETATM   23  C   UNL     1     -11.190  13.444  66.850  1.00  0.00    -0.330 C  
BRANCH  23  24
HETATM   24  C   UNL     1     -10.741  12.788  68.143  1.00  0.00    -0.243 C  
BRANCH  24  25
HETATM   25  C   UNL     1     -10.310  11.370  67.810  1.00  0.00    -0.206 C  
BRANCH  25  26
HETATM   26  C   UNL     1      -8.809  11.282  67.654  1.00  0.00    -0.138 C  
BRANCH  26  27
HETATM   27  C   UNL     1      -8.206  10.724  68.931  1.00  0.00    -0.149 C  
BRANCH  27  28
HETATM   28  C   UNL     1      -9.126   9.669  69.509  1.00  0.00    -0.209 C  
BRANCH  28  29
HETATM   29  C   UNL     1      -8.576   9.164  70.828  1.00  0.00    -0.265 C  
BRANCH  29  30
HETATM   30  C   UNL     1      -7.728   7.931  70.583  1.00  0.00    -0.090 C  
BRANCH  30  31
HETATM   31  C   UNL     1      -7.620   7.103  71.848  1.00  0.00    -0.087 C  
BRANCH  31  32
HETATM   32  C   UNL     1      -8.728   6.067  71.885  1.00  0.00    -0.137 C  
BRANCH  32  33
HETATM   33  C   UNL     1      -9.627   6.304  73.087  1.00  0.00    -0.154 C  
BRANCH  33  34
HETATM   34  C   UNL     1     -11.071   6.475  72.640  1.00  0.00    -0.291 C  
BRANCH  34  35
HETATM   35  C   UNL     1     -11.472   7.942  72.701  1.00  0.00    -0.454 C  
BRANCH  35  36
HETATM   36  C   UNL     1     -12.070   8.391  71.374  1.00  0.00    -0.337 C  
BRANCH  36  37
HETATM   37  C   UNL     1     -13.419   9.067  71.597  1.00  0.00    -0.442 C  
BRANCH  37  38
HETATM   38  C   UNL     1     -13.240  10.530  71.984  1.00  0.00    -0.483 C  
HETATM   39  C   UNL     1     -12.430  11.275  70.937  1.00  0.00    -0.493 C  
ENDBRANCH  37  38
ENDBRANCH  36  37
ENDBRANCH  35  36
ENDBRANCH  34  35
ENDBRANCH  33  34
ENDBRANCH  32  33
ENDBRANCH  31  32
ENDBRANCH  30  31
ENDBRANCH  29  30
ENDBRANCH  28  29
ENDBRANCH  27  28
ENDBRANCH  26  27
ENDBRANCH  25  26
ENDBRANCH  24  25
ENDBRANCH  23  24
ENDBRANCH  22  23
ENDBRANCH  19  22
ENDBRANCH  18  19
ENDBRANCH  17  18
ENDBRANCH  16  17
ENDBRANCH  15  16
ENDBRANCH  14  15
ENDBRANCH  13  14
ENDBRANCH  12  13
ENDBRANCH  11  12
ENDBRANCH  10  11
ENDBRANCH   9  10
ENDBRANCH   8   9
ENDBRANCH   7   8
ENDBRANCH   6   7
ENDBRANCH   5   6
ENDBRANCH   4   5
ENDBRANCH   3   4
ENDBRANCH   2   3
TORSDOF 34
ENDMDL
MODEL       81
REMARK 921   NORMALIZED FREE ENERGY PREDICTED BY IDOCK:   -3.51 KCAL/MOL
REMARK 922        TOTAL FREE ENERGY PREDICTED BY IDOCK:  -16.81 KCAL/MOL
REMARK 923 INTER-LIGAND FREE ENERGY PREDICTED BY IDOCK:  -11.34 KCAL/MOL
REMARK 924 INTRA-LIGAND FREE ENERGY PREDICTED BY IDOCK:   -5.47 KCAL/MOL
REMARK 927      BINDING AFFINITY PREDICTED BY RF-SCORE:    0.00 PKD
ROOT
HETATM    1  C   UNL     1     -12.862  15.020  73.311  1.00  0.00    -0.647 C  
HETATM    2  C   UNL     1     -13.856  14.700  72.208  1.00  0.00    -0.583 C  
ENDROOT
BRANCH   2   3
HETATM    3  C   UNL     1     -13.373  15.229  70.866  1.00  0.00    -0.475 C  
BRANCH   3   4
HETATM    4  C   UNL     1     -11.862  15.442  70.872  1.00  0.00    -0.400 C  
BRANCH   4   5
HETATM    5  C   UNL     1     -11.363  15.793  69.476  1.00  0.00    -0.328 C  
BRANCH   5   6
HETATM    6  C   UNL     1      -9.907  15.382  69.309  1.00  0.00    -0.262 C  
BRANCH   6   7
HETATM    7  C   UNL     1      -9.497  15.481  67.847  1.00  0.00    -0.201 C  
BRANCH   7   8
HETATM    8  C   UNL     1     -10.713  15.765  66.979  1.00  0.00    -0.306 C  
BRANCH   8   9
HETATM    9  C   UNL     1     -10.406  15.445  65.526  1.00  0.00    -0.412 C  
BRANCH   9  10
HETATM   10  C   UNL     1     -11.655  14.928  64.837  1.00  0.00    -0.395 C  
BRANCH  10  11
HETATM   11  C   UNL     1     -12.323  13.863  65.688  1.00  0.00    -0.511 C  
BRANCH  11  12
HETATM   12  C   UNL     1     -11.659  12.524  65.433  1.00  0.00    -0.416 C  
BRANCH  12  13
HETATM   13  C   UNL     1     -11.110  11.959  66.727  1.00  0.00    -0.359 C  
BRANCH  13  14
HETATM   14  C   UNL     1     -11.901  12.510  67.899  1.00  0.00    -0.383 C  
BRANCH  14  15
HETATM   15  C   UNL     1     -11.274  12.029  69.188  1.00  0.00    -0.305 C  
BRANCH  15  16
HETATM   16  C   UNL     1     -12.057  10.864  69.772  1.00  0.00    -0.409 C  
BRANCH  16  17
HETATM   17  C   UNL     1     -11.127  10.111  70.704  1.00  0.00    -0.397 C  
BRANCH  17  18
HETATM   18  C   UNL     1     -11.843   8.974  71.408  1.00  0.00    -0.325 C  
BRANCH  18  19
HETATM   19  N   UNL     1     -11.046   7.654  71.341  1.00  0.00    -0.236 N  
HETATM   20  C   UNL     1     -11.714   6.676  70.370  1.00  0.00    -0.386 C  
HETATM   21  C   UNL     1      -9.606   7.923  70.900  1.00  0.00    -0.161 C  
BRANCH  19  22
HETATM   22  C   UNL     1     -11.072   7.084  72.777  1.00  0.00    -0.284 C  
BRANCH  22  23
HETATM   23  C   UNL     1     -11.634   5.678  72.825  1.00  0.00    -0.289 C  
BRANCH  23  24
HETATM   24  C   UNL     1     -10.788   4.767  73.696  1.00  0.00    -0.377 C  
BRANCH  24  25
HETATM   25  C   UNL     1      -9.370   4.805  73.153  1.00  0.00    -0.133 C  
BRANCH  25  26
HETATM   26  C   UNL     1      -9.269   4.052  71.847  1.00  0.00    -0.179 C  
BRANCH  26  27
HETATM   27  C   UNL     1      -8.001   4.470  71.125  1.00  0.00    -0.082 C  
BRANCH  27  28
HETATM   28  C   UNL     1      -8.294   4.663  69.652  1.00  0.00    -0.077 C  
BRANCH  28  29
HETATM   29  C   UNL     1      -9.491   3.825  69.245  1.00  0.00    -0.252 C  
BRANCH  29  30
HETATM   30  C   UNL     1      -9.171   3.075  67.967  1.00  0.00    -0.248 C  
BRANCH  30  31
HETATM   31  C   UNL     1      -8.923   4.046  66.831  1.00  0.00    -0.141 C  
BRANCH  31  32
HETATM   32  C   UNL     1      -7.578   3.763  66.191  1.00  0.00    -0.088 C  
BRANCH  32  33
HETATM   33  C   UNL     1      -6.660   4.964  66.342  1.00  0.00    -0.049 C  
BRANCH  33  34
HETATM   34  C   UNL     1      -7.301   6.198  65.725  1.00  0.00    -0.080 C  
BRANCH  34  35
HETATM   35  C   UNL     1      -6.987   7.431  66.561  1.00  0.00    -0.070 C  
BRANCH  35  36
HETATM   36  C   UNL     1      -8.162   7.781  67.465  1.00  0.00    -0.124 C  
BRANCH  36  37
HETATM   37  C   UNL     1      -9.163   8.661  66.723  1.00  0.00    -0.211 C  
BRANCH  37  38
HETATM   38  C   UNL     1     -10.591   8.347  67.154  1.00  0.00    -0.326 C  
HETATM   39  C   UNL     1     -10.906   6.873  66.961  1.00  0.00    -0.436 C  
ENDBRANCH  37  38
ENDBRANCH  36  37
ENDBRANCH  35  36
ENDBRANCH  34  35
ENDBRANCH  33  34
ENDBRANCH  32  33
ENDBRANCH  31  32
ENDBRANCH  30  31
ENDBRANCH  29  30
ENDBRANCH  28  29
ENDBRANCH  27  28
ENDBRANCH  26  27
ENDBRANCH  25  26
ENDBRANCH  24  25
ENDBRANCH  23  24
ENDBRANCH  22  23
ENDBRANCH  19  22
ENDBRANCH  18  19
ENDBRANCH  17  18
ENDBRANCH  16  17
ENDBRANCH  15  16
ENDBRANCH  14  15
ENDBRANCH  13  14
ENDBRANCH  12  13
ENDBRANCH  11  12
ENDBRANCH  10  11
ENDBRANCH   9  10
ENDBRANCH   8   9
ENDBRANCH   7   8
ENDBRANCH   6   7
ENDBRANCH   5   6
ENDBRANCH   4   5
ENDBRANCH   3   4
ENDBRANCH   2   3
TORSDOF 34
ENDMDL
MODEL       82
REMARK 921   NORMALIZED FREE ENERGY PREDICTED BY IDOCK:   -3.51 KCAL/MOL
REMARK 922        TOTAL FREE ENERGY PREDICTED BY IDOCK:  -16.81 KCAL/MOL
REMARK 923 INTER-LIGAND FREE ENERGY PREDICTED BY IDOCK:  -10.23 KCAL/MOL
REMARK 924 INTRA-LIGAND FREE ENERGY PREDICTED BY IDOCK:   -6.58 KCAL/MOL
REMARK 927      BINDING AFFINITY PREDICTED BY RF-SCORE:    0.00 PKD
ROOT
HETATM    1  C   UNL     1     -12.206  13.699  63.456  1.00  0.00    -0.329 C  
HETATM    2  C   UNL     1     -11.078  13.090  64.269  1.00  0.00    -0.418 C  
ENDROOT
BRANCH   2   3
HETATM    3  C   UNL     1     -11.554  12.709  65.664  1.00  0.00    -0.418 C  
BRANCH   3   4
HETATM    4  C   UNL     1     -10.986  11.357  66.088  1.00  0.00    -0.294 C  
BRANCH   4   5
HETATM    5  C   UNL     1     -10.034  10.817  65.029  1.00  0.00    -0.361 C  
BRANCH   5   6
HETATM    6  C   UNL     1      -9.328   9.567  65.533  1.00  0.00    -0.317 C  
BRANCH   6   7
HETATM    7  C   UNL     1     -10.277   8.733  66.381  1.00  0.00    -0.256 C  
BRANCH   7   8
HETATM    8  C   UNL     1      -9.519   7.605  67.063  1.00  0.00    -0.209 C  
BRANCH   8   9
HETATM    9  C   UNL     1     -10.213   7.214  68.357  1.00  0.00    -0.194 C  
BRANCH   9  10
HETATM   10  C   UNL     1      -9.661   5.894  68.860  1.00  0.00    -0.158 C  
BRANCH  10  11
HETATM   11  C   UNL     1     -10.456   5.414  70.060  1.00  0.00    -0.373 C  
BRANCH  11  12
HETATM   12  C   UNL     1     -11.614   6.362  70.309  1.00  0.00    -0.451 C  
BRANCH  12  13
HETATM   13  C   UNL     1     -11.977   6.368  71.779  1.00  0.00    -0.370 C  
BRANCH  13  14
HETATM   14  C   UNL     1     -11.561   7.688  72.400  1.00  0.00    -0.386 C  
BRANCH  14  15
HETATM   15  C   UNL     1     -10.394   7.451  73.332  1.00  0.00    -0.411 C  
BRANCH  15  16
HETATM   16  C   UNL     1     -10.339   5.998  73.775  1.00  0.00    -0.277 C  
BRANCH  16  17
HETATM   17  C   UNL     1      -8.877   5.602  73.856  1.00  0.00    -0.123 C  
BRANCH  17  18
HETATM   18  C   UNL     1      -7.967   6.721  73.385  1.00  0.00    -0.098 C  
BRANCH  18  19
HETATM   19  N   UNL     1      -6.968   6.245  72.309  1.00  0.00    -0.073 N  
HETATM   20  C   UNL     1      -5.533   6.335  72.835  1.00  0.00    -0.037 C  
HETATM   21  C   UNL     1      -7.280   4.806  71.892  1.00  0.00    -0.063 C  
BRANCH  19  22
HETATM   22  C   UNL     1      -7.162   7.206  71.114  1.00  0.00    -0.074 C  
BRANCH  22  23
HETATM   23  C   UNL     1      -7.542   8.604  71.559  1.00  0.00    -0.134 C  
BRANCH  23  24
HETATM   24  C   UNL     1      -8.540   9.241  70.610  1.00  0.00    -0.270 C  
BRANCH  24  25
HETATM   25  C   UNL     1      -7.761   9.772  69.419  1.00  0.00    -0.109 C  
BRANCH  25  26
HETATM   26  C   UNL     1      -8.267  11.134  69.004  1.00  0.00    -0.066 C  
BRANCH  26  27
HETATM   27  C   UNL     1      -7.495  11.604  67.784  1.00  0.00    -0.111 C  
BRANCH  27  28
HETATM   28  C   UNL     1      -7.608  13.109  67.660  1.00  0.00    -0.171 C  
BRANCH  28  29
HETATM   29  C   UNL     1      -8.902  13.588  68.288  1.00  0.00    -0.179 C  
BRANCH  29  30
HETATM   30  C   UNL     1      -9.245  14.964  67.752  1.00  0.00    -0.186 C  
BRANCH  30  31
HETATM   31  C   UNL     1     -10.578  15.430  68.302  1.00  0.00    -0.253 C  
BRANCH  31  32
HETATM   32  C   UNL     1     -10.688  15.067  69.770  1.00  0.00    -0.260 C  
BRANCH  32  33
HETATM   33  C   UNL     1     -12.145  15.063  70.202  1.00  0.00    -0.378 C  
BRANCH  33  34
HETATM   34  C   UNL     1     -12.256  15.368  71.688  1.00  0.00    -0.445 C  
BRANCH  34  35
HETATM   35  C   UNL     1     -12.661  14.116  72.455  1.00  0.00    -0.286 C  
BRANCH  35  36
HETATM   36  C   UNL     1     -13.326  13.109  71.526  1.00  0.00    -0.305 C  
BRANCH  36  37
HETATM   37  C   UNL     1     -13.178  11.695  72.078  1.00  0.00    -0.443 C  
BRANCH  37  38
HETATM   38  C   UNL     1     -12.752  10.723  70.985  1.00  0.00    -0.513 C  
HETATM   39  C   UNL     1     -11.685  11.339  70.095  1.00  0.00    -0.429 C  
ENDBRANCH  37  38
ENDBRANCH  36  37
ENDBRANCH  35  36
ENDBRANCH  34  35
ENDBRANCH  33  34
ENDBRANCH  32  33
ENDBRANCH  31  32
ENDBRANCH  30  31
ENDBRANCH  29  30
ENDBRANCH  28  29
ENDBRANCH  27  28
ENDBRANCH  26  27
ENDBRANCH  25  26
ENDBRANCH  24  25
ENDBRANCH  23  24
ENDBRANCH  22  23
ENDBRANCH  19  22
ENDBRANCH  18  19
ENDBRANCH  17  18
ENDBRANCH  16  17
ENDBRANCH  15  16
ENDBRANCH  14  15
ENDBRANCH  13  14
ENDBRANCH  12  13
ENDBRANCH  11  12
ENDBRANCH  10  11
ENDBRANCH   9  10
ENDBRANCH   8   9
ENDBRANCH   7   8
ENDBRANCH   6   7
ENDBRANCH   5   6
ENDBRANCH   4   5
ENDBRANCH   3   4
ENDBRANCH   2   3
TORSDOF 34
ENDMDL
MODEL       83
REMARK 921   NORMALIZED FREE ENERGY PREDICTED BY IDOCK:   -3.51 KCAL/MOL
REMARK 922        TOTAL FREE ENERGY PREDICTED BY IDOCK:  -16.80 KCAL/MOL
REMARK 923 INTER-LIGAND FREE ENERGY PREDICTED BY IDOCK:  -10.58 KCAL/MOL
REMARK 924 INTRA-LIGAND FREE ENERGY PREDICTED BY IDOCK:   -6.23 KCAL/MOL
REMARK 927      BINDING AFFINITY PREDICTED BY RF-SCORE:    0.00 PKD
ROOT
HETATM    1  C   UNL     1     -10.860   6.609  67.180  1.00  0.00    -0.471 C  
HETATM    2  C   UNL     1     -10.221   5.248  66.971  1.00  0.00    -0.274 C  
ENDROOT
BRANCH   2   3
HETATM    3  C   UNL     1      -8.755   5.385  66.590  1.00  0.00    -0.115 C  
BRANCH   3   4
HETATM    4  C   UNL     1      -8.603   5.998  65.201  1.00  0.00    -0.073 C  
BRANCH   4   5
HETATM    5  C   UNL     1      -7.171   6.467  64.973  1.00  0.00    -0.067 C  
BRANCH   5   6
HETATM    6  C   UNL     1      -7.017   7.057  63.579  1.00  0.00    -0.061 C  
BRANCH   6   7
HETATM    7  C   UNL     1      -7.263   8.558  63.614  1.00  0.00    -0.095 C  
BRANCH   7   8
HETATM    8  C   UNL     1      -8.515   8.904  62.825  1.00  0.00    -0.191 C  
BRANCH   8   9
HETATM    9  C   UNL     1      -9.315   9.972  63.551  1.00  0.00    -0.301 C  
BRANCH   9  10
HETATM   10  C   UNL     1      -9.220   9.758  65.050  1.00  0.00    -0.307 C  
BRANCH  10  11
HETATM   11  C   UNL     1      -8.543  10.945  65.710  1.00  0.00    -0.176 C  
BRANCH  11  12
HETATM   12  C   UNL     1      -7.933  10.509  67.028  1.00  0.00    -0.118 C  
BRANCH  12  13
HETATM   13  C   UNL     1      -8.532   9.190  67.470  1.00  0.00    -0.116 C  
BRANCH  13  14
HETATM   14  C   UNL     1      -7.582   8.494  68.427  1.00  0.00    -0.096 C  
BRANCH  14  15
HETATM   15  C   UNL     1      -8.349   8.051  69.652  1.00  0.00    -0.126 C  
BRANCH  15  16
HETATM   16  C   UNL     1      -8.092   8.986  70.822  1.00  0.00    -0.194 C  
BRANCH  16  17
HETATM   17  C   UNL     1      -9.095   8.645  71.907  1.00  0.00    -0.326 C  
BRANCH  17  18
HETATM   18  C   UNL     1      -9.925   7.430  71.539  1.00  0.00    -0.181 C  
BRANCH  18  19
HETATM   19  N   UNL     1     -11.015   7.129  72.589  1.00  0.00    -0.268 N  
HETATM   20  C   UNL     1     -11.854   5.923  72.158  1.00  0.00    -0.186 C  
HETATM   21  C   UNL     1     -10.379   6.857  73.954  1.00  0.00    -0.365 C  
BRANCH  19  22
HETATM   22  C   UNL     1     -11.892   8.399  72.648  1.00  0.00    -0.290 C  
BRANCH  22  23
HETATM   23  C   UNL     1     -12.599   8.668  71.334  1.00  0.00    -0.325 C  
BRANCH  23  24
HETATM   24  C   UNL     1     -13.178  10.069  71.287  1.00  0.00    -0.469 C  
BRANCH  24  25
HETATM   25  C   UNL     1     -12.090  10.996  70.774  1.00  0.00    -0.467 C  
BRANCH  25  26
HETATM   26  C   UNL     1     -11.361  10.380  69.603  1.00  0.00    -0.333 C  
BRANCH  26  27
HETATM   27  C   UNL     1     -11.943  10.922  68.310  1.00  0.00    -0.024 C  
BRANCH  27  28
HETATM   28  C   UNL     1     -11.315  12.262  67.992  1.00  0.00    -0.348 C  
BRANCH  28  29
HETATM   29  C   UNL     1     -11.822  12.773  66.658  1.00  0.00    -0.462 C  
BRANCH  29  30
HETATM   30  C   UNL     1     -11.013  13.985  66.240  1.00  0.00    -0.300 C  
BRANCH  30  31
HETATM   31  C   UNL     1      -9.710  14.043  67.012  1.00  0.00    -0.256 C  
BRANCH  31  32
HETATM   32  C   UNL     1      -9.460  15.457  67.500  1.00  0.00    -0.205 C  
BRANCH  32  33
HETATM   33  C   UNL     1      -9.767  15.562  68.985  1.00  0.00    -0.237 C  
BRANCH  33  34
HETATM   34  C   UNL     1     -11.141  16.178  69.197  1.00  0.00    -0.329 C  
BRANCH  34  35
HETATM   35  C   UNL     1     -12.121  15.124  69.693  1.00  0.00    -0.336 C  
BRANCH  35  36
HETATM   36  C   UNL     1     -11.815  14.741  71.134  1.00  0.00    -0.387 C  
BRANCH  36  37
HETATM   37  C   UNL     1     -11.771  15.982  72.019  1.00  0.00    -0.588 C  
BRANCH  37  38
HETATM   38  C   UNL     1     -12.850  15.925  73.095  1.00  0.00    -0.643 C  
HETATM   39  C   UNL     1     -14.213  15.649  72.484  1.00  0.00    -0.472 C  
ENDBRANCH  37  38
ENDBRANCH  36  37
ENDBRANCH  35  36
ENDBRANCH  34  35
ENDBRANCH  33  34
ENDBRANCH  32  33
ENDBRANCH  31  32
ENDBRANCH  30  31
ENDBRANCH  29  30
ENDBRANCH  28  29
ENDBRANCH  27  28
ENDBRANCH  26  27
ENDBRANCH  25  26
ENDBRANCH  24  25
ENDBRANCH  23  24
ENDBRANCH  22  23
ENDBRANCH  19  22
ENDBRANCH  18  19
ENDBRANCH  17  18
ENDBRANCH  16  17
ENDBRANCH  15  16
ENDBRANCH  14  15
ENDBRANCH  13  14
ENDBRANCH  12  13
ENDBRANCH  11  12
ENDBRANCH  10  11
ENDBRANCH   9  10
ENDBRANCH   8   9
ENDBRANCH   7   8
ENDBRANCH   6   7
ENDBRANCH   5   6
ENDBRANCH   4   5
ENDBRANCH   3   4
ENDBRANCH   2   3
TORSDOF 34
ENDMDL
MODEL       84
REMARK 921   NORMALIZED FREE ENERGY PREDICTED BY IDOCK:   -3.51 KCAL/MOL
REMARK 922        TOTAL FREE ENERGY PREDICTED BY IDOCK:  -16.80 KCAL/MOL
REMARK 923 INTER-LIGAND FREE ENERGY PREDICTED BY IDOCK:  -10.75 KCAL/MOL
REMARK 924 INTRA-LIGAND FREE ENERGY PREDICTED BY IDOCK:   -6.05 KCAL/MOL
REMARK 927      BINDING AFFINITY PREDICTED BY RF-SCORE:    0.00 PKD
ROOT
HETATM    1  C   UNL     1     -12.362  12.981  65.611  1.00  0.00    -0.504 C  
HETATM    2  C   UNL     1     -11.817  14.305  66.114  1.00  0.00    -0.413 C  
ENDROOT
BRANCH   2   3
HETATM    3  C   UNL     1     -10.491  14.112  66.834  1.00  0.00    -0.272 C  
BRANCH   3   4
HETATM    4  C   UNL     1     -10.675  14.164  68.349  1.00  0.00    -0.264 C  
BRANCH   4   5
HETATM    5  C   UNL     1     -11.109  15.556  68.790  1.00  0.00    -0.291 C  
BRANCH   5   6
HETATM    6  C   UNL     1     -12.217  15.466  69.830  1.00  0.00    -0.363 C  
BRANCH   6   7
HETATM    7  C   UNL     1     -11.694  15.893  71.194  1.00  0.00    -0.490 C  
BRANCH   7   8
HETATM    8  C   UNL     1     -12.740  15.627  72.265  1.00  0.00    -0.513 C  
BRANCH   8   9
HETATM    9  C   UNL     1     -13.844  14.742  71.711  1.00  0.00    -0.540 C  
BRANCH   9  10
HETATM   10  C   UNL     1     -13.784  13.374  72.364  1.00  0.00    -0.698 C  
BRANCH  10  11
HETATM   11  C   UNL     1     -12.833  12.470  71.603  1.00  0.00    -0.368 C  
BRANCH  11  12
HETATM   12  C   UNL     1     -13.231  11.023  71.819  1.00  0.00    -0.505 C  
BRANCH  12  13
HETATM   13  C   UNL     1     -12.537  10.133  70.809  1.00  0.00    -0.406 C  
BRANCH  13  14
HETATM   14  C   UNL     1     -12.054  10.971  69.640  1.00  0.00    -0.411 C  
BRANCH  14  15
HETATM   15  C   UNL     1     -10.716  10.444  69.172  1.00  0.00    -0.266 C  
BRANCH  15  16
HETATM   16  C   UNL     1     -10.759  10.082  67.697  1.00  0.00    -0.340 C  
BRANCH  16  17
HETATM   17  C   UNL     1      -9.507  10.645  67.053  1.00  0.00    -0.187 C  
BRANCH  17  18
HETATM   18  C   UNL     1      -8.529  11.164  68.090  1.00  0.00    -0.138 C  
BRANCH  18  19
HETATM   19  N   UNL     1      -7.068  10.811  67.741  1.00  0.00    -0.085 N  
HETATM   20  C   UNL     1      -7.009  10.014  66.435  1.00  0.00    -0.101 C  
HETATM   21  C   UNL     1      -6.229  12.085  67.610  1.00  0.00    -0.096 C  
BRANCH  19  22
HETATM   22  C   UNL     1      -6.559   9.950  68.918  1.00  0.00    -0.045 C  
BRANCH  22  23
HETATM   23  C   UNL     1      -7.307   8.637  69.032  1.00  0.00    -0.077 C  
BRANCH  23  24
HETATM   24  C   UNL     1      -7.089   7.984  70.385  1.00  0.00    -0.045 C  
BRANCH  24  25
HETATM   25  C   UNL     1      -8.084   8.598  71.353  1.00  0.00    -0.192 C  
BRANCH  25  26
HETATM   26  C   UNL     1      -8.041   7.897  72.692  1.00  0.00    -0.173 C  
BRANCH  26  27
HETATM   27  C   UNL     1      -9.261   8.293  73.504  1.00  0.00    -0.159 C  
BRANCH  27  28
HETATM   28  C   UNL     1     -10.517   7.850  72.782  1.00  0.00    -0.412 C  
BRANCH  28  29
HETATM   29  C   UNL     1     -10.757   6.371  73.015  1.00  0.00    -0.286 C  
BRANCH  29  30
HETATM   30  C   UNL     1     -10.776   5.647  71.683  1.00  0.00    -0.313 C  
BRANCH  30  31
HETATM   31  C   UNL     1     -11.125   6.607  70.563  1.00  0.00    -0.359 C  
BRANCH  31  32
HETATM   32  C   UNL     1     -10.452   6.168  69.276  1.00  0.00    -0.314 C  
BRANCH  32  33
HETATM   33  C   UNL     1     -11.319   6.529  68.082  1.00  0.00    -0.105 C  
BRANCH  33  34
HETATM   34  C   UNL     1     -10.458   6.708  66.840  1.00  0.00    -0.349 C  
BRANCH  34  35
HETATM   35  C   UNL     1      -9.065   6.143  67.078  1.00  0.00    -0.119 C  
BRANCH  35  36
HETATM   36  C   UNL     1      -8.594   5.347  65.868  1.00  0.00    -0.131 C  
BRANCH  36  37
HETATM   37  C   UNL     1      -8.275   3.910  66.265  1.00  0.00    -0.104 C  
BRANCH  37  38
HETATM   38  C   UNL     1      -9.409   3.304  67.083  1.00  0.00    -0.212 C  
HETATM   39  C   UNL     1      -9.195   1.814  67.290  1.00  0.00    -0.102 C  
ENDBRANCH  37  38
ENDBRANCH  36  37
ENDBRANCH  35  36
ENDBRANCH  34  35
ENDBRANCH  33  34
ENDBRANCH  32  33
ENDBRANCH  31  32
ENDBRANCH  30  31
ENDBRANCH  29  30
ENDBRANCH  28  29
ENDBRANCH  27  28
ENDBRANCH  26  27
ENDBRANCH  25  26
ENDBRANCH  24  25
ENDBRANCH  23  24
ENDBRANCH  22  23
ENDBRANCH  19  22
ENDBRANCH  18  19
ENDBRANCH  17  18
ENDBRANCH  16  17
ENDBRANCH  15  16
ENDBRANCH  14  15
ENDBRANCH  13  14
ENDBRANCH  12  13
ENDBRANCH  11  12
ENDBRANCH  10  11
ENDBRANCH   9  10
ENDBRANCH   8   9
ENDBRANCH   7   8
ENDBRANCH   6   7
ENDBRANCH   5   6
ENDBRANCH   4   5
ENDBRANCH   3   4
ENDBRANCH   2   3
TORSDOF 34
ENDMDL
MODEL       85
REMARK 921   NORMALIZED FREE ENERGY PREDICTED BY IDOCK:   -3.51 KCAL/MOL
REMARK 922        TOTAL FREE ENERGY PREDICTED BY IDOCK:  -16.80 KCAL/MOL
REMARK 923 INTER-LIGAND FREE ENERGY PREDICTED BY IDOCK:  -11.16 KCAL/MOL
REMARK 924 INTRA-LIGAND FREE ENERGY PREDICTED BY IDOCK:   -5.64 KCAL/MOL
REMARK 927      BINDING AFFINITY PREDICTED BY RF-SCORE:    0.00 PKD
ROOT
HETATM    1  C   UNL     1      -6.446  10.764  67.144  1.00  0.00    -0.074 C  
HETATM    2  C   UNL     1      -6.802  12.233  67.283  1.00  0.00    -0.140 C  
ENDROOT
BRANCH   2   3
HETATM    3  C   UNL     1      -7.756  12.456  68.446  1.00  0.00    -0.144 C  
BRANCH   3   4
HETATM    4  C   UNL     1      -8.186  13.918  68.532  1.00  0.00    -0.131 C  
BRANCH   4   5
HETATM    5  C   UNL     1      -8.168  14.566  67.153  1.00  0.00    -0.214 C  
BRANCH   5   6
HETATM    6  C   UNL     1      -8.833  15.935  67.196  1.00  0.00    -0.228 C  
BRANCH   6   7
HETATM    7  C   UNL     1      -9.005  16.389  68.638  1.00  0.00    -0.233 C  
BRANCH   7   8
HETATM    8  C   UNL     1     -10.437  16.842  68.879  1.00  0.00    -0.332 C  
BRANCH   8   9
HETATM    9  C   UNL     1     -11.411  15.801  68.354  1.00  0.00    -0.367 C  
BRANCH   9  10
HETATM   10  C   UNL     1     -11.718  14.787  69.441  1.00  0.00    -0.358 C  
BRANCH  10  11
HETATM   11  C   UNL     1     -11.787  13.390  68.852  1.00  0.00    -0.373 C  
BRANCH  11  12
HETATM   12  C   UNL     1     -11.884  12.375  69.974  1.00  0.00    -0.363 C  
BRANCH  12  13
HETATM   13  C   UNL     1     -12.621  12.970  71.155  1.00  0.00    -0.388 C  
BRANCH  13  14
HETATM   14  C   UNL     1     -13.207  11.856  72.004  1.00  0.00    -0.461 C  
BRANCH  14  15
HETATM   15  C   UNL     1     -12.843  10.524  71.390  1.00  0.00    -0.551 C  
BRANCH  15  16
HETATM   16  C   UNL     1     -13.585   9.389  72.076  1.00  0.00    -0.505 C  
BRANCH  16  17
HETATM   17  C   UNL     1     -12.755   8.131  71.902  1.00  0.00    -0.361 C  
BRANCH  17  18
HETATM   18  C   UNL     1     -11.407   8.433  71.275  1.00  0.00    -0.266 C  
BRANCH  18  19
HETATM   19  N   UNL     1     -10.318   7.438  71.728  1.00  0.00    -0.192 N  
HETATM   20  C   UNL     1      -9.015   7.687  70.963  1.00  0.00    -0.146 C  
HETATM   21  C   UNL     1     -10.070   7.567  73.232  1.00  0.00    -0.331 C  
BRANCH  19  22
HETATM   22  C   UNL     1     -10.876   6.036  71.393  1.00  0.00    -0.270 C  
BRANCH  22  23
HETATM   23  C   UNL     1     -10.565   5.023  72.477  1.00  0.00    -0.277 C  
BRANCH  23  24
HETATM   24  C   UNL     1     -10.116   3.697  71.890  1.00  0.00    -0.182 C  
BRANCH  24  25
HETATM   25  C   UNL     1      -8.604   3.747  71.753  1.00  0.00    -0.115 C  
BRANCH  25  26
HETATM   26  C   UNL     1      -8.162   3.185  70.422  1.00  0.00    -0.070 C  
BRANCH  26  27
HETATM   27  C   UNL     1      -9.378   2.976  69.538  1.00  0.00    -0.213 C  
BRANCH  27  28
HETATM   28  C   UNL     1      -9.102   3.531  68.156  1.00  0.00    -0.200 C  
BRANCH  28  29
HETATM   29  C   UNL     1      -9.729   4.904  68.011  1.00  0.00    -0.202 C  
BRANCH  29  30
HETATM   30  C   UNL     1      -8.729   5.851  67.375  1.00  0.00    -0.108 C  
BRANCH  30  31
HETATM   31  C   UNL     1      -9.438   6.841  66.474  1.00  0.00    -0.193 C  
BRANCH  31  32
HETATM   32  C   UNL     1     -10.658   7.403  67.178  1.00  0.00    -0.413 C  
BRANCH  32  33
HETATM   33  C   UNL     1     -10.433   8.863  67.535  1.00  0.00    -0.337 C  
BRANCH  33  34
HETATM   34  C   UNL     1     -10.111   9.667  66.285  1.00  0.00    -0.322 C  
BRANCH  34  35
HETATM   35  C   UNL     1     -10.472  11.131  66.492  1.00  0.00    -0.305 C  
BRANCH  35  36
HETATM   36  C   UNL     1     -10.013  11.971  65.307  1.00  0.00    -0.273 C  
BRANCH  36  37
HETATM   37  C   UNL     1     -10.922  13.182  65.126  1.00  0.00    -0.317 C  
BRANCH  37  38
HETATM   38  C   UNL     1     -12.363  12.752  64.877  1.00  0.00    -0.551 C  
HETATM   39  C   UNL     1     -12.501  12.075  63.523  1.00  0.00    -0.654 C  
ENDBRANCH  37  38
ENDBRANCH  36  37
ENDBRANCH  35  36
ENDBRANCH  34  35
ENDBRANCH  33  34
ENDBRANCH  32  33
ENDBRANCH  31  32
ENDBRANCH  30  31
ENDBRANCH  29  30
ENDBRANCH  28  29
ENDBRANCH  27  28
ENDBRANCH  26  27
ENDBRANCH  25  26
ENDBRANCH  24  25
ENDBRANCH  23  24
ENDBRANCH  22  23
ENDBRANCH  19  22
ENDBRANCH  18  19
ENDBRANCH  17  18
ENDBRANCH  16  17
ENDBRANCH  15  16
ENDBRANCH  14  15
ENDBRANCH  13  14
ENDBRANCH  12  13
ENDBRANCH  11  12
ENDBRANCH  10  11
ENDBRANCH   9  10
ENDBRANCH   8   9
ENDBRANCH   7   8
ENDBRANCH   6   7
ENDBRANCH   5   6
ENDBRANCH   4   5
ENDBRANCH   3   4
ENDBRANCH   2   3
TORSDOF 34
ENDMDL
MODEL       86
REMARK 921   NORMALIZED FREE ENERGY PREDICTED BY IDOCK:   -3.51 KCAL/MOL
REMARK 922        TOTAL FREE ENERGY PREDICTED BY IDOCK:  -16.80 KCAL/MOL
REMARK 923 INTER-LIGAND FREE ENERGY PREDICTED BY IDOCK:   -9.43 KCAL/MOL
REMARK 924 INTRA-LIGAND FREE ENERGY PREDICTED BY IDOCK:   -7.37 KCAL/MOL
REMARK 927      BINDING AFFINITY PREDICTED BY RF-SCORE:    0.00 PKD
ROOT
HETATM    1  C   UNL     1      -7.550  18.780  68.634  1.00  0.00    -0.357 C  
HETATM    2  C   UNL     1      -6.719  17.514  68.755  1.00  0.00    -0.225 C  
ENDROOT
BRANCH   2   3
HETATM    3  C   UNL     1      -6.683  16.756  67.436  1.00  0.00    -0.190 C  
BRANCH   3   4
HETATM    4  C   UNL     1      -6.516  15.257  67.669  1.00  0.00    -0.188 C  
BRANCH   4   5
HETATM    5  C   UNL     1      -7.503  14.762  68.718  1.00  0.00    -0.133 C  
BRANCH   5   6
HETATM    6  C   UNL     1      -8.625  13.967  68.064  1.00  0.00    -0.179 C  
BRANCH   6   7
HETATM    7  C   UNL     1      -9.963  14.338  68.685  1.00  0.00    -0.234 C  
BRANCH   7   8
HETATM    8  C   UNL     1      -9.786  15.483  69.669  1.00  0.00    -0.276 C  
BRANCH   8   9
HETATM    9  C   UNL     1     -10.655  16.662  69.265  1.00  0.00    -0.343 C  
BRANCH   9  10
HETATM   10  C   UNL     1     -11.228  16.429  67.880  1.00  0.00    -0.184 C  
BRANCH  10  11
HETATM   11  C   UNL     1     -10.505  17.289  66.860  1.00  0.00    -0.272 C  
BRANCH  11  12
HETATM   12  C   UNL     1      -9.921  16.402  65.777  1.00  0.00    -0.331 C  
BRANCH  12  13
HETATM   13  C   UNL     1     -11.029  15.810  64.932  1.00  0.00    -0.443 C  
BRANCH  13  14
HETATM   14  C   UNL     1     -10.823  14.313  64.798  1.00  0.00    -0.420 C  
BRANCH  14  15
HETATM   15  C   UNL     1     -11.989  13.593  65.437  1.00  0.00    -0.400 C  
BRANCH  15  16
HETATM   16  C   UNL     1     -11.538  12.296  66.085  1.00  0.00    -0.450 C  
BRANCH  16  17
HETATM   17  C   UNL     1     -10.220  11.900  65.447  1.00  0.00    -0.300 C  
BRANCH  17  18
HETATM   18  C   UNL     1     -10.192  10.426  65.090  1.00  0.00    -0.256 C  
BRANCH  18  19
HETATM   19  N   UNL     1      -8.813   9.787  65.362  1.00  0.00    -0.157 N  
HETATM   20  C   UNL     1      -8.980   8.344  65.845  1.00  0.00    -0.178 C  
HETATM   21  C   UNL     1      -7.954   9.815  64.096  1.00  0.00    -0.143 C  
BRANCH  19  22
HETATM   22  C   UNL     1      -8.170  10.652  66.469  1.00  0.00    -0.138 C  
BRANCH  22  23
HETATM   23  C   UNL     1      -8.119   9.932  67.802  1.00  0.00    -0.109 C  
BRANCH  23  24
HETATM   24  C   UNL     1      -8.910  10.669  68.866  1.00  0.00    -0.160 C  
BRANCH  24  25
HETATM   25  C   UNL     1     -10.298  10.055  68.912  1.00  0.00    -0.217 C  
BRANCH  25  26
HETATM   26  C   UNL     1     -11.289  11.000  69.552  1.00  0.00    -0.356 C  
BRANCH  26  27
HETATM   27  C   UNL     1     -12.046  10.266  70.644  1.00  0.00    -0.433 C  
BRANCH  27  28
HETATM   28  C   UNL     1     -11.283   9.020  71.042  1.00  0.00    -0.361 C  
BRANCH  28  29
HETATM   29  C   UNL     1     -12.203   7.815  71.016  1.00  0.00    -0.236 C  
BRANCH  29  30
HETATM   30  C   UNL     1     -12.088   7.064  72.328  1.00  0.00    -0.216 C  
BRANCH  30  31
HETATM   31  C   UNL     1     -11.283   5.793  72.141  1.00  0.00    -0.327 C  
BRANCH  31  32
HETATM   32  C   UNL     1     -10.274   5.649  73.265  1.00  0.00    -0.217 C  
BRANCH  32  33
HETATM   33  C   UNL     1      -9.208   6.726  73.154  1.00  0.00    -0.147 C  
BRANCH  33  34
HETATM   34  C   UNL     1      -8.185   6.348  72.094  1.00  0.00    -0.108 C  
BRANCH  34  35
HETATM   35  C   UNL     1      -8.024   7.480  71.089  1.00  0.00    -0.095 C  
BRANCH  35  36
HETATM   36  C   UNL     1      -7.919   6.930  69.672  1.00  0.00    -0.125 C  
BRANCH  36  37
HETATM   37  C   UNL     1      -9.299   6.549  69.144  1.00  0.00    -0.133 C  
BRANCH  37  38
HETATM   38  C   UNL     1      -9.284   5.153  68.533  1.00  0.00    -0.145 C  
HETATM   39  C   UNL     1      -9.679   4.106  69.559  1.00  0.00    -0.254 C  
ENDBRANCH  37  38
ENDBRANCH  36  37
ENDBRANCH  35  36
ENDBRANCH  34  35
ENDBRANCH  33  34
ENDBRANCH  32  33
ENDBRANCH  31  32
ENDBRANCH  30  31
ENDBRANCH  29  30
ENDBRANCH  28  29
ENDBRANCH  27  28
ENDBRANCH  26  27
ENDBRANCH  25  26
ENDBRANCH  24  25
ENDBRANCH  23  24
ENDBRANCH  22  23
ENDBRANCH  19  22
ENDBRANCH  18  19
ENDBRANCH  17  18
ENDBRANCH  16  17
ENDBRANCH  15  16
ENDBRANCH  14  15
ENDBRANCH  13  14
ENDBRANCH  12  13
ENDBRANCH  11  12
ENDBRANCH  10  11
ENDBRANCH   9  10
ENDBRANCH   8   9
ENDBRANCH   7   8
ENDBRANCH   6   7
ENDBRANCH   5   6
ENDBRANCH   4   5
ENDBRANCH   3   4
ENDBRANCH   2   3
TORSDOF 34
ENDMDL
MODEL       87
REMARK 921   NORMALIZED FREE ENERGY PREDICTED BY IDOCK:   -3.50 KCAL/MOL
REMARK 922        TOTAL FREE ENERGY PREDICTED BY IDOCK:  -16.78 KCAL/MOL
REMARK 923 INTER-LIGAND FREE ENERGY PREDICTED BY IDOCK:  -10.75 KCAL/MOL
REMARK 924 INTRA-LIGAND FREE ENERGY PREDICTED BY IDOCK:   -6.03 KCAL/MOL
REMARK 927      BINDING AFFINITY PREDICTED BY RF-SCORE:    0.00 PKD
ROOT
HETATM    1  C   UNL     1     -10.612  19.512  67.485  1.00  0.00    -0.599 C  
HETATM    2  C   UNL     1      -9.238  19.029  67.057  1.00  0.00    -0.330 C  
ENDROOT
BRANCH   2   3
HETATM    3  C   UNL     1      -9.032  17.568  67.427  1.00  0.00    -0.230 C  
BRANCH   3   4
HETATM    4  C   UNL     1      -8.575  16.754  66.220  1.00  0.00    -0.340 C  
BRANCH   4   5
HETATM    5  C   UNL     1      -9.433  15.506  66.057  1.00  0.00    -0.387 C  
BRANCH   5   6
HETATM    6  C   UNL     1     -10.559  15.494  67.080  1.00  0.00    -0.300 C  
BRANCH   6   7
HETATM    7  C   UNL     1     -11.625  14.485  66.676  1.00  0.00    -0.385 C  
BRANCH   7   8
HETATM    8  C   UNL     1     -11.376  13.998  65.258  1.00  0.00    -0.321 C  
BRANCH   8   9
HETATM    9  C   UNL     1     -12.450  13.004  64.849  1.00  0.00    -0.512 C  
BRANCH   9  10
HETATM   10  C   UNL     1     -12.032  12.287  63.579  1.00  0.00    -0.625 C  
BRANCH  10  11
HETATM   11  C   UNL     1     -10.520  12.196  63.500  1.00  0.00    -0.490 C  
BRANCH  11  12
HETATM   12  C   UNL     1     -10.112  10.751  63.286  1.00  0.00    -0.314 C  
BRANCH  12  13
HETATM   13  C   UNL     1      -8.678  10.679  62.804  1.00  0.00    -0.253 C  
BRANCH  13  14
HETATM   14  C   UNL     1      -7.861   9.832  63.762  1.00  0.00    -0.143 C  
BRANCH  14  15
HETATM   15  C   UNL     1      -6.391  10.101  63.530  1.00  0.00    -0.138 C  
BRANCH  15  16
HETATM   16  C   UNL     1      -5.618  10.061  64.838  1.00  0.00    -0.094 C  
BRANCH  16  17
HETATM   17  C   UNL     1      -6.576  10.452  65.947  1.00  0.00    -0.123 C  
BRANCH  17  18
HETATM   18  C   UNL     1      -5.945  11.444  66.906  1.00  0.00    -0.122 C  
BRANCH  18  19
HETATM   19  N   UNL     1      -7.003  12.275  67.663  1.00  0.00    -0.114 N  
HETATM   20  C   UNL     1      -7.078  11.836  69.128  1.00  0.00    -0.071 C  
HETATM   21  C   UNL     1      -6.666  13.765  67.583  1.00  0.00    -0.176 C  
BRANCH  19  22
HETATM   22  C   UNL     1      -8.342  11.987  66.948  1.00  0.00    -0.159 C  
BRANCH  22  23
HETATM   23  C   UNL     1      -9.401  11.471  67.902  1.00  0.00    -0.171 C  
BRANCH  23  24
HETATM   24  C   UNL     1     -10.602  10.917  67.158  1.00  0.00    -0.302 C  
BRANCH  24  25
HETATM   25  C   UNL     1     -10.618   9.413  67.372  1.00  0.00    -0.326 C  
BRANCH  25  26
HETATM   26  C   UNL     1      -9.930   8.696  66.234  1.00  0.00    -0.287 C  
BRANCH  26  27
HETATM   27  C   UNL     1      -9.707   7.244  66.619  1.00  0.00    -0.249 C  
BRANCH  27  28
HETATM   28  C   UNL     1     -10.935   6.713  67.330  1.00  0.00    -0.456 C  
BRANCH  28  29
HETATM   29  C   UNL     1     -10.539   6.076  68.647  1.00  0.00    -0.327 C  
BRANCH  29  30
HETATM   30  C   UNL     1     -11.582   6.402  69.699  1.00  0.00    -0.351 C  
BRANCH  30  31
HETATM   31  C   UNL     1     -11.155   5.867  71.051  1.00  0.00    -0.315 C  
BRANCH  31  32
HETATM   32  C   UNL     1     -11.898   6.596  72.155  1.00  0.00    -0.337 C  
BRANCH  32  33
HETATM   33  C   UNL     1     -10.912   7.225  73.124  1.00  0.00    -0.384 C  
BRANCH  33  34
HETATM   34  C   UNL     1     -10.254   8.442  72.490  1.00  0.00    -0.369 C  
BRANCH  34  35
HETATM   35  C   UNL     1      -8.740   8.347  72.614  1.00  0.00    -0.267 C  
BRANCH  35  36
HETATM   36  C   UNL     1      -8.132   7.767  71.344  1.00  0.00    -0.103 C  
BRANCH  36  37
HETATM   37  C   UNL     1      -8.344   8.716  70.169  1.00  0.00    -0.126 C  
BRANCH  37  38
HETATM   38  C   UNL     1      -7.445   8.342  68.995  1.00  0.00    -0.093 C  
HETATM   39  C   UNL     1      -6.831   6.967  69.197  1.00  0.00    -0.061 C  
ENDBRANCH  37  38
ENDBRANCH  36  37
ENDBRANCH  35  36
ENDBRANCH  34  35
ENDBRANCH  33  34
ENDBRANCH  32  33
ENDBRANCH  31  32
ENDBRANCH  30  31
ENDBRANCH  29  30
ENDBRANCH  28  29
ENDBRANCH  27  28
ENDBRANCH  26  27
ENDBRANCH  25  26
ENDBRANCH  24  25
ENDBRANCH  23  24
ENDBRANCH  22  23
ENDBRANCH  19  22
ENDBRANCH  18  19
ENDBRANCH  17  18
ENDBRANCH  16  17
ENDBRANCH  15  16
ENDBRANCH  14  15
ENDBRANCH  13  14
ENDBRANCH  12  13
ENDBRANCH  11  12
ENDBRANCH  10  11
ENDBRANCH   9  10
ENDBRANCH   8   9
ENDBRANCH   7   8
ENDBRANCH   6   7
ENDBRANCH   5   6
ENDBRANCH   4   5
ENDBRANCH   3   4
ENDBRANCH   2   3
TORSDOF 34
ENDMDL
MODEL       88
REMARK 921   NORMALIZED FREE ENERGY PREDICTED BY IDOCK:   -3.48 KCAL/MOL
REMARK 922        TOTAL FREE ENERGY PREDICTED BY IDOCK:  -16.74 KCAL/MOL
REMARK 923 INTER-LIGAND FREE ENERGY PREDICTED BY IDOCK:  -11.03 KCAL/MOL
REMARK 924 INTRA-LIGAND FREE ENERGY PREDICTED BY IDOCK:   -5.70 KCAL/MOL
REMARK 927      BINDING AFFINITY PREDICTED BY RF-SCORE:    0.00 PKD
ROOT
HETATM    1  C   UNL     1     -10.866  19.345  67.323  1.00  0.00    -0.561 C  
HETATM    2  C   UNL     1      -9.676  19.599  66.416  1.00  0.00    -0.503 C  
ENDROOT
BRANCH   2   3
HETATM    3  C   UNL     1      -8.395  19.054  67.030  1.00  0.00    -0.291 C  
BRANCH   3   4
HETATM    4  C   UNL     1      -8.564  17.596  67.449  1.00  0.00    -0.229 C  
BRANCH   4   5
HETATM    5  C   UNL     1      -8.220  16.662  66.296  1.00  0.00    -0.365 C  
BRANCH   5   6
HETATM    6  C   UNL     1      -9.210  15.508  66.229  1.00  0.00    -0.364 C  
BRANCH   6   7
HETATM    7  C   UNL     1     -10.458  15.930  65.466  1.00  0.00    -0.425 C  
BRANCH   7   8
HETATM    8  C   UNL     1     -11.505  14.830  65.521  1.00  0.00    -0.329 C  
BRANCH   8   9
HETATM    9  C   UNL     1     -10.887  13.543  66.042  1.00  0.00    -0.282 C  
BRANCH   9  10
HETATM   10  C   UNL     1     -11.560  12.348  65.394  1.00  0.00    -0.426 C  
BRANCH  10  11
HETATM   11  C   UNL     1     -11.492  12.462  63.882  1.00  0.00    -0.509 C  
BRANCH  11  12
HETATM   12  C   UNL     1     -10.523  11.429  63.342  1.00  0.00    -0.452 C  
BRANCH  12  13
HETATM   13  C   UNL     1     -10.016  10.549  64.466  1.00  0.00    -0.413 C  
BRANCH  13  14
HETATM   14  C   UNL     1      -8.545  10.246  64.252  1.00  0.00    -0.198 C  
BRANCH  14  15
HETATM   15  C   UNL     1      -7.893   9.990  65.592  1.00  0.00    -0.138 C  
BRANCH  15  16
HETATM   16  C   UNL     1      -7.151   8.664  65.591  1.00  0.00    -0.083 C  
BRANCH  16  17
HETATM   17  C   UNL     1      -7.747   7.807  66.691  1.00  0.00    -0.098 C  
BRANCH  17  18
HETATM   18  C   UNL     1      -8.997   7.087  66.222  1.00  0.00    -0.151 C  
BRANCH  18  19
HETATM   19  N   UNL     1      -8.994   5.596  66.621  1.00  0.00    -0.118 N  
HETATM   20  C   UNL     1     -10.289   4.918  66.163  1.00  0.00    -0.292 C  
HETATM   21  C   UNL     1      -7.789   4.882  66.006  1.00  0.00    -0.099 C  
BRANCH  19  22
HETATM   22  C   UNL     1      -8.898   5.582  68.163  1.00  0.00    -0.105 C  
BRANCH  22  23
HETATM   23  C   UNL     1     -10.258   5.453  68.820  1.00  0.00    -0.252 C  
BRANCH  23  24
HETATM   24  C   UNL     1     -10.168   4.739  70.156  1.00  0.00    -0.259 C  
BRANCH  24  25
HETATM   25  C   UNL     1      -8.933   5.261  70.870  1.00  0.00    -0.160 C  
BRANCH  25  26
HETATM   26  C   UNL     1      -9.181   5.392  72.355  1.00  0.00    -0.152 C  
BRANCH  26  27
HETATM   27  C   UNL     1     -10.642   5.734  72.590  1.00  0.00    -0.261 C  
BRANCH  27  28
HETATM   28  C   UNL     1     -10.756   7.159  73.089  1.00  0.00    -0.385 C  
BRANCH  28  29
HETATM   29  C   UNL     1     -11.130   8.082  71.946  1.00  0.00    -0.333 C  
BRANCH  29  30
HETATM   30  C   UNL     1      -9.981   9.033  71.668  1.00  0.00    -0.383 C  
BRANCH  30  31
HETATM   31  C   UNL     1      -9.464   8.840  70.257  1.00  0.00    -0.194 C  
BRANCH  31  32
HETATM   32  C   UNL     1     -10.625   8.800  69.281  1.00  0.00    -0.210 C  
BRANCH  32  33
HETATM   33  C   UNL     1     -10.435   9.849  68.197  1.00  0.00    -0.256 C  
BRANCH  33  34
HETATM   34  C   UNL     1     -10.255  11.224  68.821  1.00  0.00    -0.215 C  
BRANCH  34  35
HETATM   35  C   UNL     1     -11.513  11.630  69.576  1.00  0.00    -0.371 C  
BRANCH  35  36
HETATM   36  C   UNL     1     -12.127  12.883  68.964  1.00  0.00    -0.198 C  
BRANCH  36  37
HETATM   37  C   UNL     1     -11.935  14.079  69.891  1.00  0.00    -0.399 C  
BRANCH  37  38
HETATM   38  C   UNL     1     -10.853  15.013  69.361  1.00  0.00    -0.265 C  
HETATM   39  C   UNL     1     -11.078  16.435  69.845  1.00  0.00    -0.313 C  
ENDBRANCH  37  38
ENDBRANCH  36  37
ENDBRANCH  35  36
ENDBRANCH  34  35
ENDBRANCH  33  34
ENDBRANCH  32  33
ENDBRANCH  31  32
ENDBRANCH  30  31
ENDBRANCH  29  30
ENDBRANCH  28  29
ENDBRANCH  27  28
ENDBRANCH  26  27
ENDBRANCH  25  26
ENDBRANCH  24  25
ENDBRANCH  23  24
ENDBRANCH  22  23
ENDBRANCH  19  22
ENDBRANCH  18  19
ENDBRANCH  17  18
ENDBRANCH  16  17
ENDBRANCH  15  16
ENDBRANCH  14  15
ENDBRANCH  13  14
ENDBRANCH  12  13
ENDBRANCH  11  12
ENDBRANCH  10  11
ENDBRANCH   9  10
ENDBRANCH   8   9
ENDBRANCH   7   8
ENDBRANCH   6   7
ENDBRANCH   5   6
ENDBRANCH   4   5
ENDBRANCH   3   4
ENDBRANCH   2   3
TORSDOF 34
ENDMDL
MODEL       89
REMARK 921   NORMALIZED FREE ENERGY PREDICTED BY IDOCK:   -3.47 KCAL/MOL
REMARK 922        TOTAL FREE ENERGY PREDICTED BY IDOCK:  -16.70 KCAL/MOL
REMARK 923 INTER-LIGAND FREE ENERGY PREDICTED BY IDOCK:  -11.24 KCAL/MOL
REMARK 924 INTRA-LIGAND FREE ENERGY PREDICTED BY IDOCK:   -5.46 KCAL/MOL
REMARK 927      BINDING AFFINITY PREDICTED BY RF-SCORE:    0.00 PKD
ROOT
HETATM    1  C   UNL     1      -7.413   8.671  71.428  1.00  0.00    -0.124 C  
HETATM    2  C   UNL     1      -8.480   8.364  72.464  1.00  0.00    -0.229 C  
ENDROOT
BRANCH   2   3
HETATM    3  C   UNL     1      -9.866   8.713  71.941  1.00  0.00    -0.384 C  
BRANCH   3   4
HETATM    4  C   UNL     1     -10.955   8.106  72.821  1.00  0.00    -0.401 C  
BRANCH   4   5
HETATM    5  C   UNL     1     -11.972   7.352  71.974  1.00  0.00    -0.333 C  
BRANCH   5   6
HETATM    6  C   UNL     1     -11.933   5.863  72.291  1.00  0.00    -0.211 C  
BRANCH   6   7
HETATM    7  C   UNL     1     -11.073   5.611  73.521  1.00  0.00    -0.169 C  
BRANCH   7   8
HETATM    8  C   UNL     1      -9.944   4.649  73.184  1.00  0.00    -0.185 C  
BRANCH   8   9
HETATM    9  C   UNL     1      -9.917   4.376  71.690  1.00  0.00    -0.256 C  
BRANCH   9  10
HETATM   10  C   UNL     1      -8.672   4.990  71.076  1.00  0.00    -0.141 C  
BRANCH  10  11
HETATM   11  C   UNL     1      -9.017   5.679  69.769  1.00  0.00    -0.140 C  
BRANCH  11  12
HETATM   12  C   UNL     1     -10.331   5.136  69.243  1.00  0.00    -0.248 C  
BRANCH  12  13
HETATM   13  C   UNL     1     -11.111   6.234  68.550  1.00  0.00    -0.397 C  
BRANCH  13  14
HETATM   14  C   UNL     1     -10.324   7.530  68.606  1.00  0.00    -0.218 C  
BRANCH  14  15
HETATM   15  C   UNL     1     -10.123   8.049  67.200  1.00  0.00    -0.334 C  
BRANCH  15  16
HETATM   16  C   UNL     1      -9.633   6.945  66.278  1.00  0.00    -0.089 C  
BRANCH  16  17
HETATM   17  C   UNL     1      -8.353   7.430  65.626  1.00  0.00    -0.143 C  
BRANCH  17  18
HETATM   18  C   UNL     1      -8.052   8.873  65.990  1.00  0.00    -0.111 C  
BRANCH  18  19
HETATM   19  N   UNL     1      -7.958   9.779  64.745  1.00  0.00    -0.131 N  
HETATM   20  C   UNL     1      -6.528  10.296  64.567  1.00  0.00    -0.092 C  
HETATM   21  C   UNL     1      -8.393   9.013  63.494  1.00  0.00    -0.181 C  
BRANCH  19  22
HETATM   22  C   UNL     1      -8.923  10.955  65.018  1.00  0.00    -0.168 C  
BRANCH  22  23
HETATM   23  C   UNL     1     -10.262  10.768  64.333  1.00  0.00    -0.432 C  
BRANCH  23  24
HETATM   24  C   UNL     1     -10.623  11.967  63.475  1.00  0.00    -0.507 C  
BRANCH  24  25
HETATM   25  C   UNL     1     -12.134  12.110  63.503  1.00  0.00    -0.649 C  
BRANCH  25  26
HETATM   26  C   UNL     1     -12.576  12.965  64.668  1.00  0.00    -0.459 C  
BRANCH  26  27
HETATM   27  C   UNL     1     -11.966  14.349  64.532  1.00  0.00    -0.487 C  
BRANCH  27  28
HETATM   28  C   UNL     1     -11.206  14.695  65.795  1.00  0.00    -0.336 C  
BRANCH  28  29
HETATM   29  C   UNL     1     -11.853  14.027  66.993  1.00  0.00    -0.458 C  
BRANCH  29  30
HETATM   30  C   UNL     1     -10.818  13.200  67.730  1.00  0.00    -0.261 C  
BRANCH  30  31
HETATM   31  C   UNL     1     -10.711  13.650  69.173  1.00  0.00    -0.137 C  
BRANCH  31  32
HETATM   32  C   UNL     1     -11.810  14.647  69.488  1.00  0.00    -0.374 C  
BRANCH  32  33
HETATM   33  C   UNL     1     -11.207  15.973  69.922  1.00  0.00    -0.361 C  
BRANCH  33  34
HETATM   34  C   UNL     1      -9.717  15.999  69.617  1.00  0.00    -0.164 C  
BRANCH  34  35
HETATM   35  C   UNL     1      -9.450  16.819  68.362  1.00  0.00    -0.241 C  
BRANCH  35  36
HETATM   36  C   UNL     1     -10.633  17.727  68.052  1.00  0.00    -0.372 C  
BRANCH  36  37
HETATM   37  C   UNL     1     -10.382  18.510  66.767  1.00  0.00    -0.435 C  
BRANCH  37  38
HETATM   38  C   UNL     1      -9.721  19.851  67.065  1.00  0.00    -0.529 C  
HETATM   39  C   UNL     1      -8.249  19.827  66.690  1.00  0.00    -0.353 C  
ENDBRANCH  37  38
ENDBRANCH  36  37
ENDBRANCH  35  36
ENDBRANCH  34  35
ENDBRANCH  33  34
ENDBRANCH  32  33
ENDBRANCH  31  32
ENDBRANCH  30  31
ENDBRANCH  29  30
ENDBRANCH  28  29
ENDBRANCH  27  28
ENDBRANCH  26  27
ENDBRANCH  25  26
ENDBRANCH  24  25
ENDBRANCH  23  24
ENDBRANCH  22  23
ENDBRANCH  19  22
ENDBRANCH  18  19
ENDBRANCH  17  18
ENDBRANCH  16  17
ENDBRANCH  15  16
ENDBRANCH  14  15
ENDBRANCH  13  14
ENDBRANCH  12  13
ENDBRANCH  11  12
ENDBRANCH  10  11
ENDBRANCH   9  10
ENDBRANCH   8   9
ENDBRANCH   7   8
ENDBRANCH   6   7
ENDBRANCH   5   6
ENDBRANCH   4   5
ENDBRANCH   3   4
ENDBRANCH   2   3
TORSDOF 34
ENDMDL
MODEL       90
REMARK 921   NORMALIZED FREE ENERGY PREDICTED BY IDOCK:   -3.46 KCAL/MOL
REMARK 922        TOTAL FREE ENERGY PREDICTED BY IDOCK:  -16.67 KCAL/MOL
REMARK 923 INTER-LIGAND FREE ENERGY PREDICTED BY IDOCK:  -10.92 KCAL/MOL
REMARK 924 INTRA-LIGAND FREE ENERGY PREDICTED BY IDOCK:   -5.75 KCAL/MOL
REMARK 927      BINDING AFFINITY PREDICTED BY RF-SCORE:    0.00 PKD
ROOT
HETATM    1  C   UNL     1      -8.813   4.204  72.743  1.00  0.00    -0.111 C  
HETATM    2  C   UNL     1     -10.132   4.598  72.101  1.00  0.00    -0.256 C  
ENDROOT
BRANCH   2   3
HETATM    3  C   UNL     1      -9.902   5.367  70.809  1.00  0.00    -0.252 C  
BRANCH   3   4
HETATM    4  C   UNL     1     -11.223   5.846  70.212  1.00  0.00    -0.317 C  
BRANCH   4   5
HETATM    5  C   UNL     1     -11.471   7.308  70.559  1.00  0.00    -0.310 C  
BRANCH   5   6
HETATM    6  C   UNL     1     -12.461   7.424  71.710  1.00  0.00    -0.367 C  
BRANCH   6   7
HETATM    7  C   UNL     1     -12.886   8.874  71.893  1.00  0.00    -0.437 C  
BRANCH   7   8
HETATM    8  C   UNL     1     -11.829   9.806  71.325  1.00  0.00    -0.481 C  
BRANCH   8   9
HETATM    9  C   UNL     1     -12.468  10.812  70.382  1.00  0.00    -0.430 C  
BRANCH   9  10
HETATM   10  C   UNL     1     -12.319  12.213  70.944  1.00  0.00    -0.370 C  
BRANCH  10  11
HETATM   11  C   UNL     1     -13.321  12.441  72.060  1.00  0.00    -0.511 C  
BRANCH  11  12
HETATM   12  C   UNL     1     -13.480  13.930  72.299  1.00  0.00    -0.623 C  
BRANCH  12  13
HETATM   13  C   UNL     1     -13.041  14.705  71.074  1.00  0.00    -0.427 C  
BRANCH  13  14
HETATM   14  C   UNL     1     -12.183  15.883  71.497  1.00  0.00    -0.525 C  
BRANCH  14  15
HETATM   15  C   UNL     1     -11.165  16.167  70.416  1.00  0.00    -0.394 C  
BRANCH  15  16
HETATM   16  C   UNL     1     -11.378  15.259  69.216  1.00  0.00    -0.308 C  
BRANCH  16  17
HETATM   17  C   UNL     1     -11.150  16.091  67.968  1.00  0.00    -0.334 C  
BRANCH  17  18
HETATM   18  C   UNL     1     -10.533  17.437  68.299  1.00  0.00    -0.385 C  
BRANCH  18  19
HETATM   19  N   UNL     1     -10.176  18.241  67.031  1.00  0.00    -0.359 N  
HETATM   20  C   UNL     1     -10.637  17.493  65.777  1.00  0.00    -0.174 C  
HETATM   21  C   UNL     1     -10.826  19.626  67.078  1.00  0.00    -0.399 C  
BRANCH  19  22
HETATM   22  C   UNL     1      -8.637  18.369  67.044  1.00  0.00    -0.262 C  
BRANCH  22  23
HETATM   23  C   UNL     1      -8.139  19.177  68.226  1.00  0.00    -0.367 C  
BRANCH  23  24
HETATM   24  C   UNL     1      -6.771  18.709  68.687  1.00  0.00    -0.283 C  
BRANCH  24  25
HETATM   25  C   UNL     1      -6.253  17.724  67.654  1.00  0.00    -0.168 C  
BRANCH  25  26
HETATM   26  C   UNL     1      -5.845  16.422  68.303  1.00  0.00    -0.108 C  
BRANCH  26  27
HETATM   27  C   UNL     1      -6.704  16.185  69.533  1.00  0.00    -0.195 C  
BRANCH  27  28
HETATM   28  C   UNL     1      -7.718  15.099  69.243  1.00  0.00    -0.204 C  
BRANCH  28  29
HETATM   29  C   UNL     1      -7.250  14.246  68.080  1.00  0.00    -0.127 C  
BRANCH  29  30
HETATM   30  C   UNL     1      -8.429  13.925  67.183  1.00  0.00    -0.196 C  
BRANCH  30  31
HETATM   31  C   UNL     1      -8.595  12.425  67.042  1.00  0.00    -0.191 C  
BRANCH  31  32
HETATM   32  C   UNL     1      -9.525  11.902  68.120  1.00  0.00    -0.195 C  
BRANCH  32  33
HETATM   33  C   UNL     1      -8.769  10.982  69.064  1.00  0.00    -0.072 C  
BRANCH  33  34
HETATM   34  C   UNL     1      -9.125   9.531  68.783  1.00  0.00    -0.133 C  
BRANCH  34  35
HETATM   35  C   UNL     1      -8.316   8.605  69.682  1.00  0.00    -0.123 C  
BRANCH  35  36
HETATM   36  C   UNL     1      -7.161   9.359  70.328  1.00  0.00    -0.097 C  
BRANCH  36  37
HETATM   37  C   UNL     1      -7.091   9.051  71.820  1.00  0.00     0.034 C  
BRANCH  37  38
HETATM   38  C   UNL     1      -7.912   7.813  72.162  1.00  0.00    -0.130 C  
HETATM   39  C   UNL     1      -8.819   8.074  73.352  1.00  0.00    -0.334 C  
ENDBRANCH  37  38
ENDBRANCH  36  37
ENDBRANCH  35  36
ENDBRANCH  34  35
ENDBRANCH  33  34
ENDBRANCH  32  33
ENDBRANCH  31  32
ENDBRANCH  30  31
ENDBRANCH  29  30
ENDBRANCH  28  29
ENDBRANCH  27  28
ENDBRANCH  26  27
ENDBRANCH  25  26
ENDBRANCH  24  25
ENDBRANCH  23  24
ENDBRANCH  22  23
ENDBRANCH  19  22
ENDBRANCH  18  19
ENDBRANCH  17  18
ENDBRANCH  16  17
ENDBRANCH  15  16
ENDBRANCH  14  15
ENDBRANCH  13  14
ENDBRANCH  12  13
ENDBRANCH  11  12
ENDBRANCH  10  11
ENDBRANCH   9  10
ENDBRANCH   8   9
ENDBRANCH   7   8
ENDBRANCH   6   7
ENDBRANCH   5   6
ENDBRANCH   4   5
ENDBRANCH   3   4
ENDBRANCH   2   3
TORSDOF 34
ENDMDL
MODEL       91
REMARK 921   NORMALIZED FREE ENERGY PREDICTED BY IDOCK:   -3.46 KCAL/MOL
REMARK 922        TOTAL FREE ENERGY PREDICTED BY IDOCK:  -16.66 KCAL/MOL
REMARK 923 INTER-LIGAND FREE ENERGY PREDICTED BY IDOCK:   -9.34 KCAL/MOL
REMARK 924 INTRA-LIGAND FREE ENERGY PREDICTED BY IDOCK:   -7.32 KCAL/MOL
REMARK 927      BINDING AFFINITY PREDICTED BY RF-SCORE:    0.00 PKD
ROOT
HETATM    1  C   UNL     1      -6.447   7.453  68.214  1.00  0.00    -0.045 C  
HETATM    2  C   UNL     1      -7.001   8.756  68.761  1.00  0.00    -0.063 C  
ENDROOT
BRANCH   2   3
HETATM    3  C   UNL     1      -7.830   8.514  70.014  1.00  0.00    -0.102 C  
BRANCH   3   4
HETATM    4  C   UNL     1      -6.954   8.035  71.168  1.00  0.00    -0.051 C  
BRANCH   4   5
HETATM    5  C   UNL     1      -7.812   7.544  72.326  1.00  0.00    -0.109 C  
BRANCH   5   6
HETATM    6  C   UNL     1      -9.011   8.460  72.530  1.00  0.00    -0.308 C  
BRANCH   6   7
HETATM    7  C   UNL     1     -10.123   7.716  73.255  1.00  0.00    -0.393 C  
BRANCH   7   8
HETATM    8  C   UNL     1     -11.474   8.087  72.666  1.00  0.00    -0.465 C  
BRANCH   8   9
HETATM    9  C   UNL     1     -11.423   8.017  71.149  1.00  0.00    -0.302 C  
BRANCH   9  10
HETATM   10  C   UNL     1     -12.069   6.731  70.670  1.00  0.00    -0.371 C  
BRANCH  10  11
HETATM   11  C   UNL     1     -11.138   5.996  69.723  1.00  0.00    -0.476 C  
BRANCH  11  12
HETATM   12  C   UNL     1     -10.136   5.190  70.526  1.00  0.00    -0.326 C  
BRANCH  12  13
HETATM   13  C   UNL     1      -8.896   4.924  69.698  1.00  0.00    -0.117 C  
BRANCH  13  14
HETATM   14  C   UNL     1      -8.595   3.437  69.697  1.00  0.00    -0.110 C  
BRANCH  14  15
HETATM   15  C   UNL     1      -9.451   2.759  68.652  1.00  0.00    -0.191 C  
BRANCH  15  16
HETATM   16  C   UNL     1      -8.679   1.654  67.949  1.00  0.00    -0.116 C  
BRANCH  16  17
HETATM   17  C   UNL     1      -7.344   2.232  67.521  1.00  0.00    -0.056 C  
BRANCH  17  18
HETATM   18  C   UNL     1      -6.998   1.842  66.096  1.00  0.00    -0.042 C  
BRANCH  18  19
HETATM   19  N   UNL     1      -6.676   3.069  65.218  1.00  0.00    -0.039 N  
HETATM   20  C   UNL     1      -6.346   4.281  66.094  1.00  0.00    -0.033 C  
HETATM   21  C   UNL     1      -5.501   2.765  64.287  1.00  0.00    -0.009 C  
BRANCH  19  22
HETATM   22  C   UNL     1      -7.958   3.335  64.397  1.00  0.00    -0.082 C  
BRANCH  22  23
HETATM   23  C   UNL     1      -8.687   4.580  64.861  1.00  0.00    -0.140 C  
BRANCH  23  24
HETATM   24  C   UNL     1     -10.117   4.273  65.265  1.00  0.00    -0.231 C  
BRANCH  24  25
HETATM   25  C   UNL     1     -10.524   5.292  66.314  1.00  0.00    -0.311 C  
BRANCH  25  26
HETATM   26  C   UNL     1      -9.522   6.421  66.390  1.00  0.00    -0.169 C  
BRANCH  26  27
HETATM   27  C   UNL     1     -10.217   7.673  66.898  1.00  0.00    -0.365 C  
BRANCH  27  28
HETATM   28  C   UNL     1      -9.636   8.890  66.210  1.00  0.00    -0.328 C  
BRANCH  28  29
HETATM   29  C   UNL     1     -10.314  10.148  66.717  1.00  0.00    -0.285 C  
BRANCH  29  30
HETATM   30  C   UNL     1     -10.890   9.891  68.096  1.00  0.00    -0.282 C  
BRANCH  30  31
HETATM   31  C   UNL     1     -10.432  10.959  69.068  1.00  0.00    -0.244 C  
BRANCH  31  32
HETATM   32  C   UNL     1     -11.632  11.704  69.622  1.00  0.00    -0.401 C  
BRANCH  32  33
HETATM   33  C   UNL     1     -11.588  13.161  69.193  1.00  0.00    -0.368 C  
BRANCH  33  34
HETATM   34  C   UNL     1     -10.346  13.428  68.357  1.00  0.00    -0.253 C  
BRANCH  34  35
HETATM   35  C   UNL     1     -10.717  14.177  67.085  1.00  0.00    -0.280 C  
BRANCH  35  36
HETATM   36  C   UNL     1     -12.151  13.867  66.678  1.00  0.00    -0.485 C  
BRANCH  36  37
HETATM   37  C   UNL     1     -12.197  13.326  65.252  1.00  0.00    -0.492 C  
BRANCH  37  38
HETATM   38  C   UNL     1     -10.793  13.187  64.676  1.00  0.00    -0.383 C  
HETATM   39  C   UNL     1     -10.754  12.129  63.586  1.00  0.00    -0.518 C  
ENDBRANCH  37  38
ENDBRANCH  36  37
ENDBRANCH  35  36
ENDBRANCH  34  35
ENDBRANCH  33  34
ENDBRANCH  32  33
ENDBRANCH  31  32
ENDBRANCH  30  31
ENDBRANCH  29  30
ENDBRANCH  28  29
ENDBRANCH  27  28
ENDBRANCH  26  27
ENDBRANCH  25  26
ENDBRANCH  24  25
ENDBRANCH  23  24
ENDBRANCH  22  23
ENDBRANCH  19  22
ENDBRANCH  18  19
ENDBRANCH  17  18
ENDBRANCH  16  17
ENDBRANCH  15  16
ENDBRANCH  14  15
ENDBRANCH  13  14
ENDBRANCH  12  13
ENDBRANCH  11  12
ENDBRANCH  10  11
ENDBRANCH   9  10
ENDBRANCH   8   9
ENDBRANCH   7   8
ENDBRANCH   6   7
ENDBRANCH   5   6
ENDBRANCH   4   5
ENDBRANCH   3   4
ENDBRANCH   2   3
TORSDOF 34
ENDMDL
MODEL       92
REMARK 921   NORMALIZED FREE ENERGY PREDICTED BY IDOCK:   -3.46 KCAL/MOL
REMARK 922        TOTAL FREE ENERGY PREDICTED BY IDOCK:  -16.65 KCAL/MOL
REMARK 923 INTER-LIGAND FREE ENERGY PREDICTED BY IDOCK:  -11.96 KCAL/MOL
REMARK 924 INTRA-LIGAND FREE ENERGY PREDICTED BY IDOCK:   -4.69 KCAL/MOL
REMARK 927      BINDING AFFINITY PREDICTED BY RF-SCORE:    0.00 PKD
ROOT
HETATM    1  C   UNL     1      -8.722   4.310  72.504  1.00  0.00    -0.112 C  
HETATM    2  C   UNL     1     -10.017   4.419  71.719  1.00  0.00    -0.257 C  
ENDROOT
BRANCH   2   3
HETATM    3  C   UNL     1      -9.907   5.473  70.628  1.00  0.00    -0.252 C  
BRANCH   3   4
HETATM    4  C   UNL     1     -11.276   6.057  70.289  1.00  0.00    -0.392 C  
BRANCH   4   5
HETATM    5  C   UNL     1     -11.306   7.554  70.569  1.00  0.00    -0.279 C  
BRANCH   5   6
HETATM    6  C   UNL     1     -11.687   7.820  72.018  1.00  0.00    -0.349 C  
BRANCH   6   7
HETATM    7  C   UNL     1     -12.336   9.190  72.148  1.00  0.00    -0.424 C  
BRANCH   7   8
HETATM    8  C   UNL     1     -11.671  10.178  71.202  1.00  0.00    -0.453 C  
BRANCH   8   9
HETATM    9  C   UNL     1     -12.722  11.018  70.497  1.00  0.00    -0.331 C  
BRANCH   9  10
HETATM   10  C   UNL     1     -12.612  12.464  70.943  1.00  0.00    -0.337 C  
BRANCH  10  11
HETATM   11  C   UNL     1     -13.428  12.690  72.202  1.00  0.00    -0.561 C  
BRANCH  11  12
HETATM   12  C   UNL     1     -13.790  14.159  72.311  1.00  0.00    -0.643 C  
BRANCH  12  13
HETATM   13  C   UNL     1     -13.233  14.923  71.129  1.00  0.00    -0.476 C  
BRANCH  13  14
HETATM   14  C   UNL     1     -12.134  15.858  71.599  1.00  0.00    -0.554 C  
BRANCH  14  15
HETATM   15  C   UNL     1     -11.158  16.085  70.467  1.00  0.00    -0.370 C  
BRANCH  15  16
HETATM   16  C   UNL     1     -11.818  15.832  69.122  1.00  0.00    -0.367 C  
BRANCH  16  17
HETATM   17  C   UNL     1     -11.267  16.852  68.144  1.00  0.00    -0.093 C  
BRANCH  17  18
HETATM   18  C   UNL     1     -10.083  17.602  68.727  1.00  0.00    -0.377 C  
BRANCH  18  19
HETATM   19  N   UNL     1      -9.526  18.659  67.751  1.00  0.00    -0.295 N  
HETATM   20  C   UNL     1     -10.254  18.580  66.405  1.00  0.00    -0.420 C  
HETATM   21  C   UNL     1      -9.679  20.062  68.342  1.00  0.00    -0.281 C  
BRANCH  19  22
HETATM   22  C   UNL     1      -8.032  18.309  67.573  1.00  0.00    -0.231 C  
BRANCH  22  23
HETATM   23  C   UNL     1      -7.368  17.950  68.887  1.00  0.00    -0.251 C  
BRANCH  23  24
HETATM   24  C   UNL     1      -6.279  16.911  68.698  1.00  0.00    -0.154 C  
BRANCH  24  25
HETATM   25  C   UNL     1      -6.471  16.293  67.324  1.00  0.00    -0.223 C  
BRANCH  25  26
HETATM   26  C   UNL     1      -6.661  14.797  67.425  1.00  0.00    -0.060 C  
BRANCH  26  27
HETATM   27  C   UNL     1      -7.549  14.484  68.616  1.00  0.00    -0.131 C  
BRANCH  27  28
HETATM   28  C   UNL     1      -8.931  14.095  68.132  1.00  0.00    -0.188 C  
BRANCH  28  29
HETATM   29  C   UNL     1      -8.922  13.908  66.628  1.00  0.00    -0.156 C  
BRANCH  29  30
HETATM   30  C   UNL     1      -9.835  14.934  65.986  1.00  0.00    -0.345 C  
BRANCH  30  31
HETATM   31  C   UNL     1     -10.845  14.254  65.084  1.00  0.00    -0.387 C  
BRANCH  31  32
HETATM   32  C   UNL     1     -11.951  13.637  65.917  1.00  0.00    -0.438 C  
BRANCH  32  33
HETATM   33  C   UNL     1     -11.895  12.121  65.825  1.00  0.00    -0.342 C  
BRANCH  33  34
HETATM   34  C   UNL     1     -11.389  11.532  67.132  1.00  0.00    -0.354 C  
BRANCH  34  35
HETATM   35  C   UNL     1     -10.267  10.538  66.864  1.00  0.00    -0.280 C  
BRANCH  35  36
HETATM   36  C   UNL     1     -10.547   9.212  67.559  1.00  0.00    -0.317 C  
BRANCH  36  37
HETATM   37  C   UNL     1      -9.311   8.318  67.521  1.00  0.00    -0.166 C  
BRANCH  37  38
HETATM   38  C   UNL     1      -9.265   7.504  66.233  1.00  0.00    -0.194 C  
HETATM   39  C   UNL     1      -7.930   7.675  65.529  1.00  0.00    -0.120 C  
ENDBRANCH  37  38
ENDBRANCH  36  37
ENDBRANCH  35  36
ENDBRANCH  34  35
ENDBRANCH  33  34
ENDBRANCH  32  33
ENDBRANCH  31  32
ENDBRANCH  30  31
ENDBRANCH  29  30
ENDBRANCH  28  29
ENDBRANCH  27  28
ENDBRANCH  26  27
ENDBRANCH  25  26
ENDBRANCH  24  25
ENDBRANCH  23  24
ENDBRANCH  22  23
ENDBRANCH  19  22
ENDBRANCH  18  19
ENDBRANCH  17  18
ENDBRANCH  16  17
ENDBRANCH  15  16
ENDBRANCH  14  15
ENDBRANCH  13  14
ENDBRANCH  12  13
ENDBRANCH  11  12
ENDBRANCH  10  11
ENDBRANCH   9  10
ENDBRANCH   8   9
ENDBRANCH   7   8
ENDBRANCH   6   7
ENDBRANCH   5   6
ENDBRANCH   4   5
ENDBRANCH   3   4
ENDBRANCH   2   3
TORSDOF 34
ENDMDL
MODEL       93
REMARK 921   NORMALIZED FREE ENERGY PREDICTED BY IDOCK:   -3.45 KCAL/MOL
REMARK 922        TOTAL FREE ENERGY PREDICTED BY IDOCK:  -16.65 KCAL/MOL
REMARK 923 INTER-LIGAND FREE ENERGY PREDICTED BY IDOCK:  -11.45 KCAL/MOL
REMARK 924 INTRA-LIGAND FREE ENERGY PREDICTED BY IDOCK:   -5.19 KCAL/MOL
REMARK 927      BINDING AFFINITY PREDICTED BY RF-SCORE:    0.00 PKD
ROOT
HETATM    1  C   UNL     1      -7.721   9.157  70.653  1.00  0.00    -0.152 C  
HETATM    2  C   UNL     1      -8.467   8.504  71.803  1.00  0.00    -0.236 C  
ENDROOT
BRANCH   2   3
HETATM    3  C   UNL     1      -9.955   8.810  71.733  1.00  0.00    -0.396 C  
BRANCH   3   4
HETATM    4  C   UNL     1     -10.732   8.005  72.771  1.00  0.00    -0.431 C  
BRANCH   4   5
HETATM    5  C   UNL     1     -11.996   7.415  72.159  1.00  0.00    -0.307 C  
BRANCH   5   6
HETATM    6  C   UNL     1     -11.801   5.936  71.852  1.00  0.00    -0.147 C  
BRANCH   6   7
HETATM    7  C   UNL     1     -11.342   5.197  73.100  1.00  0.00    -0.385 C  
BRANCH   7   8
HETATM    8  C   UNL     1     -10.029   4.479  72.833  1.00  0.00    -0.198 C  
BRANCH   8   9
HETATM    9  C   UNL     1      -9.853   4.246  71.342  1.00  0.00    -0.260 C  
BRANCH   9  10
HETATM   10  C   UNL     1      -8.584   4.923  70.860  1.00  0.00    -0.128 C  
BRANCH  10  11
HETATM   11  C   UNL     1      -8.833   5.629  69.540  1.00  0.00    -0.116 C  
BRANCH  11  12
HETATM   12  C   UNL     1      -9.932   4.909  68.783  1.00  0.00    -0.206 C  
BRANCH  12  13
HETATM   13  C   UNL     1     -10.837   5.911  68.097  1.00  0.00    -0.323 C  
BRANCH  13  14
HETATM   14  C   UNL     1     -10.671   7.273  68.746  1.00  0.00    -0.168 C  
BRANCH  14  15
HETATM   15  C   UNL     1     -10.489   8.316  67.666  1.00  0.00    -0.303 C  
BRANCH  15  16
HETATM   16  C   UNL     1      -9.953   7.690  66.390  1.00  0.00    -0.142 C  
BRANCH  16  17
HETATM   17  C   UNL     1      -8.504   8.117  66.246  1.00  0.00    -0.136 C  
BRANCH  17  18
HETATM   18  C   UNL     1      -8.239   9.436  66.946  1.00  0.00    -0.116 C  
BRANCH  18  19
HETATM   19  N   UNL     1      -7.916  10.570  65.949  1.00  0.00    -0.151 N  
HETATM   20  C   UNL     1      -6.778  11.443  66.484  1.00  0.00    -0.070 C  
HETATM   21  C   UNL     1      -7.529   9.988  64.588  1.00  0.00    -0.143 C  
BRANCH  19  22
HETATM   22  C   UNL     1      -9.216  11.396  65.831  1.00  0.00    -0.216 C  
BRANCH  22  23
HETATM   23  C   UNL     1     -10.094  10.923  64.689  1.00  0.00    -0.391 C  
BRANCH  23  24
HETATM   24  C   UNL     1     -10.415  12.051  63.726  1.00  0.00    -0.469 C  
BRANCH  24  25
HETATM   25  C   UNL     1     -11.925  12.207  63.693  1.00  0.00    -0.628 C  
BRANCH  25  26
HETATM   26  C   UNL     1     -12.472  12.492  65.073  1.00  0.00    -0.494 C  
BRANCH  26  27
HETATM   27  C   UNL     1     -12.615  13.992  65.254  1.00  0.00    -0.495 C  
BRANCH  27  28
HETATM   28  C   UNL     1     -11.752  14.450  66.410  1.00  0.00    -0.397 C  
BRANCH  28  29
HETATM   29  C   UNL     1     -10.396  14.899  65.903  1.00  0.00    -0.330 C  
BRANCH  29  30
HETATM   30  C   UNL     1     -10.380  16.410  65.774  1.00  0.00    -0.388 C  
BRANCH  30  31
HETATM   31  C   UNL     1      -9.153  16.986  66.451  1.00  0.00    -0.300 C  
BRANCH  31  32
HETATM   32  C   UNL     1      -8.333  15.872  67.073  1.00  0.00    -0.255 C  
BRANCH  32  33
HETATM   33  C   UNL     1      -8.169  16.111  68.564  1.00  0.00    -0.186 C  
BRANCH  33  34
HETATM   34  C   UNL     1      -9.475  16.605  69.166  1.00  0.00    -0.188 C  
BRANCH  34  35
HETATM   35  C   UNL     1     -10.255  15.440  69.761  1.00  0.00    -0.278 C  
BRANCH  35  36
HETATM   36  C   UNL     1     -11.521  15.937  70.447  1.00  0.00    -0.393 C  
BRANCH  36  37
HETATM   37  C   UNL     1     -11.892  15.022  71.610  1.00  0.00    -0.441 C  
BRANCH  37  38
HETATM   38  C   UNL     1     -13.284  14.432  71.419  1.00  0.00    -0.418 C  
HETATM   39  C   UNL     1     -13.643  13.503  72.567  1.00  0.00    -0.674 C  
ENDBRANCH  37  38
ENDBRANCH  36  37
ENDBRANCH  35  36
ENDBRANCH  34  35
ENDBRANCH  33  34
ENDBRANCH  32  33
ENDBRANCH  31  32
ENDBRANCH  30  31
ENDBRANCH  29  30
ENDBRANCH  28  29
ENDBRANCH  27  28
ENDBRANCH  26  27
ENDBRANCH  25  26
ENDBRANCH  24  25
ENDBRANCH  23  24
ENDBRANCH  22  23
ENDBRANCH  19  22
ENDBRANCH  18  19
ENDBRANCH  17  18
ENDBRANCH  16  17
ENDBRANCH  15  16
ENDBRANCH  14  15
ENDBRANCH  13  14
ENDBRANCH  12  13
ENDBRANCH  11  12
ENDBRANCH  10  11
ENDBRANCH   9  10
ENDBRANCH   8   9
ENDBRANCH   7   8
ENDBRANCH   6   7
ENDBRANCH   5   6
ENDBRANCH   4   5
ENDBRANCH   3   4
ENDBRANCH   2   3
TORSDOF 34
ENDMDL
MODEL       94
REMARK 921   NORMALIZED FREE ENERGY PREDICTED BY IDOCK:   -3.45 KCAL/MOL
REMARK 922        TOTAL FREE ENERGY PREDICTED BY IDOCK:  -16.63 KCAL/MOL
REMARK 923 INTER-LIGAND FREE ENERGY PREDICTED BY IDOCK:  -11.30 KCAL/MOL
REMARK 924 INTRA-LIGAND FREE ENERGY PREDICTED BY IDOCK:   -5.33 KCAL/MOL
REMARK 927      BINDING AFFINITY PREDICTED BY RF-SCORE:    0.00 PKD
ROOT
HETATM    1  C   UNL     1      -7.313   9.633  70.443  1.00  0.00    -0.156 C  
HETATM    2  C   UNL     1      -8.572   9.904  69.639  1.00  0.00    -0.207 C  
ENDROOT
BRANCH   2   3
HETATM    3  C   UNL     1      -9.818   9.564  70.443  1.00  0.00    -0.329 C  
BRANCH   3   4
HETATM    4  C   UNL     1     -11.040  10.301  69.902  1.00  0.00    -0.362 C  
BRANCH   4   5
HETATM    5  C   UNL     1     -11.931  10.774  71.043  1.00  0.00    -0.409 C  
BRANCH   5   6
HETATM    6  C   UNL     1     -13.274  10.058  71.005  1.00  0.00    -0.399 C  
BRANCH   6   7
HETATM    7  C   UNL     1     -13.339   9.003  72.100  1.00  0.00    -0.510 C  
BRANCH   7   8
HETATM    8  C   UNL     1     -13.265   7.611  71.493  1.00  0.00    -0.380 C  
BRANCH   8   9
HETATM    9  C   UNL     1     -11.928   6.967  71.818  1.00  0.00    -0.361 C  
BRANCH   9  10
HETATM   10  C   UNL     1     -11.344   7.594  73.071  1.00  0.00    -0.334 C  
BRANCH  10  11
HETATM   11  C   UNL     1      -9.922   7.112  73.286  1.00  0.00    -0.296 C  
BRANCH  11  12
HETATM   12  C   UNL     1      -9.871   5.604  73.130  1.00  0.00    -0.180 C  
BRANCH  12  13
HETATM   13  C   UNL     1      -8.446   5.150  72.897  1.00  0.00    -0.116 C  
BRANCH  13  14
HETATM   14  C   UNL     1      -7.565   6.357  72.629  1.00  0.00    -0.103 C  
BRANCH  14  15
HETATM   15  C   UNL     1      -6.544   6.000  71.573  1.00  0.00    -0.054 C  
BRANCH  15  16
HETATM   16  C   UNL     1      -7.196   5.266  70.413  1.00  0.00    -0.062 C  
BRANCH  16  17
HETATM   17  C   UNL     1      -7.346   6.256  69.273  1.00  0.00    -0.092 C  
BRANCH  17  18
HETATM   18  C   UNL     1      -8.752   6.242  68.703  1.00  0.00    -0.120 C  
BRANCH  18  19
HETATM   19  N   UNL     1      -8.809   5.577  67.312  1.00  0.00    -0.107 N  
HETATM   20  C   UNL     1      -7.421   5.572  66.665  1.00  0.00    -0.087 C  
HETATM   21  C   UNL     1      -9.334   4.145  67.427  1.00  0.00    -0.175 C  
BRANCH  19  22
HETATM   22  C   UNL     1      -9.784   6.442  66.482  1.00  0.00    -0.129 C  
BRANCH  22  23
HETATM   23  C   UNL     1     -10.441   7.524  67.316  1.00  0.00    -0.391 C  
BRANCH  23  24
HETATM   24  C   UNL     1     -10.458   8.857  66.591  1.00  0.00    -0.231 C  
BRANCH  24  25
HETATM   25  C   UNL     1      -9.082   9.062  65.980  1.00  0.00    -0.257 C  
BRANCH  25  26
HETATM   26  C   UNL     1      -9.040  10.324  65.151  1.00  0.00    -0.234 C  
BRANCH  26  27
HETATM   27  C   UNL     1     -10.443  10.891  65.030  1.00  0.00    -0.331 C  
BRANCH  27  28
HETATM   28  C   UNL     1     -10.732  11.228  63.582  1.00  0.00    -0.438 C  
BRANCH  28  29
HETATM   29  C   UNL     1     -11.649  12.432  63.501  1.00  0.00    -0.577 C  
BRANCH  29  30
HETATM   30  C   UNL     1     -12.591  12.431  64.689  1.00  0.00    -0.459 C  
BRANCH  30  31
HETATM   31  C   UNL     1     -12.491  13.741  65.444  1.00  0.00    -0.532 C  
BRANCH  31  32
HETATM   32  C   UNL     1     -11.444  14.631  64.803  1.00  0.00    -0.410 C  
BRANCH  32  33
HETATM   33  C   UNL     1     -10.283  14.848  65.760  1.00  0.00    -0.358 C  
BRANCH  33  34
HETATM   34  C   UNL     1     -10.726  14.593  67.192  1.00  0.00    -0.292 C  
BRANCH  34  35
HETATM   35  C   UNL     1     -10.068  15.593  68.134  1.00  0.00    -0.222 C  
BRANCH  35  36
HETATM   36  C   UNL     1      -9.877  16.937  67.442  1.00  0.00    -0.261 C  
BRANCH  36  37
HETATM   37  C   UNL     1      -9.101  17.894  68.341  1.00  0.00    -0.292 C  
BRANCH  37  38
HETATM   38  C   UNL     1      -9.946  19.110  68.703  1.00  0.00    -0.486 C  
HETATM   39  C   UNL     1     -10.287  19.923  67.466  1.00  0.00    -0.557 C  
ENDBRANCH  37  38
ENDBRANCH  36  37
ENDBRANCH  35  36
ENDBRANCH  34  35
ENDBRANCH  33  34
ENDBRANCH  32  33
ENDBRANCH  31  32
ENDBRANCH  30  31
ENDBRANCH  29  30
ENDBRANCH  28  29
ENDBRANCH  27  28
ENDBRANCH  26  27
ENDBRANCH  25  26
ENDBRANCH  24  25
ENDBRANCH  23  24
ENDBRANCH  22  23
ENDBRANCH  19  22
ENDBRANCH  18  19
ENDBRANCH  17  18
ENDBRANCH  16  17
ENDBRANCH  15  16
ENDBRANCH  14  15
ENDBRANCH  13  14
ENDBRANCH  12  13
ENDBRANCH  11  12
ENDBRANCH  10  11
ENDBRANCH   9  10
ENDBRANCH   8   9
ENDBRANCH   7   8
ENDBRANCH   6   7
ENDBRANCH   5   6
ENDBRANCH   4   5
ENDBRANCH   3   4
ENDBRANCH   2   3
TORSDOF 34
ENDMDL
MODEL       95
REMARK 921   NORMALIZED FREE ENERGY PREDICTED BY IDOCK:   -3.40 KCAL/MOL
REMARK 922        TOTAL FREE ENERGY PREDICTED BY IDOCK:  -16.48 KCAL/MOL
REMARK 923 INTER-LIGAND FREE ENERGY PREDICTED BY IDOCK:  -11.26 KCAL/MOL
REMARK 924 INTRA-LIGAND FREE ENERGY PREDICTED BY IDOCK:   -5.22 KCAL/MOL
REMARK 927      BINDING AFFINITY PREDICTED BY RF-SCORE:    0.00 PKD
ROOT
HETATM    1  C   UNL     1     -11.188   6.374  72.507  1.00  0.00    -0.307 C  
HETATM    2  C   UNL     1     -11.711   7.270  71.398  1.00  0.00    -0.317 C  
ENDROOT
BRANCH   2   3
HETATM    3  C   UNL     1     -13.180   7.602  71.613  1.00  0.00    -0.395 C  
BRANCH   3   4
HETATM    4  C   UNL     1     -13.392   9.110  71.723  1.00  0.00    -0.469 C  
BRANCH   4   5
HETATM    5  C   UNL     1     -12.109   9.859  71.385  1.00  0.00    -0.501 C  
BRANCH   5   6
HETATM    6  C   UNL     1     -12.428  11.220  70.781  1.00  0.00    -0.471 C  
BRANCH   6   7
HETATM    7  C   UNL     1     -12.125  11.216  69.290  1.00  0.00    -0.377 C  
BRANCH   7   8
HETATM    8  C   UNL     1     -11.035  10.204  68.978  1.00  0.00    -0.265 C  
BRANCH   8   9
HETATM    9  C   UNL     1      -9.685  10.896  68.893  1.00  0.00    -0.198 C  
BRANCH   9  10
HETATM   10  C   UNL     1      -8.574   9.893  69.140  1.00  0.00    -0.157 C  
BRANCH  10  11
HETATM   11  C   UNL     1      -9.152   8.502  69.325  1.00  0.00    -0.153 C  
BRANCH  11  12
HETATM   12  C   UNL     1      -8.298   7.497  68.577  1.00  0.00    -0.126 C  
BRANCH  12  13
HETATM   13  C   UNL     1      -9.106   6.838  67.480  1.00  0.00    -0.117 C  
BRANCH  13  14
HETATM   14  C   UNL     1      -9.610   7.894  66.514  1.00  0.00    -0.281 C  
BRANCH  14  15
HETATM   15  C   UNL     1      -8.439   8.457  65.741  1.00  0.00    -0.169 C  
BRANCH  15  16
HETATM   16  C   UNL     1      -8.914   9.222  64.517  1.00  0.00    -0.183 C  
BRANCH  16  17
HETATM   17  C   UNL     1      -9.917  10.258  64.987  1.00  0.00    -0.393 C  
BRANCH  17  18
HETATM   18  C   UNL     1     -10.134  11.339  63.944  1.00  0.00    -0.340 C  
BRANCH  18  19
HETATM   19  N   UNL     1     -11.034  12.478  64.465  1.00  0.00    -0.304 N  
HETATM   20  C   UNL     1     -11.936  13.002  63.344  1.00  0.00    -0.520 C  
HETATM   21  C   UNL     1     -11.891  11.988  65.635  1.00  0.00    -0.172 C  
BRANCH  19  22
HETATM   22  C   UNL     1     -10.065  13.586  64.936  1.00  0.00    -0.254 C  
BRANCH  22  23
HETATM   23  C   UNL     1      -9.989  13.676  66.447  1.00  0.00    -0.299 C  
BRANCH  23  24
HETATM   24  C   UNL     1     -10.072  15.113  66.927  1.00  0.00    -0.256 C  
BRANCH  24  25
HETATM   25  C   UNL     1      -9.574  16.000  65.799  1.00  0.00    -0.311 C  
BRANCH  25  26
HETATM   26  C   UNL     1      -9.426  17.432  66.261  1.00  0.00    -0.247 C  
BRANCH  26  27
HETATM   27  C   UNL     1     -10.143  17.606  67.588  1.00  0.00    -0.339 C  
BRANCH  27  28
HETATM   28  C   UNL     1     -10.521  19.060  67.774  1.00  0.00    -0.499 C  
BRANCH  28  29
HETATM   29  C   UNL     1     -10.009  19.885  66.609  1.00  0.00    -0.578 C  
BRANCH  29  30
HETATM   30  C   UNL     1      -8.939  20.840  67.099  1.00  0.00    -0.277 C  
BRANCH  30  31
HETATM   31  C   UNL     1      -7.559  20.284  66.808  1.00  0.00    -0.336 C  
BRANCH  31  32
HETATM   32  C   UNL     1      -6.534  20.944  67.711  1.00  0.00    -0.400 C  
BRANCH  32  33
HETATM   33  C   UNL     1      -5.818  19.896  68.546  1.00  0.00    -0.270 C  
BRANCH  33  34
HETATM   34  C   UNL     1      -6.504  18.546  68.399  1.00  0.00    -0.226 C  
BRANCH  34  35
HETATM   35  C   UNL     1      -5.469  17.449  68.191  1.00  0.00    -0.133 C  
BRANCH  35  36
HETATM   36  C   UNL     1      -6.045  16.320  67.346  1.00  0.00    -0.197 C  
BRANCH  36  37
HETATM   37  C   UNL     1      -5.570  14.968  67.866  1.00  0.00    -0.133 C  
BRANCH  37  38
HETATM   38  C   UNL     1      -6.677  13.924  67.766  1.00  0.00    -0.186 C  
HETATM   39  C   UNL     1      -6.762  13.097  69.037  1.00  0.00    -0.103 C  
ENDBRANCH  37  38
ENDBRANCH  36  37
ENDBRANCH  35  36
ENDBRANCH  34  35
ENDBRANCH  33  34
ENDBRANCH  32  33
ENDBRANCH  31  32
ENDBRANCH  30  31
ENDBRANCH  29  30
ENDBRANCH  28  29
ENDBRANCH  27  28
ENDBRANCH  26  27
ENDBRANCH  25  26
ENDBRANCH  24  25
ENDBRANCH  23  24
ENDBRANCH  22  23
ENDBRANCH  19  22
ENDBRANCH  18  19
ENDBRANCH  17  18
ENDBRANCH  16  17
ENDBRANCH  15  16
ENDBRANCH  14  15
ENDBRANCH  13  14
ENDBRANCH  12  13
ENDBRANCH  11  12
ENDBRANCH  10  11
ENDBRANCH   9  10
ENDBRANCH   8   9
ENDBRANCH   7   8
ENDBRANCH   6   7
ENDBRANCH   5   6
ENDBRANCH   4   5
ENDBRANCH   3   4
ENDBRANCH   2   3
TORSDOF 34
ENDMDL
MODEL       96
REMARK 921   NORMALIZED FREE ENERGY PREDICTED BY IDOCK:   -3.38 KCAL/MOL
REMARK 922        TOTAL FREE ENERGY PREDICTED BY IDOCK:  -16.43 KCAL/MOL
REMARK 923 INTER-LIGAND FREE ENERGY PREDICTED BY IDOCK:   -9.41 KCAL/MOL
REMARK 924 INTRA-LIGAND FREE ENERGY PREDICTED BY IDOCK:   -7.03 KCAL/MOL
REMARK 927      BINDING AFFINITY PREDICTED BY RF-SCORE:    0.00 PKD
ROOT
HETATM    1  C   UNL     1     -10.787  19.231  67.169  1.00  0.00    -0.543 C  
HETATM    2  C   UNL     1      -9.378  18.856  67.594  1.00  0.00    -0.331 C  
ENDROOT
BRANCH   2   3
HETATM    3  C   UNL     1      -9.209  17.346  67.653  1.00  0.00    -0.234 C  
BRANCH   3   4
HETATM    4  C   UNL     1      -8.674  16.801  66.332  1.00  0.00    -0.337 C  
BRANCH   4   5
HETATM    5  C   UNL     1      -9.488  15.596  65.878  1.00  0.00    -0.376 C  
BRANCH   5   6
HETATM    6  C   UNL     1     -10.809  15.528  66.631  1.00  0.00    -0.285 C  
BRANCH   6   7
HETATM    7  C   UNL     1     -11.771  14.588  65.920  1.00  0.00    -0.345 C  
BRANCH   7   8
HETATM    8  C   UNL     1     -11.074  13.905  64.755  1.00  0.00    -0.386 C  
BRANCH   8   9
HETATM    9  C   UNL     1     -12.098  13.286  63.820  1.00  0.00    -0.546 C  
BRANCH   9  10
HETATM   10  C   UNL     1     -11.681  11.872  63.460  1.00  0.00    -0.550 C  
BRANCH  10  11
HETATM   11  C   UNL     1     -10.168  11.758  63.445  1.00  0.00    -0.482 C  
BRANCH  11  12
HETATM   12  C   UNL     1      -9.773  10.347  63.057  1.00  0.00    -0.288 C  
BRANCH  12  13
HETATM   13  C   UNL     1      -8.278  10.266  62.831  1.00  0.00    -0.161 C  
BRANCH  13  14
HETATM   14  C   UNL     1      -7.633   9.489  63.963  1.00  0.00    -0.122 C  
BRANCH  14  15
HETATM   15  C   UNL     1      -6.129   9.584  63.835  1.00  0.00    -0.096 C  
BRANCH  15  16
HETATM   16  C   UNL     1      -5.474   9.709  65.200  1.00  0.00    -0.048 C  
BRANCH  16  17
HETATM   17  C   UNL     1      -6.195  10.811  65.953  1.00  0.00    -0.121 C  
BRANCH  17  18
HETATM   18  C   UNL     1      -5.594  11.034  67.328  1.00  0.00    -0.048 C  
BRANCH  18  19
HETATM   19  N   UNL     1      -6.440  12.000  68.184  1.00  0.00    -0.051 N  
HETATM   20  C   UNL     1      -6.841  11.333  69.503  1.00  0.00    -0.115 C  
HETATM   21  C   UNL     1      -5.658  13.284  68.468  1.00  0.00    -0.084 C  
BRANCH  19  22
HETATM   22  C   UNL     1      -7.694  12.310  67.336  1.00  0.00    -0.165 C  
BRANCH  22  23
HETATM   23  C   UNL     1      -8.909  12.598  68.196  1.00  0.00    -0.194 C  
BRANCH  23  24
HETATM   24  C   UNL     1     -10.126  11.825  67.722  1.00  0.00    -0.199 C  
BRANCH  24  25
HETATM   25  C   UNL     1      -9.631  10.689  66.843  1.00  0.00    -0.200 C  
BRANCH  25  26
HETATM   26  C   UNL     1     -10.601   9.530  66.859  1.00  0.00    -0.241 C  
BRANCH  26  27
HETATM   27  C   UNL     1      -9.847   8.244  66.570  1.00  0.00    -0.323 C  
BRANCH  27  28
HETATM   28  C   UNL     1      -8.476   8.305  67.208  1.00  0.00    -0.124 C  
BRANCH  28  29
HETATM   29  C   UNL     1      -7.662   7.089  66.811  1.00  0.00    -0.098 C  
BRANCH  29  30
HETATM   30  C   UNL     1      -8.567   5.875  66.744  1.00  0.00    -0.113 C  
BRANCH  30  31
HETATM   31  C   UNL     1      -8.497   5.089  68.038  1.00  0.00    -0.103 C  
BRANCH  31  32
HETATM   32  C   UNL     1      -9.884   4.622  68.437  1.00  0.00    -0.169 C  
BRANCH  32  33
HETATM   33  C   UNL     1     -10.265   5.203  69.788  1.00  0.00    -0.357 C  
BRANCH  33  34
HETATM   34  C   UNL     1     -11.107   6.456  69.604  1.00  0.00    -0.465 C  
BRANCH  34  35
HETATM   35  C   UNL     1     -10.978   7.362  70.821  1.00  0.00    -0.272 C  
BRANCH  35  36
HETATM   36  C   UNL     1     -11.017   8.827  70.406  1.00  0.00    -0.262 C  
BRANCH  36  37
HETATM   37  C   UNL     1      -9.641   9.465  70.566  1.00  0.00    -0.330 C  
BRANCH  37  38
HETATM   38  C   UNL     1      -8.581   8.410  70.862  1.00  0.00    -0.167 C  
HETATM   39  C   UNL     1      -7.982   8.614  72.243  1.00  0.00    -0.072 C  
ENDBRANCH  37  38
ENDBRANCH  36  37
ENDBRANCH  35  36
ENDBRANCH  34  35
ENDBRANCH  33  34
ENDBRANCH  32  33
ENDBRANCH  31  32
ENDBRANCH  30  31
ENDBRANCH  29  30
ENDBRANCH  28  29
ENDBRANCH  27  28
ENDBRANCH  26  27
ENDBRANCH  25  26
ENDBRANCH  24  25
ENDBRANCH  23  24
ENDBRANCH  22  23
ENDBRANCH  19  22
ENDBRANCH  18  19
ENDBRANCH  17  18
ENDBRANCH  16  17
ENDBRANCH  15  16
ENDBRANCH  14  15
ENDBRANCH  13  14
ENDBRANCH  12  13
ENDBRANCH  11  12
ENDBRANCH  10  11
ENDBRANCH   9  10
ENDBRANCH   8   9
ENDBRANCH   7   8
ENDBRANCH   6   7
ENDBRANCH   5   6
ENDBRANCH   4   5
ENDBRANCH   3   4
ENDBRANCH   2   3
TORSDOF 34
ENDMDL
MODEL       97
REMARK 921   NORMALIZED FREE ENERGY PREDICTED BY IDOCK:   -3.36 KCAL/MOL
REMARK 922        TOTAL FREE ENERGY PREDICTED BY IDOCK:  -16.36 KCAL/MOL
REMARK 923 INTER-LIGAND FREE ENERGY PREDICTED BY IDOCK:   -9.73 KCAL/MOL
REMARK 924 INTRA-LIGAND FREE ENERGY PREDICTED BY IDOCK:   -6.63 KCAL/MOL
REMARK 927      BINDING AFFINITY PREDICTED BY RF-SCORE:    0.00 PKD
ROOT
HETATM    1  C   UNL     1     -11.047  10.383  67.706  1.00  0.00    -0.365 C  
HETATM    2  C   UNL     1     -11.932  11.248  68.585  1.00  0.00    -0.314 C  
ENDROOT
BRANCH   2   3
HETATM    3  C   UNL     1     -11.546  11.112  70.050  1.00  0.00    -0.421 C  
BRANCH   3   4
HETATM    4  C   UNL     1     -12.780  11.132  70.948  1.00  0.00    -0.438 C  
BRANCH   4   5
HETATM    5  C   UNL     1     -12.831   9.884  71.820  1.00  0.00    -0.540 C  
BRANCH   5   6
HETATM    6  C   UNL     1     -11.485   9.175  71.818  1.00  0.00    -0.452 C  
BRANCH   6   7
HETATM    7  C   UNL     1     -11.628   7.773  72.394  1.00  0.00    -0.410 C  
BRANCH   7   8
HETATM    8  C   UNL     1     -12.474   6.910  71.472  1.00  0.00    -0.420 C  
BRANCH   8   9
HETATM    9  C   UNL     1     -11.725   6.631  70.180  1.00  0.00    -0.412 C  
BRANCH   9  10
HETATM   10  C   UNL     1     -10.630   5.610  70.429  1.00  0.00    -0.364 C  
BRANCH  10  11
HETATM   11  C   UNL     1      -9.281   6.176  70.027  1.00  0.00    -0.158 C  
BRANCH  11  12
HETATM   12  C   UNL     1      -9.487   7.361  69.103  1.00  0.00    -0.149 C  
BRANCH  12  13
HETATM   13  C   UNL     1      -8.420   8.406  69.348  1.00  0.00    -0.125 C  
BRANCH  13  14
HETATM   14  C   UNL     1      -7.114   7.959  68.718  1.00  0.00    -0.072 C  
BRANCH  14  15
HETATM   15  C   UNL     1      -7.375   7.530  67.292  1.00  0.00    -0.098 C  
BRANCH  15  16
HETATM   16  C   UNL     1      -6.525   6.325  66.922  1.00  0.00    -0.046 C  
BRANCH  16  17
HETATM   17  C   UNL     1      -7.455   5.265  66.364  1.00  0.00    -0.087 C  
BRANCH  17  18
HETATM   18  C   UNL     1      -8.226   5.776  65.161  1.00  0.00    -0.140 C  
BRANCH  18  19
HETATM   19  N   UNL     1      -7.787   5.085  63.852  1.00  0.00    -0.082 N  
HETATM   20  C   UNL     1      -7.091   3.755  64.158  1.00  0.00    -0.050 C  
HETATM   21  C   UNL     1      -8.996   4.842  62.946  1.00  0.00    -0.095 C  
BRANCH  19  22
HETATM   22  C   UNL     1      -6.799   6.065  63.180  1.00  0.00    -0.044 C  
BRANCH  22  23
HETATM   23  C   UNL     1      -7.117   7.510  63.505  1.00  0.00    -0.070 C  
BRANCH  23  24
HETATM   24  C   UNL     1      -5.865   8.292  63.859  1.00  0.00    -0.066 C  
BRANCH  24  25
HETATM   25  C   UNL     1      -6.267   9.748  64.022  1.00  0.00    -0.116 C  
BRANCH  25  26
HETATM   26  C   UNL     1      -5.774  10.302  65.339  1.00  0.00    -0.104 C  
BRANCH  26  27
HETATM   27  C   UNL     1      -6.954  10.845  66.126  1.00  0.00    -0.099 C  
BRANCH  27  28
HETATM   28  C   UNL     1      -6.478  11.342  67.475  1.00  0.00    -0.074 C  
BRANCH  28  29
HETATM   29  C   UNL     1      -7.643  11.913  68.260  1.00  0.00    -0.116 C  
BRANCH  29  30
HETATM   30  C   UNL     1      -7.773  13.395  67.966  1.00  0.00    -0.147 C  
BRANCH  30  31
HETATM   31  C   UNL     1      -9.160  13.712  67.444  1.00  0.00    -0.222 C  
BRANCH  31  32
HETATM   32  C   UNL     1      -9.122  14.977  66.608  1.00  0.00    -0.309 C  
BRANCH  32  33
HETATM   33  C   UNL     1     -10.400  15.108  65.797  1.00  0.00    -0.359 C  
BRANCH  33  34
HETATM   34  C   UNL     1     -11.545  14.393  66.497  1.00  0.00    -0.388 C  
BRANCH  34  35
HETATM   35  C   UNL     1     -12.613  13.992  65.489  1.00  0.00    -0.543 C  
BRANCH  35  36
HETATM   36  C   UNL     1     -12.420  12.546  65.049  1.00  0.00    -0.494 C  
BRANCH  36  37
HETATM   37  C   UNL     1     -12.111  12.479  63.556  1.00  0.00    -0.653 C  
BRANCH  37  38
HETATM   38  C   UNL     1     -10.872  11.633  63.292  1.00  0.00    -0.380 C  
HETATM   39  C   UNL     1      -9.995  11.551  64.530  1.00  0.00    -0.306 C  
ENDBRANCH  37  38
ENDBRANCH  36  37
ENDBRANCH  35  36
ENDBRANCH  34  35
ENDBRANCH  33  34
ENDBRANCH  32  33
ENDBRANCH  31  32
ENDBRANCH  30  31
ENDBRANCH  29  30
ENDBRANCH  28  29
ENDBRANCH  27  28
ENDBRANCH  26  27
ENDBRANCH  25  26
ENDBRANCH  24  25
ENDBRANCH  23  24
ENDBRANCH  22  23
ENDBRANCH  19  22
ENDBRANCH  18  19
ENDBRANCH  17  18
ENDBRANCH  16  17
ENDBRANCH  15  16
ENDBRANCH  14  15
ENDBRANCH  13  14
ENDBRANCH  12  13
ENDBRANCH  11  12
ENDBRANCH  10  11
ENDBRANCH   9  10
ENDBRANCH   8   9
ENDBRANCH   7   8
ENDBRANCH   6   7
ENDBRANCH   5   6
ENDBRANCH   4   5
ENDBRANCH   3   4
ENDBRANCH   2   3
TORSDOF 34
ENDMDL
MODEL       98
REMARK 921   NORMALIZED FREE ENERGY PREDICTED BY IDOCK:   -3.35 KCAL/MOL
REMARK 922        TOTAL FREE ENERGY PREDICTED BY IDOCK:  -16.34 KCAL/MOL
REMARK 923 INTER-LIGAND FREE ENERGY PREDICTED BY IDOCK:  -11.00 KCAL/MOL
REMARK 924 INTRA-LIGAND FREE ENERGY PREDICTED BY IDOCK:   -5.35 KCAL/MOL
REMARK 927      BINDING AFFINITY PREDICTED BY RF-SCORE:    0.00 PKD
ROOT
HETATM    1  C   UNL     1     -10.350   3.784  72.951  1.00  0.00    -0.241 C  
HETATM    2  C   UNL     1      -9.981   3.346  71.544  1.00  0.00    -0.161 C  
ENDROOT
BRANCH   2   3
HETATM    3  C   UNL     1      -8.540   3.710  71.220  1.00  0.00    -0.113 C  
BRANCH   3   4
HETATM    4  C   UNL     1      -8.136   3.180  69.846  1.00  0.00    -0.058 C  
BRANCH   4   5
HETATM    5  C   UNL     1      -9.208   2.251  69.291  1.00  0.00    -0.190 C  
BRANCH   5   6
HETATM    6  C   UNL     1      -8.972   1.987  67.811  1.00  0.00    -0.183 C  
BRANCH   6   7
HETATM    7  C   UNL     1      -7.563   2.410  67.420  1.00  0.00    -0.061 C  
BRANCH   7   8
HETATM    8  C   UNL     1      -7.580   3.106  66.069  1.00  0.00    -0.077 C  
BRANCH   8   9
HETATM    9  C   UNL     1      -8.793   2.667  65.267  1.00  0.00    -0.127 C  
BRANCH   9  10
HETATM   10  C   UNL     1      -9.469   3.876  64.648  1.00  0.00    -0.167 C  
BRANCH  10  11
HETATM   11  C   UNL     1      -9.284   5.093  65.536  1.00  0.00    -0.144 C  
BRANCH  11  12
HETATM   12  C   UNL     1     -10.551   5.330  66.335  1.00  0.00    -0.338 C  
BRANCH  12  13
HETATM   13  C   UNL     1     -10.220   5.495  67.803  1.00  0.00    -0.237 C  
BRANCH  13  14
HETATM   14  C   UNL     1     -11.041   6.630  68.386  1.00  0.00    -0.281 C  
BRANCH  14  15
HETATM   15  C   UNL     1     -10.796   7.884  67.579  1.00  0.00    -0.152 C  
BRANCH  15  16
HETATM   16  C   UNL     1      -9.521   8.579  68.027  1.00  0.00    -0.154 C  
BRANCH  16  17
HETATM   17  C   UNL     1      -9.854  10.041  68.255  1.00  0.00    -0.163 C  
BRANCH  17  18
HETATM   18  C   UNL     1     -11.006  10.495  67.377  1.00  0.00    -0.288 C  
BRANCH  18  19
HETATM   19  N   UNL     1     -10.772  11.904  66.792  1.00  0.00    -0.235 N  
HETATM   20  C   UNL     1      -9.283  12.258  66.831  1.00  0.00    -0.209 C  
HETATM   21  C   UNL     1     -11.286  11.975  65.353  1.00  0.00    -0.321 C  
BRANCH  19  22
HETATM   22  C   UNL     1     -11.575  12.864  67.698  1.00  0.00    -0.355 C  
BRANCH  22  23
HETATM   23  C   UNL     1     -11.804  14.211  67.044  1.00  0.00    -0.458 C  
BRANCH  23  24
HETATM   24  C   UNL     1     -11.078  15.322  67.780  1.00  0.00    -0.318 C  
BRANCH  24  25
HETATM   25  C   UNL     1     -11.919  15.695  68.988  1.00  0.00    -0.323 C  
BRANCH  25  26
HETATM   26  C   UNL     1     -11.047  16.128  70.144  1.00  0.00    -0.373 C  
BRANCH  26  27
HETATM   27  C   UNL     1     -11.831  15.999  71.437  1.00  0.00    -0.531 C  
BRANCH  27  28
HETATM   28  C   UNL     1     -13.070  15.160  71.199  1.00  0.00    -0.515 C  
BRANCH  28  29
HETATM   29  C   UNL     1     -13.444  14.413  72.464  1.00  0.00    -0.593 C  
BRANCH  29  30
HETATM   30  C   UNL     1     -13.486  12.925  72.178  1.00  0.00    -0.619 C  
BRANCH  30  31
HETATM   31  C   UNL     1     -12.575  12.583  71.016  1.00  0.00    -0.350 C  
BRANCH  31  32
HETATM   32  C   UNL     1     -12.382  11.081  70.933  1.00  0.00    -0.503 C  
BRANCH  32  33
HETATM   33  C   UNL     1     -13.320  10.377  71.899  1.00  0.00    -0.469 C  
BRANCH  33  34
HETATM   34  C   UNL     1     -12.912   8.921  72.065  1.00  0.00    -0.454 C  
BRANCH  34  35
HETATM   35  C   UNL     1     -11.403   8.776  71.919  1.00  0.00    -0.431 C  
BRANCH  35  36
HETATM   36  C   UNL     1     -11.027   7.327  71.639  1.00  0.00    -0.253 C  
BRANCH  36  37
HETATM   37  C   UNL     1      -9.566   7.076  71.997  1.00  0.00    -0.149 C  
BRANCH  37  38
HETATM   38  C   UNL     1      -8.818   8.389  72.195  1.00  0.00    -0.285 C  
HETATM   39  C   UNL     1      -7.696   8.533  71.181  1.00  0.00    -0.115 C  
ENDBRANCH  37  38
ENDBRANCH  36  37
ENDBRANCH  35  36
ENDBRANCH  34  35
ENDBRANCH  33  34
ENDBRANCH  32  33
ENDBRANCH  31  32
ENDBRANCH  30  31
ENDBRANCH  29  30
ENDBRANCH  28  29
ENDBRANCH  27  28
ENDBRANCH  26  27
ENDBRANCH  25  26
ENDBRANCH  24  25
ENDBRANCH  23  24
ENDBRANCH  22  23
ENDBRANCH  19  22
ENDBRANCH  18  19
ENDBRANCH  17  18
ENDBRANCH  16  17
ENDBRANCH  15  16
ENDBRANCH  14  15
ENDBRANCH  13  14
ENDBRANCH  12  13
ENDBRANCH  11  12
ENDBRANCH  10  11
ENDBRANCH   9  10
ENDBRANCH   8   9
ENDBRANCH   7   8
ENDBRANCH   6   7
ENDBRANCH   5   6
ENDBRANCH   4   5
ENDBRANCH   3   4
ENDBRANCH   2   3
TORSDOF 34
ENDMDL
MODEL       99
REMARK 921   NORMALIZED FREE ENERGY PREDICTED BY IDOCK:   -3.33 KCAL/MOL
REMARK 922        TOTAL FREE ENERGY PREDICTED BY IDOCK:  -16.28 KCAL/MOL
REMARK 923 INTER-LIGAND FREE ENERGY PREDICTED BY IDOCK:  -10.61 KCAL/MOL
REMARK 924 INTRA-LIGAND FREE ENERGY PREDICTED BY IDOCK:   -5.67 KCAL/MOL
REMARK 927      BINDING AFFINITY PREDICTED BY RF-SCORE:    0.00 PKD
ROOT
HETATM    1  C   UNL     1      -7.905  19.799  65.986  1.00  0.00    -0.344 C  
HETATM    2  C   UNL     1      -9.414  19.693  66.116  1.00  0.00    -0.441 C  
ENDROOT
BRANCH   2   3
HETATM    3  C   UNL     1      -9.913  20.461  67.331  1.00  0.00    -0.556 C  
BRANCH   3   4
HETATM    4  C   UNL     1     -10.231  19.514  68.486  1.00  0.00    -0.517 C  
BRANCH   4   5
HETATM    5  C   UNL     1     -10.492  18.105  67.970  1.00  0.00    -0.387 C  
BRANCH   5   6
HETATM    6  C   UNL     1      -9.536  17.113  68.618  1.00  0.00    -0.281 C  
BRANCH   6   7
HETATM    7  C   UNL     1      -9.074  16.085  67.596  1.00  0.00    -0.200 C  
BRANCH   7   8
HETATM    8  C   UNL     1      -9.922  14.828  67.695  1.00  0.00    -0.226 C  
BRANCH   8   9
HETATM    9  C   UNL     1     -10.500  14.476  66.334  1.00  0.00    -0.295 C  
BRANCH   9  10
HETATM   10  C   UNL     1     -11.835  13.776  66.505  1.00  0.00    -0.438 C  
BRANCH  10  11
HETATM   11  C   UNL     1     -11.895  12.537  65.631  1.00  0.00    -0.493 C  
BRANCH  11  12
HETATM   12  C   UNL     1     -10.808  11.569  66.054  1.00  0.00    -0.330 C  
BRANCH  12  13
HETATM   13  C   UNL     1     -11.185  10.895  67.356  1.00  0.00    -0.345 C  
BRANCH  13  14
HETATM   14  C   UNL     1     -10.611   9.491  67.388  1.00  0.00    -0.337 C  
BRANCH  14  15
HETATM   15  C   UNL     1      -9.791   9.263  66.139  1.00  0.00    -0.363 C  
BRANCH  15  16
HETATM   16  C   UNL     1      -8.436   8.666  66.478  1.00  0.00    -0.118 C  
BRANCH  16  17
HETATM   17  C   UNL     1      -8.376   7.286  65.852  1.00  0.00    -0.144 C  
BRANCH  17  18
HETATM   18  C   UNL     1      -8.151   6.208  66.896  1.00  0.00    -0.109 C  
BRANCH  18  19
HETATM   19  N   UNL     1      -8.455   4.797  66.351  1.00  0.00    -0.110 N  
HETATM   20  C   UNL     1      -8.720   4.852  64.843  1.00  0.00    -0.150 C  
HETATM   21  C   UNL     1      -7.287   3.851  66.638  1.00  0.00    -0.072 C  
BRANCH  19  22
HETATM   22  C   UNL     1      -9.723   4.330  67.101  1.00  0.00    -0.196 C  
BRANCH  22  23
HETATM   23  C   UNL     1      -9.885   5.024  68.438  1.00  0.00    -0.209 C  
BRANCH  23  24
HETATM   24  C   UNL     1      -9.630   4.076  69.595  1.00  0.00    -0.270 C  
BRANCH  24  25
HETATM   25  C   UNL     1     -10.159   4.740  70.855  1.00  0.00    -0.275 C  
BRANCH  25  26
HETATM   26  C   UNL     1     -11.132   5.845  70.517  1.00  0.00    -0.347 C  
BRANCH  26  27
HETATM   27  C   UNL     1     -11.900   6.234  71.767  1.00  0.00    -0.342 C  
BRANCH  27  28
HETATM   28  C   UNL     1     -12.773   7.437  71.474  1.00  0.00    -0.409 C  
BRANCH  28  29
HETATM   29  C   UNL     1     -12.200   8.671  72.142  1.00  0.00    -0.453 C  
BRANCH  29  30
HETATM   30  C   UNL     1     -11.628   9.597  71.085  1.00  0.00    -0.456 C  
BRANCH  30  31
HETATM   31  C   UNL     1     -10.166   9.280  70.839  1.00  0.00    -0.371 C  
BRANCH  31  32
HETATM   32  C   UNL     1      -9.507   8.836  72.131  1.00  0.00    -0.309 C  
BRANCH  32  33
HETATM   33  C   UNL     1      -8.223   8.081  71.832  1.00  0.00    -0.159 C  
BRANCH  33  34
HETATM   34  C   UNL     1      -8.112   7.798  70.342  1.00  0.00    -0.115 C  
BRANCH  34  35
HETATM   35  C   UNL     1      -6.820   8.382  69.788  1.00  0.00    -0.043 C  
BRANCH  35  36
HETATM   36  C   UNL     1      -6.205   9.362  70.779  1.00  0.00    -0.072 C  
BRANCH  36  37
HETATM   37  C   UNL     1      -6.215  10.776  70.208  1.00  0.00    -0.146 C  
BRANCH  37  38
HETATM   38  C   UNL     1      -6.734  10.784  68.775  1.00  0.00    -0.060 C  
HETATM   39  C   UNL     1      -7.919  11.722  68.631  1.00  0.00    -0.116 C  
ENDBRANCH  37  38
ENDBRANCH  36  37
ENDBRANCH  35  36
ENDBRANCH  34  35
ENDBRANCH  33  34
ENDBRANCH  32  33
ENDBRANCH  31  32
ENDBRANCH  30  31
ENDBRANCH  29  30
ENDBRANCH  28  29
ENDBRANCH  27  28
ENDBRANCH  26  27
ENDBRANCH  25  26
ENDBRANCH  24  25
ENDBRANCH  23  24
ENDBRANCH  22  23
ENDBRANCH  19  22
ENDBRANCH  18  19
ENDBRANCH  17  18
ENDBRANCH  16  17
ENDBRANCH  15  16
ENDBRANCH  14  15
ENDBRANCH  13  14
ENDBRANCH  12  13
ENDBRANCH  11  12
ENDBRANCH  10  11
ENDBRANCH   9  10
ENDBRANCH   8   9
ENDBRANCH   7   8
ENDBRANCH   6   7
ENDBRANCH   5   6
ENDBRANCH   4   5
ENDBRANCH   3   4
ENDBRANCH   2   3
TORSDOF 34
ENDMDL
MODEL      100
REMARK 921   NORMALIZED FREE ENERGY PREDICTED BY IDOCK:   -3.32 KCAL/MOL
REMARK 922        TOTAL FREE ENERGY PREDICTED BY IDOCK:  -16.24 KCAL/MOL
REMARK 923 INTER-LIGAND FREE ENERGY PREDICTED BY IDOCK:  -10.75 KCAL/MOL
REMARK 924 INTRA-LIGAND FREE ENERGY PREDICTED BY IDOCK:   -5.50 KCAL/MOL
REMARK 927      BINDING AFFINITY PREDICTED BY RF-SCORE:    0.00 PKD
ROOT
HETATM    1  C   UNL     1      -8.149   8.094  63.459  1.00  0.00    -0.113 C  
HETATM    2  C   UNL     1      -8.063   7.959  64.969  1.00  0.00    -0.144 C  
ENDROOT
BRANCH   2   3
HETATM    3  C   UNL     1      -9.204   8.702  65.649  1.00  0.00    -0.204 C  
BRANCH   3   4
HETATM    4  C   UNL     1      -9.322   8.301  67.118  1.00  0.00    -0.189 C  
BRANCH   4   5
HETATM    5  C   UNL     1     -10.770   7.998  67.477  1.00  0.00    -0.238 C  
BRANCH   5   6
HETATM    6  C   UNL     1     -10.958   6.509  67.730  1.00  0.00    -0.407 C  
BRANCH   6   7
HETATM    7  C   UNL     1      -9.662   5.895  68.240  1.00  0.00    -0.147 C  
BRANCH   7   8
HETATM    8  C   UNL     1      -9.963   4.717  69.153  1.00  0.00    -0.233 C  
BRANCH   8   9
HETATM    9  C   UNL     1      -9.469   5.006  70.561  1.00  0.00    -0.236 C  
BRANCH   9  10
HETATM   10  C   UNL     1     -10.484   5.858  71.299  1.00  0.00    -0.289 C  
BRANCH  10  11
HETATM   11  C   UNL     1      -9.805   6.647  72.403  1.00  0.00    -0.169 C  
BRANCH  11  12
HETATM   12  C   UNL     1     -10.387   8.046  72.454  1.00  0.00    -0.355 C  
BRANCH  12  13
HETATM   13  C   UNL     1     -11.082   8.371  71.148  1.00  0.00    -0.301 C  
BRANCH  13  14
HETATM   14  C   UNL     1     -10.563   9.692  70.611  1.00  0.00    -0.386 C  
BRANCH  14  15
HETATM   15  C   UNL     1     -11.669  10.721  70.677  1.00  0.00    -0.442 C  
BRANCH  15  16
HETATM   16  C   UNL     1     -12.383  10.840  69.341  1.00  0.00    -0.133 C  
BRANCH  16  17
HETATM   17  C   UNL     1     -11.689  11.931  68.548  1.00  0.00    -0.388 C  
BRANCH  17  18
HETATM   18  C   UNL     1     -11.377  11.481  67.133  1.00  0.00    -0.284 C  
BRANCH  18  19
HETATM   19  N   UNL     1     -11.144  12.673  66.181  1.00  0.00    -0.282 N  
HETATM   20  C   UNL     1     -11.121  12.198  64.725  1.00  0.00    -0.316 C  
HETATM   21  C   UNL     1     -12.239  13.725  66.366  1.00  0.00    -0.436 C  
BRANCH  19  22
HETATM   22  C   UNL     1      -9.768  13.253  66.578  1.00  0.00    -0.273 C  
BRANCH  22  23
HETATM   23  C   UNL     1      -8.677  12.201  66.562  1.00  0.00    -0.114 C  
BRANCH  23  24
HETATM   24  C   UNL     1      -7.486  12.618  67.404  1.00  0.00    -0.146 C  
BRANCH  24  25
HETATM   25  C   UNL     1      -8.011  13.459  68.554  1.00  0.00    -0.107 C  
BRANCH  25  26
HETATM   26  C   UNL     1      -7.009  14.517  68.954  1.00  0.00    -0.110 C  
BRANCH  26  27
HETATM   27  C   UNL     1      -7.141  15.708  68.022  1.00  0.00    -0.133 C  
BRANCH  27  28
HETATM   28  C   UNL     1      -6.720  16.970  68.746  1.00  0.00    -0.193 C  
BRANCH  28  29
HETATM   29  C   UNL     1      -6.862  18.169  67.830  1.00  0.00    -0.211 C  
BRANCH  29  30
HETATM   30  C   UNL     1      -7.338  19.364  68.633  1.00  0.00    -0.375 C  
BRANCH  30  31
HETATM   31  C   UNL     1      -8.809  19.623  68.374  1.00  0.00    -0.362 C  
BRANCH  31  32
HETATM   32  C   UNL     1      -9.232  18.958  67.078  1.00  0.00    -0.325 C  
BRANCH  32  33
HETATM   33  C   UNL     1     -10.609  18.336  67.234  1.00  0.00    -0.406 C  
BRANCH  33  34
HETATM   34  C   UNL     1     -10.485  16.861  67.584  1.00  0.00    -0.332 C  
BRANCH  34  35
HETATM   35  C   UNL     1     -10.572  16.668  69.092  1.00  0.00    -0.340 C  
BRANCH  35  36
HETATM   36  C   UNL     1     -11.060  15.264  69.427  1.00  0.00    -0.283 C  
BRANCH  36  37
HETATM   37  C   UNL     1     -12.339  15.327  70.255  1.00  0.00    -0.407 C  
BRANCH  37  38
HETATM   38  C   UNL     1     -12.215  14.482  71.517  1.00  0.00    -0.415 C  
HETATM   39  C   UNL     1     -11.714  15.316  72.683  1.00  0.00    -0.518 C  
ENDBRANCH  37  38
ENDBRANCH  36  37
ENDBRANCH  35  36
ENDBRANCH  34  35
ENDBRANCH  33  34
ENDBRANCH  32  33
ENDBRANCH  31  32
ENDBRANCH  30  31
ENDBRANCH  29  30
ENDBRANCH  28  29
ENDBRANCH  27  28
ENDBRANCH  26  27
ENDBRANCH  25  26
ENDBRANCH  24  25
ENDBRANCH  23  24
ENDBRANCH  22  23
ENDBRANCH  19  22
ENDBRANCH  18  19
ENDBRANCH  17  18
ENDBRANCH  16  17
ENDBRANCH  15  16
ENDBRANCH  14  15
ENDBRANCH  13  14
ENDBRANCH  12  13
ENDBRANCH  11  12
ENDBRANCH  10  11
ENDBRANCH   9  10
ENDBRANCH   8   9
ENDBRANCH   7   8
ENDBRANCH   6   7
ENDBRANCH   5   6
ENDBRANCH   4   5
ENDBRANCH   3   4
ENDBRANCH   2   3
TORSDOF 34
ENDMDL
MODEL      101
REMARK 921   NORMALIZED FREE ENERGY PREDICTED BY IDOCK:   -3.31 KCAL/MOL
REMARK 922        TOTAL FREE ENERGY PREDICTED BY IDOCK:  -16.21 KCAL/MOL
REMARK 923 INTER-LIGAND FREE ENERGY PREDICTED BY IDOCK:  -10.00 KCAL/MOL
REMARK 924 INTRA-LIGAND FREE ENERGY PREDICTED BY IDOCK:   -6.21 KCAL/MOL
REMARK 927      BINDING AFFINITY PREDICTED BY RF-SCORE:    0.00 PKD
ROOT
HETATM    1  C   UNL     1     -10.806   5.879  68.728  1.00  0.00    -0.353 C  
HETATM    2  C   UNL     1      -9.728   5.411  69.689  1.00  0.00    -0.240 C  
ENDROOT
BRANCH   2   3
HETATM    3  C   UNL     1      -8.341   5.661  69.117  1.00  0.00    -0.100 C  
BRANCH   3   4
HETATM    4  C   UNL     1      -7.282   5.645  70.216  1.00  0.00    -0.067 C  
BRANCH   4   5
HETATM    5  C   UNL     1      -7.902   5.984  71.565  1.00  0.00    -0.106 C  
BRANCH   5   6
HETATM    6  C   UNL     1      -7.269   5.148  72.669  1.00  0.00    -0.092 C  
BRANCH   6   7
HETATM    7  C   UNL     1      -8.348   4.560  73.566  1.00  0.00    -0.102 C  
BRANCH   7   8
HETATM    8  C   UNL     1      -8.993   3.359  72.894  1.00  0.00    -0.101 C  
BRANCH   8   9
HETATM    9  C   UNL     1     -10.507   3.477  72.948  1.00  0.00    -0.239 C  
BRANCH   9  10
HETATM   10  C   UNL     1     -10.899   4.797  73.584  1.00  0.00    -0.377 C  
BRANCH  10  11
HETATM   11  C   UNL     1     -11.781   5.593  72.640  1.00  0.00    -0.256 C  
BRANCH  11  12
HETATM   12  C   UNL     1     -11.324   7.039  72.622  1.00  0.00    -0.290 C  
BRANCH  12  13
HETATM   13  C   UNL     1     -12.204   7.854  71.697  1.00  0.00    -0.339 C  
BRANCH  13  14
HETATM   14  C   UNL     1     -11.358   8.877  70.961  1.00  0.00    -0.350 C  
BRANCH  14  15
HETATM   15  C   UNL     1      -9.999   8.960  71.618  1.00  0.00    -0.397 C  
BRANCH  15  16
HETATM   16  C   UNL     1      -8.919   9.272  70.596  1.00  0.00    -0.296 C  
BRANCH  16  17
HETATM   17  C   UNL     1      -9.582   9.322  69.233  1.00  0.00    -0.161 C  
BRANCH  17  18
HETATM   18  C   UNL     1      -8.558   9.409  68.117  1.00  0.00    -0.120 C  
BRANCH  18  19
HETATM   19  N   UNL     1      -9.112  10.138  66.874  1.00  0.00    -0.142 N  
HETATM   20  C   UNL     1      -9.195   9.176  65.685  1.00  0.00    -0.234 C  
HETATM   21  C   UNL     1     -10.497  10.718  67.170  1.00  0.00    -0.237 C  
BRANCH  19  22
HETATM   22  C   UNL     1      -8.105  11.271  66.577  1.00  0.00    -0.160 C  
BRANCH  22  23
HETATM   23  C   UNL     1      -8.100  12.330  67.662  1.00  0.00    -0.165 C  
BRANCH  23  24
HETATM   24  C   UNL     1      -6.693  12.807  67.970  1.00  0.00    -0.100 C  
BRANCH  24  25
HETATM   25  C   UNL     1      -6.746  14.317  68.125  1.00  0.00    -0.129 C  
BRANCH  25  26
HETATM   26  C   UNL     1      -7.698  14.716  69.229  1.00  0.00    -0.091 C  
BRANCH  26  27
HETATM   27  C   UNL     1      -8.181  16.134  68.985  1.00  0.00    -0.244 C  
BRANCH  27  28
HETATM   28  C   UNL     1      -7.754  16.586  67.603  1.00  0.00    -0.167 C  
BRANCH  28  29
HETATM   29  C   UNL     1      -8.971  16.943  66.773  1.00  0.00    -0.264 C  
BRANCH  29  30
HETATM   30  C   UNL     1      -9.282  15.807  65.819  1.00  0.00    -0.255 C  
BRANCH  30  31
HETATM   31  C   UNL     1     -10.728  15.375  65.963  1.00  0.00    -0.326 C  
BRANCH  31  32
HETATM   32  C   UNL     1     -10.807  14.084  66.756  1.00  0.00    -0.294 C  
BRANCH  32  33
HETATM   33  C   UNL     1     -12.155  13.974  67.447  1.00  0.00    -0.384 C  
BRANCH  33  34
HETATM   34  C   UNL     1     -11.983  14.048  68.956  1.00  0.00    -0.392 C  
BRANCH  34  35
HETATM   35  C   UNL     1     -11.713  15.483  69.388  1.00  0.00    -0.382 C  
BRANCH  35  36
HETATM   36  C   UNL     1     -12.175  15.709  70.821  1.00  0.00    -0.463 C  
BRANCH  36  37
HETATM   37  C   UNL     1     -13.468  14.946  71.092  1.00  0.00    -0.474 C  
BRANCH  37  38
HETATM   38  C   UNL     1     -13.404  14.220  72.430  1.00  0.00    -0.568 C  
HETATM   39  C   UNL     1     -13.411  12.714  72.232  1.00  0.00    -0.541 C  
ENDBRANCH  37  38
ENDBRANCH  36  37
ENDBRANCH  35  36
ENDBRANCH  34  35
ENDBRANCH  33  34
ENDBRANCH  32  33
ENDBRANCH  31  32
ENDBRANCH  30  31
ENDBRANCH  29  30
ENDBRANCH  28  29
ENDBRANCH  27  28
ENDBRANCH  26  27
ENDBRANCH  25  26
ENDBRANCH  24  25
ENDBRANCH  23  24
ENDBRANCH  22  23
ENDBRANCH  19  22
ENDBRANCH  18  19
ENDBRANCH  17  18
ENDBRANCH  16  17
ENDBRANCH  15  16
ENDBRANCH  14  15
ENDBRANCH  13  14
ENDBRANCH  12  13
ENDBRANCH  11  12
ENDBRANCH  10  11
ENDBRANCH   9  10
ENDBRANCH   8   9
ENDBRANCH   7   8
ENDBRANCH   6   7
ENDBRANCH   5   6
ENDBRANCH   4   5
ENDBRANCH   3   4
ENDBRANCH   2   3
TORSDOF 34
ENDMDL
MODEL      102
REMARK 921   NORMALIZED FREE ENERGY PREDICTED BY IDOCK:   -3.30 KCAL/MOL
REMARK 922        TOTAL FREE ENERGY PREDICTED BY IDOCK:  -16.18 KCAL/MOL
REMARK 923 INTER-LIGAND FREE ENERGY PREDICTED BY IDOCK:   -9.74 KCAL/MOL
REMARK 924 INTRA-LIGAND FREE ENERGY PREDICTED BY IDOCK:   -6.45 KCAL/MOL
REMARK 927      BINDING AFFINITY PREDICTED BY RF-SCORE:    0.00 PKD
ROOT
HETATM    1  C   UNL     1     -11.382  10.440  68.261  1.00  0.00    -0.292 C  
HETATM    2  C   UNL     1     -12.020  11.202  69.409  1.00  0.00    -0.420 C  
ENDROOT
BRANCH   2   3
HETATM    3  C   UNL     1     -11.778  10.496  70.735  1.00  0.00    -0.454 C  
BRANCH   3   4
HETATM    4  C   UNL     1     -13.058  10.431  71.564  1.00  0.00    -0.532 C  
BRANCH   4   5
HETATM    5  C   UNL     1     -13.362   8.996  71.973  1.00  0.00    -0.494 C  
BRANCH   5   6
HETATM    6  C   UNL     1     -12.086   8.274  72.381  1.00  0.00    -0.430 C  
BRANCH   6   7
HETATM    7  C   UNL     1     -12.135   6.823  71.924  1.00  0.00    -0.375 C  
BRANCH   7   8
HETATM    8  C   UNL     1     -12.036   6.745  70.409  1.00  0.00    -0.343 C  
BRANCH   8   9
HETATM    9  C   UNL     1     -10.636   7.121  69.954  1.00  0.00    -0.246 C  
BRANCH   9  10
HETATM   10  C   UNL     1      -9.612   6.576  70.932  1.00  0.00    -0.186 C  
BRANCH  10  11
HETATM   11  C   UNL     1      -8.561   7.628  71.235  1.00  0.00    -0.124 C  
BRANCH  11  12
HETATM   12  C   UNL     1      -8.549   8.662  70.126  1.00  0.00    -0.138 C  
BRANCH  12  13
HETATM   13  C   UNL     1      -7.327   9.548  70.250  1.00  0.00    -0.135 C  
BRANCH  13  14
HETATM   14  C   UNL     1      -6.095   8.782  69.808  1.00  0.00    -0.035 C  
BRANCH  14  15
HETATM   15  C   UNL     1      -6.425   7.990  68.562  1.00  0.00    -0.054 C  
BRANCH  15  16
HETATM   16  C   UNL     1      -5.476   6.815  68.397  1.00  0.00    -0.016 C  
BRANCH  16  17
HETATM   17  C   UNL     1      -6.321   5.567  68.229  1.00  0.00    -0.038 C  
BRANCH  17  18
HETATM   18  C   UNL     1      -7.771   5.908  67.941  1.00  0.00    -0.100 C  
BRANCH  18  19
HETATM   19  N   UNL     1      -8.394   4.964  66.891  1.00  0.00    -0.107 N  
HETATM   20  C   UNL     1      -7.303   4.145  66.196  1.00  0.00    -0.080 C  
HETATM   21  C   UNL     1      -9.407   4.026  67.552  1.00  0.00    -0.183 C  
BRANCH  19  22
HETATM   22  C   UNL     1      -9.100   5.888  65.874  1.00  0.00    -0.122 C  
BRANCH  22  23
HETATM   23  C   UNL     1      -9.228   7.310  66.385  1.00  0.00    -0.201 C  
BRANCH  23  24
HETATM   24  C   UNL     1      -8.519   8.296  65.476  1.00  0.00    -0.177 C  
BRANCH  24  25
HETATM   25  C   UNL     1      -9.472   9.452  65.226  1.00  0.00    -0.296 C  
BRANCH  25  26
HETATM   26  C   UNL     1      -8.809  10.776  65.528  1.00  0.00    -0.203 C  
BRANCH  26  27
HETATM   27  C   UNL     1      -8.264  10.750  66.945  1.00  0.00    -0.130 C  
BRANCH  27  28
HETATM   28  C   UNL     1      -7.052  11.653  67.040  1.00  0.00    -0.145 C  
BRANCH  28  29
HETATM   29  C   UNL     1      -7.223  12.637  68.180  1.00  0.00    -0.109 C  
BRANCH  29  30
HETATM   30  C   UNL     1      -7.293  14.046  67.625  1.00  0.00    -0.188 C  
BRANCH  30  31
HETATM   31  C   UNL     1      -8.638  14.672  67.937  1.00  0.00    -0.165 C  
BRANCH  31  32
HETATM   32  C   UNL     1      -9.708  14.072  67.045  1.00  0.00    -0.256 C  
BRANCH  32  33
HETATM   33  C   UNL     1     -11.083  14.304  67.647  1.00  0.00    -0.305 C  
BRANCH  33  34
HETATM   34  C   UNL     1     -11.204  15.734  68.150  1.00  0.00    -0.344 C  
BRANCH  34  35
HETATM   35  C   UNL     1     -11.908  15.761  69.500  1.00  0.00    -0.359 C  
BRANCH  35  36
HETATM   36  C   UNL     1     -11.644  14.473  70.270  1.00  0.00    -0.328 C  
BRANCH  36  37
HETATM   37  C   UNL     1     -12.722  14.251  71.325  1.00  0.00    -0.427 C  
BRANCH  37  38
HETATM   38  C   UNL     1     -13.521  15.527  71.567  1.00  0.00    -0.582 C  
HETATM   39  C   UNL     1     -13.582  15.858  73.049  1.00  0.00    -0.616 C  
ENDBRANCH  37  38
ENDBRANCH  36  37
ENDBRANCH  35  36
ENDBRANCH  34  35
ENDBRANCH  33  34
ENDBRANCH  32  33
ENDBRANCH  31  32
ENDBRANCH  30  31
ENDBRANCH  29  30
ENDBRANCH  28  29
ENDBRANCH  27  28
ENDBRANCH  26  27
ENDBRANCH  25  26
ENDBRANCH  24  25
ENDBRANCH  23  24
ENDBRANCH  22  23
ENDBRANCH  19  22
ENDBRANCH  18  19
ENDBRANCH  17  18
ENDBRANCH  16  17
ENDBRANCH  15  16
ENDBRANCH  14  15
ENDBRANCH  13  14
ENDBRANCH  12  13
ENDBRANCH  11  12
ENDBRANCH  10  11
ENDBRANCH   9  10
ENDBRANCH   8   9
ENDBRANCH   7   8
ENDBRANCH   6   7
ENDBRANCH   5   6
ENDBRANCH   4   5
ENDBRANCH   3   4
ENDBRANCH   2   3
TORSDOF 34
ENDMDL
MODEL      103
REMARK 921   NORMALIZED FREE ENERGY PREDICTED BY IDOCK:   -3.30 KCAL/MOL
REMARK 922        TOTAL FREE ENERGY PREDICTED BY IDOCK:  -16.18 KCAL/MOL
REMARK 923 INTER-LIGAND FREE ENERGY PREDICTED BY IDOCK:  -10.82 KCAL/MOL
REMARK 924 INTRA-LIGAND FREE ENERGY PREDICTED BY IDOCK:   -5.36 KCAL/MOL
REMARK 927      BINDING AFFINITY PREDICTED BY RF-SCORE:    0.00 PKD
ROOT
HETATM    1  C   UNL     1     -10.941   4.764  73.509  1.00  0.00    -0.398 C  
HETATM    2  C   UNL     1     -11.580   5.864  72.680  1.00  0.00    -0.289 C  
ENDROOT
BRANCH   2   3
HETATM    3  C   UNL     1     -10.527   6.662  71.926  1.00  0.00    -0.224 C  
BRANCH   3   4
HETATM    4  C   UNL     1     -10.433   8.089  72.460  1.00  0.00    -0.383 C  
BRANCH   4   5
HETATM    5  C   UNL     1     -11.766   8.810  72.306  1.00  0.00    -0.398 C  
BRANCH   5   6
HETATM    6  C   UNL     1     -12.004   9.188  70.851  1.00  0.00    -0.299 C  
BRANCH   6   7
HETATM    7  C   UNL     1     -11.187  10.420  70.488  1.00  0.00    -0.395 C  
BRANCH   7   8
HETATM    8  C   UNL     1     -10.615  10.278  69.087  1.00  0.00    -0.254 C  
BRANCH   8   9
HETATM    9  C   UNL     1     -10.180   8.843  68.841  1.00  0.00    -0.220 C  
BRANCH   9  10
HETATM   10  C   UNL     1     -10.430   8.468  67.393  1.00  0.00    -0.351 C  
BRANCH  10  11
HETATM   11  C   UNL     1     -10.861   7.017  67.292  1.00  0.00    -0.403 C  
BRANCH  11  12
HETATM   12  C   UNL     1     -10.870   6.397  68.675  1.00  0.00    -0.379 C  
BRANCH  12  13
HETATM   13  C   UNL     1     -10.244   5.019  68.634  1.00  0.00    -0.154 C  
BRANCH  13  14
HETATM   14  C   UNL     1      -8.810   5.096  69.126  1.00  0.00    -0.110 C  
BRANCH  14  15
HETATM   15  C   UNL     1      -7.874   4.942  67.949  1.00  0.00    -0.086 C  
BRANCH  15  16
HETATM   16  C   UNL     1      -7.183   6.257  67.627  1.00  0.00    -0.083 C  
BRANCH  16  17
HETATM   17  C   UNL     1      -7.341   6.503  66.139  1.00  0.00    -0.080 C  
BRANCH  17  18
HETATM   18  C   UNL     1      -7.066   7.952  65.781  1.00  0.00    -0.060 C  
BRANCH  18  19
HETATM   19  N   UNL     1      -6.522   8.103  64.344  1.00  0.00    -0.064 N  
HETATM   20  C   UNL     1      -5.168   8.818  64.359  1.00  0.00    -0.050 C  
HETATM   21  C   UNL     1      -6.378   6.731  63.682  1.00  0.00    -0.042 C  
BRANCH  19  22
HETATM   22  C   UNL     1      -7.570   8.955  63.594  1.00  0.00    -0.118 C  
BRANCH  22  23
HETATM   23  C   UNL     1      -8.777   9.266  64.456  1.00  0.00    -0.218 C  
BRANCH  23  24
HETATM   24  C   UNL     1      -9.086  10.752  64.471  1.00  0.00    -0.220 C  
BRANCH  24  25
HETATM   25  C   UNL     1     -10.595  10.904  64.541  1.00  0.00    -0.335 C  
BRANCH  25  26
HETATM   26  C   UNL     1     -11.100  11.812  63.443  1.00  0.00    -0.448 C  
BRANCH  26  27
HETATM   27  C   UNL     1     -11.432  13.171  64.032  1.00  0.00    -0.455 C  
BRANCH  27  28
HETATM   28  C   UNL     1     -12.583  13.035  65.007  1.00  0.00    -0.515 C  
BRANCH  28  29
HETATM   29  C   UNL     1     -12.415  14.016  66.151  1.00  0.00    -0.467 C  
BRANCH  29  30
HETATM   30  C   UNL     1     -12.087  13.258  67.422  1.00  0.00    -0.327 C  
BRANCH  30  31
HETATM   31  C   UNL     1     -11.490  14.191  68.457  1.00  0.00    -0.333 C  
BRANCH  31  32
HETATM   32  C   UNL     1      -9.988  13.988  68.532  1.00  0.00    -0.230 C  
BRANCH  32  33
HETATM   33  C   UNL     1      -9.421  13.747  67.144  1.00  0.00    -0.244 C  
BRANCH  33  34
HETATM   34  C   UNL     1      -8.539  14.913  66.725  1.00  0.00    -0.256 C  
BRANCH  34  35
HETATM   35  C   UNL     1      -9.380  16.004  66.077  1.00  0.00    -0.380 C  
BRANCH  35  36
HETATM   36  C   UNL     1      -9.131  17.347  66.752  1.00  0.00    -0.276 C  
BRANCH  36  37
HETATM   37  C   UNL     1     -10.374  17.803  67.508  1.00  0.00    -0.371 C  
BRANCH  37  38
HETATM   38  C   UNL     1     -10.330  19.303  67.777  1.00  0.00    -0.531 C  
HETATM   39  C   UNL     1      -9.011  19.703  68.415  1.00  0.00    -0.372 C  
ENDBRANCH  37  38
ENDBRANCH  36  37
ENDBRANCH  35  36
ENDBRANCH  34  35
ENDBRANCH  33  34
ENDBRANCH  32  33
ENDBRANCH  31  32
ENDBRANCH  30  31
ENDBRANCH  29  30
ENDBRANCH  28  29
ENDBRANCH  27  28
ENDBRANCH  26  27
ENDBRANCH  25  26
ENDBRANCH  24  25
ENDBRANCH  23  24
ENDBRANCH  22  23
ENDBRANCH  19  22
ENDBRANCH  18  19
ENDBRANCH  17  18
ENDBRANCH  16  17
ENDBRANCH  15  16
ENDBRANCH  14  15
ENDBRANCH  13  14
ENDBRANCH  12  13
ENDBRANCH  11  12
ENDBRANCH  10  11
ENDBRANCH   9  10
ENDBRANCH   8   9
ENDBRANCH   7   8
ENDBRANCH   6   7
ENDBRANCH   5   6
ENDBRANCH   4   5
ENDBRANCH   3   4
ENDBRANCH   2   3
TORSDOF 34
ENDMDL
MODEL      104
REMARK 921   NORMALIZED FREE ENERGY PREDICTED BY IDOCK:   -3.30 KCAL/MOL
REMARK 922        TOTAL FREE ENERGY PREDICTED BY IDOCK:  -16.17 KCAL/MOL
REMARK 923 INTER-LIGAND FREE ENERGY PREDICTED BY IDOCK:   -9.22 KCAL/MOL
REMARK 924 INTRA-LIGAND FREE ENERGY PREDICTED BY IDOCK:   -6.95 KCAL/MOL
REMARK 927      BINDING AFFINITY PREDICTED BY RF-SCORE:    0.00 PKD
ROOT
HETATM    1  C   UNL     1      -5.898   8.409  71.408  1.00  0.00    -0.037 C  
HETATM    2  C   UNL     1      -7.143   8.455  70.540  1.00  0.00    -0.038 C  
ENDROOT
BRANCH   2   3
HETATM    3  C   UNL     1      -8.345   7.885  71.279  1.00  0.00    -0.120 C  
BRANCH   3   4
HETATM    4  C   UNL     1      -9.555   8.808  71.153  1.00  0.00    -0.309 C  
BRANCH   4   5
HETATM    5  C   UNL     1     -10.559   8.532  72.264  1.00  0.00    -0.408 C  
BRANCH   5   6
HETATM    6  C   UNL     1     -11.862   7.997  71.687  1.00  0.00    -0.329 C  
BRANCH   6   7
HETATM    7  C   UNL     1     -12.030   6.527  72.042  1.00  0.00    -0.372 C  
BRANCH   7   8
HETATM    8  C   UNL     1     -11.341   5.654  71.005  1.00  0.00    -0.005 C  
BRANCH   8   9
HETATM    9  C   UNL     1     -10.211   4.869  71.647  1.00  0.00    -0.267 C  
BRANCH   9  10
HETATM   10  C   UNL     1     -10.235   5.066  73.151  1.00  0.00    -0.214 C  
BRANCH  10  11
HETATM   11  C   UNL     1      -8.940   4.570  73.768  1.00  0.00    -0.103 C  
BRANCH  11  12
HETATM   12  C   UNL     1      -8.508   3.293  73.073  1.00  0.00    -0.081 C  
BRANCH  12  13
HETATM   13  C   UNL     1      -7.043   3.373  72.697  1.00  0.00    -0.044 C  
BRANCH  13  14
HETATM   14  C   UNL     1      -6.719   4.772  72.207  1.00  0.00    -0.047 C  
BRANCH  14  15
HETATM   15  C   UNL     1      -6.059   4.681  70.850  1.00  0.00    -0.018 C  
BRANCH  15  16
HETATM   16  C   UNL     1      -7.010   4.095  69.821  1.00  0.00    -0.042 C  
BRANCH  16  17
HETATM   17  C   UNL     1      -7.186   5.126  68.722  1.00  0.00    -0.062 C  
BRANCH  17  18
HETATM   18  C   UNL     1      -8.651   5.348  68.394  1.00  0.00    -0.095 C  
BRANCH  18  19
HETATM   19  N   UNL     1      -8.934   5.223  66.882  1.00  0.00    -0.110 N  
HETATM   20  C   UNL     1      -7.673   5.544  66.074  1.00  0.00    -0.095 C  
HETATM   21  C   UNL     1      -9.421   3.812  66.546  1.00  0.00    -0.187 C  
BRANCH  19  22
HETATM   22  C   UNL     1     -10.040   6.260  66.583  1.00  0.00    -0.155 C  
BRANCH  22  23
HETATM   23  C   UNL     1     -10.370   7.110  67.793  1.00  0.00    -0.257 C  
BRANCH  23  24
HETATM   24  C   UNL     1     -10.395   8.587  67.449  1.00  0.00    -0.356 C  
BRANCH  24  25
HETATM   25  C   UNL     1      -9.078   8.921  66.771  1.00  0.00    -0.177 C  
BRANCH  25  26
HETATM   26  C   UNL     1      -9.104  10.317  66.192  1.00  0.00    -0.181 C  
BRANCH  26  27
HETATM   27  C   UNL     1     -10.405  10.520  65.436  1.00  0.00    -0.292 C  
BRANCH  27  28
HETATM   28  C   UNL     1     -10.122  10.598  63.950  1.00  0.00    -0.356 C  
BRANCH  28  29
HETATM   29  C   UNL     1     -10.694  11.879  63.377  1.00  0.00    -0.476 C  
BRANCH  29  30
HETATM   30  C   UNL     1     -11.906  12.297  64.187  1.00  0.00    -0.502 C  
BRANCH  30  31
HETATM   31  C   UNL     1     -11.934  13.803  64.359  1.00  0.00    -0.480 C  
BRANCH  31  32
HETATM   32  C   UNL     1     -10.548  14.311  64.707  1.00  0.00    -0.434 C  
BRANCH  32  33
HETATM   33  C   UNL     1     -10.245  14.047  66.172  1.00  0.00    -0.308 C  
BRANCH  33  34
HETATM   34  C   UNL     1     -11.107  14.933  67.057  1.00  0.00    -0.338 C  
BRANCH  34  35
HETATM   35  C   UNL     1     -11.611  14.148  68.260  1.00  0.00    -0.356 C  
BRANCH  35  36
HETATM   36  C   UNL     1     -11.694  12.662  67.935  1.00  0.00    -0.412 C  
BRANCH  36  37
HETATM   37  C   UNL     1     -11.051  11.836  69.045  1.00  0.00    -0.301 C  
BRANCH  37  38
HETATM   38  C   UNL     1     -12.092  10.989  69.768  1.00  0.00    -0.424 C  
HETATM   39  C   UNL     1     -12.563  11.674  71.039  1.00  0.00    -0.431 C  
ENDBRANCH  37  38
ENDBRANCH  36  37
ENDBRANCH  35  36
ENDBRANCH  34  35
ENDBRANCH  33  34
ENDBRANCH  32  33
ENDBRANCH  31  32
ENDBRANCH  30  31
ENDBRANCH  29  30
ENDBRANCH  28  29
ENDBRANCH  27  28
ENDBRANCH  26  27
ENDBRANCH  25  26
ENDBRANCH  24  25
ENDBRANCH  23  24
ENDBRANCH  22  23
ENDBRANCH  19  22
ENDBRANCH  18  19
ENDBRANCH  17  18
ENDBRANCH  16  17
ENDBRANCH  15  16
ENDBRANCH  14  15
ENDBRANCH  13  14
ENDBRANCH  12  13
ENDBRANCH  11  12
ENDBRANCH  10  11
ENDBRANCH   9  10
ENDBRANCH   8   9
ENDBRANCH   7   8
ENDBRANCH   6   7
ENDBRANCH   5   6
ENDBRANCH   4   5
ENDBRANCH   3   4
ENDBRANCH   2   3
TORSDOF 34
ENDMDL
MODEL      105
REMARK 921   NORMALIZED FREE ENERGY PREDICTED BY IDOCK:   -3.29 KCAL/MOL
REMARK 922        TOTAL FREE ENERGY PREDICTED BY IDOCK:  -16.16 KCAL/MOL
REMARK 923 INTER-LIGAND FREE ENERGY PREDICTED BY IDOCK:  -10.37 KCAL/MOL
REMARK 924 INTRA-LIGAND FREE ENERGY PREDICTED BY IDOCK:   -5.79 KCAL/MOL
REMARK 927      BINDING AFFINITY PREDICTED BY RF-SCORE:    0.00 PKD
ROOT
HETATM    1  C   UNL     1     -12.411   6.596  72.044  1.00  0.00    -0.288 C  
HETATM    2  C   UNL     1     -12.447   7.939  71.337  1.00  0.00    -0.330 C  
ENDROOT
BRANCH   2   3
HETATM    3  C   UNL     1     -11.335   8.849  71.836  1.00  0.00    -0.446 C  
BRANCH   3   4
HETATM    4  C   UNL     1     -10.903   9.834  70.753  1.00  0.00    -0.403 C  
BRANCH   4   5
HETATM    5  C   UNL     1     -12.085  10.218  69.872  1.00  0.00    -0.178 C  
BRANCH   5   6
HETATM    6  C   UNL     1     -11.691  11.317  68.896  1.00  0.00    -0.409 C  
BRANCH   6   7
HETATM    7  C   UNL     1     -10.175  11.427  68.814  1.00  0.00    -0.209 C  
BRANCH   7   8
HETATM    8  C   UNL     1      -9.726  11.411  67.362  1.00  0.00    -0.196 C  
BRANCH   8   9
HETATM    9  C   UNL     1      -8.837  10.206  67.101  1.00  0.00    -0.138 C  
BRANCH   9  10
HETATM   10  C   UNL     1      -9.301   9.484  65.849  1.00  0.00    -0.285 C  
BRANCH  10  11
HETATM   11  C   UNL     1      -9.483   8.005  66.133  1.00  0.00    -0.193 C  
BRANCH  11  12
HETATM   12  C   UNL     1     -10.645   7.813  67.087  1.00  0.00    -0.401 C  
BRANCH  12  13
HETATM   13  C   UNL     1     -10.893   6.338  67.320  1.00  0.00    -0.457 C  
BRANCH  13  14
HETATM   14  C   UNL     1     -10.880   6.048  68.810  1.00  0.00    -0.391 C  
BRANCH  14  15
HETATM   15  C   UNL     1      -9.554   5.423  69.181  1.00  0.00    -0.193 C  
BRANCH  15  16
HETATM   16  C   UNL     1      -8.882   6.198  70.302  1.00  0.00    -0.149 C  
BRANCH  16  17
HETATM   17  C   UNL     1      -8.121   7.348  69.669  1.00  0.00    -0.128 C  
BRANCH  17  18
HETATM   18  C   UNL     1      -7.732   8.393  70.698  1.00  0.00    -0.083 C  
BRANCH  18  19
HETATM   19  N   UNL     1      -6.203   8.596  70.772  1.00  0.00    -0.034 N  
HETATM   20  C   UNL     1      -5.606   7.748  71.899  1.00  0.00    -0.035 C  
HETATM   21  C   UNL     1      -5.552   8.222  69.439  1.00  0.00    -0.030 C  
BRANCH  19  22
HETATM   22  C   UNL     1      -6.001  10.099  71.066  1.00  0.00    -0.034 C  
BRANCH  22  23
HETATM   23  C   UNL     1      -6.642  10.980  70.013  1.00  0.00    -0.134 C  
BRANCH  23  24
HETATM   24  C   UNL     1      -6.004  12.356  69.971  1.00  0.00    -0.149 C  
BRANCH  24  25
HETATM   25  C   UNL     1      -6.682  13.141  68.862  1.00  0.00    -0.099 C  
BRANCH  25  26
HETATM   26  C   UNL     1      -6.129  14.545  68.775  1.00  0.00    -0.087 C  
BRANCH  26  27
HETATM   27  C   UNL     1      -7.161  15.449  68.125  1.00  0.00    -0.124 C  
BRANCH  27  28
HETATM   28  C   UNL     1      -8.007  14.644  67.160  1.00  0.00    -0.184 C  
BRANCH  28  29
HETATM   29  C   UNL     1      -8.981  15.553  66.437  1.00  0.00    -0.359 C  
BRANCH  29  30
HETATM   30  C   UNL     1      -9.163  16.832  67.231  1.00  0.00    -0.234 C  
BRANCH  30  31
HETATM   31  C   UNL     1     -10.616  17.011  67.622  1.00  0.00    -0.333 C  
BRANCH  31  32
HETATM   32  C   UNL     1     -11.154  15.725  68.220  1.00  0.00    -0.342 C  
BRANCH  32  33
HETATM   33  C   UNL     1     -10.778  15.631  69.689  1.00  0.00    -0.278 C  
BRANCH  33  34
HETATM   34  C   UNL     1     -11.999  15.871  70.562  1.00  0.00    -0.360 C  
BRANCH  34  35
HETATM   35  C   UNL     1     -11.629  15.743  72.034  1.00  0.00    -0.541 C  
BRANCH  35  36
HETATM   36  C   UNL     1     -12.880  15.717  72.902  1.00  0.00    -0.583 C  
BRANCH  36  37
HETATM   37  C   UNL     1     -14.078  15.221  72.099  1.00  0.00    -0.658 C  
BRANCH  37  38
HETATM   38  C   UNL     1     -14.388  13.764  72.423  1.00  0.00    -0.381 C  
HETATM   39  C   UNL     1     -13.335  12.841  71.834  1.00  0.00    -0.510 C  
ENDBRANCH  37  38
ENDBRANCH  36  37
ENDBRANCH  35  36
ENDBRANCH  34  35
ENDBRANCH  33  34
ENDBRANCH  32  33
ENDBRANCH  31  32
ENDBRANCH  30  31
ENDBRANCH  29  30
ENDBRANCH  28  29
ENDBRANCH  27  28
ENDBRANCH  26  27
ENDBRANCH  25  26
ENDBRANCH  24  25
ENDBRANCH  23  24
ENDBRANCH  22  23
ENDBRANCH  19  22
ENDBRANCH  18  19
ENDBRANCH  17  18
ENDBRANCH  16  17
ENDBRANCH  15  16
ENDBRANCH  14  15
ENDBRANCH  13  14
ENDBRANCH  12  13
ENDBRANCH  11  12
ENDBRANCH  10  11
ENDBRANCH   9  10
ENDBRANCH   8   9
ENDBRANCH   7   8
ENDBRANCH   6   7
ENDBRANCH   5   6
ENDBRANCH   4   5
ENDBRANCH   3   4
ENDBRANCH   2   3
TORSDOF 34
ENDMDL
MODEL      106
REMARK 921   NORMALIZED FREE ENERGY PREDICTED BY IDOCK:   -3.28 KCAL/MOL
REMARK 922        TOTAL FREE ENERGY PREDICTED BY IDOCK:  -16.13 KCAL/MOL
REMARK 923 INTER-LIGAND FREE ENERGY PREDICTED BY IDOCK:  -10.50 KCAL/MOL
REMARK 924 INTRA-LIGAND FREE ENERGY PREDICTED BY IDOCK:   -5.62 KCAL/MOL
REMARK 927      BINDING AFFINITY PREDICTED BY RF-SCORE:    0.00 PKD
ROOT
HETATM    1  C   UNL     1     -11.988  13.546  66.560  1.00  0.00    -0.460 C  
HETATM    2  C   UNL     1     -11.453  14.967  66.546  1.00  0.00    -0.286 C  
ENDROOT
BRANCH   2   3
HETATM    3  C   UNL     1      -9.982  15.000  66.932  1.00  0.00    -0.247 C  
BRANCH   3   4
HETATM    4  C   UNL     1      -9.802  14.779  68.432  1.00  0.00    -0.220 C  
BRANCH   4   5
HETATM    5  C   UNL     1     -10.503  15.874  69.225  1.00  0.00    -0.253 C  
BRANCH   5   6
HETATM    6  C   UNL     1     -11.494  15.271  70.210  1.00  0.00    -0.326 C  
BRANCH   6   7
HETATM    7  C   UNL     1     -11.684  16.201  71.400  1.00  0.00    -0.506 C  
BRANCH   7   8
HETATM    8  C   UNL     1     -12.921  15.799  72.188  1.00  0.00    -0.513 C  
BRANCH   8   9
HETATM    9  C   UNL     1     -13.785  14.859  71.365  1.00  0.00    -0.527 C  
BRANCH   9  10
HETATM   10  C   UNL     1     -14.056  13.588  72.148  1.00  0.00    -0.506 C  
BRANCH  10  11
HETATM   11  C   UNL     1     -12.839  12.681  72.116  1.00  0.00    -0.205 C  
BRANCH  11  12
HETATM   12  C   UNL     1     -13.286  11.245  71.925  1.00  0.00    -0.491 C  
BRANCH  12  13
HETATM   13  C   UNL     1     -12.298  10.502  71.051  1.00  0.00    -0.503 C  
BRANCH  13  14
HETATM   14  C   UNL     1     -12.253  11.141  69.675  1.00  0.00    -0.360 C  
BRANCH  14  15
HETATM   15  C   UNL     1     -10.822  11.172  69.190  1.00  0.00    -0.284 C  
BRANCH  15  16
HETATM   16  C   UNL     1     -10.672  10.401  67.889  1.00  0.00    -0.307 C  
BRANCH  16  17
HETATM   17  C   UNL     1      -9.294  10.706  67.333  1.00  0.00    -0.157 C  
BRANCH  17  18
HETATM   18  C   UNL     1      -8.397  11.338  68.381  1.00  0.00    -0.152 C  
BRANCH  18  19
HETATM   19  N   UNL     1      -6.974  10.740  68.367  1.00  0.00    -0.068 N  
HETATM   20  C   UNL     1      -6.855   9.673  67.274  1.00  0.00    -0.083 C  
HETATM   21  C   UNL     1      -5.936  11.840  68.134  1.00  0.00    -0.050 C  
BRANCH  19  22
HETATM   22  C   UNL     1      -6.781  10.104  69.761  1.00  0.00    -0.096 C  
BRANCH  22  23
HETATM   23  C   UNL     1      -7.643   8.872  69.953  1.00  0.00    -0.063 C  
BRANCH  23  24
HETATM   24  C   UNL     1      -7.898   8.592  71.422  1.00  0.00    -0.153 C  
BRANCH  24  25
HETATM   25  C   UNL     1      -9.388   8.755  71.666  1.00  0.00    -0.345 C  
BRANCH  25  26
HETATM   26  C   UNL     1      -9.810   8.051  72.935  1.00  0.00    -0.357 C  
BRANCH  26  27
HETATM   27  C   UNL     1     -11.257   7.608  72.803  1.00  0.00    -0.431 C  
BRANCH  27  28
HETATM   28  C   UNL     1     -11.476   6.990  71.438  1.00  0.00    -0.312 C  
BRANCH  28  29
HETATM   29  C   UNL     1     -10.825   5.622  71.374  1.00  0.00    -0.290 C  
BRANCH  29  30
HETATM   30  C   UNL     1     -10.215   5.417  70.001  1.00  0.00    -0.349 C  
BRANCH  30  31
HETATM   31  C   UNL     1      -8.728   5.147  70.118  1.00  0.00    -0.128 C  
BRANCH  31  32
HETATM   32  C   UNL     1      -8.434   3.702  69.761  1.00  0.00    -0.087 C  
BRANCH  32  33
HETATM   33  C   UNL     1      -7.542   3.636  68.533  1.00  0.00    -0.053 C  
BRANCH  33  34
HETATM   34  C   UNL     1      -7.992   2.510  67.615  1.00  0.00    -0.064 C  
BRANCH  34  35
HETATM   35  C   UNL     1      -9.258   2.910  66.871  1.00  0.00    -0.161 C  
BRANCH  35  36
HETATM   36  C   UNL     1      -9.229   4.391  66.518  1.00  0.00    -0.145 C  
BRANCH  36  37
HETATM   37  C   UNL     1     -10.642   4.908  66.264  1.00  0.00    -0.307 C  
BRANCH  37  38
HETATM   38  C   UNL     1     -10.837   6.290  66.877  1.00  0.00    -0.428 C  
HETATM   39  C   UNL     1      -9.571   7.121  66.758  1.00  0.00    -0.230 C  
ENDBRANCH  37  38
ENDBRANCH  36  37
ENDBRANCH  35  36
ENDBRANCH  34  35
ENDBRANCH  33  34
ENDBRANCH  32  33
ENDBRANCH  31  32
ENDBRANCH  30  31
ENDBRANCH  29  30
ENDBRANCH  28  29
ENDBRANCH  27  28
ENDBRANCH  26  27
ENDBRANCH  25  26
ENDBRANCH  24  25
ENDBRANCH  23  24
ENDBRANCH  22  23
ENDBRANCH  19  22
ENDBRANCH  18  19
ENDBRANCH  17  18
ENDBRANCH  16  17
ENDBRANCH  15  16
ENDBRANCH  14  15
ENDBRANCH  13  14
ENDBRANCH  12  13
ENDBRANCH  11  12
ENDBRANCH  10  11
ENDBRANCH   9  10
ENDBRANCH   8   9
ENDBRANCH   7   8
ENDBRANCH   6   7
ENDBRANCH   5   6
ENDBRANCH   4   5
ENDBRANCH   3   4
ENDBRANCH   2   3
TORSDOF 34
ENDMDL
MODEL      107
REMARK 921   NORMALIZED FREE ENERGY PREDICTED BY IDOCK:   -3.25 KCAL/MOL
REMARK 922        TOTAL FREE ENERGY PREDICTED BY IDOCK:  -16.05 KCAL/MOL
REMARK 923 INTER-LIGAND FREE ENERGY PREDICTED BY IDOCK:   -9.79 KCAL/MOL
REMARK 924 INTRA-LIGAND FREE ENERGY PREDICTED BY IDOCK:   -6.26 KCAL/MOL
REMARK 927      BINDING AFFINITY PREDICTED BY RF-SCORE:    0.00 PKD
ROOT
HETATM    1  C   UNL     1     -11.000   6.006  69.354  1.00  0.00    -0.455 C  
HETATM    2  C   UNL     1      -9.853   5.287  70.041  1.00  0.00    -0.288 C  
ENDROOT
BRANCH   2   3
HETATM    3  C   UNL     1      -8.596   5.320  69.185  1.00  0.00    -0.102 C  
BRANCH   3   4
HETATM    4  C   UNL     1      -7.340   5.313  70.052  1.00  0.00    -0.064 C  
BRANCH   4   5
HETATM    5  C   UNL     1      -7.609   5.979  71.395  1.00  0.00    -0.099 C  
BRANCH   5   6
HETATM    6  C   UNL     1      -6.967   5.185  72.524  1.00  0.00    -0.084 C  
BRANCH   6   7
HETATM    7  C   UNL     1      -8.008   4.835  73.578  1.00  0.00    -0.103 C  
BRANCH   7   8
HETATM    8  C   UNL     1      -8.756   3.573  73.178  1.00  0.00    -0.090 C  
BRANCH   8   9
HETATM    9  C   UNL     1     -10.252   3.770  73.358  1.00  0.00    -0.218 C  
BRANCH   9  10
HETATM   10  C   UNL     1     -10.523   5.133  73.969  1.00  0.00    -0.323 C  
BRANCH  10  11
HETATM   11  C   UNL     1     -11.416   5.950  73.055  1.00  0.00    -0.151 C  
BRANCH  11  12
HETATM   12  C   UNL     1     -10.954   7.394  73.058  1.00  0.00    -0.422 C  
BRANCH  12  13
HETATM   13  C   UNL     1     -11.837   8.228  72.153  1.00  0.00    -0.431 C  
BRANCH  13  14
HETATM   14  C   UNL     1     -10.977   9.170  71.331  1.00  0.00    -0.414 C  
BRANCH  14  15
HETATM   15  C   UNL     1      -9.543   9.067  71.798  1.00  0.00    -0.278 C  
BRANCH  15  16
HETATM   16  C   UNL     1      -8.578   9.275  70.643  1.00  0.00    -0.270 C  
BRANCH  16  17
HETATM   17  C   UNL     1      -9.356   9.072  69.356  1.00  0.00    -0.158 C  
BRANCH  17  18
HETATM   18  C   UNL     1      -8.431   8.868  68.171  1.00  0.00    -0.129 C  
BRANCH  18  19
HETATM   19  N   UNL     1      -9.185   8.938  66.826  1.00  0.00    -0.151 N  
HETATM   20  C   UNL     1      -8.736   7.801  65.903  1.00  0.00    -0.149 C  
HETATM   21  C   UNL     1     -10.695   8.855  67.056  1.00  0.00    -0.110 C  
BRANCH  19  22
HETATM   22  C   UNL     1      -8.808  10.305  66.214  1.00  0.00    -0.146 C  
BRANCH  22  23
HETATM   23  C   UNL     1      -9.567  11.449  66.857  1.00  0.00    -0.203 C  
BRANCH  23  24
HETATM   24  C   UNL     1      -8.628  12.447  67.509  1.00  0.00    -0.177 C  
BRANCH  24  25
HETATM   25  C   UNL     1      -9.482  13.514  68.170  1.00  0.00    -0.214 C  
BRANCH  25  26
HETATM   26  C   UNL     1     -10.801  12.941  68.635  1.00  0.00    -0.288 C  
BRANCH  26  27
HETATM   27  C   UNL     1     -11.479  13.934  69.562  1.00  0.00    -0.332 C  
BRANCH  27  28
HETATM   28  C   UNL     1     -10.518  15.057  69.893  1.00  0.00    -0.175 C  
BRANCH  28  29
HETATM   29  C   UNL     1     -11.122  16.392  69.503  1.00  0.00    -0.293 C  
BRANCH  29  30
HETATM   30  C   UNL     1     -10.101  17.201  68.728  1.00  0.00    -0.329 C  
BRANCH  30  31
HETATM   31  C   UNL     1     -10.624  17.528  67.344  1.00  0.00    -0.311 C  
BRANCH  31  32
HETATM   32  C   UNL     1     -10.229  16.435  66.368  1.00  0.00    -0.325 C  
BRANCH  32  33
HETATM   33  C   UNL     1     -11.165  16.436  65.172  1.00  0.00    -0.070 C  
BRANCH  33  34
HETATM   34  C   UNL     1     -11.333  15.024  64.632  1.00  0.00    -0.357 C  
BRANCH  34  35
HETATM   35  C   UNL     1     -12.174  14.190  65.589  1.00  0.00    -0.449 C  
BRANCH  35  36
HETATM   36  C   UNL     1     -12.248  12.743  65.118  1.00  0.00    -0.530 C  
BRANCH  36  37
HETATM   37  C   UNL     1     -12.071  12.665  63.605  1.00  0.00    -0.632 C  
BRANCH  37  38
HETATM   38  C   UNL     1     -11.260  11.435  63.213  1.00  0.00    -0.152 C  
HETATM   39  C   UNL     1      -9.781  11.768  63.112  1.00  0.00    -0.321 C  
ENDBRANCH  37  38
ENDBRANCH  36  37
ENDBRANCH  35  36
ENDBRANCH  34  35
ENDBRANCH  33  34
ENDBRANCH  32  33
ENDBRANCH  31  32
ENDBRANCH  30  31
ENDBRANCH  29  30
ENDBRANCH  28  29
ENDBRANCH  27  28
ENDBRANCH  26  27
ENDBRANCH  25  26
ENDBRANCH  24  25
ENDBRANCH  23  24
ENDBRANCH  22  23
ENDBRANCH  19  22
ENDBRANCH  18  19
ENDBRANCH  17  18
ENDBRANCH  16  17
ENDBRANCH  15  16
ENDBRANCH  14  15
ENDBRANCH  13  14
ENDBRANCH  12  13
ENDBRANCH  11  12
ENDBRANCH  10  11
ENDBRANCH   9  10
ENDBRANCH   8   9
ENDBRANCH   7   8
ENDBRANCH   6   7
ENDBRANCH   5   6
ENDBRANCH   4   5
ENDBRANCH   3   4
ENDBRANCH   2   3
TORSDOF 34
ENDMDL
MODEL      108
REMARK 921   NORMALIZED FREE ENERGY PREDICTED BY IDOCK:   -3.25 KCAL/MOL
REMARK 922        TOTAL FREE ENERGY PREDICTED BY IDOCK:  -16.05 KCAL/MOL
REMARK 923 INTER-LIGAND FREE ENERGY PREDICTED BY IDOCK:  -10.23 KCAL/MOL
REMARK 924 INTRA-LIGAND FREE ENERGY PREDICTED BY IDOCK:   -5.81 KCAL/MOL
REMARK 927      BINDING AFFINITY PREDICTED BY RF-SCORE:    0.00 PKD
ROOT
HETATM    1  C   UNL     1     -11.885   5.921  72.471  1.00  0.00    -0.238 C  
HETATM    2  C   UNL     1     -12.195   6.895  71.348  1.00  0.00    -0.418 C  
ENDROOT
BRANCH   2   3
HETATM    3  C   UNL     1     -13.613   7.435  71.468  1.00  0.00    -0.454 C  
BRANCH   3   4
HETATM    4  C   UNL     1     -13.611   8.951  71.645  1.00  0.00    -0.432 C  
BRANCH   4   5
HETATM    5  C   UNL     1     -12.185   9.488  71.663  1.00  0.00    -0.477 C  
BRANCH   5   6
HETATM    6  C   UNL     1     -12.093  10.786  70.873  1.00  0.00    -0.475 C  
BRANCH   6   7
HETATM    7  C   UNL     1     -11.038  10.664  69.784  1.00  0.00    -0.358 C  
BRANCH   7   8
HETATM    8  C   UNL     1     -10.111   9.496  70.079  1.00  0.00    -0.279 C  
BRANCH   8   9
HETATM    9  C   UNL     1      -8.661   9.933  69.956  1.00  0.00    -0.196 C  
BRANCH   9  10
HETATM   10  C   UNL     1      -7.815   9.207  70.985  1.00  0.00    -0.152 C  
BRANCH  10  11
HETATM   11  C   UNL     1      -8.633   8.130  71.674  1.00  0.00    -0.181 C  
BRANCH  11  12
HETATM   12  C   UNL     1      -7.866   6.822  71.650  1.00  0.00    -0.101 C  
BRANCH  12  13
HETATM   13  C   UNL     1      -8.650   5.771  70.891  1.00  0.00    -0.130 C  
BRANCH  13  14
HETATM   14  C   UNL     1      -8.731   6.158  69.425  1.00  0.00    -0.123 C  
BRANCH  14  15
HETATM   15  C   UNL     1      -7.337   6.181  68.841  1.00  0.00    -0.085 C  
BRANCH  15  16
HETATM   16  C   UNL     1      -7.380   6.416  67.341  1.00  0.00    -0.087 C  
BRANCH  16  17
HETATM   17  C   UNL     1      -8.145   7.704  67.103  1.00  0.00    -0.118 C  
BRANCH  17  18
HETATM   18  C   UNL     1      -7.734   8.365  65.800  1.00  0.00    -0.094 C  
BRANCH  18  19
HETATM   19  N   UNL     1      -8.727   9.464  65.366  1.00  0.00    -0.154 N  
HETATM   20  C   UNL     1      -8.852   9.499  63.840  1.00  0.00    -0.210 C  
HETATM   21  C   UNL     1     -10.101   9.218  65.994  1.00  0.00    -0.192 C  
BRANCH  19  22
HETATM   22  C   UNL     1      -8.127  10.789  65.885  1.00  0.00    -0.148 C  
BRANCH  22  23
HETATM   23  C   UNL     1      -9.112  11.570  66.733  1.00  0.00    -0.184 C  
BRANCH  23  24
HETATM   24  C   UNL     1      -8.762  13.046  66.779  1.00  0.00    -0.105 C  
BRANCH  24  25
HETATM   25  C   UNL     1      -9.445  13.639  68.000  1.00  0.00    -0.209 C  
BRANCH  25  26
HETATM   26  C   UNL     1      -8.843  14.977  68.361  1.00  0.00    -0.178 C  
BRANCH  26  27
HETATM   27  C   UNL     1      -7.769  15.332  67.348  1.00  0.00    -0.225 C  
BRANCH  27  28
HETATM   28  C   UNL     1      -6.864  16.403  67.921  1.00  0.00    -0.152 C  
BRANCH  28  29
HETATM   29  C   UNL     1      -7.617  17.226  68.947  1.00  0.00    -0.235 C  
BRANCH  29  30
HETATM   30  C   UNL     1      -7.907  18.601  68.377  1.00  0.00    -0.344 C  
BRANCH  30  31
HETATM   31  C   UNL     1      -9.399  18.796  68.197  1.00  0.00    -0.352 C  
BRANCH  31  32
HETATM   32  C   UNL     1      -9.666  19.647  66.970  1.00  0.00    -0.475 C  
BRANCH  32  33
HETATM   33  C   UNL     1     -10.612  18.926  66.026  1.00  0.00    -0.470 C  
BRANCH  33  34
HETATM   34  C   UNL     1     -10.414  17.421  66.128  1.00  0.00    -0.284 C  
BRANCH  34  35
HETATM   35  C   UNL     1     -11.154  16.713  65.001  1.00  0.00    -0.121 C  
BRANCH  35  36
HETATM   36  C   UNL     1     -11.114  15.204  65.198  1.00  0.00    -0.410 C  
BRANCH  36  37
HETATM   37  C   UNL     1     -12.297  14.542  64.497  1.00  0.00    -0.434 C  
BRANCH  37  38
HETATM   38  C   UNL     1     -12.577  13.163  65.082  1.00  0.00    -0.525 C  
HETATM   39  C   UNL     1     -11.848  12.083  64.301  1.00  0.00    -0.431 C  
ENDBRANCH  37  38
ENDBRANCH  36  37
ENDBRANCH  35  36
ENDBRANCH  34  35
ENDBRANCH  33  34
ENDBRANCH  32  33
ENDBRANCH  31  32
ENDBRANCH  30  31
ENDBRANCH  29  30
ENDBRANCH  28  29
ENDBRANCH  27  28
ENDBRANCH  26  27
ENDBRANCH  25  26
ENDBRANCH  24  25
ENDBRANCH  23  24
ENDBRANCH  22  23
ENDBRANCH  19  22
ENDBRANCH  18  19
ENDBRANCH  17  18
ENDBRANCH  16  17
ENDBRANCH  15  16
ENDBRANCH  14  15
ENDBRANCH  13  14
ENDBRANCH  12  13
ENDBRANCH  11  12
ENDBRANCH  10  11
ENDBRANCH   9  10
ENDBRANCH   8   9
ENDBRANCH   7   8
ENDBRANCH   6   7
ENDBRANCH   5   6
ENDBRANCH   4   5
ENDBRANCH   3   4
ENDBRANCH   2   3
TORSDOF 34
ENDMDL
MODEL      109
REMARK 921   NORMALIZED FREE ENERGY PREDICTED BY IDOCK:   -3.21 KCAL/MOL
REMARK 922        TOTAL FREE ENERGY PREDICTED BY IDOCK:  -15.91 KCAL/MOL
REMARK 923 INTER-LIGAND FREE ENERGY PREDICTED BY IDOCK:  -10.39 KCAL/MOL
REMARK 924 INTRA-LIGAND FREE ENERGY PREDICTED BY IDOCK:   -5.52 KCAL/MOL
REMARK 927      BINDING AFFINITY PREDICTED BY RF-SCORE:    0.00 PKD
ROOT
HETATM    1  C   UNL     1      -7.413   9.296  66.104  1.00  0.00    -0.096 C  
HETATM    2  C   UNL     1      -8.451   8.672  67.020  1.00  0.00    -0.110 C  
ENDROOT
BRANCH   2   3
HETATM    3  C   UNL     1      -9.565   8.017  66.217  1.00  0.00    -0.223 C  
BRANCH   3   4
HETATM    4  C   UNL     1     -10.582   7.345  67.136  1.00  0.00    -0.413 C  
BRANCH   4   5
HETATM    5  C   UNL     1     -10.779   5.886  66.744  1.00  0.00    -0.371 C  
BRANCH   5   6
HETATM    6  C   UNL     1      -9.435   5.201  66.541  1.00  0.00    -0.153 C  
BRANCH   6   7
HETATM    7  C   UNL     1      -8.813   4.855  67.885  1.00  0.00    -0.110 C  
BRANCH   7   8
HETATM    8  C   UNL     1      -9.080   3.398  68.228  1.00  0.00    -0.206 C  
BRANCH   8   9
HETATM    9  C   UNL     1      -9.320   3.245  69.720  1.00  0.00    -0.229 C  
BRANCH   9  10
HETATM   10  C   UNL     1      -9.800   4.561  70.303  1.00  0.00    -0.299 C  
BRANCH  10  11
HETATM   11  C   UNL     1     -10.212   4.375  71.752  1.00  0.00    -0.201 C  
BRANCH  11  12
HETATM   12  C   UNL     1      -9.952   5.657  72.519  1.00  0.00    -0.194 C  
BRANCH  12  13
HETATM   13  C   UNL     1      -9.452   6.735  71.580  1.00  0.00    -0.156 C  
BRANCH  13  14
HETATM   14  C   UNL     1      -9.623   8.095  72.230  1.00  0.00    -0.319 C  
BRANCH  14  15
HETATM   15  C   UNL     1     -11.098   8.377  72.410  1.00  0.00    -0.431 C  
BRANCH  15  16
HETATM   16  C   UNL     1     -11.743   8.761  71.089  1.00  0.00    -0.344 C  
BRANCH  16  17
HETATM   17  C   UNL     1     -11.230  10.139  70.714  1.00  0.00    -0.414 C  
BRANCH  17  18
HETATM   18  C   UNL     1     -10.510  10.122  69.379  1.00  0.00    -0.233 C  
BRANCH  18  19
HETATM   19  N   UNL     1     -10.659  11.458  68.621  1.00  0.00    -0.192 N  
HETATM   20  C   UNL     1     -11.217  11.216  67.215  1.00  0.00    -0.277 C  
HETATM   21  C   UNL     1     -11.582  12.407  69.389  1.00  0.00    -0.307 C  
BRANCH  19  22
HETATM   22  C   UNL     1      -9.233  12.046  68.537  1.00  0.00    -0.114 C  
BRANCH  22  23
HETATM   23  C   UNL     1      -8.895  12.534  67.143  1.00  0.00    -0.202 C  
BRANCH  23  24
HETATM   24  C   UNL     1      -7.970  13.737  67.179  1.00  0.00    -0.065 C  
BRANCH  24  25
HETATM   25  C   UNL     1      -8.100  14.371  68.553  1.00  0.00    -0.146 C  
BRANCH  25  26
HETATM   26  C   UNL     1      -7.195  15.574  68.682  1.00  0.00    -0.123 C  
BRANCH  26  27
HETATM   27  C   UNL     1      -6.778  16.037  67.298  1.00  0.00    -0.232 C  
BRANCH  27  28
HETATM   28  C   UNL     1      -6.752  17.550  67.254  1.00  0.00    -0.191 C  
BRANCH  28  29
HETATM   29  C   UNL     1      -7.652  18.055  66.144  1.00  0.00    -0.285 C  
BRANCH  29  30
HETATM   30  C   UNL     1      -8.581  19.120  66.693  1.00  0.00    -0.329 C  
BRANCH  30  31
HETATM   31  C   UNL     1      -9.281  18.622  67.941  1.00  0.00    -0.316 C  
BRANCH  31  32
HETATM   32  C   UNL     1     -10.626  18.022  67.577  1.00  0.00    -0.402 C  
BRANCH  32  33
HETATM   33  C   UNL     1     -10.806  16.680  68.267  1.00  0.00    -0.356 C  
BRANCH  33  34
HETATM   34  C   UNL     1     -11.210  15.618  67.256  1.00  0.00    -0.184 C  
BRANCH  34  35
HETATM   35  C   UNL     1     -10.626  15.941  65.888  1.00  0.00    -0.348 C  
BRANCH  35  36
HETATM   36  C   UNL     1     -10.879  14.799  64.912  1.00  0.00    -0.433 C  
BRANCH  36  37
HETATM   37  C   UNL     1     -12.200  14.107  65.231  1.00  0.00    -0.440 C  
BRANCH  37  38
HETATM   38  C   UNL     1     -12.443  12.932  64.291  1.00  0.00    -0.424 C  
HETATM   39  C   UNL     1     -11.160  12.527  63.585  1.00  0.00    -0.523 C  
ENDBRANCH  37  38
ENDBRANCH  36  37
ENDBRANCH  35  36
ENDBRANCH  34  35
ENDBRANCH  33  34
ENDBRANCH  32  33
ENDBRANCH  31  32
ENDBRANCH  30  31
ENDBRANCH  29  30
ENDBRANCH  28  29
ENDBRANCH  27  28
ENDBRANCH  26  27
ENDBRANCH  25  26
ENDBRANCH  24  25
ENDBRANCH  23  24
ENDBRANCH  22  23
ENDBRANCH  19  22
ENDBRANCH  18  19
ENDBRANCH  17  18
ENDBRANCH  16  17
ENDBRANCH  15  16
ENDBRANCH  14  15
ENDBRANCH  13  14
ENDBRANCH  12  13
ENDBRANCH  11  12
ENDBRANCH  10  11
ENDBRANCH   9  10
ENDBRANCH   8   9
ENDBRANCH   7   8
ENDBRANCH   6   7
ENDBRANCH   5   6
ENDBRANCH   4   5
ENDBRANCH   3   4
ENDBRANCH   2   3
TORSDOF 34
ENDMDL
MODEL      110
REMARK 921   NORMALIZED FREE ENERGY PREDICTED BY IDOCK:   -3.20 KCAL/MOL
REMARK 922        TOTAL FREE ENERGY PREDICTED BY IDOCK:  -15.88 KCAL/MOL
REMARK 923 INTER-LIGAND FREE ENERGY PREDICTED BY IDOCK:   -9.66 KCAL/MOL
REMARK 924 INTRA-LIGAND FREE ENERGY PREDICTED BY IDOCK:   -6.22 KCAL/MOL
REMARK 927      BINDING AFFINITY PREDICTED BY RF-SCORE:    0.00 PKD
ROOT
HETATM    1  C   UNL     1      -5.838   8.197  71.110  1.00  0.00    -0.034 C  
HETATM    2  C   UNL     1      -6.972   8.699  70.234  1.00  0.00    -0.041 C  
ENDROOT
BRANCH   2   3
HETATM    3  C   UNL     1      -8.319   8.226  70.758  1.00  0.00    -0.127 C  
BRANCH   3   4
HETATM    4  C   UNL     1      -9.362   9.337  70.678  1.00  0.00    -0.329 C  
BRANCH   4   5
HETATM    5  C   UNL     1     -10.439   9.142  71.737  1.00  0.00    -0.361 C  
BRANCH   5   6
HETATM    6  C   UNL     1     -11.762   8.758  71.089  1.00  0.00    -0.344 C  
BRANCH   6   7
HETATM    7  C   UNL     1     -12.160   7.349  71.503  1.00  0.00    -0.357 C  
BRANCH   7   8
HETATM    8  C   UNL     1     -11.399   6.324  70.677  1.00  0.00    -0.409 C  
BRANCH   8   9
HETATM    9  C   UNL     1     -10.658   5.361  71.588  1.00  0.00    -0.284 C  
BRANCH   9  10
HETATM   10  C   UNL     1     -10.795   5.808  73.032  1.00  0.00    -0.306 C  
BRANCH  10  11
HETATM   11  C   UNL     1     -10.119   4.812  73.956  1.00  0.00    -0.226 C  
BRANCH  11  12
HETATM   12  C   UNL     1      -9.231   3.891  73.143  1.00  0.00    -0.121 C  
BRANCH  12  13
HETATM   13  C   UNL     1      -7.773   4.168  73.446  1.00  0.00    -0.085 C  
BRANCH  13  14
HETATM   14  C   UNL     1      -7.172   5.006  72.333  1.00  0.00    -0.087 C  
BRANCH  14  15
HETATM   15  C   UNL     1      -6.452   4.097  71.363  1.00  0.00    -0.019 C  
BRANCH  15  16
HETATM   16  C   UNL     1      -7.316   3.805  70.148  1.00  0.00    -0.042 C  
BRANCH  16  17
HETATM   17  C   UNL     1      -7.000   4.856  69.100  1.00  0.00    -0.051 C  
BRANCH  17  18
HETATM   18  C   UNL     1      -8.263   5.477  68.534  1.00  0.00    -0.098 C  
BRANCH  18  19
HETATM   19  N   UNL     1      -8.556   4.993  67.098  1.00  0.00    -0.106 N  
HETATM   20  C   UNL     1      -7.265   4.533  66.416  1.00  0.00    -0.076 C  
HETATM   21  C   UNL     1      -9.570   3.847  67.118  1.00  0.00    -0.189 C  
BRANCH  19  22
HETATM   22  C   UNL     1      -9.144   6.218  66.362  1.00  0.00    -0.153 C  
BRANCH  22  23
HETATM   23  C   UNL     1     -10.529   6.576  66.863  1.00  0.00    -0.347 C  
BRANCH  23  24
HETATM   24  C   UNL     1     -10.506   7.823  67.727  1.00  0.00    -0.277 C  
BRANCH  24  25
HETATM   25  C   UNL     1     -10.531   9.024  66.798  1.00  0.00    -0.270 C  
BRANCH  25  26
HETATM   26  C   UNL     1      -9.375   9.955  67.085  1.00  0.00    -0.170 C  
BRANCH  26  27
HETATM   27  C   UNL     1      -9.910  11.253  67.661  1.00  0.00    -0.190 C  
BRANCH  27  28
HETATM   28  C   UNL     1     -11.401  11.129  67.896  1.00  0.00    -0.378 C  
BRANCH  28  29
HETATM   29  C   UNL     1     -11.781  11.802  69.200  1.00  0.00    -0.388 C  
BRANCH  29  30
HETATM   30  C   UNL     1     -11.344  13.253  69.165  1.00  0.00    -0.336 C  
BRANCH  30  31
HETATM   31  C   UNL     1     -12.063  13.997  68.058  1.00  0.00    -0.312 C  
BRANCH  31  32
HETATM   32  C   UNL     1     -11.076  14.844  67.277  1.00  0.00    -0.336 C  
BRANCH  32  33
HETATM   33  C   UNL     1     -11.055  14.414  65.820  1.00  0.00    -0.316 C  
BRANCH  33  34
HETATM   34  C   UNL     1     -12.433  13.935  65.391  1.00  0.00    -0.528 C  
BRANCH  34  35
HETATM   35  C   UNL     1     -12.317  12.652  64.579  1.00  0.00    -0.537 C  
BRANCH  35  36
HETATM   36  C   UNL     1     -11.055  12.669  63.726  1.00  0.00    -0.504 C  
BRANCH  36  37
HETATM   37  C   UNL     1     -10.219  11.420  63.985  1.00  0.00    -0.398 C  
BRANCH  37  38
HETATM   38  C   UNL     1      -9.569  10.921  62.699  1.00  0.00    -0.290 C  
HETATM   39  C   UNL     1      -8.875   9.588  62.922  1.00  0.00    -0.242 C  
ENDBRANCH  37  38
ENDBRANCH  36  37
ENDBRANCH  35  36
ENDBRANCH  34  35
ENDBRANCH  33  34
ENDBRANCH  32  33
ENDBRANCH  31  32
ENDBRANCH  30  31
ENDBRANCH  29  30
ENDBRANCH  28  29
ENDBRANCH  27  28
ENDBRANCH  26  27
ENDBRANCH  25  26
ENDBRANCH  24  25
ENDBRANCH  23  24
ENDBRANCH  22  23
ENDBRANCH  19  22
ENDBRANCH  18  19
ENDBRANCH  17  18
ENDBRANCH  16  17
ENDBRANCH  15  16
ENDBRANCH  14  15
ENDBRANCH  13  14
ENDBRANCH  12  13
ENDBRANCH  11  12
ENDBRANCH  10  11
ENDBRANCH   9  10
ENDBRANCH   8   9
ENDBRANCH   7   8
ENDBRANCH   6   7
ENDBRANCH   5   6
ENDBRANCH   4   5
ENDBRANCH   3   4
ENDBRANCH   2   3
TORSDOF 34
ENDMDL
MODEL      111
REMARK 921   NORMALIZED FREE ENERGY PREDICTED BY IDOCK:   -3.20 KCAL/MOL
REMARK 922        TOTAL FREE ENERGY PREDICTED BY IDOCK:  -15.87 KCAL/MOL
REMARK 923 INTER-LIGAND FREE ENERGY PREDICTED BY IDOCK:   -9.61 KCAL/MOL
REMARK 924 INTRA-LIGAND FREE ENERGY PREDICTED BY IDOCK:   -6.27 KCAL/MOL
REMARK 927      BINDING AFFINITY PREDICTED BY RF-SCORE:    0.00 PKD
ROOT
HETATM    1  C   UNL     1      -9.568  15.496  65.914  1.00  0.00    -0.383 C  
HETATM    2  C   UNL     1     -10.772  15.676  66.822  1.00  0.00    -0.300 C  
ENDROOT
BRANCH   2   3
HETATM    3  C   UNL     1     -11.725  14.496  66.708  1.00  0.00    -0.393 C  
BRANCH   3   4
HETATM    4  C   UNL     1     -12.021  14.169  65.247  1.00  0.00    -0.383 C  
BRANCH   4   5
HETATM    5  C   UNL     1     -12.464  12.719  65.099  1.00  0.00    -0.565 C  
BRANCH   5   6
HETATM    6  C   UNL     1     -12.199  12.220  63.686  1.00  0.00    -0.665 C  
BRANCH   6   7
HETATM    7  C   UNL     1     -10.827  11.568  63.608  1.00  0.00    -0.488 C  
BRANCH   7   8
HETATM    8  C   UNL     1     -10.639  10.599  64.764  1.00  0.00    -0.184 C  
BRANCH   8   9
HETATM    9  C   UNL     1      -9.183  10.574  65.198  1.00  0.00    -0.243 C  
BRANCH   9  10
HETATM   10  C   UNL     1      -8.851  11.842  65.962  1.00  0.00    -0.007 C  
BRANCH  10  11
HETATM   11  C   UNL     1      -7.663  11.609  66.876  1.00  0.00    -0.147 C  
BRANCH  11  12
HETATM   12  C   UNL     1      -8.034  11.996  68.294  1.00  0.00    -0.149 C  
BRANCH  12  13
HETATM   13  C   UNL     1      -9.508  12.334  68.375  1.00  0.00    -0.175 C  
BRANCH  13  14
HETATM   14  C   UNL     1     -10.291  11.102  68.792  1.00  0.00    -0.222 C  
BRANCH  14  15
HETATM   15  C   UNL     1     -11.765  11.436  68.812  1.00  0.00    -0.404 C  
BRANCH  15  16
HETATM   16  C   UNL     1     -12.248  11.682  70.231  1.00  0.00    -0.401 C  
BRANCH  16  17
HETATM   17  C   UNL     1     -11.715  10.556  71.096  1.00  0.00    -0.323 C  
BRANCH  17  18
HETATM   18  C   UNL     1     -12.101   9.197  70.544  1.00  0.00     0.028 C  
BRANCH  18  19
HETATM   19  N   UNL     1     -12.431   8.186  71.663  1.00  0.00    -0.310 N  
HETATM   20  C   UNL     1     -13.785   8.515  72.297  1.00  0.00    -0.336 C  
HETATM   21  C   UNL     1     -12.450   6.761  71.105  1.00  0.00    -0.298 C  
BRANCH  19  22
HETATM   22  C   UNL     1     -11.300   8.341  72.704  1.00  0.00    -0.350 C  
BRANCH  22  23
HETATM   23  C   UNL     1     -10.043   7.597  72.299  1.00  0.00    -0.260 C  
BRANCH  23  24
HETATM   24  C   UNL     1      -8.797   8.428  72.543  1.00  0.00    -0.296 C  
BRANCH  24  25
HETATM   25  C   UNL     1      -8.417   9.079  71.225  1.00  0.00    -0.196 C  
BRANCH  25  26
HETATM   26  C   UNL     1      -8.388   8.063  70.107  1.00  0.00    -0.126 C  
BRANCH  26  27
HETATM   27  C   UNL     1      -7.354   8.482  69.077  1.00  0.00    -0.081 C  
BRANCH  27  28
HETATM   28  C   UNL     1      -7.854   8.143  67.688  1.00  0.00    -0.114 C  
BRANCH  28  29
HETATM   29  C   UNL     1      -9.326   7.781  67.738  1.00  0.00    -0.155 C  
BRANCH  29  30
HETATM   30  C   UNL     1      -9.551   6.479  66.995  1.00  0.00    -0.174 C  
BRANCH  30  31
HETATM   31  C   UNL     1     -10.572   5.625  67.720  1.00  0.00    -0.274 C  
BRANCH  31  32
HETATM   32  C   UNL     1      -9.948   5.010  68.958  1.00  0.00    -0.251 C  
BRANCH  32  33
HETATM   33  C   UNL     1      -8.741   4.170  68.576  1.00  0.00    -0.124 C  
BRANCH  33  34
HETATM   34  C   UNL     1      -9.189   2.837  67.997  1.00  0.00    -0.253 C  
BRANCH  34  35
HETATM   35  C   UNL     1      -7.992   2.068  67.455  1.00  0.00    -0.065 C  
BRANCH  35  36
HETATM   36  C   UNL     1      -7.688   2.488  66.022  1.00  0.00    -0.080 C  
BRANCH  36  37
HETATM   37  C   UNL     1      -8.935   2.364  65.153  1.00  0.00    -0.126 C  
BRANCH  37  38
HETATM   38  C   UNL     1      -9.159   3.631  64.335  1.00  0.00    -0.129 C  
HETATM   39  C   UNL     1     -10.633   3.992  64.284  1.00  0.00    -0.204 C  
ENDBRANCH  37  38
ENDBRANCH  36  37
ENDBRANCH  35  36
ENDBRANCH  34  35
ENDBRANCH  33  34
ENDBRANCH  32  33
ENDBRANCH  31  32
ENDBRANCH  30  31
ENDBRANCH  29  30
ENDBRANCH  28  29
ENDBRANCH  27  28
ENDBRANCH  26  27
ENDBRANCH  25  26
ENDBRANCH  24  25
ENDBRANCH  23  24
ENDBRANCH  22  23
ENDBRANCH  19  22
ENDBRANCH  18  19
ENDBRANCH  17  18
ENDBRANCH  16  17
ENDBRANCH  15  16
ENDBRANCH  14  15
ENDBRANCH  13  14
ENDBRANCH  12  13
ENDBRANCH  11  12
ENDBRANCH  10  11
ENDBRANCH   9  10
ENDBRANCH   8   9
ENDBRANCH   7   8
ENDBRANCH   6   7
ENDBRANCH   5   6
ENDBRANCH   4   5
ENDBRANCH   3   4
ENDBRANCH   2   3
TORSDOF 34
ENDMDL
MODEL      112
REMARK 921   NORMALIZED FREE ENERGY PREDICTED BY IDOCK:   -3.18 KCAL/MOL
REMARK 922        TOTAL FREE ENERGY PREDICTED BY IDOCK:  -15.82 KCAL/MOL
REMARK 923 INTER-LIGAND FREE ENERGY PREDICTED BY IDOCK:  -11.15 KCAL/MOL
REMARK 924 INTRA-LIGAND FREE ENERGY PREDICTED BY IDOCK:   -4.67 KCAL/MOL
REMARK 927      BINDING AFFINITY PREDICTED BY RF-SCORE:    0.00 PKD
ROOT
HETATM    1  C   UNL     1     -13.229  13.138  71.989  1.00  0.00    -0.543 C  
HETATM    2  C   UNL     1     -13.682  14.556  72.291  1.00  0.00    -0.559 C  
ENDROOT
BRANCH   2   3
HETATM    3  C   UNL     1     -12.999  15.556  71.370  1.00  0.00    -0.553 C  
BRANCH   3   4
HETATM    4  C   UNL     1     -12.001  14.861  70.448  1.00  0.00    -0.368 C  
BRANCH   4   5
HETATM    5  C   UNL     1     -11.946  15.556  69.093  1.00  0.00    -0.331 C  
BRANCH   5   6
HETATM    6  C   UNL     1     -10.969  16.722  69.130  1.00  0.00    -0.223 C  
BRANCH   6   7
HETATM    7  C   UNL     1     -10.679  17.209  67.718  1.00  0.00    -0.329 C  
BRANCH   7   8
HETATM    8  C   UNL     1     -10.776  18.725  67.654  1.00  0.00    -0.449 C  
BRANCH   8   9
HETATM    9  C   UNL     1      -9.820  19.268  66.606  1.00  0.00    -0.442 C  
BRANCH   9  10
HETATM   10  C   UNL     1      -8.412  19.320  67.170  1.00  0.00    -0.310 C  
BRANCH  10  11
HETATM   11  C   UNL     1      -7.394  19.137  66.059  1.00  0.00    -0.295 C  
BRANCH  11  12
HETATM   12  C   UNL     1      -6.810  17.740  66.136  1.00  0.00    -0.329 C  
BRANCH  12  13
HETATM   13  C   UNL     1      -7.003  17.169  67.526  1.00  0.00    -0.172 C  
BRANCH  13  14
HETATM   14  C   UNL     1      -7.078  15.655  67.448  1.00  0.00    -0.241 C  
BRANCH  14  15
HETATM   15  C   UNL     1      -7.912  15.142  68.600  1.00  0.00    -0.151 C  
BRANCH  15  16
HETATM   16  C   UNL     1      -8.221  13.664  68.430  1.00  0.00    -0.146 C  
BRANCH  16  17
HETATM   17  C   UNL     1      -8.538  13.429  66.966  1.00  0.00    -0.168 C  
BRANCH  17  18
HETATM   18  C   UNL     1     -10.024  13.566  66.687  1.00  0.00    -0.282 C  
BRANCH  18  19
HETATM   19  N   UNL     1     -10.748  12.204  66.707  1.00  0.00    -0.227 N  
HETATM   20  C   UNL     1     -11.668  12.106  67.928  1.00  0.00    -0.336 C  
HETATM   21  C   UNL     1     -11.564  12.015  65.426  1.00  0.00    -0.286 C  
BRANCH  19  22
HETATM   22  C   UNL     1      -9.628  11.143  66.793  1.00  0.00    -0.191 C  
BRANCH  22  23
HETATM   23  C   UNL     1     -10.017   9.843  66.117  1.00  0.00    -0.331 C  
BRANCH  23  24
HETATM   24  C   UNL     1     -10.619   8.859  67.102  1.00  0.00    -0.301 C  
BRANCH  24  25
HETATM   25  C   UNL     1      -9.809   7.577  67.019  1.00  0.00    -0.280 C  
BRANCH  25  26
HETATM   26  C   UNL     1      -8.374   7.866  66.643  1.00  0.00    -0.125 C  
BRANCH  26  27
HETATM   27  C   UNL     1      -7.554   8.053  67.907  1.00  0.00    -0.112 C  
BRANCH  27  28
HETATM   28  C   UNL     1      -8.068   7.125  68.988  1.00  0.00    -0.121 C  
BRANCH  28  29
HETATM   29  C   UNL     1      -8.047   7.828  70.331  1.00  0.00    -0.115 C  
BRANCH  29  30
HETATM   30  C   UNL     1      -8.753   9.165  70.212  1.00  0.00    -0.223 C  
BRANCH  30  31
HETATM   31  C   UNL     1      -9.956   9.212  71.132  1.00  0.00    -0.377 C  
BRANCH  31  32
HETATM   32  C   UNL     1     -11.054   8.313  70.597  1.00  0.00    -0.269 C  
BRANCH  32  33
HETATM   33  C   UNL     1     -11.798   7.652  71.745  1.00  0.00    -0.324 C  
BRANCH  33  34
HETATM   34  C   UNL     1     -10.960   7.702  73.013  1.00  0.00    -0.457 C  
BRANCH  34  35
HETATM   35  C   UNL     1     -10.183   6.404  73.184  1.00  0.00    -0.222 C  
BRANCH  35  36
HETATM   36  C   UNL     1     -11.109   5.202  73.060  1.00  0.00    -0.379 C  
BRANCH  36  37
HETATM   37  C   UNL     1     -10.455   4.107  72.224  1.00  0.00    -0.141 C  
BRANCH  37  38
HETATM   38  C   UNL     1     -10.036   4.639  70.858  1.00  0.00    -0.273 C  
HETATM   39  C   UNL     1      -8.926   3.791  70.262  1.00  0.00    -0.170 C  
ENDBRANCH  37  38
ENDBRANCH  36  37
ENDBRANCH  35  36
ENDBRANCH  34  35
ENDBRANCH  33  34
ENDBRANCH  32  33
ENDBRANCH  31  32
ENDBRANCH  30  31
ENDBRANCH  29  30
ENDBRANCH  28  29
ENDBRANCH  27  28
ENDBRANCH  26  27
ENDBRANCH  25  26
ENDBRANCH  24  25
ENDBRANCH  23  24
ENDBRANCH  22  23
ENDBRANCH  19  22
ENDBRANCH  18  19
ENDBRANCH  17  18
ENDBRANCH  16  17
ENDBRANCH  15  16
ENDBRANCH  14  15
ENDBRANCH  13  14
ENDBRANCH  12  13
ENDBRANCH  11  12
ENDBRANCH  10  11
ENDBRANCH   9  10
ENDBRANCH   8   9
ENDBRANCH   7   8
ENDBRANCH   6   7
ENDBRANCH   5   6
ENDBRANCH   4   5
ENDBRANCH   3   4
ENDBRANCH   2   3
TORSDOF 34
ENDMDL
MODEL      113
REMARK 921   NORMALIZED FREE ENERGY PREDICTED BY IDOCK:   -3.17 KCAL/MOL
REMARK 922        TOTAL FREE ENERGY PREDICTED BY IDOCK:  -15.78 KCAL/MOL
REMARK 923 INTER-LIGAND FREE ENERGY PREDICTED BY IDOCK:  -10.48 KCAL/MOL
REMARK 924 INTRA-LIGAND FREE ENERGY PREDICTED BY IDOCK:   -5.30 KCAL/MOL
REMARK 927      BINDING AFFINITY PREDICTED BY RF-SCORE:    0.00 PKD
ROOT
HETATM    1  C   UNL     1     -11.060   6.637  67.338  1.00  0.00    -0.398 C  
HETATM    2  C   UNL     1     -10.146   5.473  66.996  1.00  0.00    -0.226 C  
ENDROOT
BRANCH   2   3
HETATM    3  C   UNL     1      -8.710   5.941  66.819  1.00  0.00    -0.117 C  
BRANCH   3   4
HETATM    4  C   UNL     1      -8.479   6.489  65.414  1.00  0.00    -0.119 C  
BRANCH   4   5
HETATM    5  C   UNL     1      -7.040   6.963  65.251  1.00  0.00    -0.067 C  
BRANCH   5   6
HETATM    6  C   UNL     1      -6.798   7.458  63.832  1.00  0.00    -0.056 C  
BRANCH   6   7
HETATM    7  C   UNL     1      -7.271   8.898  63.690  1.00  0.00    -0.093 C  
BRANCH   7   8
HETATM    8  C   UNL     1      -8.363   8.990  62.636  1.00  0.00    -0.200 C  
BRANCH   8   9
HETATM    9  C   UNL     1      -9.308  10.135  62.959  1.00  0.00    -0.330 C  
BRANCH   9  10
HETATM   10  C   UNL     1      -9.702  10.082  64.423  1.00  0.00    -0.277 C  
BRANCH  10  11
HETATM   11  C   UNL     1      -9.397  11.407  65.098  1.00  0.00    -0.172 C  
BRANCH  11  12
HETATM   12  C   UNL     1      -8.582  11.158  66.352  1.00  0.00    -0.172 C  
BRANCH  12  13
HETATM   13  C   UNL     1      -9.003   9.855  66.999  1.00  0.00    -0.152 C  
BRANCH  13  14
HETATM   14  C   UNL     1      -7.918   9.386  67.951  1.00  0.00    -0.092 C  
BRANCH  14  15
HETATM   15  C   UNL     1      -8.563   8.825  69.198  1.00  0.00    -0.128 C  
BRANCH  15  16
HETATM   16  C   UNL     1      -7.955   9.439  70.448  1.00  0.00    -0.190 C  
BRANCH  16  17
HETATM   17  C   UNL     1      -8.512   8.689  71.642  1.00  0.00    -0.230 C  
BRANCH  17  18
HETATM   18  C   UNL     1      -9.468   7.591  71.216  1.00  0.00    -0.150 C  
BRANCH  18  19
HETATM   19  N   UNL     1     -10.632   7.412  72.214  1.00  0.00    -0.222 N  
HETATM   20  C   UNL     1     -11.571   6.297  71.745  1.00  0.00    -0.304 C  
HETATM   21  C   UNL     1     -10.092   7.083  73.608  1.00  0.00    -0.338 C  
BRANCH  19  22
HETATM   22  C   UNL     1     -11.373   8.767  72.230  1.00  0.00    -0.285 C  
BRANCH  22  23
HETATM   23  C   UNL     1     -12.005   9.089  70.890  1.00  0.00    -0.274 C  
BRANCH  23  24
HETATM   24  C   UNL     1     -12.995  10.234  71.000  1.00  0.00    -0.488 C  
BRANCH  24  25
HETATM   25  C   UNL     1     -12.315  11.480  70.461  1.00  0.00    -0.432 C  
BRANCH  25  26
HETATM   26  C   UNL     1     -11.341  11.132  69.359  1.00  0.00    -0.352 C  
BRANCH  26  27
HETATM   27  C   UNL     1     -11.909  11.588  68.027  1.00  0.00    -0.287 C  
BRANCH  27  28
HETATM   28  C   UNL     1     -11.478  13.013  67.752  1.00  0.00    -0.359 C  
BRANCH  28  29
HETATM   29  C   UNL     1     -12.073  13.494  66.443  1.00  0.00    -0.467 C  
BRANCH  29  30
HETATM   30  C   UNL     1     -11.606  14.910  66.167  1.00  0.00    -0.228 C  
BRANCH  30  31
HETATM   31  C   UNL     1     -10.177  14.909  65.662  1.00  0.00    -0.382 C  
BRANCH  31  32
HETATM   32  C   UNL     1      -9.504  16.223  66.008  1.00  0.00    -0.369 C  
BRANCH  32  33
HETATM   33  C   UNL     1     -10.397  17.045  66.923  1.00  0.00    -0.303 C  
BRANCH  33  34
HETATM   34  C   UNL     1     -10.521  18.468  66.399  1.00  0.00    -0.443 C  
BRANCH  34  35
HETATM   35  C   UNL     1      -9.778  19.433  67.312  1.00  0.00    -0.428 C  
BRANCH  35  36
HETATM   36  C   UNL     1      -9.048  18.676  68.414  1.00  0.00    -0.352 C  
BRANCH  36  37
HETATM   37  C   UNL     1      -7.543  18.702  68.174  1.00  0.00    -0.292 C  
BRANCH  37  38
HETATM   38  C   UNL     1      -6.880  19.819  68.972  1.00  0.00    -0.372 C  
HETATM   39  C   UNL     1      -6.050  20.714  68.068  1.00  0.00    -0.336 C  
ENDBRANCH  37  38
ENDBRANCH  36  37
ENDBRANCH  35  36
ENDBRANCH  34  35
ENDBRANCH  33  34
ENDBRANCH  32  33
ENDBRANCH  31  32
ENDBRANCH  30  31
ENDBRANCH  29  30
ENDBRANCH  28  29
ENDBRANCH  27  28
ENDBRANCH  26  27
ENDBRANCH  25  26
ENDBRANCH  24  25
ENDBRANCH  23  24
ENDBRANCH  22  23
ENDBRANCH  19  22
ENDBRANCH  18  19
ENDBRANCH  17  18
ENDBRANCH  16  17
ENDBRANCH  15  16
ENDBRANCH  14  15
ENDBRANCH  13  14
ENDBRANCH  12  13
ENDBRANCH  11  12
ENDBRANCH  10  11
ENDBRANCH   9  10
ENDBRANCH   8   9
ENDBRANCH   7   8
ENDBRANCH   6   7
ENDBRANCH   5   6
ENDBRANCH   4   5
ENDBRANCH   3   4
ENDBRANCH   2   3
TORSDOF 34
ENDMDL
MODEL      114
REMARK 921   NORMALIZED FREE ENERGY PREDICTED BY IDOCK:   -3.16 KCAL/MOL
REMARK 922        TOTAL FREE ENERGY PREDICTED BY IDOCK:  -15.77 KCAL/MOL
REMARK 923 INTER-LIGAND FREE ENERGY PREDICTED BY IDOCK:  -11.92 KCAL/MOL
REMARK 924 INTRA-LIGAND FREE ENERGY PREDICTED BY IDOCK:   -3.85 KCAL/MOL
REMARK 927      BINDING AFFINITY PREDICTED BY RF-SCORE:    0.00 PKD
ROOT
HETATM    1  C   UNL     1      -8.177  20.172  66.442  1.00  0.00    -0.291 C  
HETATM    2  C   UNL     1      -9.526  19.552  66.123  1.00  0.00    -0.401 C  
ENDROOT
BRANCH   2   3
HETATM    3  C   UNL     1     -10.501  19.742  67.275  1.00  0.00    -0.579 C  
BRANCH   3   4
HETATM    4  C   UNL     1     -10.766  18.422  67.994  1.00  0.00    -0.277 C  
BRANCH   4   5
HETATM    5  C   UNL     1      -9.685  17.401  67.660  1.00  0.00    -0.270 C  
BRANCH   5   6
HETATM    6  C   UNL     1      -9.556  16.374  68.777  1.00  0.00    -0.249 C  
BRANCH   6   7
HETATM    7  C   UNL     1      -8.673  15.219  68.328  1.00  0.00    -0.165 C  
BRANCH   7   8
HETATM    8  C   UNL     1      -9.517  13.979  68.080  1.00  0.00    -0.215 C  
BRANCH   8   9
HETATM    9  C   UNL     1      -9.873  13.872  66.607  1.00  0.00    -0.288 C  
BRANCH   9  10
HETATM   10  C   UNL     1     -11.212  13.175  66.449  1.00  0.00    -0.328 C  
BRANCH  10  11
HETATM   11  C   UNL     1     -11.100  12.042  65.446  1.00  0.00    -0.369 C  
BRANCH  11  12
HETATM   12  C   UNL     1     -10.257  10.928  66.035  1.00  0.00    -0.311 C  
BRANCH  12  13
HETATM   13  C   UNL     1     -10.886  10.418  67.315  1.00  0.00    -0.324 C  
BRANCH  13  14
HETATM   14  C   UNL     1     -10.631   8.928  67.449  1.00  0.00    -0.305 C  
BRANCH  14  15
HETATM   15  C   UNL     1      -9.853   8.449  66.244  1.00  0.00    -0.257 C  
BRANCH  15  16
HETATM   16  C   UNL     1      -8.516   7.858  66.659  1.00  0.00    -0.131 C  
BRANCH  16  17
HETATM   17  C   UNL     1      -8.030   6.984  65.519  1.00  0.00    -0.130 C  
BRANCH  17  18
HETATM   18  C   UNL     1      -7.787   5.557  65.973  1.00  0.00    -0.104 C  
BRANCH  18  19
HETATM   19  N   UNL     1      -8.106   4.531  64.865  1.00  0.00    -0.098 N  
HETATM   20  C   UNL     1      -8.563   5.247  63.591  1.00  0.00    -0.048 C  
HETATM   21  C   UNL     1      -6.876   3.671  64.566  1.00  0.00    -0.048 C  
BRANCH  19  22
HETATM   22  C   UNL     1      -9.249   3.658  65.429  1.00  0.00    -0.153 C  
BRANCH  22  23
HETATM   23  C   UNL     1      -9.743   4.160  66.771  1.00  0.00    -0.234 C  
BRANCH  23  24
HETATM   24  C   UNL     1      -9.347   3.224  67.899  1.00  0.00    -0.246 C  
BRANCH  24  25
HETATM   25  C   UNL     1      -9.421   4.013  69.194  1.00  0.00    -0.249 C  
BRANCH  25  26
HETATM   26  C   UNL     1     -10.100   5.346  68.979  1.00  0.00    -0.283 C  
BRANCH  26  27
HETATM   27  C   UNL     1     -10.413   5.971  70.327  1.00  0.00    -0.305 C  
BRANCH  27  28
HETATM   28  C   UNL     1     -11.762   6.657  70.269  1.00  0.00    -0.432 C  
BRANCH  28  29
HETATM   29  C   UNL     1     -12.368   6.733  71.656  1.00  0.00    -0.409 C  
BRANCH  29  30
HETATM   30  C   UNL     1     -13.011   8.092  71.851  1.00  0.00    -0.356 C  
BRANCH  30  31
HETATM   31  C   UNL     1     -12.021   9.197  71.541  1.00  0.00    -0.422 C  
BRANCH  31  32
HETATM   32  C   UNL     1     -12.714  10.319  70.792  1.00  0.00    -0.434 C  
BRANCH  32  33
HETATM   33  C   UNL     1     -11.794  11.523  70.682  1.00  0.00    -0.279 C  
BRANCH  33  34
HETATM   34  C   UNL     1     -12.396  12.564  69.751  1.00  0.00    -0.085 C  
BRANCH  34  35
HETATM   35  C   UNL     1     -12.572  13.888  70.482  1.00  0.00    -0.382 C  
BRANCH  35  36
HETATM   36  C   UNL     1     -13.314  13.681  71.795  1.00  0.00    -0.469 C  
BRANCH  36  37
HETATM   37  C   UNL     1     -14.157  14.908  72.131  1.00  0.00    -0.616 C  
BRANCH  37  38
HETATM   38  C   UNL     1     -13.374  15.888  72.997  1.00  0.00    -0.663 C  
HETATM   39  C   UNL     1     -12.418  15.154  73.921  1.00  0.00    -0.715 C  
ENDBRANCH  37  38
ENDBRANCH  36  37
ENDBRANCH  35  36
ENDBRANCH  34  35
ENDBRANCH  33  34
ENDBRANCH  32  33
ENDBRANCH  31  32
ENDBRANCH  30  31
ENDBRANCH  29  30
ENDBRANCH  28  29
ENDBRANCH  27  28
ENDBRANCH  26  27
ENDBRANCH  25  26
ENDBRANCH  24  25
ENDBRANCH  23  24
ENDBRANCH  22  23
ENDBRANCH  19  22
ENDBRANCH  18  19
ENDBRANCH  17  18
ENDBRANCH  16  17
ENDBRANCH  15  16
ENDBRANCH  14  15
ENDBRANCH  13  14
ENDBRANCH  12  13
ENDBRANCH  11  12
ENDBRANCH  10  11
ENDBRANCH   9  10
ENDBRANCH   8   9
ENDBRANCH   7   8
ENDBRANCH   6   7
ENDBRANCH   5   6
ENDBRANCH   4   5
ENDBRANCH   3   4
ENDBRANCH   2   3
TORSDOF 34
ENDMDL
MODEL      115
REMARK 921   NORMALIZED FREE ENERGY PREDICTED BY IDOCK:   -3.14 KCAL/MOL
REMARK 922        TOTAL FREE ENERGY PREDICTED BY IDOCK:  -15.70 KCAL/MOL
REMARK 923 INTER-LIGAND FREE ENERGY PREDICTED BY IDOCK:   -9.68 KCAL/MOL
REMARK 924 INTRA-LIGAND FREE ENERGY PREDICTED BY IDOCK:   -6.02 KCAL/MOL
REMARK 927      BINDING AFFINITY PREDICTED BY RF-SCORE:    0.00 PKD
ROOT
HETATM    1  C   UNL     1      -6.437  16.968  66.710  1.00  0.00    -0.258 C  
HETATM    2  C   UNL     1      -6.486  15.810  67.691  1.00  0.00    -0.190 C  
ENDROOT
BRANCH   2   3
HETATM    3  C   UNL     1      -7.534  14.787  67.277  1.00  0.00    -0.173 C  
BRANCH   3   4
HETATM    4  C   UNL     1      -8.360  14.331  68.476  1.00  0.00    -0.156 C  
BRANCH   4   5
HETATM    5  C   UNL     1      -8.683  15.509  69.387  1.00  0.00    -0.258 C  
BRANCH   5   6
HETATM    6  C   UNL     1     -10.188  15.730  69.462  1.00  0.00    -0.271 C  
BRANCH   6   7
HETATM    7  C   UNL     1     -10.520  17.185  69.165  1.00  0.00    -0.296 C  
BRANCH   7   8
HETATM    8  C   UNL     1      -9.243  17.993  69.001  1.00  0.00    -0.057 C  
BRANCH   8   9
HETATM    9  C   UNL     1      -9.474  19.152  68.047  1.00  0.00    -0.390 C  
BRANCH   9  10
HETATM   10  C   UNL     1     -10.799  18.974  67.329  1.00  0.00    -0.494 C  
BRANCH  10  11
HETATM   11  C   UNL     1     -10.565  18.596  65.878  1.00  0.00    -0.365 C  
BRANCH  11  12
HETATM   12  C   UNL     1      -9.960  17.207  65.811  1.00  0.00    -0.142 C  
BRANCH  12  13
HETATM   13  C   UNL     1     -10.935  16.244  65.166  1.00  0.00    -0.285 C  
BRANCH  13  14
HETATM   14  C   UNL     1     -10.839  14.891  65.846  1.00  0.00    -0.336 C  
BRANCH  14  15
HETATM   15  C   UNL     1     -12.088  14.094  65.543  1.00  0.00    -0.421 C  
BRANCH  15  16
HETATM   16  C   UNL     1     -11.876  12.619  65.838  1.00  0.00    -0.499 C  
BRANCH  16  17
HETATM   17  C   UNL     1     -10.381  12.379  65.916  1.00  0.00    -0.282 C  
BRANCH  17  18
HETATM   18  C   UNL     1      -9.897  11.495  64.781  1.00  0.00    -0.249 C  
BRANCH  18  19
HETATM   19  N   UNL     1      -8.998  10.345  65.282  1.00  0.00    -0.177 N  
HETATM   20  C   UNL     1      -9.850   9.135  65.676  1.00  0.00    -0.094 C  
HETATM   21  C   UNL     1      -7.994   9.943  64.199  1.00  0.00    -0.150 C  
BRANCH  19  22
HETATM   22  C   UNL     1      -8.260  10.906  66.518  1.00  0.00    -0.157 C  
BRANCH  22  23
HETATM   23  C   UNL     1      -8.202   9.905  67.654  1.00  0.00    -0.114 C  
BRANCH  23  24
HETATM   24  C   UNL     1      -8.033  10.591  68.997  1.00  0.00    -0.136 C  
BRANCH  24  25
HETATM   25  C   UNL     1      -9.084  10.025  69.935  1.00  0.00    -0.188 C  
BRANCH  25  26
HETATM   26  C   UNL     1     -10.421   9.905  69.241  1.00  0.00    -0.240 C  
BRANCH  26  27
HETATM   27  C   UNL     1     -11.493  10.543  70.107  1.00  0.00    -0.405 C  
BRANCH  27  28
HETATM   28  C   UNL     1     -11.549   9.840  71.447  1.00  0.00    -0.452 C  
BRANCH  28  29
HETATM   29  C   UNL     1     -12.742   8.906  71.496  1.00  0.00    -0.386 C  
BRANCH  29  30
HETATM   30  C   UNL     1     -12.265   7.490  71.749  1.00  0.00    -0.345 C  
BRANCH  30  31
HETATM   31  C   UNL     1     -12.012   6.774  70.438  1.00  0.00    -0.343 C  
BRANCH  31  32
HETATM   32  C   UNL     1     -10.698   6.019  70.505  1.00  0.00    -0.349 C  
BRANCH  32  33
HETATM   33  C   UNL     1      -9.830   6.370  69.308  1.00  0.00    -0.167 C  
BRANCH  33  34
HETATM   34  C   UNL     1      -8.359   6.328  69.693  1.00  0.00    -0.125 C  
BRANCH  34  35
HETATM   35  C   UNL     1      -7.509   5.945  68.490  1.00  0.00    -0.086 C  
BRANCH  35  36
HETATM   36  C   UNL     1      -8.238   6.268  67.192  1.00  0.00    -0.109 C  
BRANCH  36  37
HETATM   37  C   UNL     1      -7.960   5.196  66.143  1.00  0.00    -0.104 C  
BRANCH  37  38
HETATM   38  C   UNL     1      -9.026   4.107  66.178  1.00  0.00    -0.126 C  
HETATM   39  C   UNL     1     -10.414   4.699  65.998  1.00  0.00    -0.303 C  
ENDBRANCH  37  38
ENDBRANCH  36  37
ENDBRANCH  35  36
ENDBRANCH  34  35
ENDBRANCH  33  34
ENDBRANCH  32  33
ENDBRANCH  31  32
ENDBRANCH  30  31
ENDBRANCH  29  30
ENDBRANCH  28  29
ENDBRANCH  27  28
ENDBRANCH  26  27
ENDBRANCH  25  26
ENDBRANCH  24  25
ENDBRANCH  23  24
ENDBRANCH  22  23
ENDBRANCH  19  22
ENDBRANCH  18  19
ENDBRANCH  17  18
ENDBRANCH  16  17
ENDBRANCH  15  16
ENDBRANCH  14  15
ENDBRANCH  13  14
ENDBRANCH  12  13
ENDBRANCH  11  12
ENDBRANCH  10  11
ENDBRANCH   9  10
ENDBRANCH   8   9
ENDBRANCH   7   8
ENDBRANCH   6   7
ENDBRANCH   5   6
ENDBRANCH   4   5
ENDBRANCH   3   4
ENDBRANCH   2   3
TORSDOF 34
ENDMDL
MODEL      116
REMARK 921   NORMALIZED FREE ENERGY PREDICTED BY IDOCK:   -3.10 KCAL/MOL
REMARK 922        TOTAL FREE ENERGY PREDICTED BY IDOCK:  -15.60 KCAL/MOL
REMARK 923 INTER-LIGAND FREE ENERGY PREDICTED BY IDOCK:  -10.78 KCAL/MOL
REMARK 924 INTRA-LIGAND FREE ENERGY PREDICTED BY IDOCK:   -4.83 KCAL/MOL
REMARK 927      BINDING AFFINITY PREDICTED BY RF-SCORE:    0.00 PKD
ROOT
HETATM    1  C   UNL     1     -10.878  19.511  67.021  1.00  0.00    -0.542 C  
HETATM    2  C   UNL     1      -9.558  19.809  66.331  1.00  0.00    -0.508 C  
ENDROOT
BRANCH   2   3
HETATM    3  C   UNL     1      -8.382  19.494  67.243  1.00  0.00    -0.327 C  
BRANCH   3   4
HETATM    4  C   UNL     1      -8.341  18.009  67.593  1.00  0.00    -0.238 C  
BRANCH   4   5
HETATM    5  C   UNL     1      -7.986  17.177  66.367  1.00  0.00    -0.346 C  
BRANCH   5   6
HETATM    6  C   UNL     1      -8.777  15.876  66.356  1.00  0.00    -0.362 C  
BRANCH   6   7
HETATM    7  C   UNL     1     -10.151  16.102  65.743  1.00  0.00    -0.390 C  
BRANCH   7   8
HETATM    8  C   UNL     1     -11.097  14.983  66.147  1.00  0.00    -0.329 C  
BRANCH   8   9
HETATM    9  C   UNL     1     -10.312  13.721  66.463  1.00  0.00    -0.286 C  
BRANCH   9  10
HETATM   10  C   UNL     1     -10.911  12.541  65.719  1.00  0.00    -0.310 C  
BRANCH  10  11
HETATM   11  C   UNL     1     -10.733  12.718  64.223  1.00  0.00    -0.419 C  
BRANCH  11  12
HETATM   12  C   UNL     1     -10.461  11.370  63.585  1.00  0.00    -0.472 C  
BRANCH  12  13
HETATM   13  C   UNL     1      -9.787  10.448  64.579  1.00  0.00    -0.405 C  
BRANCH  13  14
HETATM   14  C   UNL     1      -8.513   9.889  63.973  1.00  0.00    -0.183 C  
BRANCH  14  15
HETATM   15  C   UNL     1      -7.503   9.655  65.074  1.00  0.00    -0.116 C  
BRANCH  15  16
HETATM   16  C   UNL     1      -7.077   8.197  65.120  1.00  0.00    -0.067 C  
BRANCH  16  17
HETATM   17  C   UNL     1      -7.760   7.560  66.315  1.00  0.00    -0.089 C  
BRANCH  17  18
HETATM   18  C   UNL     1      -9.048   6.865  65.918  1.00  0.00    -0.009 C  
BRANCH  18  19
HETATM   19  N   UNL     1      -9.112   5.414  66.440  1.00  0.00    -0.136 N  
HETATM   20  C   UNL     1     -10.516   4.836  66.242  1.00  0.00    -0.269 C  
HETATM   21  C   UNL     1      -8.084   4.541  65.715  1.00  0.00    -0.102 C  
BRANCH  19  22
HETATM   22  C   UNL     1      -8.775   5.502  67.945  1.00  0.00    -0.106 C  
BRANCH  22  23
HETATM   23  C   UNL     1     -10.006   5.348  68.817  1.00  0.00    -0.235 C  
BRANCH  23  24
HETATM   24  C   UNL     1      -9.828   4.247  69.846  1.00  0.00    -0.267 C  
BRANCH  24  25
HETATM   25  C   UNL     1      -8.520   4.508  70.572  1.00  0.00    -0.099 C  
BRANCH  25  26
HETATM   26  C   UNL     1      -8.570   3.978  71.986  1.00  0.00    -0.116 C  
BRANCH  26  27
HETATM   27  C   UNL     1     -10.011   3.679  72.358  1.00  0.00    -0.235 C  
BRANCH  27  28
HETATM   28  C   UNL     1     -10.487   4.680  73.390  1.00  0.00    -0.266 C  
BRANCH  28  29
HETATM   29  C   UNL     1     -11.683   5.447  72.859  1.00  0.00    -0.232 C  
BRANCH  29  30
HETATM   30  C   UNL     1     -11.209   6.728  72.201  1.00  0.00    -0.294 C  
BRANCH  30  31
HETATM   31  C   UNL     1     -12.205   7.186  71.155  1.00  0.00    -0.405 C  
BRANCH  31  32
HETATM   32  C   UNL     1     -13.376   7.882  71.824  1.00  0.00    -0.364 C  
BRANCH  32  33
HETATM   33  C   UNL     1     -13.536   9.288  71.271  1.00  0.00    -0.314 C  
BRANCH  33  34
HETATM   34  C   UNL     1     -12.236  10.064  71.420  1.00  0.00    -0.510 C  
BRANCH  34  35
HETATM   35  C   UNL     1     -12.322  11.385  70.669  1.00  0.00    -0.466 C  
BRANCH  35  36
HETATM   36  C   UNL     1     -11.548  11.310  69.360  1.00  0.00    -0.390 C  
BRANCH  36  37
HETATM   37  C   UNL     1     -10.864   9.954  69.221  1.00  0.00    -0.255 C  
BRANCH  37  38
HETATM   38  C   UNL     1      -9.758  10.004  68.173  1.00  0.00    -0.156 C  
HETATM   39  C   UNL     1      -8.726  11.062  68.522  1.00  0.00    -0.159 C  
ENDBRANCH  37  38
ENDBRANCH  36  37
ENDBRANCH  35  36
ENDBRANCH  34  35
ENDBRANCH  33  34
ENDBRANCH  32  33
ENDBRANCH  31  32
ENDBRANCH  30  31
ENDBRANCH  29  30
ENDBRANCH  28  29
ENDBRANCH  27  28
ENDBRANCH  26  27
ENDBRANCH  25  26
ENDBRANCH  24  25
ENDBRANCH  23  24
ENDBRANCH  22  23
ENDBRANCH  19  22
ENDBRANCH  18  19
ENDBRANCH  17  18
ENDBRANCH  16  17
ENDBRANCH  15  16
ENDBRANCH  14  15
ENDBRANCH  13  14
ENDBRANCH  12  13
ENDBRANCH  11  12
ENDBRANCH  10  11
ENDBRANCH   9  10
ENDBRANCH   8   9
ENDBRANCH   7   8
ENDBRANCH   6   7
ENDBRANCH   5   6
ENDBRANCH   4   5
ENDBRANCH   3   4
ENDBRANCH   2   3
TORSDOF 34
ENDMDL
MODEL      117
REMARK 921   NORMALIZED FREE ENERGY PREDICTED BY IDOCK:   -3.10 KCAL/MOL
REMARK 922        TOTAL FREE ENERGY PREDICTED BY IDOCK:  -15.59 KCAL/MOL
REMARK 923 INTER-LIGAND FREE ENERGY PREDICTED BY IDOCK:   -9.73 KCAL/MOL
REMARK 924 INTRA-LIGAND FREE ENERGY PREDICTED BY IDOCK:   -5.86 KCAL/MOL
REMARK 927      BINDING AFFINITY PREDICTED BY RF-SCORE:    0.00 PKD
ROOT
HETATM    1  C   UNL     1      -9.882   4.993  69.036  1.00  0.00    -0.252 C  
HETATM    2  C   UNL     1      -9.102   5.611  70.183  1.00  0.00    -0.159 C  
ENDROOT
BRANCH   2   3
HETATM    3  C   UNL     1      -8.145   6.680  69.678  1.00  0.00    -0.126 C  
BRANCH   3   4
HETATM    4  C   UNL     1      -7.137   7.069  70.757  1.00  0.00    -0.067 C  
BRANCH   4   5
HETATM    5  C   UNL     1      -7.768   6.978  72.140  1.00  0.00    -0.092 C  
BRANCH   5   6
HETATM    6  C   UNL     1      -6.880   6.175  73.081  1.00  0.00    -0.075 C  
BRANCH   6   7
HETATM    7  C   UNL     1      -7.733   5.331  74.016  1.00  0.00    -0.097 C  
BRANCH   7   8
HETATM    8  C   UNL     1      -8.047   3.990  73.374  1.00  0.00    -0.089 C  
BRANCH   8   9
HETATM    9  C   UNL     1      -9.538   3.707  73.451  1.00  0.00    -0.138 C  
BRANCH   9  10
HETATM   10  C   UNL     1     -10.272   4.938  73.949  1.00  0.00    -0.257 C  
BRANCH  10  11
HETATM   11  C   UNL     1     -11.381   5.315  72.984  1.00  0.00    -0.376 C  
BRANCH  11  12
HETATM   12  C   UNL     1     -11.292   6.795  72.667  1.00  0.00    -0.259 C  
BRANCH  12  13
HETATM   13  C   UNL     1     -12.330   7.171  71.631  1.00  0.00    -0.398 C  
BRANCH  13  14
HETATM   14  C   UNL     1     -11.700   8.068  70.582  1.00  0.00    -0.158 C  
BRANCH  14  15
HETATM   15  C   UNL     1     -11.113   9.285  71.259  1.00  0.00    -0.427 C  
BRANCH  15  16
HETATM   16  C   UNL     1      -9.888   9.786  70.513  1.00  0.00    -0.228 C  
BRANCH  16  17
HETATM   17  C   UNL     1     -10.373  10.485  69.257  1.00  0.00    -0.248 C  
BRANCH  17  18
HETATM   18  C   UNL     1      -9.215  10.939  68.388  1.00  0.00    -0.168 C  
BRANCH  18  19
HETATM   19  N   UNL     1      -9.692  11.527  67.043  1.00  0.00    -0.183 N  
HETATM   20  C   UNL     1      -8.997  10.822  65.875  1.00  0.00    -0.184 C  
HETATM   21  C   UNL     1     -11.210  11.383  66.907  1.00  0.00    -0.264 C  
BRANCH  19  22
HETATM   22  C   UNL     1      -9.295  13.019  67.082  1.00  0.00    -0.230 C  
BRANCH  22  23
HETATM   23  C   UNL     1      -8.264  13.309  68.155  1.00  0.00    -0.160 C  
BRANCH  23  24
HETATM   24  C   UNL     1      -7.075  14.069  67.597  1.00  0.00    -0.193 C  
BRANCH  24  25
HETATM   25  C   UNL     1      -7.347  15.550  67.791  1.00  0.00    -0.174 C  
BRANCH  25  26
HETATM   26  C   UNL     1      -6.949  15.997  69.179  1.00  0.00    -0.189 C  
BRANCH  26  27
HETATM   27  C   UNL     1      -6.709  17.497  69.171  1.00  0.00    -0.243 C  
BRANCH  27  28
HETATM   28  C   UNL     1      -6.859  18.028  67.761  1.00  0.00    -0.201 C  
BRANCH  28  29
HETATM   29  C   UNL     1      -7.136  19.518  67.792  1.00  0.00    -0.286 C  
BRANCH  29  30
HETATM   30  C   UNL     1      -8.121  19.872  66.695  1.00  0.00    -0.351 C  
BRANCH  30  31
HETATM   31  C   UNL     1      -9.543  19.782  67.212  1.00  0.00    -0.480 C  
BRANCH  31  32
HETATM   32  C   UNL     1     -10.324  18.760  66.408  1.00  0.00    -0.489 C  
BRANCH  32  33
HETATM   33  C   UNL     1     -10.376  17.436  67.151  1.00  0.00    -0.325 C  
BRANCH  33  34
HETATM   34  C   UNL     1     -10.482  17.676  68.649  1.00  0.00    -0.317 C  
BRANCH  34  35
HETATM   35  C   UNL     1     -10.450  16.352  69.400  1.00  0.00    -0.309 C  
BRANCH  35  36
HETATM   36  C   UNL     1     -11.592  15.451  68.949  1.00  0.00    -0.369 C  
BRANCH  36  37
HETATM   37  C   UNL     1     -11.617  14.167  69.772  1.00  0.00    -0.351 C  
BRANCH  37  38
HETATM   38  C   UNL     1     -12.163  14.426  71.171  1.00  0.00    -0.420 C  
HETATM   39  C   UNL     1     -13.177  13.365  71.564  1.00  0.00    -0.395 C  
ENDBRANCH  37  38
ENDBRANCH  36  37
ENDBRANCH  35  36
ENDBRANCH  34  35
ENDBRANCH  33  34
ENDBRANCH  32  33
ENDBRANCH  31  32
ENDBRANCH  30  31
ENDBRANCH  29  30
ENDBRANCH  28  29
ENDBRANCH  27  28
ENDBRANCH  26  27
ENDBRANCH  25  26
ENDBRANCH  24  25
ENDBRANCH  23  24
ENDBRANCH  22  23
ENDBRANCH  19  22
ENDBRANCH  18  19
ENDBRANCH  17  18
ENDBRANCH  16  17
ENDBRANCH  15  16
ENDBRANCH  14  15
ENDBRANCH  13  14
ENDBRANCH  12  13
ENDBRANCH  11  12
ENDBRANCH  10  11
ENDBRANCH   9  10
ENDBRANCH   8   9
ENDBRANCH   7   8
ENDBRANCH   6   7
ENDBRANCH   5   6
ENDBRANCH   4   5
ENDBRANCH   3   4
ENDBRANCH   2   3
TORSDOF 34
ENDMDL
MODEL      118
REMARK 921   NORMALIZED FREE ENERGY PREDICTED BY IDOCK:   -3.06 KCAL/MOL
REMARK 922        TOTAL FREE ENERGY PREDICTED BY IDOCK:  -15.48 KCAL/MOL
REMARK 923 INTER-LIGAND FREE ENERGY PREDICTED BY IDOCK:   -9.48 KCAL/MOL
REMARK 924 INTRA-LIGAND FREE ENERGY PREDICTED BY IDOCK:   -6.00 KCAL/MOL
REMARK 927      BINDING AFFINITY PREDICTED BY RF-SCORE:    0.00 PKD
ROOT
HETATM    1  C   UNL     1     -11.029   6.263  67.934  1.00  0.00    -0.421 C  
HETATM    2  C   UNL     1     -10.544   5.317  66.851  1.00  0.00    -0.283 C  
ENDROOT
BRANCH   2   3
HETATM    3  C   UNL     1      -9.097   5.606  66.481  1.00  0.00    -0.140 C  
BRANCH   3   4
HETATM    4  C   UNL     1      -8.981   6.905  65.688  1.00  0.00     0.025 C  
BRANCH   4   5
HETATM    5  C   UNL     1      -7.633   6.986  64.983  1.00  0.00    -0.104 C  
BRANCH   5   6
HETATM    6  C   UNL     1      -7.797   7.554  63.580  1.00  0.00    -0.112 C  
BRANCH   6   7
HETATM    7  C   UNL     1      -7.709   9.073  63.615  1.00  0.00    -0.122 C  
BRANCH   7   8
HETATM    8  C   UNL     1      -9.084   9.684  63.399  1.00  0.00    -0.213 C  
BRANCH   8   9
HETATM    9  C   UNL     1      -9.238  10.942  64.236  1.00  0.00    -0.221 C  
BRANCH   9  10
HETATM   10  C   UNL     1      -8.940  10.633  65.691  1.00  0.00    -0.203 C  
BRANCH  10  11
HETATM   11  C   UNL     1      -7.643  11.297  66.115  1.00  0.00     0.032 C  
BRANCH  11  12
HETATM   12  C   UNL     1      -7.009  10.495  67.235  1.00  0.00    -0.087 C  
BRANCH  12  13
HETATM   13  C   UNL     1      -7.992   9.474  67.768  1.00  0.00    -0.099 C  
BRANCH  13  14
HETATM   14  C   UNL     1      -7.249   8.429  68.581  1.00  0.00    -0.080 C  
BRANCH  14  15
HETATM   15  C   UNL     1      -8.140   7.953  69.706  1.00  0.00    -0.116 C  
BRANCH  15  16
HETATM   16  C   UNL     1      -7.986   8.837  70.932  1.00  0.00    -0.155 C  
BRANCH  16  17
HETATM   17  C   UNL     1      -9.314   8.836  71.665  1.00  0.00    -0.345 C  
BRANCH  17  18
HETATM   18  C   UNL     1     -10.146   7.617  71.311  1.00  0.00    -0.186 C  
BRANCH  18  19
HETATM   19  N   UNL     1     -11.131   7.238  72.437  1.00  0.00    -0.259 N  
HETATM   20  C   UNL     1     -12.000   6.052  72.009  1.00  0.00    -0.176 C  
HETATM   21  C   UNL     1     -10.367   6.886  73.716  1.00  0.00    -0.376 C  
BRANCH  19  22
HETATM   22  C   UNL     1     -12.005   8.492  72.660  1.00  0.00    -0.239 C  
BRANCH  22  23
HETATM   23  C   UNL     1     -12.834   8.835  71.439  1.00  0.00    -0.319 C  
BRANCH  23  24
HETATM   24  C   UNL     1     -13.373  10.252  71.509  1.00  0.00    -0.413 C  
BRANCH  24  25
HETATM   25  C   UNL     1     -12.232  11.192  71.161  1.00  0.00    -0.387 C  
BRANCH  25  26
HETATM   26  C   UNL     1     -11.546  10.764  69.885  1.00  0.00    -0.410 C  
BRANCH  26  27
HETATM   27  C   UNL     1     -12.134  11.537  68.718  1.00  0.00    -0.234 C  
BRANCH  27  28
HETATM   28  C   UNL     1     -11.436  12.876  68.593  1.00  0.00    -0.346 C  
BRANCH  28  29
HETATM   29  C   UNL     1      -9.936  12.675  68.498  1.00  0.00    -0.166 C  
BRANCH  29  30
HETATM   30  C   UNL     1      -9.241  14.021  68.560  1.00  0.00    -0.170 C  
BRANCH  30  31
HETATM   31  C   UNL     1     -10.242  15.121  68.851  1.00  0.00    -0.236 C  
BRANCH  31  32
HETATM   32  C   UNL     1      -9.673  16.463  68.433  1.00  0.00    -0.229 C  
BRANCH  32  33
HETATM   33  C   UNL     1     -10.694  17.235  67.615  1.00  0.00    -0.307 C  
BRANCH  33  34
HETATM   34  C   UNL     1     -10.165  17.486  66.211  1.00  0.00    -0.356 C  
BRANCH  34  35
HETATM   35  C   UNL     1      -9.793  16.169  65.544  1.00  0.00    -0.190 C  
BRANCH  35  36
HETATM   36  C   UNL     1     -11.044  15.383  65.172  1.00  0.00    -0.402 C  
BRANCH  36  37
HETATM   37  C   UNL     1     -10.718  13.901  65.019  1.00  0.00    -0.397 C  
BRANCH  37  38
HETATM   38  C   UNL     1     -11.989  13.077  64.851  1.00  0.00    -0.441 C  
HETATM   39  C   UNL     1     -12.268  12.800  63.384  1.00  0.00    -0.594 C  
ENDBRANCH  37  38
ENDBRANCH  36  37
ENDBRANCH  35  36
ENDBRANCH  34  35
ENDBRANCH  33  34
ENDBRANCH  32  33
ENDBRANCH  31  32
ENDBRANCH  30  31
ENDBRANCH  29  30
ENDBRANCH  28  29
ENDBRANCH  27  28
ENDBRANCH  26  27
ENDBRANCH  25  26
ENDBRANCH  24  25
ENDBRANCH  23  24
ENDBRANCH  22  23
ENDBRANCH  19  22
ENDBRANCH  18  19
ENDBRANCH  17  18
ENDBRANCH  16  17
ENDBRANCH  15  16
ENDBRANCH  14  15
ENDBRANCH  13  14
ENDBRANCH  12  13
ENDBRANCH  11  12
ENDBRANCH  10  11
ENDBRANCH   9  10
ENDBRANCH   8   9
ENDBRANCH   7   8
ENDBRANCH   6   7
ENDBRANCH   5   6
ENDBRANCH   4   5
ENDBRANCH   3   4
ENDBRANCH   2   3
TORSDOF 34
ENDMDL
MODEL      119
REMARK 921   NORMALIZED FREE ENERGY PREDICTED BY IDOCK:   -3.03 KCAL/MOL
REMARK 922        TOTAL FREE ENERGY PREDICTED BY IDOCK:  -15.37 KCAL/MOL
REMARK 923 INTER-LIGAND FREE ENERGY PREDICTED BY IDOCK:  -10.32 KCAL/MOL
REMARK 924 INTRA-LIGAND FREE ENERGY PREDICTED BY IDOCK:   -5.05 KCAL/MOL
REMARK 927      BINDING AFFINITY PREDICTED BY RF-SCORE:    0.00 PKD
ROOT
HETATM    1  C   UNL     1      -6.580  16.531  67.229  1.00  0.00    -0.215 C  
HETATM    2  C   UNL     1      -7.175  17.109  68.500  1.00  0.00    -0.220 C  
ENDROOT
BRANCH   2   3
HETATM    3  C   UNL     1      -6.757  18.560  68.689  1.00  0.00    -0.273 C  
BRANCH   3   4
HETATM    4  C   UNL     1      -6.834  19.329  67.373  1.00  0.00    -0.220 C  
BRANCH   4   5
HETATM    5  C   UNL     1      -7.670  20.592  67.537  1.00  0.00    -0.336 C  
BRANCH   5   6
HETATM    6  C   UNL     1      -9.154  20.267  67.437  1.00  0.00    -0.483 C  
BRANCH   6   7
HETATM    7  C   UNL     1      -9.462  19.626  66.091  1.00  0.00    -0.441 C  
BRANCH   7   8
HETATM    8  C   UNL     1     -10.700  18.750  66.198  1.00  0.00    -0.320 C  
BRANCH   8   9
HETATM    9  C   UNL     1     -10.449  17.603  67.162  1.00  0.00    -0.319 C  
BRANCH   9  10
HETATM   10  C   UNL     1     -10.090  16.348  66.390  1.00  0.00    -0.328 C  
BRANCH  10  11
HETATM   11  C   UNL     1     -10.907  16.264  65.114  1.00  0.00    -0.333 C  
BRANCH  11  12
HETATM   12  C   UNL     1     -11.093  14.809  64.729  1.00  0.00    -0.393 C  
BRANCH  12  13
HETATM   13  C   UNL     1     -12.310  14.236  65.425  1.00  0.00    -0.421 C  
BRANCH  13  14
HETATM   14  C   UNL     1     -12.442  12.762  65.087  1.00  0.00    -0.565 C  
BRANCH  14  15
HETATM   15  C   UNL     1     -11.289  12.007  65.706  1.00  0.00    -0.384 C  
BRANCH  15  16
HETATM   16  C   UNL     1     -11.430  11.943  67.218  1.00  0.00    -0.385 C  
BRANCH  16  17
HETATM   17  C   UNL     1     -10.484  10.868  67.720  1.00  0.00    -0.238 C  
BRANCH  17  18
HETATM   18  C   UNL     1     -10.048   9.941  66.601  1.00  0.00    -0.233 C  
BRANCH  18  19
HETATM   19  N   UNL     1      -8.567   9.527  66.732  1.00  0.00    -0.127 N  
HETATM   20  C   UNL     1      -8.043   8.988  65.397  1.00  0.00    -0.120 C  
HETATM   21  C   UNL     1      -7.718  10.719  67.179  1.00  0.00    -0.120 C  
BRANCH  19  22
HETATM   22  C   UNL     1      -8.543   8.416  67.805  1.00  0.00    -0.130 C  
BRANCH  22  23
HETATM   23  C   UNL     1      -8.599   7.030  67.196  1.00  0.00    -0.121 C  
BRANCH  23  24
HETATM   24  C   UNL     1      -9.364   6.061  68.079  1.00  0.00    -0.114 C  
BRANCH  24  25
HETATM   25  C   UNL     1     -10.792   6.566  68.182  1.00  0.00    -0.370 C  
BRANCH  25  26
HETATM   26  C   UNL     1     -11.358   6.315  69.560  1.00  0.00    -0.475 C  
BRANCH  26  27
HETATM   27  C   UNL     1     -10.929   7.437  70.489  1.00  0.00    -0.270 C  
BRANCH  27  28
HETATM   28  C   UNL     1     -11.503   7.201  71.870  1.00  0.00    -0.305 C  
BRANCH  28  29
HETATM   29  C   UNL     1     -10.409   7.308  72.914  1.00  0.00    -0.307 C  
BRANCH  29  30
HETATM   30  C   UNL     1     -10.529   6.156  73.892  1.00  0.00    -0.287 C  
BRANCH  30  31
HETATM   31  C   UNL     1     -11.184   4.963  73.227  1.00  0.00    -0.423 C  
BRANCH  31  32
HETATM   32  C   UNL     1     -10.552   3.678  73.729  1.00  0.00    -0.287 C  
BRANCH  32  33
HETATM   33  C   UNL     1     -10.097   2.825  72.557  1.00  0.00    -0.235 C  
BRANCH  33  34
HETATM   34  C   UNL     1     -10.013   3.666  71.293  1.00  0.00    -0.144 C  
BRANCH  34  35
HETATM   35  C   UNL     1      -8.608   3.605  70.711  1.00  0.00    -0.111 C  
BRANCH  35  36
HETATM   36  C   UNL     1      -7.677   4.556  71.453  1.00  0.00    -0.085 C  
BRANCH  36  37
HETATM   37  C   UNL     1      -7.253   5.705  70.544  1.00  0.00    -0.074 C  
BRANCH  37  38
HETATM   38  C   UNL     1      -7.154   7.011  71.325  1.00  0.00    -0.073 C  
HETATM   39  C   UNL     1      -5.908   7.786  70.932  1.00  0.00    -0.034 C  
ENDBRANCH  37  38
ENDBRANCH  36  37
ENDBRANCH  35  36
ENDBRANCH  34  35
ENDBRANCH  33  34
ENDBRANCH  32  33
ENDBRANCH  31  32
ENDBRANCH  30  31
ENDBRANCH  29  30
ENDBRANCH  28  29
ENDBRANCH  27  28
ENDBRANCH  26  27
ENDBRANCH  25  26
ENDBRANCH  24  25
ENDBRANCH  23  24
ENDBRANCH  22  23
ENDBRANCH  19  22
ENDBRANCH  18  19
ENDBRANCH  17  18
ENDBRANCH  16  17
ENDBRANCH  15  16
ENDBRANCH  14  15
ENDBRANCH  13  14
ENDBRANCH  12  13
ENDBRANCH  11  12
ENDBRANCH  10  11
ENDBRANCH   9  10
ENDBRANCH   8   9
ENDBRANCH   7   8
ENDBRANCH   6   7
ENDBRANCH   5   6
ENDBRANCH   4   5
ENDBRANCH   3   4
ENDBRANCH   2   3
TORSDOF 34
ENDMDL
MODEL      120
REMARK 921   NORMALIZED FREE ENERGY PREDICTED BY IDOCK:   -3.01 KCAL/MOL
REMARK 922        TOTAL FREE ENERGY PREDICTED BY IDOCK:  -15.33 KCAL/MOL
REMARK 923 INTER-LIGAND FREE ENERGY PREDICTED BY IDOCK:   -8.47 KCAL/MOL
REMARK 924 INTRA-LIGAND FREE ENERGY PREDICTED BY IDOCK:   -6.86 KCAL/MOL
REMARK 927      BINDING AFFINITY PREDICTED BY RF-SCORE:    0.00 PKD
ROOT
HETATM    1  C   UNL     1      -5.904   3.494  66.983  1.00  0.00    -0.023 C  
HETATM    2  C   UNL     1      -6.986   3.786  68.008  1.00  0.00    -0.051 C  
ENDROOT
BRANCH   2   3
HETATM    3  C   UNL     1      -6.791   5.161  68.630  1.00  0.00    -0.052 C  
BRANCH   3   4
HETATM    4  C   UNL     1      -7.457   6.245  67.786  1.00  0.00    -0.093 C  
BRANCH   4   5
HETATM    5  C   UNL     1      -8.865   5.825  67.384  1.00  0.00    -0.106 C  
BRANCH   5   6
HETATM    6  C   UNL     1      -9.025   5.869  65.871  1.00  0.00    -0.149 C  
BRANCH   6   7
HETATM    7  C   UNL     1      -7.708   6.258  65.215  1.00  0.00    -0.096 C  
BRANCH   7   8
HETATM    8  C   UNL     1      -7.737   5.915  63.734  1.00  0.00    -0.099 C  
BRANCH   8   9
HETATM    9  C   UNL     1      -8.096   7.145  62.918  1.00  0.00    -0.046 C  
BRANCH   9  10
HETATM   10  C   UNL     1      -7.785   8.400  63.712  1.00  0.00    -0.144 C  
BRANCH  10  11
HETATM   11  C   UNL     1      -9.025   9.266  63.836  1.00  0.00    -0.092 C  
BRANCH  11  12
HETATM   12  C   UNL     1      -9.366   9.451  65.302  1.00  0.00    -0.303 C  
BRANCH  12  13
HETATM   13  C   UNL     1      -8.242  10.176  66.012  1.00  0.00    -0.131 C  
BRANCH  13  14
HETATM   14  C   UNL     1      -8.291   9.862  67.496  1.00  0.00    -0.114 C  
BRANCH  14  15
HETATM   15  C   UNL     1      -7.830  11.074  68.273  1.00  0.00    -0.121 C  
BRANCH  15  16
HETATM   16  C   UNL     1      -7.624  10.734  69.739  1.00  0.00     0.020 C  
BRANCH  16  17
HETATM   17  C   UNL     1      -7.832   9.239  69.894  1.00  0.00    -0.109 C  
BRANCH  17  18
HETATM   18  C   UNL     1      -7.083   8.693  71.095  1.00  0.00    -0.081 C  
BRANCH  18  19
HETATM   19  N   UNL     1      -7.911   7.647  71.871  1.00  0.00    -0.092 N  
HETATM   20  C   UNL     1      -7.042   6.439  72.234  1.00  0.00    -0.082 C  
HETATM   21  C   UNL     1      -8.495   8.267  73.143  1.00  0.00    -0.198 C  
BRANCH  19  22
HETATM   22  C   UNL     1      -9.044   7.223  70.910  1.00  0.00    -0.151 C  
BRANCH  22  23
HETATM   23  C   UNL     1      -9.492   5.795  71.148  1.00  0.00    -0.185 C  
BRANCH  23  24
HETATM   24  C   UNL     1     -10.798   5.492  70.436  1.00  0.00    -0.274 C  
BRANCH  24  25
HETATM   25  C   UNL     1     -11.538   6.806  70.262  1.00  0.00    -0.417 C  
BRANCH  25  26
HETATM   26  C   UNL     1     -12.623   6.959  71.303  1.00  0.00    -0.394 C  
BRANCH  26  27
HETATM   27  C   UNL     1     -12.388   8.238  72.087  1.00  0.00    -0.410 C  
BRANCH  27  28
HETATM   28  C   UNL     1     -13.426   9.270  71.699  1.00  0.00    -0.465 C  
BRANCH  28  29
HETATM   29  C   UNL     1     -12.762  10.611  71.454  1.00  0.00    -0.545 C  
BRANCH  29  30
HETATM   30  C   UNL     1     -11.380  10.391  70.870  1.00  0.00    -0.307 C  
BRANCH  30  31
HETATM   31  C   UNL     1     -11.101  11.400  69.775  1.00  0.00    -0.198 C  
BRANCH  31  32
HETATM   32  C   UNL     1     -11.521  10.836  68.431  1.00  0.00    -0.358 C  
BRANCH  32  33
HETATM   33  C   UNL     1     -11.391  11.898  67.352  1.00  0.00    -0.389 C  
BRANCH  33  34
HETATM   34  C   UNL     1     -10.579  13.077  67.868  1.00  0.00    -0.239 C  
BRANCH  34  35
HETATM   35  C   UNL     1     -10.004  13.871  66.704  1.00  0.00    -0.279 C  
BRANCH  35  36
HETATM   36  C   UNL     1     -11.116  14.366  65.789  1.00  0.00    -0.316 C  
BRANCH  36  37
HETATM   37  C   UNL     1     -10.793  14.045  64.334  1.00  0.00    -0.265 C  
BRANCH  37  38
HETATM   38  C   UNL     1     -10.930  12.552  64.060  1.00  0.00    -0.443 C  
HETATM   39  C   UNL     1     -12.361  12.195  63.695  1.00  0.00    -0.673 C  
ENDBRANCH  37  38
ENDBRANCH  36  37
ENDBRANCH  35  36
ENDBRANCH  34  35
ENDBRANCH  33  34
ENDBRANCH  32  33
ENDBRANCH  31  32
ENDBRANCH  30  31
ENDBRANCH  29  30
ENDBRANCH  28  29
ENDBRANCH  27  28
ENDBRANCH  26  27
ENDBRANCH  25  26
ENDBRANCH  24  25
ENDBRANCH  23  24
ENDBRANCH  22  23
ENDBRANCH  19  22
ENDBRANCH  18  19
ENDBRANCH  17  18
ENDBRANCH  16  17
ENDBRANCH  15  16
ENDBRANCH  14  15
ENDBRANCH  13  14
ENDBRANCH  12  13
ENDBRANCH  11  12
ENDBRANCH  10  11
ENDBRANCH   9  10
ENDBRANCH   8   9
ENDBRANCH   7   8
ENDBRANCH   6   7
ENDBRANCH   5   6
ENDBRANCH   4   5
ENDBRANCH   3   4
ENDBRANCH   2   3
TORSDOF 34
ENDMDL
MODEL      121
REMARK 921   NORMALIZED FREE ENERGY PREDICTED BY IDOCK:   -3.01 KCAL/MOL
REMARK 922        TOTAL FREE ENERGY PREDICTED BY IDOCK:  -15.33 KCAL/MOL
REMARK 923 INTER-LIGAND FREE ENERGY PREDICTED BY IDOCK:  -10.36 KCAL/MOL
REMARK 924 INTRA-LIGAND FREE ENERGY PREDICTED BY IDOCK:   -4.97 KCAL/MOL
REMARK 927      BINDING AFFINITY PREDICTED BY RF-SCORE:    0.00 PKD
ROOT
HETATM    1  C   UNL     1     -12.169   5.811  72.555  1.00  0.00     0.006 C  
HETATM    2  C   UNL     1     -12.579   6.834  71.510  1.00  0.00    -0.371 C  
ENDROOT
BRANCH   2   3
HETATM    3  C   UNL     1     -14.061   7.161  71.617  1.00  0.00    -0.477 C  
BRANCH   3   4
HETATM    4  C   UNL     1     -14.276   8.637  71.937  1.00  0.00    -0.507 C  
BRANCH   4   5
HETATM    5  C   UNL     1     -12.941   9.355  72.091  1.00  0.00    -0.503 C  
BRANCH   5   6
HETATM    6  C   UNL     1     -12.764  10.396  70.995  1.00  0.00    -0.490 C  
BRANCH   6   7
HETATM    7  C   UNL     1     -11.410  10.226  70.323  1.00  0.00    -0.398 C  
BRANCH   7   8
HETATM    8  C   UNL     1     -10.450   9.499  71.251  1.00  0.00    -0.320 C  
BRANCH   8   9
HETATM    9  C   UNL     1      -9.108   9.299  70.567  1.00  0.00    -0.307 C  
BRANCH   9  10
HETATM   10  C   UNL     1      -8.367   8.143  71.212  1.00  0.00    -0.140 C  
BRANCH  10  11
HETATM   11  C   UNL     1      -9.024   7.765  72.527  1.00  0.00    -0.213 C  
BRANCH  11  12
HETATM   12  C   UNL     1      -7.955   7.404  73.539  1.00  0.00    -0.142 C  
BRANCH  12  13
HETATM   13  C   UNL     1      -8.492   6.391  74.528  1.00  0.00    -0.144 C  
BRANCH  13  14
HETATM   14  C   UNL     1      -9.048   5.194  73.778  1.00  0.00    -0.122 C  
BRANCH  14  15
HETATM   15  C   UNL     1      -7.900   4.374  73.234  1.00  0.00    -0.091 C  
BRANCH  15  16
HETATM   16  C   UNL     1      -8.408   3.244  72.355  1.00  0.00    -0.079 C  
BRANCH  16  17
HETATM   17  C   UNL     1      -9.360   3.847  71.339  1.00  0.00    -0.208 C  
BRANCH  17  18
HETATM   18  C   UNL     1      -9.250   3.158  69.992  1.00  0.00    -0.150 C  
BRANCH  18  19
HETATM   19  N   UNL     1      -9.120   4.167  68.831  1.00  0.00    -0.117 N  
HETATM   20  C   UNL     1      -7.645   4.480  68.559  1.00  0.00    -0.064 C  
HETATM   21  C   UNL     1      -9.775   3.610  67.566  1.00  0.00    -0.052 C  
BRANCH  19  22
HETATM   22  C   UNL     1      -9.859   5.438  69.305  1.00  0.00    -0.182 C  
BRANCH  22  23
HETATM   23  C   UNL     1     -10.537   6.166  68.162  1.00  0.00    -0.328 C  
BRANCH  23  24
HETATM   24  C   UNL     1      -9.623   7.207  67.541  1.00  0.00    -0.159 C  
BRANCH  24  25
HETATM   25  C   UNL     1     -10.484   8.397  67.154  1.00  0.00    -0.380 C  
BRANCH  25  26
HETATM   26  C   UNL     1      -9.781   9.266  66.137  1.00  0.00    -0.349 C  
BRANCH  26  27
HETATM   27  C   UNL     1      -8.507   9.822  66.750  1.00  0.00    -0.125 C  
BRANCH  27  28
HETATM   28  C   UNL     1      -8.816  11.112  67.481  1.00  0.00    -0.139 C  
BRANCH  28  29
HETATM   29  C   UNL     1      -9.616  12.038  66.587  1.00  0.00    -0.225 C  
BRANCH  29  30
HETATM   30  C   UNL     1     -10.692  12.725  67.405  1.00  0.00    -0.248 C  
BRANCH  30  31
HETATM   31  C   UNL     1     -10.535  14.231  67.329  1.00  0.00    -0.269 C  
BRANCH  31  32
HETATM   32  C   UNL     1      -9.579  14.596  66.209  1.00  0.00    -0.333 C  
BRANCH  32  33
HETATM   33  C   UNL     1      -9.338  16.096  66.194  1.00  0.00    -0.372 C  
BRANCH  33  34
HETATM   34  C   UNL     1     -10.619  16.839  66.541  1.00  0.00    -0.198 C  
BRANCH  34  35
HETATM   35  C   UNL     1     -10.307  18.051  67.409  1.00  0.00    -0.391 C  
BRANCH  35  36
HETATM   36  C   UNL     1     -10.420  19.336  66.598  1.00  0.00    -0.541 C  
BRANCH  36  37
HETATM   37  C   UNL     1      -9.674  20.471  67.292  1.00  0.00    -0.600 C  
BRANCH  37  38
HETATM   38  C   UNL     1      -8.232  20.077  67.588  1.00  0.00    -0.347 C  
HETATM   39  C   UNL     1      -7.279  21.213  67.259  1.00  0.00    -0.280 C  
ENDBRANCH  37  38
ENDBRANCH  36  37
ENDBRANCH  35  36
ENDBRANCH  34  35
ENDBRANCH  33  34
ENDBRANCH  32  33
ENDBRANCH  31  32
ENDBRANCH  30  31
ENDBRANCH  29  30
ENDBRANCH  28  29
ENDBRANCH  27  28
ENDBRANCH  26  27
ENDBRANCH  25  26
ENDBRANCH  24  25
ENDBRANCH  23  24
ENDBRANCH  22  23
ENDBRANCH  19  22
ENDBRANCH  18  19
ENDBRANCH  17  18
ENDBRANCH  16  17
ENDBRANCH  15  16
ENDBRANCH  14  15
ENDBRANCH  13  14
ENDBRANCH  12  13
ENDBRANCH  11  12
ENDBRANCH  10  11
ENDBRANCH   9  10
ENDBRANCH   8   9
ENDBRANCH   7   8
ENDBRANCH   6   7
ENDBRANCH   5   6
ENDBRANCH   4   5
ENDBRANCH   3   4
ENDBRANCH   2   3
TORSDOF 34
ENDMDL
MODEL      122
REMARK 921   NORMALIZED FREE ENERGY PREDICTED BY IDOCK:   -2.99 KCAL/MOL
REMARK 922        TOTAL FREE ENERGY PREDICTED BY IDOCK:  -15.26 KCAL/MOL
REMARK 923 INTER-LIGAND FREE ENERGY PREDICTED BY IDOCK:  -11.44 KCAL/MOL
REMARK 924 INTRA-LIGAND FREE ENERGY PREDICTED BY IDOCK:   -3.82 KCAL/MOL
REMARK 927      BINDING AFFINITY PREDICTED BY RF-SCORE:    0.00 PKD
ROOT
HETATM    1  C   UNL     1      -8.322   4.196  72.654  1.00  0.00    -0.100 C  
HETATM    2  C   UNL     1      -9.576   4.357  71.813  1.00  0.00    -0.221 C  
ENDROOT
BRANCH   2   3
HETATM    3  C   UNL     1      -9.388   5.431  70.752  1.00  0.00    -0.200 C  
BRANCH   3   4
HETATM    4  C   UNL     1     -10.714   5.776  70.079  1.00  0.00    -0.400 C  
BRANCH   4   5
HETATM    5  C   UNL     1     -11.252   7.103  70.598  1.00  0.00    -0.311 C  
BRANCH   5   6
HETATM    6  C   UNL     1     -12.367   6.870  71.607  1.00  0.00    -0.413 C  
BRANCH   6   7
HETATM    7  C   UNL     1     -13.464   7.909  71.427  1.00  0.00    -0.290 C  
BRANCH   7   8
HETATM    8  C   UNL     1     -12.973   9.275  71.878  1.00  0.00    -0.489 C  
BRANCH   8   9
HETATM    9  C   UNL     1     -12.942  10.237  70.702  1.00  0.00    -0.338 C  
BRANCH   9  10
HETATM   10  C   UNL     1     -12.656  11.644  71.193  1.00  0.00    -0.439 C  
BRANCH  10  11
HETATM   11  C   UNL     1     -13.651  12.038  72.269  1.00  0.00    -0.164 C  
BRANCH  11  12
HETATM   12  C   UNL     1     -13.676  13.548  72.403  1.00  0.00    -0.704 C  
BRANCH  12  13
HETATM   13  C   UNL     1     -12.961  14.189  71.231  1.00  0.00    -0.426 C  
BRANCH  13  14
HETATM   14  C   UNL     1     -12.437  15.553  71.639  1.00  0.00    -0.473 C  
BRANCH  14  15
HETATM   15  C   UNL     1     -11.387  15.997  70.646  1.00  0.00    -0.424 C  
BRANCH  15  16
HETATM   16  C   UNL     1     -11.725  15.514  69.245  1.00  0.00    -0.380 C  
BRANCH  16  17
HETATM   17  C   UNL     1     -11.066  16.465  68.264  1.00  0.00    -0.337 C  
BRANCH  17  18
HETATM   18  C   UNL     1      -9.701  16.913  68.750  1.00  0.00    -0.265 C  
BRANCH  18  19
HETATM   19  N   UNL     1      -8.691  17.063  67.593  1.00  0.00    -0.213 N  
HETATM   20  C   UNL     1      -9.391  16.870  66.245  1.00  0.00    -0.262 C  
HETATM   21  C   UNL     1      -8.026  18.440  67.641  1.00  0.00    -0.242 C  
BRANCH  19  22
HETATM   22  C   UNL     1      -7.642  15.951  67.816  1.00  0.00    -0.140 C  
BRANCH  22  23
HETATM   23  C   UNL     1      -7.880  15.189  69.105  1.00  0.00    -0.199 C  
BRANCH  23  24
HETATM   24  C   UNL     1      -6.609  15.065  69.924  1.00  0.00    -0.170 C  
BRANCH  24  25
HETATM   25  C   UNL     1      -5.487  14.687  68.973  1.00  0.00    -0.089 C  
BRANCH  25  26
HETATM   26  C   UNL     1      -5.207  13.203  69.027  1.00  0.00    -0.069 C  
BRANCH  26  27
HETATM   27  C   UNL     1      -5.827  12.623  70.286  1.00  0.00    -0.156 C  
BRANCH  27  28
HETATM   28  C   UNL     1      -6.303  11.211  70.013  1.00  0.00    -0.147 C  
BRANCH  28  29
HETATM   29  C   UNL     1      -6.847  11.108  68.602  1.00  0.00    -0.070 C  
BRANCH  29  30
HETATM   30  C   UNL     1      -8.359  11.007  68.650  1.00  0.00    -0.153 C  
BRANCH  30  31
HETATM   31  C   UNL     1      -8.791   9.555  68.701  1.00  0.00    -0.132 C  
BRANCH  31  32
HETATM   32  C   UNL     1      -9.925   9.318  67.722  1.00  0.00    -0.235 C  
BRANCH  32  33
HETATM   33  C   UNL     1      -9.493   9.698  66.316  1.00  0.00    -0.255 C  
BRANCH  33  34
HETATM   34  C   UNL     1     -10.659  10.307  65.553  1.00  0.00    -0.025 C  
BRANCH  34  35
HETATM   35  C   UNL     1     -10.295  11.698  65.054  1.00  0.00    -0.329 C  
BRANCH  35  36
HETATM   36  C   UNL     1     -10.736  11.883  63.608  1.00  0.00    -0.502 C  
BRANCH  36  37
HETATM   37  C   UNL     1     -12.115  12.532  63.549  1.00  0.00    -0.653 C  
BRANCH  37  38
HETATM   38  C   UNL     1     -12.085  13.935  64.143  1.00  0.00    -0.464 C  
HETATM   39  C   UNL     1     -12.644  13.940  65.555  1.00  0.00    -0.560 C  
ENDBRANCH  37  38
ENDBRANCH  36  37
ENDBRANCH  35  36
ENDBRANCH  34  35
ENDBRANCH  33  34
ENDBRANCH  32  33
ENDBRANCH  31  32
ENDBRANCH  30  31
ENDBRANCH  29  30
ENDBRANCH  28  29
ENDBRANCH  27  28
ENDBRANCH  26  27
ENDBRANCH  25  26
ENDBRANCH  24  25
ENDBRANCH  23  24
ENDBRANCH  22  23
ENDBRANCH  19  22
ENDBRANCH  18  19
ENDBRANCH  17  18
ENDBRANCH  16  17
ENDBRANCH  15  16
ENDBRANCH  14  15
ENDBRANCH  13  14
ENDBRANCH  12  13
ENDBRANCH  11  12
ENDBRANCH  10  11
ENDBRANCH   9  10
ENDBRANCH   8   9
ENDBRANCH   7   8
ENDBRANCH   6   7
ENDBRANCH   5   6
ENDBRANCH   4   5
ENDBRANCH   3   4
ENDBRANCH   2   3
TORSDOF 34
ENDMDL
MODEL      123
REMARK 921   NORMALIZED FREE ENERGY PREDICTED BY IDOCK:   -2.95 KCAL/MOL
REMARK 922        TOTAL FREE ENERGY PREDICTED BY IDOCK:  -15.14 KCAL/MOL
REMARK 923 INTER-LIGAND FREE ENERGY PREDICTED BY IDOCK:   -9.78 KCAL/MOL
REMARK 924 INTRA-LIGAND FREE ENERGY PREDICTED BY IDOCK:   -5.36 KCAL/MOL
REMARK 927      BINDING AFFINITY PREDICTED BY RF-SCORE:    0.00 PKD
ROOT
HETATM    1  C   UNL     1      -6.353   6.771  68.647  1.00  0.00    -0.031 C  
HETATM    2  C   UNL     1      -7.023   8.131  68.738  1.00  0.00    -0.067 C  
ENDROOT
BRANCH   2   3
HETATM    3  C   UNL     1      -7.810   8.267  70.033  1.00  0.00    -0.104 C  
BRANCH   3   4
HETATM    4  C   UNL     1      -6.882   8.245  71.245  1.00  0.00    -0.059 C  
BRANCH   4   5
HETATM    5  C   UNL     1      -7.609   7.702  72.468  1.00  0.00    -0.102 C  
BRANCH   5   6
HETATM    6  C   UNL     1      -8.932   8.427  72.671  1.00  0.00    -0.304 C  
BRANCH   6   7
HETATM    7  C   UNL     1      -9.891   7.556  73.468  1.00  0.00    -0.372 C  
BRANCH   7   8
HETATM    8  C   UNL     1     -11.316   7.760  72.979  1.00  0.00    -0.331 C  
BRANCH   8   9
HETATM    9  C   UNL     1     -11.319   8.095  71.497  1.00  0.00    -0.308 C  
BRANCH   9  10
HETATM   10  C   UNL     1     -12.109   7.050  70.732  1.00  0.00    -0.374 C  
BRANCH  10  11
HETATM   11  C   UNL     1     -11.191   6.265  69.813  1.00  0.00    -0.499 C  
BRANCH  11  12
HETATM   12  C   UNL     1     -10.407   5.254  70.627  1.00  0.00    -0.324 C  
BRANCH  12  13
HETATM   13  C   UNL     1      -9.142   4.861  69.893  1.00  0.00    -0.164 C  
BRANCH  13  14
HETATM   14  C   UNL     1      -8.956   3.357  69.969  1.00  0.00    -0.170 C  
BRANCH  14  15
HETATM   15  C   UNL     1      -9.519   2.725  68.716  1.00  0.00    -0.180 C  
BRANCH  15  16
HETATM   16  C   UNL     1      -8.545   1.717  68.131  1.00  0.00    -0.097 C  
BRANCH  16  17
HETATM   17  C   UNL     1      -7.442   2.496  67.440  1.00  0.00    -0.061 C  
BRANCH  17  18
HETATM   18  C   UNL     1      -7.207   1.998  66.026  1.00  0.00    -0.060 C  
BRANCH  18  19
HETATM   19  N   UNL     1      -6.865   3.146  65.054  1.00  0.00    -0.044 N  
HETATM   20  C   UNL     1      -6.350   4.364  65.826  1.00  0.00    -0.036 C  
HETATM   21  C   UNL     1      -5.812   2.690  64.041  1.00  0.00    -0.010 C  
BRANCH  19  22
HETATM   22  C   UNL     1      -8.190   3.487  64.336  1.00  0.00    -0.089 C  
BRANCH  22  23
HETATM   23  C   UNL     1      -8.849   4.725  64.910  1.00  0.00    -0.153 C  
BRANCH  23  24
HETATM   24  C   UNL     1     -10.229   4.418  65.464  1.00  0.00    -0.260 C  
BRANCH  24  25
HETATM   25  C   UNL     1     -10.570   5.504  66.469  1.00  0.00    -0.343 C  
BRANCH  25  26
HETATM   26  C   UNL     1      -9.537   6.607  66.446  1.00  0.00    -0.147 C  
BRANCH  26  27
HETATM   27  C   UNL     1     -10.206   7.925  66.793  1.00  0.00    -0.358 C  
BRANCH  27  28
HETATM   28  C   UNL     1      -9.618   9.032  65.943  1.00  0.00    -0.317 C  
BRANCH  28  29
HETATM   29  C   UNL     1      -9.955  10.384  66.542  1.00  0.00    -0.271 C  
BRANCH  29  30
HETATM   30  C   UNL     1     -10.684  11.225  65.512  1.00  0.00    -0.283 C  
BRANCH  30  31
HETATM   31  C   UNL     1     -11.546  12.268  66.195  1.00  0.00    -0.450 C  
BRANCH  31  32
HETATM   32  C   UNL     1     -10.952  13.648  65.988  1.00  0.00    -0.288 C  
BRANCH  32  33
HETATM   33  C   UNL     1     -11.206  14.518  67.207  1.00  0.00    -0.341 C  
BRANCH  33  34
HETATM   34  C   UNL     1     -11.949  13.727  68.273  1.00  0.00    -0.392 C  
BRANCH  34  35
HETATM   35  C   UNL     1     -11.302  13.939  69.635  1.00  0.00    -0.259 C  
BRANCH  35  36
HETATM   36  C   UNL     1     -11.971  15.091  70.373  1.00  0.00    -0.372 C  
BRANCH  36  37
HETATM   37  C   UNL     1     -12.764  14.571  71.568  1.00  0.00    -0.409 C  
BRANCH  37  38
HETATM   38  C   UNL     1     -13.195  15.715  72.478  1.00  0.00    -0.583 C  
HETATM   39  C   UNL     1     -12.628  15.540  73.877  1.00  0.00    -0.767 C  
ENDBRANCH  37  38
ENDBRANCH  36  37
ENDBRANCH  35  36
ENDBRANCH  34  35
ENDBRANCH  33  34
ENDBRANCH  32  33
ENDBRANCH  31  32
ENDBRANCH  30  31
ENDBRANCH  29  30
ENDBRANCH  28  29
ENDBRANCH  27  28
ENDBRANCH  26  27
ENDBRANCH  25  26
ENDBRANCH  24  25
ENDBRANCH  23  24
ENDBRANCH  22  23
ENDBRANCH  19  22
ENDBRANCH  18  19
ENDBRANCH  17  18
ENDBRANCH  16  17
ENDBRANCH  15  16
ENDBRANCH  14  15
ENDBRANCH  13  14
ENDBRANCH  12  13
ENDBRANCH  11  12
ENDBRANCH  10  11
ENDBRANCH   9  10
ENDBRANCH   8   9
ENDBRANCH   7   8
ENDBRANCH   6   7
ENDBRANCH   5   6
ENDBRANCH   4   5
ENDBRANCH   3   4
ENDBRANCH   2   3
TORSDOF 34
ENDMDL
MODEL      124
REMARK 921   NORMALIZED FREE ENERGY PREDICTED BY IDOCK:   -2.95 KCAL/MOL
REMARK 922        TOTAL FREE ENERGY PREDICTED BY IDOCK:  -15.13 KCAL/MOL
REMARK 923 INTER-LIGAND FREE ENERGY PREDICTED BY IDOCK:  -10.00 KCAL/MOL
REMARK 924 INTRA-LIGAND FREE ENERGY PREDICTED BY IDOCK:   -5.14 KCAL/MOL
REMARK 927      BINDING AFFINITY PREDICTED BY RF-SCORE:    0.00 PKD
ROOT
HETATM    1  C   UNL     1      -5.740  10.472  68.181  1.00  0.00    -0.043 C  
HETATM    2  C   UNL     1      -6.496  11.691  67.683  1.00  0.00    -0.075 C  
ENDROOT
BRANCH   2   3
HETATM    3  C   UNL     1      -6.136  12.926  68.494  1.00  0.00    -0.071 C  
BRANCH   3   4
HETATM    4  C   UNL     1      -6.776  14.179  67.901  1.00  0.00    -0.176 C  
BRANCH   4   5
HETATM    5  C   UNL     1      -8.175  13.874  67.382  1.00  0.00    -0.198 C  
BRANCH   5   6
HETATM    6  C   UNL     1      -8.801  15.120  66.771  1.00  0.00    -0.302 C  
BRANCH   6   7
HETATM    7  C   UNL     1      -8.144  16.370  67.337  1.00  0.00    -0.175 C  
BRANCH   7   8
HETATM    8  C   UNL     1      -9.178  17.234  68.041  1.00  0.00    -0.256 C  
BRANCH   8   9
HETATM    9  C   UNL     1     -10.507  16.503  68.120  1.00  0.00    -0.313 C  
BRANCH   9  10
HETATM   10  C   UNL     1     -10.949  16.392  69.567  1.00  0.00    -0.317 C  
BRANCH  10  11
HETATM   11  C   UNL     1     -12.136  15.454  69.684  1.00  0.00    -0.354 C  
BRANCH  11  12
HETATM   12  C   UNL     1     -11.793  14.323  70.634  1.00  0.00    -0.349 C  
BRANCH  12  13
HETATM   13  C   UNL     1     -12.617  14.436  71.900  1.00  0.00    -0.413 C  
BRANCH  13  14
HETATM   14  C   UNL     1     -13.436  13.173  72.089  1.00  0.00    -0.653 C  
BRANCH  14  15
HETATM   15  C   UNL     1     -12.808  12.052  71.292  1.00  0.00    -0.364 C  
BRANCH  15  16
HETATM   16  C   UNL     1     -13.125  10.701  71.910  1.00  0.00    -0.563 C  
BRANCH  16  17
HETATM   17  C   UNL     1     -12.244   9.670  71.231  1.00  0.00    -0.452 C  
BRANCH  17  18
HETATM   18  C   UNL     1     -11.391  10.294  70.142  1.00  0.00    -0.316 C  
BRANCH  18  19
HETATM   19  N   UNL     1     -10.406   9.282  69.521  1.00  0.00    -0.208 N  
HETATM   20  C   UNL     1     -10.693   9.104  68.028  1.00  0.00    -0.147 C  
HETATM   21  C   UNL     1      -8.963   9.752  69.721  1.00  0.00    -0.221 C  
BRANCH  19  22
HETATM   22  C   UNL     1     -10.649   7.956  70.276  1.00  0.00    -0.231 C  
BRANCH  22  23
HETATM   23  C   UNL     1      -9.419   7.493  71.032  1.00  0.00    -0.162 C  
BRANCH  23  24
HETATM   24  C   UNL     1      -8.951   6.130  70.558  1.00  0.00    -0.148 C  
BRANCH  24  25
HETATM   25  C   UNL     1      -7.450   6.212  70.343  1.00  0.00    -0.090 C  
BRANCH  25  26
HETATM   26  C   UNL     1      -7.078   5.782  68.943  1.00  0.00    -0.073 C  
BRANCH  26  27
HETATM   27  C   UNL     1      -7.381   6.913  67.976  1.00  0.00    -0.097 C  
BRANCH  27  28
HETATM   28  C   UNL     1      -8.158   6.375  66.793  1.00  0.00    -0.109 C  
BRANCH  28  29
HETATM   29  C   UNL     1      -7.759   7.112  65.529  1.00  0.00    -0.108 C  
BRANCH  29  30
HETATM   30  C   UNL     1      -8.074   8.587  65.684  1.00  0.00    -0.119 C  
BRANCH  30  31
HETATM   31  C   UNL     1      -7.110   9.423  64.867  1.00  0.00    -0.105 C  
BRANCH  31  32
HETATM   32  C   UNL     1      -7.626   9.571  63.449  1.00  0.00    -0.116 C  
BRANCH  32  33
HETATM   33  C   UNL     1      -9.115   9.869  63.460  1.00  0.00    -0.289 C  
BRANCH  33  34
HETATM   34  C   UNL     1      -9.389  11.214  62.805  1.00  0.00    -0.377 C  
BRANCH  34  35
HETATM   35  C   UNL     1     -10.463  11.968  63.577  1.00  0.00    -0.505 C  
BRANCH  35  36
HETATM   36  C   UNL     1     -10.169  11.942  65.072  1.00  0.00    -0.316 C  
BRANCH  36  37
HETATM   37  C   UNL     1     -11.458  11.763  65.867  1.00  0.00    -0.273 C  
BRANCH  37  38
HETATM   38  C   UNL     1     -11.682  12.934  66.816  1.00  0.00    -0.445 C  
HETATM   39  C   UNL     1     -12.322  14.106  66.093  1.00  0.00    -0.463 C  
ENDBRANCH  37  38
ENDBRANCH  36  37
ENDBRANCH  35  36
ENDBRANCH  34  35
ENDBRANCH  33  34
ENDBRANCH  32  33
ENDBRANCH  31  32
ENDBRANCH  30  31
ENDBRANCH  29  30
ENDBRANCH  28  29
ENDBRANCH  27  28
ENDBRANCH  26  27
ENDBRANCH  25  26
ENDBRANCH  24  25
ENDBRANCH  23  24
ENDBRANCH  22  23
ENDBRANCH  19  22
ENDBRANCH  18  19
ENDBRANCH  17  18
ENDBRANCH  16  17
ENDBRANCH  15  16
ENDBRANCH  14  15
ENDBRANCH  13  14
ENDBRANCH  12  13
ENDBRANCH  11  12
ENDBRANCH  10  11
ENDBRANCH   9  10
ENDBRANCH   8   9
ENDBRANCH   7   8
ENDBRANCH   6   7
ENDBRANCH   5   6
ENDBRANCH   4   5
ENDBRANCH   3   4
ENDBRANCH   2   3
TORSDOF 34
ENDMDL
MODEL      125
REMARK 921   NORMALIZED FREE ENERGY PREDICTED BY IDOCK:   -2.93 KCAL/MOL
REMARK 922        TOTAL FREE ENERGY PREDICTED BY IDOCK:  -15.07 KCAL/MOL
REMARK 923 INTER-LIGAND FREE ENERGY PREDICTED BY IDOCK:   -9.84 KCAL/MOL
REMARK 924 INTRA-LIGAND FREE ENERGY PREDICTED BY IDOCK:   -5.23 KCAL/MOL
REMARK 927      BINDING AFFINITY PREDICTED BY RF-SCORE:    0.00 PKD
ROOT
HETATM    1  C   UNL     1      -6.670  14.510  68.497  1.00  0.00    -0.096 C  
HETATM    2  C   UNL     1      -7.671  13.369  68.456  1.00  0.00    -0.124 C  
ENDROOT
BRANCH   2   3
HETATM    3  C   UNL     1      -8.748  13.625  67.413  1.00  0.00    -0.214 C  
BRANCH   3   4
HETATM    4  C   UNL     1     -10.130  13.257  67.948  1.00  0.00    -0.235 C  
BRANCH   4   5
HETATM    5  C   UNL     1     -10.530  14.186  69.087  1.00  0.00    -0.143 C  
BRANCH   5   6
HETATM    6  C   UNL     1     -11.573  15.190  68.618  1.00  0.00    -0.358 C  
BRANCH   6   7
HETATM    7  C   UNL     1     -11.152  16.602  68.999  1.00  0.00    -0.234 C  
BRANCH   7   8
HETATM    8  C   UNL     1      -9.645  16.667  69.189  1.00  0.00    -0.208 C  
BRANCH   8   9
HETATM    9  C   UNL     1      -9.103  17.974  68.635  1.00  0.00    -0.276 C  
BRANCH   9  10
HETATM   10  C   UNL     1     -10.180  19.041  68.681  1.00  0.00    -0.379 C  
BRANCH  10  11
HETATM   11  C   UNL     1     -10.402  19.623  67.297  1.00  0.00    -0.577 C  
BRANCH  11  12
HETATM   12  C   UNL     1      -9.734  18.737  66.264  1.00  0.00    -0.354 C  
BRANCH  12  13
HETATM   13  C   UNL     1     -10.779  18.033  65.425  1.00  0.00     0.156 C  
BRANCH  13  14
HETATM   14  C   UNL     1     -10.583  16.531  65.524  1.00  0.00    -0.310 C  
BRANCH  14  15
HETATM   15  C   UNL     1     -11.244  15.867  64.338  1.00  0.00    -0.242 C  
BRANCH  15  16
HETATM   16  C   UNL     1     -12.384  14.967  64.784  1.00  0.00    -0.241 C  
BRANCH  16  17
HETATM   17  C   UNL     1     -11.777  13.652  65.237  1.00  0.00    -0.349 C  
BRANCH  17  18
HETATM   18  C   UNL     1     -10.654  13.209  64.318  1.00  0.00    -0.412 C  
BRANCH  18  19
HETATM   19  N   UNL     1     -10.887  11.791  63.756  1.00  0.00    -0.385 N  
HETATM   20  C   UNL     1     -12.280  11.688  63.127  1.00  0.00    -0.033 C  
HETATM   21  C   UNL     1      -9.820  11.450  62.713  1.00  0.00    -0.172 C  
BRANCH  19  22
HETATM   22  C   UNL     1     -10.775  10.843  64.970  1.00  0.00    -0.146 C  
BRANCH  22  23
HETATM   23  C   UNL     1      -9.500  10.025  64.942  1.00  0.00    -0.355 C  
BRANCH  23  24
HETATM   24  C   UNL     1      -8.494  10.521  65.964  1.00  0.00    -0.157 C  
BRANCH  24  25
HETATM   25  C   UNL     1      -7.954   9.308  66.701  1.00  0.00    -0.108 C  
BRANCH  25  26
HETATM   26  C   UNL     1      -8.521   8.030  66.128  1.00  0.00    -0.141 C  
BRANCH  26  27
HETATM   27  C   UNL     1      -9.177   7.231  67.241  1.00  0.00    -0.148 C  
BRANCH  27  28
HETATM   28  C   UNL     1     -10.649   7.579  67.315  1.00  0.00    -0.394 C  
BRANCH  28  29
HETATM   29  C   UNL     1     -11.014   8.001  68.724  1.00  0.00     0.140 C  
BRANCH  29  30
HETATM   30  C   UNL     1     -11.593   6.816  69.473  1.00  0.00    -0.183 C  
BRANCH  30  31
HETATM   31  C   UNL     1     -11.327   6.948  70.959  1.00  0.00    -0.342 C  
BRANCH  31  32
HETATM   32  C   UNL     1     -11.471   8.397  71.385  1.00  0.00    -0.328 C  
BRANCH  32  33
HETATM   33  C   UNL     1     -12.679   8.559  72.293  1.00  0.00    -0.420 C  
BRANCH  33  34
HETATM   34  C   UNL     1     -13.471   9.796  71.900  1.00  0.00    -0.485 C  
BRANCH  34  35
HETATM   35  C   UNL     1     -12.803  10.500  70.727  1.00  0.00    -0.454 C  
BRANCH  35  36
HETATM   36  C   UNL     1     -12.354  11.900  71.125  1.00  0.00    -0.303 C  
BRANCH  36  37
HETATM   37  C   UNL     1     -13.491  12.650  71.812  1.00  0.00    -0.313 C  
BRANCH  37  38
HETATM   38  C   UNL     1     -13.137  14.120  72.006  1.00  0.00    -0.472 C  
HETATM   39  C   UNL     1     -12.410  14.336  73.322  1.00  0.00    -0.050 C  
ENDBRANCH  37  38
ENDBRANCH  36  37
ENDBRANCH  35  36
ENDBRANCH  34  35
ENDBRANCH  33  34
ENDBRANCH  32  33
ENDBRANCH  31  32
ENDBRANCH  30  31
ENDBRANCH  29  30
ENDBRANCH  28  29
ENDBRANCH  27  28
ENDBRANCH  26  27
ENDBRANCH  25  26
ENDBRANCH  24  25
ENDBRANCH  23  24
ENDBRANCH  22  23
ENDBRANCH  19  22
ENDBRANCH  18  19
ENDBRANCH  17  18
ENDBRANCH  16  17
ENDBRANCH  15  16
ENDBRANCH  14  15
ENDBRANCH  13  14
ENDBRANCH  12  13
ENDBRANCH  11  12
ENDBRANCH  10  11
ENDBRANCH   9  10
ENDBRANCH   8   9
ENDBRANCH   7   8
ENDBRANCH   6   7
ENDBRANCH   5   6
ENDBRANCH   4   5
ENDBRANCH   3   4
ENDBRANCH   2   3
TORSDOF 34
ENDMDL
MODEL      126
REMARK 921   NORMALIZED FREE ENERGY PREDICTED BY IDOCK:   -2.91 KCAL/MOL
REMARK 922        TOTAL FREE ENERGY PREDICTED BY IDOCK:  -15.03 KCAL/MOL
REMARK 923 INTER-LIGAND FREE ENERGY PREDICTED BY IDOCK:  -10.36 KCAL/MOL
REMARK 924 INTRA-LIGAND FREE ENERGY PREDICTED BY IDOCK:   -4.67 KCAL/MOL
REMARK 927      BINDING AFFINITY PREDICTED BY RF-SCORE:    0.00 PKD
ROOT
HETATM    1  C   UNL     1      -6.925  15.641  67.468  1.00  0.00    -0.218 C  
HETATM    2  C   UNL     1      -7.272  16.426  68.721  1.00  0.00    -0.191 C  
ENDROOT
BRANCH   2   3
HETATM    3  C   UNL     1      -6.511  17.743  68.769  1.00  0.00    -0.225 C  
BRANCH   3   4
HETATM    4  C   UNL     1      -6.776  18.577  67.518  1.00  0.00    -0.203 C  
BRANCH   4   5
HETATM    5  C   UNL     1      -7.373  19.928  67.889  1.00  0.00    -0.326 C  
BRANCH   5   6
HETATM    6  C   UNL     1      -8.884  19.914  67.703  1.00  0.00    -0.406 C  
BRANCH   6   7
HETATM    7  C   UNL     1      -9.231  19.802  66.226  1.00  0.00    -0.461 C  
BRANCH   7   8
HETATM    8  C   UNL     1     -10.500  18.986  66.045  1.00  0.00    -0.530 C  
BRANCH   8   9
HETATM    9  C   UNL     1     -10.464  17.755  66.936  1.00  0.00    -0.308 C  
BRANCH   9  10
HETATM   10  C   UNL     1     -10.056  16.541  66.122  1.00  0.00    -0.365 C  
BRANCH  10  11
HETATM   11  C   UNL     1     -10.995  16.357  64.945  1.00  0.00    -0.277 C  
BRANCH  11  12
HETATM   12  C   UNL     1     -11.163  14.877  64.661  1.00  0.00    -0.349 C  
BRANCH  12  13
HETATM   13  C   UNL     1     -12.199  14.280  65.591  1.00  0.00    -0.409 C  
BRANCH  13  14
HETATM   14  C   UNL     1     -12.527  12.867  65.147  1.00  0.00    -0.561 C  
BRANCH  14  15
HETATM   15  C   UNL     1     -11.401  11.945  65.557  1.00  0.00    -0.334 C  
BRANCH  15  16
HETATM   16  C   UNL     1     -11.064  12.120  67.028  1.00  0.00    -0.347 C  
BRANCH  16  17
HETATM   17  C   UNL     1     -11.490  10.854  67.747  1.00  0.00    -0.323 C  
BRANCH  17  18
HETATM   18  C   UNL     1     -10.415   9.785  67.680  1.00  0.00    -0.251 C  
BRANCH  18  19
HETATM   19  N   UNL     1      -9.776   9.515  69.059  1.00  0.00    -0.165 N  
HETATM   20  C   UNL     1      -8.412  10.203  69.159  1.00  0.00    -0.156 C  
HETATM   21  C   UNL     1     -10.693  10.014  70.178  1.00  0.00    -0.307 C  
BRANCH  19  22
HETATM   22  C   UNL     1      -9.611   7.981  69.142  1.00  0.00    -0.156 C  
BRANCH  22  23
HETATM   23  C   UNL     1     -10.871   7.246  68.731  1.00  0.00    -0.121 C  
BRANCH  23  24
HETATM   24  C   UNL     1     -11.173   6.088  69.664  1.00  0.00    -0.428 C  
BRANCH  24  25
HETATM   25  C   UNL     1     -12.011   6.630  70.809  1.00  0.00    -0.412 C  
BRANCH  25  26
HETATM   26  C   UNL     1     -11.455   6.191  72.144  1.00  0.00    -0.361 C  
BRANCH  26  27
HETATM   27  C   UNL     1     -11.265   7.408  73.031  1.00  0.00    -0.345 C  
BRANCH  27  28
HETATM   28  C   UNL     1      -9.919   7.329  73.721  1.00  0.00    -0.368 C  
BRANCH  28  29
HETATM   29  C   UNL     1      -8.883   8.103  72.931  1.00  0.00    -0.307 C  
BRANCH  29  30
HETATM   30  C   UNL     1      -7.495   7.721  73.408  1.00  0.00    -0.144 C  
BRANCH  30  31
HETATM   31  C   UNL     1      -7.482   6.291  73.909  1.00  0.00    -0.086 C  
BRANCH  31  32
HETATM   32  C   UNL     1      -6.415   5.496  73.181  1.00  0.00    -0.066 C  
BRANCH  32  33
HETATM   33  C   UNL     1      -6.967   4.148  72.749  1.00  0.00    -0.057 C  
BRANCH  33  34
HETATM   34  C   UNL     1      -8.457   4.069  73.045  1.00  0.00    -0.093 C  
BRANCH  34  35
HETATM   35  C   UNL     1      -9.067   2.853  72.362  1.00  0.00    -0.136 C  
BRANCH  35  36
HETATM   36  C   UNL     1      -9.684   3.241  71.024  1.00  0.00    -0.199 C  
BRANCH  36  37
HETATM   37  C   UNL     1      -8.972   2.527  69.880  1.00  0.00    -0.161 C  
BRANCH  37  38
HETATM   38  C   UNL     1      -8.709   3.480  68.720  1.00  0.00    -0.140 C  
HETATM   39  C   UNL     1      -7.880   4.670  69.172  1.00  0.00    -0.070 C  
ENDBRANCH  37  38
ENDBRANCH  36  37
ENDBRANCH  35  36
ENDBRANCH  34  35
ENDBRANCH  33  34
ENDBRANCH  32  33
ENDBRANCH  31  32
ENDBRANCH  30  31
ENDBRANCH  29  30
ENDBRANCH  28  29
ENDBRANCH  27  28
ENDBRANCH  26  27
ENDBRANCH  25  26
ENDBRANCH  24  25
ENDBRANCH  23  24
ENDBRANCH  22  23
ENDBRANCH  19  22
ENDBRANCH  18  19
ENDBRANCH  17  18
ENDBRANCH  16  17
ENDBRANCH  15  16
ENDBRANCH  14  15
ENDBRANCH  13  14
ENDBRANCH  12  13
ENDBRANCH  11  12
ENDBRANCH  10  11
ENDBRANCH   9  10
ENDBRANCH   8   9
ENDBRANCH   7   8
ENDBRANCH   6   7
ENDBRANCH   5   6
ENDBRANCH   4   5
ENDBRANCH   3   4
ENDBRANCH   2   3
TORSDOF 34
ENDMDL
MODEL      127
REMARK 921   NORMALIZED FREE ENERGY PREDICTED BY IDOCK:   -2.91 KCAL/MOL
REMARK 922        TOTAL FREE ENERGY PREDICTED BY IDOCK:  -15.01 KCAL/MOL
REMARK 923 INTER-LIGAND FREE ENERGY PREDICTED BY IDOCK:   -9.48 KCAL/MOL
REMARK 924 INTRA-LIGAND FREE ENERGY PREDICTED BY IDOCK:   -5.53 KCAL/MOL
REMARK 927      BINDING AFFINITY PREDICTED BY RF-SCORE:    0.00 PKD
ROOT
HETATM    1  C   UNL     1      -9.233   3.321  69.250  1.00  0.00    -0.218 C  
HETATM    2  C   UNL     1      -9.525   3.703  67.810  1.00  0.00    -0.231 C  
ENDROOT
BRANCH   2   3
HETATM    3  C   UNL     1     -10.186   5.071  67.731  1.00  0.00    -0.156 C  
BRANCH   3   4
HETATM    4  C   UNL     1      -9.260   6.161  68.264  1.00  0.00    -0.114 C  
BRANCH   4   5
HETATM    5  C   UNL     1      -8.252   6.576  67.200  1.00  0.00    -0.113 C  
BRANCH   5   6
HETATM    6  C   UNL     1      -8.966   7.038  65.937  1.00  0.00    -0.092 C  
BRANCH   6   7
HETATM    7  C   UNL     1      -8.262   6.489  64.705  1.00  0.00    -0.052 C  
BRANCH   7   8
HETATM    8  C   UNL     1      -8.174   7.560  63.630  1.00  0.00     0.060 C  
BRANCH   8   9
HETATM    9  C   UNL     1      -7.114   8.585  63.996  1.00  0.00    -0.090 C  
BRANCH   9  10
HETATM   10  C   UNL     1      -7.695   9.983  63.905  1.00  0.00    -0.145 C  
BRANCH  10  11
HETATM   11  C   UNL     1      -8.789  10.031  62.855  1.00  0.00    -0.238 C  
BRANCH  11  12
HETATM   12  C   UNL     1      -9.917  10.920  63.342  1.00  0.00    -0.414 C  
BRANCH  12  13
HETATM   13  C   UNL     1      -9.948  10.942  64.856  1.00  0.00    -0.361 C  
BRANCH  13  14
HETATM   14  C   UNL     1     -11.074  11.843  65.328  1.00  0.00    -0.354 C  
BRANCH  14  15
HETATM   15  C   UNL     1     -10.874  12.159  66.793  1.00  0.00    -0.289 C  
BRANCH  15  16
HETATM   16  C   UNL     1      -9.999  13.388  66.970  1.00  0.00    -0.246 C  
BRANCH  16  17
HETATM   17  C   UNL     1      -8.983  13.073  68.051  1.00  0.00    -0.199 C  
BRANCH  17  18
HETATM   18  C   UNL     1      -8.985  11.598  68.408  1.00  0.00    -0.176 C  
BRANCH  18  19
HETATM   19  N   UNL     1      -7.559  11.049  68.625  1.00  0.00    -0.115 N  
HETATM   20  C   UNL     1      -7.215  10.017  67.547  1.00  0.00    -0.089 C  
HETATM   21  C   UNL     1      -6.539  12.190  68.596  1.00  0.00    -0.077 C  
BRANCH  19  22
HETATM   22  C   UNL     1      -7.582  10.383  70.018  1.00  0.00    -0.033 C  
BRANCH  22  23
HETATM   23  C   UNL     1      -8.780   9.471  70.197  1.00  0.00    -0.258 C  
BRANCH  23  24
HETATM   24  C   UNL     1      -8.431   8.244  71.019  1.00  0.00    -0.150 C  
BRANCH  24  25
HETATM   25  C   UNL     1      -8.930   8.486  72.433  1.00  0.00    -0.284 C  
BRANCH  25  26
HETATM   26  C   UNL     1      -9.261   7.182  73.121  1.00  0.00    -0.179 C  
BRANCH  26  27
HETATM   27  C   UNL     1      -9.315   6.071  72.088  1.00  0.00    -0.155 C  
BRANCH  27  28
HETATM   28  C   UNL     1     -10.674   5.404  72.129  1.00  0.00    -0.286 C  
BRANCH  28  29
HETATM   29  C   UNL     1     -11.653   6.162  71.254  1.00  0.00    -0.271 C  
BRANCH  29  30
HETATM   30  C   UNL     1     -12.873   6.539  72.071  1.00  0.00    -0.092 C  
BRANCH  30  31
HETATM   31  C   UNL     1     -13.538   7.771  71.492  1.00  0.00    -0.391 C  
BRANCH  31  32
HETATM   32  C   UNL     1     -13.274   8.971  72.382  1.00  0.00    -0.507 C  
BRANCH  32  33
HETATM   33  C   UNL     1     -12.297   9.919  71.708  1.00  0.00    -0.456 C  
BRANCH  33  34
HETATM   34  C   UNL     1     -13.048  11.050  71.022  1.00  0.00    -0.257 C  
BRANCH  34  35
HETATM   35  C   UNL     1     -12.076  12.129  70.565  1.00  0.00    -0.383 C  
BRANCH  35  36
HETATM   36  C   UNL     1     -12.646  13.515  70.834  1.00  0.00    -0.414 C  
BRANCH  36  37
HETATM   37  C   UNL     1     -13.587  13.482  72.034  1.00  0.00    -0.589 C  
BRANCH  37  38
HETATM   38  C   UNL     1     -13.516  14.786  72.820  1.00  0.00    -0.572 C  
HETATM   39  C   UNL     1     -12.190  14.909  73.551  1.00  0.00    -0.490 C  
ENDBRANCH  37  38
ENDBRANCH  36  37
ENDBRANCH  35  36
ENDBRANCH  34  35
ENDBRANCH  33  34
ENDBRANCH  32  33
ENDBRANCH  31  32
ENDBRANCH  30  31
ENDBRANCH  29  30
ENDBRANCH  28  29
ENDBRANCH  27  28
ENDBRANCH  26  27
ENDBRANCH  25  26
ENDBRANCH  24  25
ENDBRANCH  23  24
ENDBRANCH  22  23
ENDBRANCH  19  22
ENDBRANCH  18  19
ENDBRANCH  17  18
ENDBRANCH  16  17
ENDBRANCH  15  16
ENDBRANCH  14  15
ENDBRANCH  13  14
ENDBRANCH  12  13
ENDBRANCH  11  12
ENDBRANCH  10  11
ENDBRANCH   9  10
ENDBRANCH   8   9
ENDBRANCH   7   8
ENDBRANCH   6   7
ENDBRANCH   5   6
ENDBRANCH   4   5
ENDBRANCH   3   4
ENDBRANCH   2   3
TORSDOF 34
ENDMDL
MODEL      128
REMARK 921   NORMALIZED FREE ENERGY PREDICTED BY IDOCK:   -2.90 KCAL/MOL
REMARK 922        TOTAL FREE ENERGY PREDICTED BY IDOCK:  -14.98 KCAL/MOL
REMARK 923 INTER-LIGAND FREE ENERGY PREDICTED BY IDOCK:   -9.81 KCAL/MOL
REMARK 924 INTRA-LIGAND FREE ENERGY PREDICTED BY IDOCK:   -5.17 KCAL/MOL
REMARK 927      BINDING AFFINITY PREDICTED BY RF-SCORE:    0.00 PKD
ROOT
HETATM    1  C   UNL     1      -9.262  19.271  66.791  1.00  0.00    -0.367 C  
HETATM    2  C   UNL     1     -10.307  18.271  67.255  1.00  0.00    -0.407 C  
ENDROOT
BRANCH   2   3
HETATM    3  C   UNL     1      -9.994  17.762  68.654  1.00  0.00    -0.379 C  
BRANCH   3   4
HETATM    4  C   UNL     1     -10.074  16.239  68.715  1.00  0.00    -0.243 C  
BRANCH   4   5
HETATM    5  C   UNL     1     -11.493  15.788  69.037  1.00  0.00    -0.394 C  
BRANCH   5   6
HETATM    6  C   UNL     1     -11.850  14.538  68.245  1.00  0.00    -0.347 C  
BRANCH   6   7
HETATM    7  C   UNL     1     -10.739  14.207  67.258  1.00  0.00    -0.279 C  
BRANCH   7   8
HETATM    8  C   UNL     1     -11.091  14.734  65.876  1.00  0.00    -0.340 C  
BRANCH   8   9
HETATM    9  C   UNL     1     -12.502  14.319  65.499  1.00  0.00    -0.434 C  
BRANCH   9  10
HETATM   10  C   UNL     1     -12.514  12.865  65.063  1.00  0.00    -0.553 C  
BRANCH  10  11
HETATM   11  C   UNL     1     -12.219  12.759  63.579  1.00  0.00    -0.613 C  
BRANCH  11  12
HETATM   12  C   UNL     1     -10.814  12.223  63.381  1.00  0.00    -0.457 C  
BRANCH  12  13
HETATM   13  C   UNL     1     -10.624  10.950  64.179  1.00  0.00    -0.327 C  
BRANCH  13  14
HETATM   14  C   UNL     1      -9.436  11.106  65.110  1.00  0.00    -0.257 C  
BRANCH  14  15
HETATM   15  C   UNL     1      -9.691  10.316  66.374  1.00  0.00    -0.252 C  
BRANCH  15  16
HETATM   16  C   UNL     1      -9.751   8.826  66.081  1.00  0.00    -0.320 C  
BRANCH  16  17
HETATM   17  C   UNL     1      -8.372   8.397  65.618  1.00  0.00    -0.160 C  
BRANCH  17  18
HETATM   18  C   UNL     1      -7.827   7.261  66.465  1.00  0.00    -0.109 C  
BRANCH  18  19
HETATM   19  N   UNL     1      -6.450   7.599  67.075  1.00  0.00    -0.053 N  
HETATM   20  C   UNL     1      -5.622   8.435  66.094  1.00  0.00    -0.039 C  
HETATM   21  C   UNL     1      -6.622   8.360  68.390  1.00  0.00    -0.060 C  
BRANCH  19  22
HETATM   22  C   UNL     1      -5.766   6.236  67.327  1.00  0.00    -0.013 C  
BRANCH  22  23
HETATM   23  C   UNL     1      -6.697   5.244  67.995  1.00  0.00    -0.055 C  
BRANCH  23  24
HETATM   24  C   UNL     1      -5.974   4.415  69.040  1.00  0.00    -0.022 C  
BRANCH  24  25
HETATM   25  C   UNL     1      -6.935   3.339  69.514  1.00  0.00    -0.041 C  
BRANCH  25  26
HETATM   26  C   UNL     1      -7.036   3.328  71.022  1.00  0.00    -0.033 C  
BRANCH  26  27
HETATM   27  C   UNL     1      -8.439   2.913  71.427  1.00  0.00    -0.092 C  
BRANCH  27  28
HETATM   28  C   UNL     1      -9.429   3.386  70.383  1.00  0.00    -0.245 C  
BRANCH  28  29
HETATM   29  C   UNL     1      -9.992   4.739  70.774  1.00  0.00    -0.291 C  
BRANCH  29  30
HETATM   30  C   UNL     1      -9.806   5.713  69.627  1.00  0.00    -0.243 C  
BRANCH  30  31
HETATM   31  C   UNL     1     -10.975   6.675  69.555  1.00  0.00    -0.367 C  
BRANCH  31  32
HETATM   32  C   UNL     1     -10.468   8.090  69.349  1.00  0.00    -0.223 C  
BRANCH  32  33
HETATM   33  C   UNL     1     -10.451   8.838  70.672  1.00  0.00    -0.253 C  
BRANCH  33  34
HETATM   34  C   UNL     1     -11.541   8.310  71.591  1.00  0.00    -0.337 C  
BRANCH  34  35
HETATM   35  C   UNL     1     -10.934   7.801  72.891  1.00  0.00    -0.467 C  
BRANCH  35  36
HETATM   36  C   UNL     1      -9.491   8.268  73.029  1.00  0.00    -0.298 C  
BRANCH  36  37
HETATM   37  C   UNL     1      -8.728   7.369  73.997  1.00  0.00    -0.266 C  
BRANCH  37  38
HETATM   38  C   UNL     1      -7.795   6.426  73.246  1.00  0.00    -0.097 C  
HETATM   39  C   UNL     1      -7.298   7.063  71.960  1.00  0.00    -0.082 C  
ENDBRANCH  37  38
ENDBRANCH  36  37
ENDBRANCH  35  36
ENDBRANCH  34  35
ENDBRANCH  33  34
ENDBRANCH  32  33
ENDBRANCH  31  32
ENDBRANCH  30  31
ENDBRANCH  29  30
ENDBRANCH  28  29
ENDBRANCH  27  28
ENDBRANCH  26  27
ENDBRANCH  25  26
ENDBRANCH  24  25
ENDBRANCH  23  24
ENDBRANCH  22  23
ENDBRANCH  19  22
ENDBRANCH  18  19
ENDBRANCH  17  18
ENDBRANCH  16  17
ENDBRANCH  15  16
ENDBRANCH  14  15
ENDBRANCH  13  14
ENDBRANCH  12  13
ENDBRANCH  11  12
ENDBRANCH  10  11
ENDBRANCH   9  10
ENDBRANCH   8   9
ENDBRANCH   7   8
ENDBRANCH   6   7
ENDBRANCH   5   6
ENDBRANCH   4   5
ENDBRANCH   3   4
ENDBRANCH   2   3
TORSDOF 34
ENDMDL
MODEL      129
REMARK 921   NORMALIZED FREE ENERGY PREDICTED BY IDOCK:   -2.89 KCAL/MOL
REMARK 922        TOTAL FREE ENERGY PREDICTED BY IDOCK:  -14.95 KCAL/MOL
REMARK 923 INTER-LIGAND FREE ENERGY PREDICTED BY IDOCK:   -9.95 KCAL/MOL
REMARK 924 INTRA-LIGAND FREE ENERGY PREDICTED BY IDOCK:   -4.99 KCAL/MOL
REMARK 927      BINDING AFFINITY PREDICTED BY RF-SCORE:    0.00 PKD
ROOT
HETATM    1  C   UNL     1      -7.115   9.259  69.120  1.00  0.00    -0.062 C  
HETATM    2  C   UNL     1      -8.051  10.314  68.557  1.00  0.00    -0.109 C  
ENDROOT
BRANCH   2   3
HETATM    3  C   UNL     1      -7.637  11.708  69.006  1.00  0.00    -0.027 C  
BRANCH   3   4
HETATM    4  C   UNL     1      -8.173  12.774  68.055  1.00  0.00    -0.168 C  
BRANCH   4   5
HETATM    5  C   UNL     1      -9.680  12.629  67.880  1.00  0.00    -0.216 C  
BRANCH   5   6
HETATM    6  C   UNL     1     -10.183  13.564  66.789  1.00  0.00    -0.264 C  
BRANCH   6   7
HETATM    7  C   UNL     1      -9.041  14.421  66.264  1.00  0.00    -0.130 C  
BRANCH   7   8
HETATM    8  C   UNL     1      -9.346  15.894  66.485  1.00  0.00    -0.306 C  
BRANCH   8   9
HETATM    9  C   UNL     1     -10.800  16.075  66.885  1.00  0.00    -0.203 C  
BRANCH   9  10
HETATM   10  C   UNL     1     -10.881  16.722  68.256  1.00  0.00    -0.366 C  
BRANCH  10  11
HETATM   11  C   UNL     1     -11.861  15.968  69.136  1.00  0.00    -0.268 C  
BRANCH  11  12
HETATM   12  C   UNL     1     -11.141  15.455  70.367  1.00  0.00    -0.351 C  
BRANCH  12  13
HETATM   13  C   UNL     1     -11.914  15.824  71.616  1.00  0.00    -0.527 C  
BRANCH  13  14
HETATM   14  C   UNL     1     -13.246  15.098  71.624  1.00  0.00    -0.496 C  
BRANCH  14  15
HETATM   15  C   UNL     1     -13.015  13.638  71.305  1.00  0.00    -0.399 C  
BRANCH  15  16
HETATM   16  C   UNL     1     -13.745  12.743  72.293  1.00  0.00    -0.495 C  
BRANCH  16  17
HETATM   17  C   UNL     1     -13.371  11.309  71.973  1.00  0.00    -0.386 C  
BRANCH  17  18
HETATM   18  C   UNL     1     -12.148  11.237  71.077  1.00  0.00    -0.230 C  
BRANCH  18  19
HETATM   19  N   UNL     1     -11.755   9.782  70.745  1.00  0.00    -0.306 N  
HETATM   20  C   UNL     1     -11.776   9.556  69.230  1.00  0.00     0.468 C  
HETATM   21  C   UNL     1     -10.363   9.468  71.297  1.00  0.00    -0.217 C  
BRANCH  19  22
HETATM   22  C   UNL     1     -12.819   8.900  71.434  1.00  0.00    -0.289 C  
BRANCH  22  23
HETATM   23  C   UNL     1     -12.197   7.780  72.244  1.00  0.00    -0.298 C  
BRANCH  23  24
HETATM   24  C   UNL     1     -12.122   6.490  71.449  1.00  0.00    -0.344 C  
BRANCH  24  25
HETATM   25  C   UNL     1     -10.759   5.873  71.706  1.00  0.00    -0.299 C  
BRANCH  25  26
HETATM   26  C   UNL     1     -10.254   5.145  70.482  1.00  0.00    -0.330 C  
BRANCH  26  27
HETATM   27  C   UNL     1      -9.949   6.154  69.389  1.00  0.00    -0.205 C  
BRANCH  27  28
HETATM   28  C   UNL     1     -10.832   5.886  68.189  1.00  0.00    -0.323 C  
BRANCH  28  29
HETATM   29  C   UNL     1      -9.991   5.809  66.930  1.00  0.00    -0.200 C  
BRANCH  29  30
HETATM   30  C   UNL     1      -9.261   7.122  66.729  1.00  0.00    -0.188 C  
BRANCH  30  31
HETATM   31  C   UNL     1      -7.812   6.873  66.363  1.00  0.00    -0.103 C  
BRANCH  31  32
HETATM   32  C   UNL     1      -7.634   6.967  64.859  1.00  0.00    -0.106 C  
BRANCH  32  33
HETATM   33  C   UNL     1      -8.213   8.274  64.343  1.00  0.00    -0.130 C  
BRANCH  33  34
HETATM   34  C   UNL     1      -7.608   9.451  65.092  1.00  0.00    -0.108 C  
BRANCH  34  35
HETATM   35  C   UNL     1      -8.591  10.612  65.133  1.00  0.00    -0.173 C  
BRANCH  35  36
HETATM   36  C   UNL     1      -9.870  10.261  64.383  1.00  0.00    -0.374 C  
BRANCH  36  37
HETATM   37  C   UNL     1     -10.325  11.435  63.523  1.00  0.00    -0.476 C  
BRANCH  37  38
HETATM   38  C   UNL     1     -11.672  11.970  63.997  1.00  0.00    -0.498 C  
HETATM   39  C   UNL     1     -11.858  13.419  63.582  1.00  0.00    -0.451 C  
ENDBRANCH  37  38
ENDBRANCH  36  37
ENDBRANCH  35  36
ENDBRANCH  34  35
ENDBRANCH  33  34
ENDBRANCH  32  33
ENDBRANCH  31  32
ENDBRANCH  30  31
ENDBRANCH  29  30
ENDBRANCH  28  29
ENDBRANCH  27  28
ENDBRANCH  26  27
ENDBRANCH  25  26
ENDBRANCH  24  25
ENDBRANCH  23  24
ENDBRANCH  22  23
ENDBRANCH  19  22
ENDBRANCH  18  19
ENDBRANCH  17  18
ENDBRANCH  16  17
ENDBRANCH  15  16
ENDBRANCH  14  15
ENDBRANCH  13  14
ENDBRANCH  12  13
ENDBRANCH  11  12
ENDBRANCH  10  11
ENDBRANCH   9  10
ENDBRANCH   8   9
ENDBRANCH   7   8
ENDBRANCH   6   7
ENDBRANCH   5   6
ENDBRANCH   4   5
ENDBRANCH   3   4
ENDBRANCH   2   3
TORSDOF 34
ENDMDL
MODEL      130
REMARK 921   NORMALIZED FREE ENERGY PREDICTED BY IDOCK:   -2.82 KCAL/MOL
REMARK 922        TOTAL FREE ENERGY PREDICTED BY IDOCK:  -14.76 KCAL/MOL
REMARK 923 INTER-LIGAND FREE ENERGY PREDICTED BY IDOCK:   -9.76 KCAL/MOL
REMARK 924 INTRA-LIGAND FREE ENERGY PREDICTED BY IDOCK:   -5.00 KCAL/MOL
REMARK 927      BINDING AFFINITY PREDICTED BY RF-SCORE:    0.00 PKD
ROOT
HETATM    1  C   UNL     1      -8.094   4.485  72.464  1.00  0.00    -0.101 C  
HETATM    2  C   UNL     1      -9.315   4.312  71.578  1.00  0.00    -0.203 C  
ENDROOT
BRANCH   2   3
HETATM    3  C   UNL     1      -9.348   5.368  70.482  1.00  0.00    -0.200 C  
BRANCH   3   4
HETATM    4  C   UNL     1     -10.765   5.558  69.947  1.00  0.00    -0.358 C  
BRANCH   4   5
HETATM    5  C   UNL     1     -11.324   6.910  70.373  1.00  0.00    -0.376 C  
BRANCH   5   6
HETATM    6  C   UNL     1     -12.143   6.771  71.649  1.00  0.00    -0.404 C  
BRANCH   6   7
HETATM    7  C   UNL     1     -13.381   7.653  71.577  1.00  0.00    -0.383 C  
BRANCH   7   8
HETATM    8  C   UNL     1     -13.027   9.085  71.943  1.00  0.00    -0.451 C  
BRANCH   8   9
HETATM    9  C   UNL     1     -13.074   9.970  70.709  1.00  0.00    -0.316 C  
BRANCH   9  10
HETATM   10  C   UNL     1     -12.572  11.360  71.051  1.00  0.00    -0.487 C  
BRANCH  10  11
HETATM   11  C   UNL     1     -13.378  11.945  72.196  1.00  0.00    -0.361 C  
BRANCH  11  12
HETATM   12  C   UNL     1     -13.252  13.456  72.182  1.00  0.00    -0.557 C  
BRANCH  12  13
HETATM   13  C   UNL     1     -12.516  13.907  70.938  1.00  0.00    -0.447 C  
BRANCH  13  14
HETATM   14  C   UNL     1     -11.911  15.279  71.174  1.00  0.00    -0.399 C  
BRANCH  14  15
HETATM   15  C   UNL     1     -10.793  15.504  70.181  1.00  0.00    -0.346 C  
BRANCH  15  16
HETATM   16  C   UNL     1     -11.312  16.184  68.925  1.00  0.00    -0.350 C  
BRANCH  16  17
HETATM   17  C   UNL     1     -10.253  17.170  68.469  1.00  0.00    -0.346 C  
BRANCH  17  18
HETATM   18  C   UNL     1      -8.853  16.623  68.680  1.00  0.00    -0.249 C  
BRANCH  18  19
HETATM   19  N   UNL     1      -8.134  16.333  67.346  1.00  0.00    -0.148 N  
HETATM   20  C   UNL     1      -9.155  16.117  66.225  1.00  0.00    -0.338 C  
HETATM   21  C   UNL     1      -7.200  17.490  66.981  1.00  0.00    -0.181 C  
BRANCH  19  22
HETATM   22  C   UNL     1      -7.322  15.042  67.588  1.00  0.00    -0.188 C  
BRANCH  22  23
HETATM   23  C   UNL     1      -7.424  14.562  69.022  1.00  0.00    -0.131 C  
BRANCH  23  24
HETATM   24  C   UNL     1      -6.055  14.386  69.652  1.00  0.00    -0.119 C  
BRANCH  24  25
HETATM   25  C   UNL     1      -5.473  13.086  69.124  1.00  0.00    -0.071 C  
BRANCH  25  26
HETATM   26  C   UNL     1      -6.393  11.923  69.414  1.00  0.00    -0.115 C  
BRANCH  26  27
HETATM   27  C   UNL     1      -5.859  11.149  70.606  1.00  0.00    -0.103 C  
BRANCH  27  28
HETATM   28  C   UNL     1      -5.435   9.764  70.164  1.00  0.00    -0.041 C  
BRANCH  28  29
HETATM   29  C   UNL     1      -6.112   9.405  68.856  1.00  0.00    -0.043 C  
BRANCH  29  30
HETATM   30  C   UNL     1      -6.589   7.967  68.912  1.00  0.00    -0.052 C  
BRANCH  30  31
HETATM   31  C   UNL     1      -5.862   7.127  67.880  1.00  0.00    -0.026 C  
BRANCH  31  32
HETATM   32  C   UNL     1      -6.865   6.442  66.971  1.00  0.00    -0.066 C  
BRANCH  32  33
HETATM   33  C   UNL     1      -8.019   7.380  66.661  1.00  0.00    -0.121 C  
BRANCH  33  34
HETATM   34  C   UNL     1      -9.347   6.668  66.867  1.00  0.00    -0.171 C  
BRANCH  34  35
HETATM   35  C   UNL     1     -10.473   7.683  67.010  1.00  0.00    -0.419 C  
BRANCH  35  36
HETATM   36  C   UNL     1      -9.928   9.103  66.946  1.00  0.00    -0.304 C  
BRANCH  36  37
HETATM   37  C   UNL     1     -10.776  10.040  67.800  1.00  0.00    -0.333 C  
BRANCH  37  38
HETATM   38  C   UNL     1      -9.914  10.796  68.804  1.00  0.00    -0.201 C  
HETATM   39  C   UNL     1      -9.451   9.878  69.922  1.00  0.00    -0.256 C  
ENDBRANCH  37  38
ENDBRANCH  36  37
ENDBRANCH  35  36
ENDBRANCH  34  35
ENDBRANCH  33  34
ENDBRANCH  32  33
ENDBRANCH  31  32
ENDBRANCH  30  31
ENDBRANCH  29  30
ENDBRANCH  28  29
ENDBRANCH  27  28
ENDBRANCH  26  27
ENDBRANCH  25  26
ENDBRANCH  24  25
ENDBRANCH  23  24
ENDBRANCH  22  23
ENDBRANCH  19  22
ENDBRANCH  18  19
ENDBRANCH  17  18
ENDBRANCH  16  17
ENDBRANCH  15  16
ENDBRANCH  14  15
ENDBRANCH  13  14
ENDBRANCH  12  13
ENDBRANCH  11  12
ENDBRANCH  10  11
ENDBRANCH   9  10
ENDBRANCH   8   9
ENDBRANCH   7   8
ENDBRANCH   6   7
ENDBRANCH   5   6
ENDBRANCH   4   5
ENDBRANCH   3   4
ENDBRANCH   2   3
TORSDOF 34
ENDMDL
MODEL      131
REMARK 921   NORMALIZED FREE ENERGY PREDICTED BY IDOCK:   -2.81 KCAL/MOL
REMARK 922        TOTAL FREE ENERGY PREDICTED BY IDOCK:  -14.71 KCAL/MOL
REMARK 923 INTER-LIGAND FREE ENERGY PREDICTED BY IDOCK:   -9.03 KCAL/MOL
REMARK 924 INTRA-LIGAND FREE ENERGY PREDICTED BY IDOCK:   -5.68 KCAL/MOL
REMARK 927      BINDING AFFINITY PREDICTED BY RF-SCORE:    0.00 PKD
ROOT
HETATM    1  C   UNL     1      -5.982   8.231  71.395  1.00  0.00    -0.037 C  
HETATM    2  C   UNL     1      -7.175   8.676  70.569  1.00  0.00    -0.053 C  
ENDROOT
BRANCH   2   3
HETATM    3  C   UNL     1      -8.481   8.246  71.220  1.00  0.00    -0.164 C  
BRANCH   3   4
HETATM    4  C   UNL     1      -9.554   9.320  71.063  1.00  0.00    -0.329 C  
BRANCH   4   5
HETATM    5  C   UNL     1     -10.754   9.016  71.951  1.00  0.00    -0.401 C  
BRANCH   5   6
HETATM    6  C   UNL     1     -11.945   8.580  71.108  1.00  0.00    -0.306 C  
BRANCH   6   7
HETATM    7  C   UNL     1     -12.192   7.088  71.282  1.00  0.00    -0.419 C  
BRANCH   7   8
HETATM    8  C   UNL     1     -11.586   6.317  70.120  1.00  0.00    -0.385 C  
BRANCH   8   9
HETATM    9  C   UNL     1     -10.528   5.351  70.627  1.00  0.00    -0.329 C  
BRANCH   9  10
HETATM   10  C   UNL     1     -10.501   5.365  72.144  1.00  0.00    -0.273 C  
BRANCH  10  11
HETATM   11  C   UNL     1     -10.040   4.020  72.673  1.00  0.00    -0.225 C  
BRANCH  11  12
HETATM   12  C   UNL     1      -9.344   3.253  71.565  1.00  0.00    -0.204 C  
BRANCH  12  13
HETATM   13  C   UNL     1      -7.866   3.123  71.868  1.00  0.00    -0.054 C  
BRANCH  13  14
HETATM   14  C   UNL     1      -7.122   4.317  71.299  1.00  0.00    -0.039 C  
BRANCH  14  15
HETATM   15  C   UNL     1      -6.344   3.880  70.079  1.00  0.00    -0.028 C  
BRANCH  15  16
HETATM   16  C   UNL     1      -7.169   4.058  68.815  1.00  0.00    -0.055 C  
BRANCH  16  17
HETATM   17  C   UNL     1      -6.942   5.473  68.318  1.00  0.00    -0.061 C  
BRANCH  17  18
HETATM   18  C   UNL     1      -8.247   6.145  67.931  1.00  0.00    -0.117 C  
BRANCH  18  19
HETATM   19  N   UNL     1      -8.405   6.271  66.401  1.00  0.00    -0.114 N  
HETATM   20  C   UNL     1      -7.044   6.143  65.711  1.00  0.00    -0.073 C  
HETATM   21  C   UNL     1      -9.358   5.197  65.873  1.00  0.00    -0.159 C  
BRANCH  19  22
HETATM   22  C   UNL     1      -8.996   7.679  66.163  1.00  0.00    -0.161 C  
BRANCH  22  23
HETATM   23  C   UNL     1     -10.429   7.787  66.645  1.00  0.00    -0.196 C  
BRANCH  23  24
HETATM   24  C   UNL     1     -10.581   8.850  67.717  1.00  0.00    -0.266 C  
BRANCH  24  25
HETATM   25  C   UNL     1     -10.336  10.198  67.061  1.00  0.00    -0.303 C  
BRANCH  25  26
HETATM   26  C   UNL     1      -9.252  10.964  67.783  1.00  0.00    -0.155 C  
BRANCH  26  27
HETATM   27  C   UNL     1      -9.862  12.182  68.453  1.00  0.00    -0.200 C  
BRANCH  27  28
HETATM   28  C   UNL     1     -11.372  12.088  68.401  1.00  0.00    -0.332 C  
BRANCH  28  29
HETATM   29  C   UNL     1     -11.938  12.015  69.805  1.00  0.00    -0.370 C  
BRANCH  29  30
HETATM   30  C   UNL     1     -11.923  13.397  70.428  1.00  0.00    -0.358 C  
BRANCH  30  31
HETATM   31  C   UNL     1     -12.327  14.442  69.407  1.00  0.00    -0.228 C  
BRANCH  31  32
HETATM   32  C   UNL     1     -11.436  15.663  69.536  1.00  0.00    -0.349 C  
BRANCH  32  33
HETATM   33  C   UNL     1     -11.229  16.307  68.175  1.00  0.00    -0.298 C  
BRANCH  33  34
HETATM   34  C   UNL     1     -10.237  15.498  67.354  1.00  0.00    -0.255 C  
BRANCH  34  35
HETATM   35  C   UNL     1      -8.830  16.053  67.529  1.00  0.00    -0.198 C  
BRANCH  35  36
HETATM   36  C   UNL     1      -8.763  17.502  67.066  1.00  0.00    -0.254 C  
BRANCH  36  37
HETATM   37  C   UNL     1      -8.014  18.354  68.086  1.00  0.00    -0.303 C  
BRANCH  37  38
HETATM   38  C   UNL     1      -8.914  19.448  68.650  1.00  0.00    -0.419 C  
HETATM   39  C   UNL     1      -9.964  19.865  67.635  1.00  0.00    -0.553 C  
ENDBRANCH  37  38
ENDBRANCH  36  37
ENDBRANCH  35  36
ENDBRANCH  34  35
ENDBRANCH  33  34
ENDBRANCH  32  33
ENDBRANCH  31  32
ENDBRANCH  30  31
ENDBRANCH  29  30
ENDBRANCH  28  29
ENDBRANCH  27  28
ENDBRANCH  26  27
ENDBRANCH  25  26
ENDBRANCH  24  25
ENDBRANCH  23  24
ENDBRANCH  22  23
ENDBRANCH  19  22
ENDBRANCH  18  19
ENDBRANCH  17  18
ENDBRANCH  16  17
ENDBRANCH  15  16
ENDBRANCH  14  15
ENDBRANCH  13  14
ENDBRANCH  12  13
ENDBRANCH  11  12
ENDBRANCH  10  11
ENDBRANCH   9  10
ENDBRANCH   8   9
ENDBRANCH   7   8
ENDBRANCH   6   7
ENDBRANCH   5   6
ENDBRANCH   4   5
ENDBRANCH   3   4
ENDBRANCH   2   3
TORSDOF 34
ENDMDL
MODEL      132
REMARK 921   NORMALIZED FREE ENERGY PREDICTED BY IDOCK:   -2.79 KCAL/MOL
REMARK 922        TOTAL FREE ENERGY PREDICTED BY IDOCK:  -14.66 KCAL/MOL
REMARK 923 INTER-LIGAND FREE ENERGY PREDICTED BY IDOCK:   -9.64 KCAL/MOL
REMARK 924 INTRA-LIGAND FREE ENERGY PREDICTED BY IDOCK:   -5.02 KCAL/MOL
REMARK 927      BINDING AFFINITY PREDICTED BY RF-SCORE:    0.00 PKD
ROOT
HETATM    1  C   UNL     1      -7.205  13.932  67.591  1.00  0.00    -0.187 C  
HETATM    2  C   UNL     1      -5.808  14.458  67.869  1.00  0.00    -0.132 C  
ENDROOT
BRANCH   2   3
HETATM    3  C   UNL     1      -5.853  15.669  68.789  1.00  0.00    -0.100 C  
BRANCH   3   4
HETATM    4  C   UNL     1      -6.202  16.936  68.013  1.00  0.00    -0.143 C  
BRANCH   4   5
HETATM    5  C   UNL     1      -6.994  17.901  68.886  1.00  0.00    -0.260 C  
BRANCH   5   6
HETATM    6  C   UNL     1      -6.414  19.305  68.794  1.00  0.00    -0.292 C  
BRANCH   6   7
HETATM    7  C   UNL     1      -7.450  20.266  68.229  1.00  0.00    -0.174 C  
BRANCH   7   8
HETATM    8  C   UNL     1      -7.357  20.306  66.712  1.00  0.00    -0.325 C  
BRANCH   8   9
HETATM    9  C   UNL     1      -8.593  19.675  66.093  1.00  0.00    -0.357 C  
BRANCH   9  10
HETATM   10  C   UNL     1      -9.825  20.066  66.889  1.00  0.00    -0.571 C  
BRANCH  10  11
HETATM   11  C   UNL     1     -10.683  18.844  67.163  1.00  0.00    -0.506 C  
BRANCH  11  12
HETATM   12  C   UNL     1      -9.964  17.603  66.672  1.00  0.00    -0.328 C  
BRANCH  12  13
HETATM   13  C   UNL     1     -10.167  16.462  67.647  1.00  0.00    -0.272 C  
BRANCH  13  14
HETATM   14  C   UNL     1     -10.981  15.366  66.985  1.00  0.00    -0.306 C  
BRANCH  14  15
HETATM   15  C   UNL     1     -10.482  15.163  65.572  1.00  0.00    -0.400 C  
BRANCH  15  16
HETATM   16  C   UNL     1     -10.588  13.704  65.162  1.00  0.00    -0.371 C  
BRANCH  16  17
HETATM   17  C   UNL     1     -10.553  12.870  66.429  1.00  0.00    -0.285 C  
BRANCH  17  18
HETATM   18  C   UNL     1     -10.865  11.412  66.147  1.00  0.00    -0.255 C  
BRANCH  18  19
HETATM   19  N   UNL     1      -9.918  10.457  66.903  1.00  0.00    -0.198 N  
HETATM   20  C   UNL     1     -10.391   9.008  66.755  1.00  0.00    -0.240 C  
HETATM   21  C   UNL     1      -8.489  10.593  66.372  1.00  0.00    -0.152 C  
BRANCH  19  22
HETATM   22  C   UNL     1      -9.986  10.896  68.383  1.00  0.00    -0.178 C  
BRANCH  22  23
HETATM   23  C   UNL     1      -8.626  10.868  69.052  1.00  0.00    -0.110 C  
BRANCH  23  24
HETATM   24  C   UNL     1      -8.475   9.663  69.962  1.00  0.00    -0.223 C  
BRANCH  24  25
HETATM   25  C   UNL     1      -7.016   9.244  69.924  1.00  0.00    -0.061 C  
BRANCH  25  26
HETATM   26  C   UNL     1      -6.887   7.746  69.770  1.00  0.00    -0.046 C  
BRANCH  26  27
HETATM   27  C   UNL     1      -8.199   7.181  69.256  1.00  0.00    -0.128 C  
BRANCH  27  28
HETATM   28  C   UNL     1      -8.045   5.697  68.994  1.00  0.00    -0.097 C  
BRANCH  28  29
HETATM   29  C   UNL     1      -7.404   5.021  70.189  1.00  0.00    -0.059 C  
BRANCH  29  30
HETATM   30  C   UNL     1      -8.418   4.911  71.311  1.00  0.00    -0.120 C  
BRANCH  30  31
HETATM   31  C   UNL     1      -7.850   5.479  72.596  1.00  0.00    -0.102 C  
BRANCH  31  32
HETATM   32  C   UNL     1      -8.860   5.333  73.719  1.00  0.00    -0.118 C  
BRANCH  32  33
HETATM   33  C   UNL     1      -9.046   6.661  74.433  1.00  0.00    -0.217 C  
BRANCH  33  34
HETATM   34  C   UNL     1      -9.509   7.727  73.452  1.00  0.00    -0.349 C  
BRANCH  34  35
HETATM   35  C   UNL     1     -10.979   7.527  73.111  1.00  0.00    -0.420 C  
BRANCH  35  36
HETATM   36  C   UNL     1     -11.176   7.459  71.602  1.00  0.00    -0.276 C  
BRANCH  36  37
HETATM   37  C   UNL     1     -11.806   8.748  71.087  1.00  0.00    -0.345 C  
BRANCH  37  38
HETATM   38  C   UNL     1     -12.826   9.293  72.080  1.00  0.00    -0.495 C  
HETATM   39  C   UNL     1     -14.225   8.802  71.747  1.00  0.00    -0.443 C  
ENDBRANCH  37  38
ENDBRANCH  36  37
ENDBRANCH  35  36
ENDBRANCH  34  35
ENDBRANCH  33  34
ENDBRANCH  32  33
ENDBRANCH  31  32
ENDBRANCH  30  31
ENDBRANCH  29  30
ENDBRANCH  28  29
ENDBRANCH  27  28
ENDBRANCH  26  27
ENDBRANCH  25  26
ENDBRANCH  24  25
ENDBRANCH  23  24
ENDBRANCH  22  23
ENDBRANCH  19  22
ENDBRANCH  18  19
ENDBRANCH  17  18
ENDBRANCH  16  17
ENDBRANCH  15  16
ENDBRANCH  14  15
ENDBRANCH  13  14
ENDBRANCH  12  13
ENDBRANCH  11  12
ENDBRANCH  10  11
ENDBRANCH   9  10
ENDBRANCH   8   9
ENDBRANCH   7   8
ENDBRANCH   6   7
ENDBRANCH   5   6
ENDBRANCH   4   5
ENDBRANCH   3   4
ENDBRANCH   2   3
TORSDOF 34
ENDMDL
MODEL      133
REMARK 921   NORMALIZED FREE ENERGY PREDICTED BY IDOCK:   -2.74 KCAL/MOL
REMARK 922        TOTAL FREE ENERGY PREDICTED BY IDOCK:  -14.50 KCAL/MOL
REMARK 923 INTER-LIGAND FREE ENERGY PREDICTED BY IDOCK:   -9.06 KCAL/MOL
REMARK 924 INTRA-LIGAND FREE ENERGY PREDICTED BY IDOCK:   -5.44 KCAL/MOL
REMARK 927      BINDING AFFINITY PREDICTED BY RF-SCORE:    0.00 PKD
ROOT
HETATM    1  C   UNL     1      -5.970  15.108  67.829  1.00  0.00    -0.150 C  
HETATM    2  C   UNL     1      -6.797  13.836  67.881  1.00  0.00    -0.159 C  
ENDROOT
BRANCH   2   3
HETATM    3  C   UNL     1      -8.125  14.018  67.163  1.00  0.00    -0.121 C  
BRANCH   3   4
HETATM    4  C   UNL     1      -9.288  13.534  68.025  1.00  0.00    -0.213 C  
BRANCH   4   5
HETATM    5  C   UNL     1      -9.550  14.504  69.169  1.00  0.00    -0.034 C  
BRANCH   5   6
HETATM    6  C   UNL     1     -10.814  15.311  68.906  1.00  0.00    -0.247 C  
BRANCH   6   7
HETATM    7  C   UNL     1     -10.524  16.799  69.038  1.00  0.00    -0.336 C  
BRANCH   7   8
HETATM    8  C   UNL     1      -9.027  17.052  68.955  1.00  0.00    -0.210 C  
BRANCH   8   9
HETATM    9  C   UNL     1      -8.758  18.425  68.362  1.00  0.00    -0.337 C  
BRANCH   9  10
HETATM   10  C   UNL     1      -9.927  19.349  68.651  1.00  0.00    -0.527 C  
BRANCH  10  11
HETATM   11  C   UNL     1     -10.528  19.857  67.354  1.00  0.00    -0.542 C  
BRANCH  11  12
HETATM   12  C   UNL     1      -9.835  19.191  66.182  1.00  0.00    -0.397 C  
BRANCH  12  13
HETATM   13  C   UNL     1     -10.830  18.384  65.376  1.00  0.00     0.304 C  
BRANCH  13  14
HETATM   14  C   UNL     1     -10.520  16.905  65.518  1.00  0.00    -0.220 C  
BRANCH  14  15
HETATM   15  C   UNL     1     -11.149  16.154  64.366  1.00  0.00    -0.104 C  
BRANCH  15  16
HETATM   16  C   UNL     1     -12.222  15.200  64.860  1.00  0.00    -0.053 C  
BRANCH  16  17
HETATM   17  C   UNL     1     -11.525  13.959  65.382  1.00  0.00    -0.316 C  
BRANCH  17  18
HETATM   18  C   UNL     1     -10.555  13.392  64.362  1.00  0.00    -0.407 C  
BRANCH  18  19
HETATM   19  N   UNL     1     -10.895  11.935  63.982  1.00  0.00    -0.343 N  
HETATM   20  C   UNL     1     -12.294  11.858  63.364  1.00  0.00    -0.462 C  
HETATM   21  C   UNL     1      -9.861  11.386  62.997  1.00  0.00    -0.347 C  
BRANCH  19  22
HETATM   22  C   UNL     1     -10.850  11.143  65.307  1.00  0.00    -0.152 C  
BRANCH  22  23
HETATM   23  C   UNL     1      -9.761  10.088  65.307  1.00  0.00    -0.373 C  
BRANCH  23  24
HETATM   24  C   UNL     1      -8.664  10.417  66.303  1.00  0.00    -0.163 C  
BRANCH  24  25
HETATM   25  C   UNL     1      -8.653   9.316  67.349  1.00  0.00    -0.122 C  
BRANCH  25  26
HETATM   26  C   UNL     1      -9.840   8.396  67.181  1.00  0.00    -0.279 C  
BRANCH  26  27
HETATM   27  C   UNL     1     -10.505   8.187  68.530  1.00  0.00    -0.199 C  
BRANCH  27  28
HETATM   28  C   UNL     1     -10.600   9.510  69.261  1.00  0.00    -0.236 C  
BRANCH  28  29
HETATM   29  C   UNL     1     -10.364   9.304  70.744  1.00  0.00    -0.348 C  
BRANCH  29  30
HETATM   30  C   UNL     1      -8.936   8.848  70.970  1.00  0.00    -0.298 C  
BRANCH  30  31
HETATM   31  C   UNL     1      -8.669   8.657  72.449  1.00  0.00    -0.167 C  
BRANCH  31  32
HETATM   32  C   UNL     1      -9.881   8.037  73.119  1.00  0.00    -0.332 C  
BRANCH  32  33
HETATM   33  C   UNL     1      -9.691   6.537  73.265  1.00  0.00    -0.181 C  
BRANCH  33  34
HETATM   34  C   UNL     1     -10.993   5.809  72.970  1.00  0.00    -0.314 C  
BRANCH  34  35
HETATM   35  C   UNL     1     -10.747   4.656  72.007  1.00  0.00    -0.072 C  
BRANCH  35  36
HETATM   36  C   UNL     1     -10.614   5.169  70.579  1.00  0.00    -0.221 C  
BRANCH  36  37
HETATM   37  C   UNL     1      -9.395   4.551  69.901  1.00  0.00    -0.218 C  
BRANCH  37  38
HETATM   38  C   UNL     1      -8.153   4.694  70.774  1.00  0.00    -0.084 C  
HETATM   39  C   UNL     1      -7.255   5.808  70.262  1.00  0.00    -0.075 C  
ENDBRANCH  37  38
ENDBRANCH  36  37
ENDBRANCH  35  36
ENDBRANCH  34  35
ENDBRANCH  33  34
ENDBRANCH  32  33
ENDBRANCH  31  32
ENDBRANCH  30  31
ENDBRANCH  29  30
ENDBRANCH  28  29
ENDBRANCH  27  28
ENDBRANCH  26  27
ENDBRANCH  25  26
ENDBRANCH  24  25
ENDBRANCH  23  24
ENDBRANCH  22  23
ENDBRANCH  19  22
ENDBRANCH  18  19
ENDBRANCH  17  18
ENDBRANCH  16  17
ENDBRANCH  15  16
ENDBRANCH  14  15
ENDBRANCH  13  14
ENDBRANCH  12  13
ENDBRANCH  11  12
ENDBRANCH  10  11
ENDBRANCH   9  10
ENDBRANCH   8   9
ENDBRANCH   7   8
ENDBRANCH   6   7
ENDBRANCH   5   6
ENDBRANCH   4   5
ENDBRANCH   3   4
ENDBRANCH   2   3
TORSDOF 34
ENDMDL
MODEL      134
REMARK 921   NORMALIZED FREE ENERGY PREDICTED BY IDOCK:   -2.71 KCAL/MOL
REMARK 922        TOTAL FREE ENERGY PREDICTED BY IDOCK:  -14.41 KCAL/MOL
REMARK 923 INTER-LIGAND FREE ENERGY PREDICTED BY IDOCK:   -8.00 KCAL/MOL
REMARK 924 INTRA-LIGAND FREE ENERGY PREDICTED BY IDOCK:   -6.40 KCAL/MOL
REMARK 927      BINDING AFFINITY PREDICTED BY RF-SCORE:    0.00 PKD
ROOT
HETATM    1  C   UNL     1      -9.183   5.361  68.339  1.00  0.00    -0.128 C  
HETATM    2  C   UNL     1      -8.326   5.454  69.588  1.00  0.00    -0.100 C  
ENDROOT
BRANCH   2   3
HETATM    3  C   UNL     1      -7.142   6.384  69.371  1.00  0.00    -0.073 C  
BRANCH   3   4
HETATM    4  C   UNL     1      -6.523   6.807  70.701  1.00  0.00    -0.051 C  
BRANCH   4   5
HETATM    5  C   UNL     1      -7.603   7.006  71.757  1.00  0.00    -0.088 C  
BRANCH   5   6
HETATM    6  C   UNL     1      -7.127   6.499  73.111  1.00  0.00    -0.078 C  
BRANCH   6   7
HETATM    7  C   UNL     1      -8.213   5.658  73.767  1.00  0.00    -0.111 C  
BRANCH   7   8
HETATM    8  C   UNL     1      -8.041   4.194  73.392  1.00  0.00    -0.090 C  
BRANCH   8   9
HETATM    9  C   UNL     1      -9.339   3.641  72.829  1.00  0.00    -0.145 C  
BRANCH   9  10
HETATM   10  C   UNL     1     -10.452   4.659  73.002  1.00  0.00    -0.258 C  
BRANCH  10  11
HETATM   11  C   UNL     1     -10.929   5.151  71.648  1.00  0.00    -0.050 C  
BRANCH  11  12
HETATM   12  C   UNL     1     -11.430   6.577  71.779  1.00  0.00    -0.346 C  
BRANCH  12  13
HETATM   13  C   UNL     1     -12.132   7.002  70.506  1.00  0.00    -0.278 C  
BRANCH  13  14
HETATM   14  C   UNL     1     -11.231   7.933  69.715  1.00  0.00     0.003 C  
BRANCH  14  15
HETATM   15  C   UNL     1     -11.018   9.205  70.504  1.00  0.00    -0.307 C  
BRANCH  15  16
HETATM   16  C   UNL     1      -9.537   9.502  70.667  1.00  0.00    -0.292 C  
BRANCH  16  17
HETATM   17  C   UNL     1      -9.080  10.240  69.423  1.00  0.00    -0.203 C  
BRANCH  17  18
HETATM   18  C   UNL     1      -7.578  10.142  69.236  1.00  0.00    -0.117 C  
BRANCH  18  19
HETATM   19  N   UNL     1      -7.191   9.877  67.765  1.00  0.00    -0.087 N  
HETATM   20  C   UNL     1      -5.800   9.240  67.686  1.00  0.00    -0.045 C  
HETATM   21  C   UNL     1      -8.221   8.962  67.100  1.00  0.00    -0.103 C  
BRANCH  19  22
HETATM   22  C   UNL     1      -7.184  11.264  67.085  1.00  0.00    -0.126 C  
BRANCH  22  23
HETATM   23  C   UNL     1      -6.301  12.256  67.817  1.00  0.00    -0.101 C  
BRANCH  23  24
HETATM   24  C   UNL     1      -6.737  13.687  67.562  1.00  0.00    -0.139 C  
BRANCH  24  25
HETATM   25  C   UNL     1      -7.806  14.028  68.585  1.00  0.00    -0.130 C  
BRANCH  25  26
HETATM   26  C   UNL     1      -7.368  15.176  69.465  1.00  0.00    -0.210 C  
BRANCH  26  27
HETATM   27  C   UNL     1      -8.164  16.416  69.102  1.00  0.00    -0.189 C  
BRANCH  27  28
HETATM   28  C   UNL     1      -9.411  16.015  68.342  1.00  0.00    -0.207 C  
BRANCH  28  29
HETATM   29  C   UNL     1     -10.642  16.573  69.028  1.00  0.00    -0.324 C  
BRANCH  29  30
HETATM   30  C   UNL     1     -11.814  15.639  68.802  1.00  0.00    -0.336 C  
BRANCH  30  31
HETATM   31  C   UNL     1     -12.216  14.969  70.101  1.00  0.00    -0.392 C  
BRANCH  31  32
HETATM   32  C   UNL     1     -12.068  13.465  69.976  1.00  0.00    -0.404 C  
BRANCH  32  33
HETATM   33  C   UNL     1     -11.271  13.118  68.730  1.00  0.00    -0.323 C  
BRANCH  33  34
HETATM   34  C   UNL     1     -11.897  11.929  68.017  1.00  0.00    -0.323 C  
BRANCH  34  35
HETATM   35  C   UNL     1     -11.158  11.644  66.717  1.00  0.00    -0.366 C  
BRANCH  35  36
HETATM   36  C   UNL     1     -10.357  12.863  66.276  1.00  0.00    -0.278 C  
BRANCH  36  37
HETATM   37  C   UNL     1     -10.782  13.304  64.879  1.00  0.00    -0.365 C  
BRANCH  37  38
HETATM   38  C   UNL     1     -11.635  14.566  64.941  1.00  0.00    -0.401 C  
HETATM   39  C   UNL     1     -10.764  15.807  65.043  1.00  0.00    -0.443 C  
ENDBRANCH  37  38
ENDBRANCH  36  37
ENDBRANCH  35  36
ENDBRANCH  34  35
ENDBRANCH  33  34
ENDBRANCH  32  33
ENDBRANCH  31  32
ENDBRANCH  30  31
ENDBRANCH  29  30
ENDBRANCH  28  29
ENDBRANCH  27  28
ENDBRANCH  26  27
ENDBRANCH  25  26
ENDBRANCH  24  25
ENDBRANCH  23  24
ENDBRANCH  22  23
ENDBRANCH  19  22
ENDBRANCH  18  19
ENDBRANCH  17  18
ENDBRANCH  16  17
ENDBRANCH  15  16
ENDBRANCH  14  15
ENDBRANCH  13  14
ENDBRANCH  12  13
ENDBRANCH  11  12
ENDBRANCH  10  11
ENDBRANCH   9  10
ENDBRANCH   8   9
ENDBRANCH   7   8
ENDBRANCH   6   7
ENDBRANCH   5   6
ENDBRANCH   4   5
ENDBRANCH   3   4
ENDBRANCH   2   3
TORSDOF 34
ENDMDL
MODEL      135
REMARK 921   NORMALIZED FREE ENERGY PREDICTED BY IDOCK:   -2.68 KCAL/MOL
REMARK 922        TOTAL FREE ENERGY PREDICTED BY IDOCK:  -14.33 KCAL/MOL
REMARK 923 INTER-LIGAND FREE ENERGY PREDICTED BY IDOCK:   -8.52 KCAL/MOL
REMARK 924 INTRA-LIGAND FREE ENERGY PREDICTED BY IDOCK:   -5.81 KCAL/MOL
REMARK 927      BINDING AFFINITY PREDICTED BY RF-SCORE:    0.00 PKD
ROOT
HETATM    1  C   UNL     1      -6.713  13.458  69.383  1.00  0.00    -0.037 C  
HETATM    2  C   UNL     1      -6.471  12.129  68.689  1.00  0.00    -0.072 C  
ENDROOT
BRANCH   2   3
HETATM    3  C   UNL     1      -7.753  11.316  68.602  1.00  0.00    -0.136 C  
BRANCH   3   4
HETATM    4  C   UNL     1      -8.926  12.186  68.156  1.00  0.00    -0.195 C  
BRANCH   4   5
HETATM    5  C   UNL     1      -8.661  12.782  66.780  1.00  0.00    -0.125 C  
BRANCH   5   6
HETATM    6  C   UNL     1      -9.315  14.151  66.656  1.00  0.00    -0.299 C  
BRANCH   6   7
HETATM    7  C   UNL     1     -10.591  14.201  67.483  1.00  0.00    -0.257 C  
BRANCH   7   8
HETATM    8  C   UNL     1     -11.794  14.420  66.579  1.00  0.00    -0.406 C  
BRANCH   8   9
HETATM    9  C   UNL     1     -11.344  14.929  65.221  1.00  0.00    -0.358 C  
BRANCH   9  10
HETATM   10  C   UNL     1     -12.149  14.257  64.125  1.00  0.00    -0.423 C  
BRANCH  10  11
HETATM   11  C   UNL     1     -12.397  12.800  64.472  1.00  0.00    -0.515 C  
BRANCH  11  12
HETATM   12  C   UNL     1     -11.809  11.917  63.389  1.00  0.00    -0.512 C  
BRANCH  12  13
HETATM   13  C   UNL     1     -10.334  11.686  63.646  1.00  0.00    -0.466 C  
BRANCH  13  14
HETATM   14  C   UNL     1     -10.161  10.540  64.626  1.00  0.00    -0.364 C  
BRANCH  14  15
HETATM   15  C   UNL     1      -9.002   9.678  64.179  1.00  0.00    -0.269 C  
BRANCH  15  16
HETATM   16  C   UNL     1      -7.747  10.001  64.971  1.00  0.00    -0.138 C  
BRANCH  16  17
HETATM   17  C   UNL     1      -7.024   8.693  65.233  1.00  0.00    -0.075 C  
BRANCH  17  18
HETATM   18  C   UNL     1      -7.853   7.500  64.799  1.00  0.00    -0.126 C  
BRANCH  18  19
HETATM   19  N   UNL     1      -7.580   6.254  65.668  1.00  0.00    -0.082 N  
HETATM   20  C   UNL     1      -8.871   5.777  66.339  1.00  0.00    -0.131 C  
HETATM   21  C   UNL     1      -6.992   5.128  64.815  1.00  0.00    -0.050 C  
BRANCH  19  22
HETATM   22  C   UNL     1      -6.559   6.712  66.734  1.00  0.00    -0.048 C  
BRANCH  22  23
HETATM   23  C   UNL     1      -7.037   6.427  68.144  1.00  0.00    -0.083 C  
BRANCH  23  24
HETATM   24  C   UNL     1      -6.072   5.524  68.890  1.00  0.00    -0.025 C  
BRANCH  24  25
HETATM   25  C   UNL     1      -6.322   5.717  70.375  1.00  0.00    -0.031 C  
BRANCH  25  26
HETATM   26  C   UNL     1      -5.215   6.527  71.010  1.00  0.00    -0.019 C  
BRANCH  26  27
HETATM   27  C   UNL     1      -5.822   7.541  71.964  1.00  0.00    -0.036 C  
BRANCH  27  28
HETATM   28  C   UNL     1      -6.201   8.793  71.201  1.00  0.00    -0.051 C  
BRANCH  28  29
HETATM   29  C   UNL     1      -7.709   8.940  71.157  1.00  0.00    -0.158 C  
BRANCH  29  30
HETATM   30  C   UNL     1      -8.309   8.370  72.427  1.00  0.00    -0.219 C  
BRANCH  30  31
HETATM   31  C   UNL     1      -9.815   8.538  72.423  1.00  0.00    -0.358 C  
BRANCH  31  32
HETATM   32  C   UNL     1     -10.255   9.239  71.152  1.00  0.00    -0.387 C  
BRANCH  32  33
HETATM   33  C   UNL     1     -11.273   8.391  70.410  1.00  0.00    -0.220 C  
BRANCH  33  34
HETATM   34  C   UNL     1     -10.568   7.393  69.504  1.00  0.00    -0.244 C  
BRANCH  34  35
HETATM   35  C   UNL     1     -11.123   5.993  69.727  1.00  0.00    -0.476 C  
BRANCH  35  36
HETATM   36  C   UNL     1     -10.016   5.038  70.154  1.00  0.00    -0.328 C  
BRANCH  36  37
HETATM   37  C   UNL     1      -9.718   5.197  71.641  1.00  0.00    -0.217 C  
BRANCH  37  38
HETATM   38  C   UNL     1     -10.225   3.997  72.432  1.00  0.00    -0.232 C  
HETATM   39  C   UNL     1     -11.350   4.399  73.369  1.00  0.00    -0.353 C  
ENDBRANCH  37  38
ENDBRANCH  36  37
ENDBRANCH  35  36
ENDBRANCH  34  35
ENDBRANCH  33  34
ENDBRANCH  32  33
ENDBRANCH  31  32
ENDBRANCH  30  31
ENDBRANCH  29  30
ENDBRANCH  28  29
ENDBRANCH  27  28
ENDBRANCH  26  27
ENDBRANCH  25  26
ENDBRANCH  24  25
ENDBRANCH  23  24
ENDBRANCH  22  23
ENDBRANCH  19  22
ENDBRANCH  18  19
ENDBRANCH  17  18
ENDBRANCH  16  17
ENDBRANCH  15  16
ENDBRANCH  14  15
ENDBRANCH  13  14
ENDBRANCH  12  13
ENDBRANCH  11  12
ENDBRANCH  10  11
ENDBRANCH   9  10
ENDBRANCH   8   9
ENDBRANCH   7   8
ENDBRANCH   6   7
ENDBRANCH   5   6
ENDBRANCH   4   5
ENDBRANCH   3   4
ENDBRANCH   2   3
TORSDOF 34
ENDMDL
MODEL      136
REMARK 921   NORMALIZED FREE ENERGY PREDICTED BY IDOCK:   -2.62 KCAL/MOL
REMARK 922        TOTAL FREE ENERGY PREDICTED BY IDOCK:  -14.17 KCAL/MOL
REMARK 923 INTER-LIGAND FREE ENERGY PREDICTED BY IDOCK:   -9.52 KCAL/MOL
REMARK 924 INTRA-LIGAND FREE ENERGY PREDICTED BY IDOCK:   -4.65 KCAL/MOL
REMARK 927      BINDING AFFINITY PREDICTED BY RF-SCORE:    0.00 PKD
ROOT
HETATM    1  C   UNL     1      -6.066   7.973  65.369  1.00  0.00    -0.045 C  
HETATM    2  C   UNL     1      -7.504   7.709  64.962  1.00  0.00    -0.090 C  
ENDROOT
BRANCH   2   3
HETATM    3  C   UNL     1      -8.276   9.010  64.806  1.00  0.00    -0.161 C  
BRANCH   3   4
HETATM    4  C   UNL     1      -7.466  10.040  64.023  1.00  0.00    -0.135 C  
BRANCH   4   5
HETATM    5  C   UNL     1      -8.113  10.318  62.672  1.00  0.00    -0.164 C  
BRANCH   5   6
HETATM    6  C   UNL     1      -9.619  10.483  62.824  1.00  0.00    -0.323 C  
BRANCH   6   7
HETATM    7  C   UNL     1      -9.939  11.836  63.443  1.00  0.00    -0.446 C  
BRANCH   7   8
HETATM    8  C   UNL     1     -11.286  11.786  64.146  1.00  0.00    -0.437 C  
BRANCH   8   9
HETATM    9  C   UNL     1     -12.240  12.791  63.524  1.00  0.00    -0.613 C  
BRANCH   9  10
HETATM   10  C   UNL     1     -12.267  14.061  64.354  1.00  0.00    -0.457 C  
BRANCH  10  11
HETATM   11  C   UNL     1     -12.225  13.723  65.833  1.00  0.00    -0.501 C  
BRANCH  11  12
HETATM   12  C   UNL     1     -11.246  14.645  66.533  1.00  0.00    -0.346 C  
BRANCH  12  13
HETATM   13  C   UNL     1     -11.623  14.797  67.991  1.00  0.00    -0.367 C  
BRANCH  13  14
HETATM   14  C   UNL     1     -10.860  13.783  68.823  1.00  0.00    -0.281 C  
BRANCH  14  15
HETATM   15  C   UNL     1     -11.839  12.995  69.663  1.00  0.00    -0.385 C  
BRANCH  15  16
HETATM   16  C   UNL     1     -11.836  11.527  69.269  1.00  0.00    -0.414 C  
BRANCH  16  17
HETATM   17  C   UNL     1     -12.252  10.726  70.488  1.00  0.00    -0.457 C  
BRANCH  17  18
HETATM   18  C   UNL     1     -11.412   9.472  70.645  1.00  0.00    -0.297 C  
BRANCH  18  19
HETATM   19  N   UNL     1     -12.158   8.367  71.422  1.00  0.00    -0.296 N  
HETATM   20  C   UNL     1     -13.551   8.850  71.834  1.00  0.00    -0.425 C  
HETATM   21  C   UNL     1     -12.278   7.103  70.568  1.00  0.00    -0.127 C  
BRANCH  19  22
HETATM   22  C   UNL     1     -11.295   8.090  72.673  1.00  0.00    -0.405 C  
BRANCH  22  23
HETATM   23  C   UNL     1      -9.960   7.465  72.321  1.00  0.00    -0.206 C  
BRANCH  23  24
HETATM   24  C   UNL     1      -9.049   7.370  73.532  1.00  0.00    -0.259 C  
BRANCH  24  25
HETATM   25  C   UNL     1      -7.728   6.785  73.065  1.00  0.00    -0.093 C  
BRANCH  25  26
HETATM   26  C   UNL     1      -6.571   7.670  73.467  1.00  0.00    -0.081 C  
BRANCH  26  27
HETATM   27  C   UNL     1      -6.137   8.500  72.272  1.00  0.00    -0.070 C  
BRANCH  27  28
HETATM   28  C   UNL     1      -6.482   7.767  70.993  1.00  0.00    -0.038 C  
BRANCH  28  29
HETATM   29  C   UNL     1      -6.212   8.656  69.795  1.00  0.00    -0.035 C  
BRANCH  29  30
HETATM   30  C   UNL     1      -7.051   8.189  68.621  1.00  0.00    -0.072 C  
BRANCH  30  31
HETATM   31  C   UNL     1      -8.362   7.604  69.107  1.00  0.00    -0.131 C  
BRANCH  31  32
HETATM   32  C   UNL     1      -9.281   7.343  67.928  1.00  0.00    -0.132 C  
BRANCH  32  33
HETATM   33  C   UNL     1      -9.862   5.942  68.017  1.00  0.00    -0.144 C  
BRANCH  33  34
HETATM   34  C   UNL     1      -8.813   4.967  68.529  1.00  0.00    -0.117 C  
BRANCH  34  35
HETATM   35  C   UNL     1      -9.453   3.940  69.454  1.00  0.00    -0.260 C  
BRANCH  35  36
HETATM   36  C   UNL     1      -9.600   4.503  70.861  1.00  0.00    -0.250 C  
BRANCH  36  37
HETATM   37  C   UNL     1      -9.524   3.384  71.895  1.00  0.00    -0.208 C  
BRANCH  37  38
HETATM   38  C   UNL     1     -10.145   3.818  73.217  1.00  0.00    -0.207 C  
HETATM   39  C   UNL     1     -11.596   4.227  73.028  1.00  0.00    -0.045 C  
ENDBRANCH  37  38
ENDBRANCH  36  37
ENDBRANCH  35  36
ENDBRANCH  34  35
ENDBRANCH  33  34
ENDBRANCH  32  33
ENDBRANCH  31  32
ENDBRANCH  30  31
ENDBRANCH  29  30
ENDBRANCH  28  29
ENDBRANCH  27  28
ENDBRANCH  26  27
ENDBRANCH  25  26
ENDBRANCH  24  25
ENDBRANCH  23  24
ENDBRANCH  22  23
ENDBRANCH  19  22
ENDBRANCH  18  19
ENDBRANCH  17  18
ENDBRANCH  16  17
ENDBRANCH  15  16
ENDBRANCH  14  15
ENDBRANCH  13  14
ENDBRANCH  12  13
ENDBRANCH  11  12
ENDBRANCH  10  11
ENDBRANCH   9  10
ENDBRANCH   8   9
ENDBRANCH   7   8
ENDBRANCH   6   7
ENDBRANCH   5   6
ENDBRANCH   4   5
ENDBRANCH   3   4
ENDBRANCH   2   3
TORSDOF 34
ENDMDL
MODEL      137
REMARK 921   NORMALIZED FREE ENERGY PREDICTED BY IDOCK:   -2.62 KCAL/MOL
REMARK 922        TOTAL FREE ENERGY PREDICTED BY IDOCK:  -14.16 KCAL/MOL
REMARK 923 INTER-LIGAND FREE ENERGY PREDICTED BY IDOCK:   -7.59 KCAL/MOL
REMARK 924 INTRA-LIGAND FREE ENERGY PREDICTED BY IDOCK:   -6.57 KCAL/MOL
REMARK 927      BINDING AFFINITY PREDICTED BY RF-SCORE:    0.00 PKD
ROOT
HETATM    1  C   UNL     1     -10.825   9.422  68.099  1.00  0.00    -0.174 C  
HETATM    2  C   UNL     1     -11.388  10.690  68.716  1.00  0.00    -0.339 C  
ENDROOT
BRANCH   2   3
HETATM    3  C   UNL     1     -11.356  10.620  70.235  1.00  0.00    -0.401 C  
BRANCH   3   4
HETATM    4  C   UNL     1     -12.768  10.611  70.814  1.00  0.00    -0.468 C  
BRANCH   4   5
HETATM    5  C   UNL     1     -13.048   9.295  71.530  1.00  0.00    -0.430 C  
BRANCH   5   6
HETATM    6  C   UNL     1     -11.767   8.729  72.127  1.00  0.00    -0.433 C  
BRANCH   6   7
HETATM    7  C   UNL     1     -11.788   7.209  72.070  1.00  0.00    -0.333 C  
BRANCH   7   8
HETATM    8  C   UNL     1     -11.605   6.735  70.637  1.00  0.00    -0.422 C  
BRANCH   8   9
HETATM    9  C   UNL     1     -10.137   6.785  70.251  1.00  0.00    -0.196 C  
BRANCH   9  10
HETATM   10  C   UNL     1      -9.273   6.550  71.476  1.00  0.00    -0.144 C  
BRANCH  10  11
HETATM   11  C   UNL     1      -8.339   7.726  71.695  1.00  0.00    -0.125 C  
BRANCH  11  12
HETATM   12  C   UNL     1      -8.294   8.574  70.439  1.00  0.00    -0.124 C  
BRANCH  12  13
HETATM   13  C   UNL     1      -7.085   9.485  70.467  1.00  0.00    -0.130 C  
BRANCH  13  14
HETATM   14  C   UNL     1      -5.873   8.739  69.940  1.00  0.00    -0.028 C  
BRANCH  14  15
HETATM   15  C   UNL     1      -6.335   7.633  69.018  1.00  0.00    -0.036 C  
BRANCH  15  16
HETATM   16  C   UNL     1      -5.669   6.315  69.374  1.00  0.00    -0.017 C  
BRANCH  16  17
HETATM   17  C   UNL     1      -6.385   5.220  68.607  1.00  0.00    -0.035 C  
BRANCH  17  18
HETATM   18  C   UNL     1      -7.381   5.792  67.615  1.00  0.00    -0.077 C  
BRANCH  18  19
HETATM   19  N   UNL     1      -7.833   4.745  66.575  1.00  0.00    -0.099 N  
HETATM   20  C   UNL     1      -6.629   4.216  65.791  1.00  0.00    -0.044 C  
HETATM   21  C   UNL     1      -8.554   3.585  67.266  1.00  0.00    -0.109 C  
BRANCH  19  22
HETATM   22  C   UNL     1      -8.800   5.494  65.631  1.00  0.00    -0.152 C  
BRANCH  22  23
HETATM   23  C   UNL     1      -8.950   6.955  66.007  1.00  0.00    -0.131 C  
BRANCH  23  24
HETATM   24  C   UNL     1      -8.365   7.868  64.945  1.00  0.00    -0.087 C  
BRANCH  24  25
HETATM   25  C   UNL     1      -8.985   9.242  65.131  1.00  0.00    -0.257 C  
BRANCH  25  26
HETATM   26  C   UNL     1      -7.922  10.316  65.163  1.00  0.00    -0.147 C  
BRANCH  26  27
HETATM   27  C   UNL     1      -6.879   9.958  66.206  1.00  0.00    -0.091 C  
BRANCH  27  28
HETATM   28  C   UNL     1      -5.728  10.938  66.131  1.00  0.00    -0.142 C  
BRANCH  28  29
HETATM   29  C   UNL     1      -5.490  11.568  67.489  1.00  0.00    -0.061 C  
BRANCH  29  30
HETATM   30  C   UNL     1      -6.264  12.869  67.584  1.00  0.00    -0.157 C  
BRANCH  30  31
HETATM   31  C   UNL     1      -7.214  12.834  68.765  1.00  0.00    -0.077 C  
BRANCH  31  32
HETATM   32  C   UNL     1      -8.627  12.561  68.285  1.00  0.00    -0.173 C  
BRANCH  32  33
HETATM   33  C   UNL     1      -8.921  13.367  67.031  1.00  0.00    -0.228 C  
BRANCH  33  34
HETATM   34  C   UNL     1     -10.351  13.884  67.060  1.00  0.00    -0.267 C  
BRANCH  34  35
HETATM   35  C   UNL     1     -10.698  14.400  68.450  1.00  0.00    -0.250 C  
BRANCH  35  36
HETATM   36  C   UNL     1     -11.116  15.863  68.391  1.00  0.00    -0.345 C  
BRANCH  36  37
HETATM   37  C   UNL     1      -9.902  16.757  68.164  1.00  0.00    -0.264 C  
BRANCH  37  38
HETATM   38  C   UNL     1     -10.218  17.866  67.167  1.00  0.00    -0.355 C  
HETATM   39  C   UNL     1     -10.357  17.309  65.760  1.00  0.00    -0.245 C  
ENDBRANCH  37  38
ENDBRANCH  36  37
ENDBRANCH  35  36
ENDBRANCH  34  35
ENDBRANCH  33  34
ENDBRANCH  32  33
ENDBRANCH  31  32
ENDBRANCH  30  31
ENDBRANCH  29  30
ENDBRANCH  28  29
ENDBRANCH  27  28
ENDBRANCH  26  27
ENDBRANCH  25  26
ENDBRANCH  24  25
ENDBRANCH  23  24
ENDBRANCH  22  23
ENDBRANCH  19  22
ENDBRANCH  18  19
ENDBRANCH  17  18
ENDBRANCH  16  17
ENDBRANCH  15  16
ENDBRANCH  14  15
ENDBRANCH  13  14
ENDBRANCH  12  13
ENDBRANCH  11  12
ENDBRANCH  10  11
ENDBRANCH   9  10
ENDBRANCH   8   9
ENDBRANCH   7   8
ENDBRANCH   6   7
ENDBRANCH   5   6
ENDBRANCH   4   5
ENDBRANCH   3   4
ENDBRANCH   2   3
TORSDOF 34
ENDMDL
MODEL      138
REMARK 921   NORMALIZED FREE ENERGY PREDICTED BY IDOCK:   -2.62 KCAL/MOL
REMARK 922        TOTAL FREE ENERGY PREDICTED BY IDOCK:  -14.16 KCAL/MOL
REMARK 923 INTER-LIGAND FREE ENERGY PREDICTED BY IDOCK:   -9.97 KCAL/MOL
REMARK 924 INTRA-LIGAND FREE ENERGY PREDICTED BY IDOCK:   -4.18 KCAL/MOL
REMARK 927      BINDING AFFINITY PREDICTED BY RF-SCORE:    0.00 PKD
ROOT
HETATM    1  C   UNL     1      -7.277  14.308  67.640  1.00  0.00    -0.200 C  
HETATM    2  C   UNL     1      -5.913  14.823  68.063  1.00  0.00    -0.158 C  
ENDROOT
BRANCH   2   3
HETATM    3  C   UNL     1      -6.042  16.085  68.903  1.00  0.00    -0.120 C  
BRANCH   3   4
HETATM    4  C   UNL     1      -6.403  17.288  68.035  1.00  0.00    -0.150 C  
BRANCH   4   5
HETATM    5  C   UNL     1      -6.733  18.496  68.902  1.00  0.00    -0.284 C  
BRANCH   5   6
HETATM    6  C   UNL     1      -6.132  19.761  68.307  1.00  0.00    -0.270 C  
BRANCH   6   7
HETATM    7  C   UNL     1      -7.233  20.660  67.761  1.00  0.00    -0.306 C  
BRANCH   7   8
HETATM    8  C   UNL     1      -7.477  20.357  66.291  1.00  0.00    -0.220 C  
BRANCH   8   9
HETATM    9  C   UNL     1      -8.805  19.640  66.117  1.00  0.00    -0.367 C  
BRANCH   9  10
HETATM   10  C   UNL     1      -9.822  20.190  67.098  1.00  0.00    -0.586 C  
BRANCH  10  11
HETATM   11  C   UNL     1     -10.602  19.057  67.739  1.00  0.00    -0.488 C  
BRANCH  11  12
HETATM   12  C   UNL     1      -9.993  17.731  67.328  1.00  0.00    -0.324 C  
BRANCH  12  13
HETATM   13  C   UNL     1     -10.524  16.617  68.206  1.00  0.00    -0.321 C  
BRANCH  13  14
HETATM   14  C   UNL     1     -11.206  15.571  67.345  1.00  0.00    -0.248 C  
BRANCH  14  15
HETATM   15  C   UNL     1     -10.526  15.520  65.996  1.00  0.00    -0.335 C  
BRANCH  15  16
HETATM   16  C   UNL     1     -10.585  14.119  65.409  1.00  0.00    -0.358 C  
BRANCH  16  17
HETATM   17  C   UNL     1     -11.053  13.184  66.508  1.00  0.00    -0.317 C  
BRANCH  17  18
HETATM   18  C   UNL     1     -11.014  11.735  66.062  1.00  0.00    -0.306 C  
BRANCH  18  19
HETATM   19  N   UNL     1     -10.501  10.796  67.174  1.00  0.00    -0.224 N  
HETATM   20  C   UNL     1     -10.360   9.366  66.644  1.00  0.00    -0.214 C  
HETATM   21  C   UNL     1      -9.153  11.288  67.706  1.00  0.00    -0.152 C  
BRANCH  19  22
HETATM   22  C   UNL     1     -11.571  10.853  68.287  1.00  0.00    -0.262 C  
BRANCH  22  23
HETATM   23  C   UNL     1     -10.961  10.787  69.673  1.00  0.00    -0.320 C  
BRANCH  23  24
HETATM   24  C   UNL     1     -11.148   9.418  70.302  1.00  0.00    -0.299 C  
BRANCH  24  25
HETATM   25  C   UNL     1     -12.349   9.501  71.226  1.00  0.00    -0.430 C  
BRANCH  25  26
HETATM   26  C   UNL     1     -12.265   8.461  72.319  1.00  0.00    -0.449 C  
BRANCH  26  27
HETATM   27  C   UNL     1     -10.810   8.093  72.548  1.00  0.00    -0.431 C  
BRANCH  27  28
HETATM   28  C   UNL     1     -10.717   6.650  73.001  1.00  0.00    -0.299 C  
BRANCH  28  29
HETATM   29  C   UNL     1     -11.369   5.740  71.979  1.00  0.00    -0.289 C  
BRANCH  29  30
HETATM   30  C   UNL     1     -10.343   5.330  70.940  1.00  0.00    -0.303 C  
BRANCH  30  31
HETATM   31  C   UNL     1     -10.637   6.000  69.613  1.00  0.00    -0.367 C  
BRANCH  31  32
HETATM   32  C   UNL     1     -10.039   5.189  68.479  1.00  0.00    -0.214 C  
BRANCH  32  33
HETATM   33  C   UNL     1      -9.062   6.038  67.685  1.00  0.00    -0.109 C  
BRANCH  33  34
HETATM   34  C   UNL     1      -8.244   6.915  68.620  1.00  0.00    -0.121 C  
BRANCH  34  35
HETATM   35  C   UNL     1      -6.762   6.803  68.289  1.00  0.00    -0.068 C  
BRANCH  35  36
HETATM   36  C   UNL     1      -5.912   7.150  69.504  1.00  0.00    -0.026 C  
BRANCH  36  37
HETATM   37  C   UNL     1      -5.212   5.905  70.039  1.00  0.00    -0.009 C  
BRANCH  37  38
HETATM   38  C   UNL     1      -6.161   4.713  70.067  1.00  0.00    -0.018 C  
HETATM   39  C   UNL     1      -5.490   3.497  70.682  1.00  0.00    -0.012 C  
ENDBRANCH  37  38
ENDBRANCH  36  37
ENDBRANCH  35  36
ENDBRANCH  34  35
ENDBRANCH  33  34
ENDBRANCH  32  33
ENDBRANCH  31  32
ENDBRANCH  30  31
ENDBRANCH  29  30
ENDBRANCH  28  29
ENDBRANCH  27  28
ENDBRANCH  26  27
ENDBRANCH  25  26
ENDBRANCH  24  25
ENDBRANCH  23  24
ENDBRANCH  22  23
ENDBRANCH  19  22
ENDBRANCH  18  19
ENDBRANCH  17  18
ENDBRANCH  16  17
ENDBRANCH  15  16
ENDBRANCH  14  15
ENDBRANCH  13  14
ENDBRANCH  12  13
ENDBRANCH  11  12
ENDBRANCH  10  11
ENDBRANCH   9  10
ENDBRANCH   8   9
ENDBRANCH   7   8
ENDBRANCH   6   7
ENDBRANCH   5   6
ENDBRANCH   4   5
ENDBRANCH   3   4
ENDBRANCH   2   3
TORSDOF 34
ENDMDL
MODEL      139
REMARK 921   NORMALIZED FREE ENERGY PREDICTED BY IDOCK:   -2.60 KCAL/MOL
REMARK 922        TOTAL FREE ENERGY PREDICTED BY IDOCK:  -14.10 KCAL/MOL
REMARK 923 INTER-LIGAND FREE ENERGY PREDICTED BY IDOCK:   -9.69 KCAL/MOL
REMARK 924 INTRA-LIGAND FREE ENERGY PREDICTED BY IDOCK:   -4.42 KCAL/MOL
REMARK 927      BINDING AFFINITY PREDICTED BY RF-SCORE:    0.00 PKD
ROOT
HETATM    1  C   UNL     1      -8.115  14.581  68.001  1.00  0.00    -0.139 C  
HETATM    2  C   UNL     1      -7.497  15.010  69.320  1.00  0.00    -0.188 C  
ENDROOT
BRANCH   2   3
HETATM    3  C   UNL     1      -6.674  16.278  69.152  1.00  0.00    -0.196 C  
BRANCH   3   4
HETATM    4  C   UNL     1      -7.350  17.247  68.185  1.00  0.00    -0.199 C  
BRANCH   4   5
HETATM    5  C   UNL     1      -7.370  18.657  68.762  1.00  0.00    -0.326 C  
BRANCH   5   6
HETATM    6  C   UNL     1      -8.575  19.429  68.245  1.00  0.00    -0.376 C  
BRANCH   6   7
HETATM    7  C   UNL     1      -8.631  19.358  66.725  1.00  0.00    -0.336 C  
BRANCH   7   8
HETATM    8  C   UNL     1     -10.069  19.190  66.261  1.00  0.00    -0.499 C  
BRANCH   8   9
HETATM    9  C   UNL     1     -10.657  17.909  66.827  1.00  0.00    -0.253 C  
BRANCH   9  10
HETATM   10  C   UNL     1     -10.182  16.719  66.014  1.00  0.00    -0.361 C  
BRANCH  10  11
HETATM   11  C   UNL     1     -11.129  16.460  64.858  1.00  0.00    -0.249 C  
BRANCH  11  12
HETATM   12  C   UNL     1     -11.358  14.967  64.719  1.00  0.00    -0.409 C  
BRANCH  12  13
HETATM   13  C   UNL     1     -11.345  14.307  66.082  1.00  0.00    -0.342 C  
BRANCH  13  14
HETATM   14  C   UNL     1     -12.166  13.032  66.038  1.00  0.00    -0.463 C  
BRANCH  14  15
HETATM   15  C   UNL     1     -11.232  11.843  66.036  1.00  0.00    -0.377 C  
BRANCH  15  16
HETATM   16  C   UNL     1     -10.455  11.760  67.339  1.00  0.00    -0.238 C  
BRANCH  16  17
HETATM   17  C   UNL     1     -11.014  10.594  68.131  1.00  0.00    -0.321 C  
BRANCH  17  18
HETATM   18  C   UNL     1     -10.327   9.291  67.768  1.00  0.00    -0.237 C  
BRANCH  18  19
HETATM   19  N   UNL     1      -9.131   8.985  68.696  1.00  0.00    -0.137 N  
HETATM   20  C   UNL     1      -7.812   9.127  67.931  1.00  0.00    -0.100 C  
HETATM   21  C   UNL     1      -9.137   9.930  69.900  1.00  0.00    -0.210 C  
BRANCH  19  22
HETATM   22  C   UNL     1      -9.330   7.524  69.157  1.00  0.00    -0.147 C  
BRANCH  22  23
HETATM   23  C   UNL     1     -10.652   6.951  68.686  1.00  0.00    -0.254 C  
BRANCH  23  24
HETATM   24  C   UNL     1     -11.447   6.361  69.836  1.00  0.00    -0.483 C  
BRANCH  24  25
HETATM   25  C   UNL     1     -11.885   7.511  70.726  1.00  0.00    -0.254 C  
BRANCH  25  26
HETATM   26  C   UNL     1     -11.765   7.143  72.186  1.00  0.00    -0.322 C  
BRANCH  26  27
HETATM   27  C   UNL     1     -10.525   7.801  72.767  1.00  0.00    -0.390 C  
BRANCH  27  28
HETATM   28  C   UNL     1      -9.702   6.768  73.507  1.00  0.00    -0.228 C  
BRANCH  28  29
HETATM   29  C   UNL     1      -8.846   5.986  72.531  1.00  0.00    -0.132 C  
BRANCH  29  30
HETATM   30  C   UNL     1      -8.868   4.517  72.904  1.00  0.00    -0.119 C  
BRANCH  30  31
HETATM   31  C   UNL     1     -10.009   3.809  72.201  1.00  0.00    -0.239 C  
BRANCH  31  32
HETATM   32  C   UNL     1      -9.463   2.744  71.269  1.00  0.00    -0.219 C  
BRANCH  32  33
HETATM   33  C   UNL     1      -9.659   3.162  69.822  1.00  0.00    -0.128 C  
BRANCH  33  34
HETATM   34  C   UNL     1      -8.361   3.709  69.250  1.00  0.00    -0.086 C  
BRANCH  34  35
HETATM   35  C   UNL     1      -8.249   3.367  67.771  1.00  0.00    -0.086 C  
BRANCH  35  36
HETATM   36  C   UNL     1      -8.592   4.577  66.912  1.00  0.00    -0.104 C  
BRANCH  36  37
HETATM   37  C   UNL     1      -9.886   4.335  66.140  1.00  0.00    -0.232 C  
BRANCH  37  38
HETATM   38  C   UNL     1      -9.632   4.323  64.637  1.00  0.00    -0.160 C  
HETATM   39  C   UNL     1     -10.224   3.080  63.996  1.00  0.00    -0.148 C  
ENDBRANCH  37  38
ENDBRANCH  36  37
ENDBRANCH  35  36
ENDBRANCH  34  35
ENDBRANCH  33  34
ENDBRANCH  32  33
ENDBRANCH  31  32
ENDBRANCH  30  31
ENDBRANCH  29  30
ENDBRANCH  28  29
ENDBRANCH  27  28
ENDBRANCH  26  27
ENDBRANCH  25  26
ENDBRANCH  24  25
ENDBRANCH  23  24
ENDBRANCH  22  23
ENDBRANCH  19  22
ENDBRANCH  18  19
ENDBRANCH  17  18
ENDBRANCH  16  17
ENDBRANCH  15  16
ENDBRANCH  14  15
ENDBRANCH  13  14
ENDBRANCH  12  13
ENDBRANCH  11  12
ENDBRANCH  10  11
ENDBRANCH   9  10
ENDBRANCH   8   9
ENDBRANCH   7   8
ENDBRANCH   6   7
ENDBRANCH   5   6
ENDBRANCH   4   5
ENDBRANCH   3   4
ENDBRANCH   2   3
TORSDOF 34
ENDMDL
MODEL      140
REMARK 921   NORMALIZED FREE ENERGY PREDICTED BY IDOCK:   -2.60 KCAL/MOL
REMARK 922        TOTAL FREE ENERGY PREDICTED BY IDOCK:  -14.10 KCAL/MOL
REMARK 923 INTER-LIGAND FREE ENERGY PREDICTED BY IDOCK:  -10.22 KCAL/MOL
REMARK 924 INTRA-LIGAND FREE ENERGY PREDICTED BY IDOCK:   -3.88 KCAL/MOL
REMARK 927      BINDING AFFINITY PREDICTED BY RF-SCORE:    0.00 PKD
ROOT
HETATM    1  C   UNL     1      -5.291  14.570  69.441  1.00  0.00    -0.089 C  
HETATM    2  C   UNL     1      -5.974  13.295  68.978  1.00  0.00    -0.083 C  
ENDROOT
BRANCH   2   3
HETATM    3  C   UNL     1      -6.760  13.531  67.697  1.00  0.00    -0.176 C  
BRANCH   3   4
HETATM    4  C   UNL     1      -8.244  13.732  67.991  1.00  0.00    -0.164 C  
BRANCH   4   5
HETATM    5  C   UNL     1      -8.435  14.639  69.200  1.00  0.00    -0.044 C  
BRANCH   5   6
HETATM    6  C   UNL     1      -9.782  15.344  69.132  1.00  0.00    -0.252 C  
BRANCH   6   7
HETATM    7  C   UNL     1      -9.587  16.853  69.168  1.00  0.00    -0.158 C  
BRANCH   7   8
HETATM    8  C   UNL     1      -8.230  17.221  68.590  1.00  0.00    -0.262 C  
BRANCH   8   9
HETATM    9  C   UNL     1      -8.155  18.718  68.338  1.00  0.00    -0.371 C  
BRANCH   9  10
HETATM   10  C   UNL     1      -9.406  19.393  68.867  1.00  0.00    -0.417 C  
BRANCH  10  11
HETATM   11  C   UNL     1     -10.559  19.198  67.899  1.00  0.00    -0.459 C  
BRANCH  11  12
HETATM   12  C   UNL     1     -10.152  19.693  66.525  1.00  0.00    -0.568 C  
BRANCH  12  13
HETATM   13  C   UNL     1     -10.621  18.725  65.460  1.00  0.00    -0.038 C  
BRANCH  13  14
HETATM   14  C   UNL     1     -10.828  17.353  66.076  1.00  0.00     0.016 C  
BRANCH  14  15
HETATM   15  C   UNL     1     -10.861  16.317  64.975  1.00  0.00    -0.337 C  
BRANCH  15  16
HETATM   16  C   UNL     1     -11.557  15.050  65.442  1.00  0.00    -0.229 C  
BRANCH  16  17
HETATM   17  C   UNL     1     -10.550  13.918  65.359  1.00  0.00    -0.344 C  
BRANCH  17  18
HETATM   18  C   UNL     1     -10.523  13.295  63.976  1.00  0.00    -0.136 C  
BRANCH  18  19
HETATM   19  N   UNL     1     -10.986  11.822  63.993  1.00  0.00    -0.355 N  
HETATM   20  C   UNL     1     -12.471  11.726  63.630  1.00  0.00    -0.370 C  
HETATM   21  C   UNL     1     -10.157  10.992  63.011  1.00  0.00    -0.240 C  
BRANCH  19  22
HETATM   22  C   UNL     1     -10.755  11.334  65.440  1.00  0.00    -0.227 C  
BRANCH  22  23
HETATM   23  C   UNL     1      -9.935  10.061  65.490  1.00  0.00    -0.367 C  
BRANCH  23  24
HETATM   24  C   UNL     1      -9.060  10.008  66.729  1.00  0.00    -0.159 C  
BRANCH  24  25
HETATM   25  C   UNL     1      -9.113   8.588  67.266  1.00  0.00    -0.152 C  
BRANCH  25  26
HETATM   26  C   UNL     1     -10.357   7.875  66.788  1.00  0.00    -0.357 C  
BRANCH  26  27
HETATM   27  C   UNL     1     -10.740   6.807  67.797  1.00  0.00    -0.334 C  
BRANCH  27  28
HETATM   28  C   UNL     1      -9.572   5.866  68.008  1.00  0.00    -0.122 C  
BRANCH  28  29
HETATM   29  C   UNL     1      -9.964   4.756  68.963  1.00  0.00    -0.213 C  
BRANCH  29  30
HETATM   30  C   UNL     1     -10.232   5.341  70.336  1.00  0.00    -0.338 C  
BRANCH  30  31
HETATM   31  C   UNL     1      -9.419   4.617  71.389  1.00  0.00    -0.217 C  
BRANCH  31  32
HETATM   32  C   UNL     1      -9.608   5.284  72.739  1.00  0.00    -0.167 C  
BRANCH  32  33
HETATM   33  C   UNL     1     -10.990   5.907  72.828  1.00  0.00    -0.303 C  
BRANCH  33  34
HETATM   34  C   UNL     1     -10.887   7.359  73.269  1.00  0.00    -0.417 C  
BRANCH  34  35
HETATM   35  C   UNL     1     -11.814   8.231  72.433  1.00  0.00    -0.461 C  
BRANCH  35  36
HETATM   36  C   UNL     1     -11.100   8.733  71.185  1.00  0.00    -0.340 C  
BRANCH  36  37
HETATM   37  C   UNL     1     -11.835   9.931  70.594  1.00  0.00    -0.386 C  
BRANCH  37  38
HETATM   38  C   UNL     1     -10.861  10.899  69.933  1.00  0.00    -0.205 C  
HETATM   39  C   UNL     1     -11.600  12.059  69.289  1.00  0.00    -0.380 C  
ENDBRANCH  37  38
ENDBRANCH  36  37
ENDBRANCH  35  36
ENDBRANCH  34  35
ENDBRANCH  33  34
ENDBRANCH  32  33
ENDBRANCH  31  32
ENDBRANCH  30  31
ENDBRANCH  29  30
ENDBRANCH  28  29
ENDBRANCH  27  28
ENDBRANCH  26  27
ENDBRANCH  25  26
ENDBRANCH  24  25
ENDBRANCH  23  24
ENDBRANCH  22  23
ENDBRANCH  19  22
ENDBRANCH  18  19
ENDBRANCH  17  18
ENDBRANCH  16  17
ENDBRANCH  15  16
ENDBRANCH  14  15
ENDBRANCH  13  14
ENDBRANCH  12  13
ENDBRANCH  11  12
ENDBRANCH  10  11
ENDBRANCH   9  10
ENDBRANCH   8   9
ENDBRANCH   7   8
ENDBRANCH   6   7
ENDBRANCH   5   6
ENDBRANCH   4   5
ENDBRANCH   3   4
ENDBRANCH   2   3
TORSDOF 34
ENDMDL
MODEL      141
REMARK 921   NORMALIZED FREE ENERGY PREDICTED BY IDOCK:   -2.58 KCAL/MOL
REMARK 922        TOTAL FREE ENERGY PREDICTED BY IDOCK:  -14.02 KCAL/MOL
REMARK 923 INTER-LIGAND FREE ENERGY PREDICTED BY IDOCK:   -8.95 KCAL/MOL
REMARK 924 INTRA-LIGAND FREE ENERGY PREDICTED BY IDOCK:   -5.08 KCAL/MOL
REMARK 927      BINDING AFFINITY PREDICTED BY RF-SCORE:    0.00 PKD
ROOT
HETATM    1  C   UNL     1      -8.171   4.366  72.378  1.00  0.00    -0.108 C  
HETATM    2  C   UNL     1      -9.620   4.481  71.939  1.00  0.00    -0.211 C  
ENDROOT
BRANCH   2   3
HETATM    3  C   UNL     1      -9.745   5.337  70.688  1.00  0.00    -0.249 C  
BRANCH   3   4
HETATM    4  C   UNL     1     -11.208   5.639  70.372  1.00  0.00    -0.086 C  
BRANCH   4   5
HETATM    5  C   UNL     1     -11.554   7.074  70.745  1.00  0.00    -0.381 C  
BRANCH   5   6
HETATM    6  C   UNL     1     -12.402   7.109  72.008  1.00  0.00    -0.298 C  
BRANCH   6   7
HETATM    7  C   UNL     1     -13.634   7.977  71.790  1.00  0.00    -0.395 C  
BRANCH   7   8
HETATM    8  C   UNL     1     -13.299   9.437  72.048  1.00  0.00    -0.525 C  
BRANCH   8   9
HETATM    9  C   UNL     1     -13.160  10.184  70.732  1.00  0.00    -0.351 C  
BRANCH   9  10
HETATM   10  C   UNL     1     -12.603  11.572  70.983  1.00  0.00    -0.457 C  
BRANCH  10  11
HETATM   11  C   UNL     1     -13.272  12.197  72.193  1.00  0.00    -0.438 C  
BRANCH  11  12
HETATM   12  C   UNL     1     -13.282  13.705  72.041  1.00  0.00    -0.522 C  
BRANCH  12  13
HETATM   13  C   UNL     1     -12.425  14.118  70.863  1.00  0.00    -0.436 C  
BRANCH  13  14
HETATM   14  C   UNL     1     -12.081  15.591  70.975  1.00  0.00    -0.438 C  
BRANCH  14  15
HETATM   15  C   UNL     1     -10.896  15.892  70.085  1.00  0.00    -0.359 C  
BRANCH  15  16
HETATM   16  C   UNL     1     -11.197  17.053  69.153  1.00  0.00     0.221 C  
BRANCH  16  17
HETATM   17  C   UNL     1      -9.895  17.454  68.487  1.00  0.00    -0.320 C  
BRANCH  17  18
HETATM   18  C   UNL     1      -8.969  16.265  68.311  1.00  0.00    -0.192 C  
BRANCH  18  19
HETATM   19  N   UNL     1      -8.676  15.969  66.825  1.00  0.00    -0.226 N  
HETATM   20  C   UNL     1      -9.832  16.454  65.946  1.00  0.00    -0.315 C  
HETATM   21  C   UNL     1      -7.375  16.650  66.393  1.00  0.00    -0.181 C  
BRANCH  19  22
HETATM   22  C   UNL     1      -8.537  14.434  66.730  1.00  0.00    -0.108 C  
BRANCH  22  23
HETATM   23  C   UNL     1      -8.517  13.775  68.095  1.00  0.00    -0.173 C  
BRANCH  23  24
HETATM   24  C   UNL     1      -7.208  13.050  68.347  1.00  0.00    -0.110 C  
BRANCH  24  25
HETATM   25  C   UNL     1      -7.340  11.653  67.768  1.00  0.00    -0.106 C  
BRANCH  25  26
HETATM   26  C   UNL     1      -8.508  10.919  68.385  1.00  0.00    -0.141 C  
BRANCH  26  27
HETATM   27  C   UNL     1      -7.985   9.836  69.311  1.00  0.00    -0.112 C  
BRANCH  27  28
HETATM   28  C   UNL     1      -8.636   8.513  68.966  1.00  0.00    -0.130 C  
BRANCH  28  29
HETATM   29  C   UNL     1      -9.791   8.735  68.009  1.00  0.00    -0.201 C  
BRANCH  29  30
HETATM   30  C   UNL     1      -9.843   7.598  67.008  1.00  0.00    -0.282 C  
BRANCH  30  31
HETATM   31  C   UNL     1      -8.851   6.516  67.383  1.00  0.00    -0.115 C  
BRANCH  31  32
HETATM   32  C   UNL     1      -8.053   6.098  66.162  1.00  0.00    -0.115 C  
BRANCH  32  33
HETATM   33  C   UNL     1      -6.812   6.963  66.024  1.00  0.00    -0.060 C  
BRANCH  33  34
HETATM   34  C   UNL     1      -6.467   7.159  64.556  1.00  0.00    -0.037 C  
BRANCH  34  35
HETATM   35  C   UNL     1      -6.237   8.635  64.260  1.00  0.00    -0.067 C  
BRANCH  35  36
HETATM   36  C   UNL     1      -7.317   9.488  64.914  1.00  0.00    -0.111 C  
BRANCH  36  37
HETATM   37  C   UNL     1      -8.259  10.058  63.858  1.00  0.00    -0.159 C  
BRANCH  37  38
HETATM   38  C   UNL     1      -9.694  10.098  64.371  1.00  0.00    -0.345 C  
HETATM   39  C   UNL     1      -9.945  11.355  65.187  1.00  0.00    -0.310 C  
ENDBRANCH  37  38
ENDBRANCH  36  37
ENDBRANCH  35  36
ENDBRANCH  34  35
ENDBRANCH  33  34
ENDBRANCH  32  33
ENDBRANCH  31  32
ENDBRANCH  30  31
ENDBRANCH  29  30
ENDBRANCH  28  29
ENDBRANCH  27  28
ENDBRANCH  26  27
ENDBRANCH  25  26
ENDBRANCH  24  25
ENDBRANCH  23  24
ENDBRANCH  22  23
ENDBRANCH  19  22
ENDBRANCH  18  19
ENDBRANCH  17  18
ENDBRANCH  16  17
ENDBRANCH  15  16
ENDBRANCH  14  15
ENDBRANCH  13  14
ENDBRANCH  12  13
ENDBRANCH  11  12
ENDBRANCH  10  11
ENDBRANCH   9  10
ENDBRANCH   8   9
ENDBRANCH   7   8
ENDBRANCH   6   7
ENDBRANCH   5   6
ENDBRANCH   4   5
ENDBRANCH   3   4
ENDBRANCH   2   3
TORSDOF 34
ENDMDL
MODEL      142
REMARK 921   NORMALIZED FREE ENERGY PREDICTED BY IDOCK:   -2.57 KCAL/MOL
REMARK 922        TOTAL FREE ENERGY PREDICTED BY IDOCK:  -14.02 KCAL/MOL
REMARK 923 INTER-LIGAND FREE ENERGY PREDICTED BY IDOCK:   -9.18 KCAL/MOL
REMARK 924 INTRA-LIGAND FREE ENERGY PREDICTED BY IDOCK:   -4.84 KCAL/MOL
REMARK 927      BINDING AFFINITY PREDICTED BY RF-SCORE:    0.00 PKD
ROOT
HETATM    1  C   UNL     1      -6.565   4.979  71.208  1.00  0.00    -0.038 C  
HETATM    2  C   UNL     1      -7.067   4.500  72.558  1.00  0.00    -0.074 C  
ENDROOT
BRANCH   2   3
HETATM    3  C   UNL     1      -7.083   5.637  73.569  1.00  0.00    -0.086 C  
BRANCH   3   4
HETATM    4  C   UNL     1      -5.948   6.623  73.306  1.00  0.00    -0.058 C  
BRANCH   4   5
HETATM    5  C   UNL     1      -6.453   8.058  73.386  1.00  0.00    -0.100 C  
BRANCH   5   6
HETATM    6  C   UNL     1      -5.973   8.862  72.186  1.00  0.00    -0.072 C  
BRANCH   6   7
HETATM    7  C   UNL     1      -6.978   8.756  71.048  1.00  0.00    -0.077 C  
BRANCH   7   8
HETATM    8  C   UNL     1      -8.383   8.583  71.602  1.00  0.00    -0.218 C  
BRANCH   8   9
HETATM    9  C   UNL     1      -9.084   7.430  70.904  1.00  0.00    -0.154 C  
BRANCH   9  10
HETATM   10  C   UNL     1     -10.035   6.745  71.867  1.00  0.00    -0.187 C  
BRANCH  10  11
HETATM   11  C   UNL     1     -10.830   7.777  72.645  1.00  0.00    -0.413 C  
BRANCH  11  12
HETATM   12  C   UNL     1     -12.267   7.776  72.161  1.00  0.00    -0.325 C  
BRANCH  12  13
HETATM   13  C   UNL     1     -12.828   9.183  72.186  1.00  0.00    -0.486 C  
BRANCH  13  14
HETATM   14  C   UNL     1     -11.772  10.160  71.705  1.00  0.00    -0.144 C  
BRANCH  14  15
HETATM   15  C   UNL     1     -11.463   9.880  70.252  1.00  0.00    -0.349 C  
BRANCH  15  16
HETATM   16  C   UNL     1     -12.263  10.793  69.339  1.00  0.00    -0.242 C  
BRANCH  16  17
HETATM   17  C   UNL     1     -11.460  12.066  69.149  1.00  0.00    -0.357 C  
BRANCH  17  18
HETATM   18  C   UNL     1     -11.559  12.582  67.725  1.00  0.00    -0.343 C  
BRANCH  18  19
HETATM   19  N   UNL     1     -10.182  12.644  67.032  1.00  0.00    -0.225 N  
HETATM   20  C   UNL     1      -9.967  11.405  66.159  1.00  0.00    -0.227 C  
HETATM   21  C   UNL     1     -10.073  13.908  66.176  1.00  0.00    -0.308 C  
BRANCH  19  22
HETATM   22  C   UNL     1      -9.145  12.679  68.177  1.00  0.00    -0.204 C  
BRANCH  22  23
HETATM   23  C   UNL     1      -7.736  12.902  67.667  1.00  0.00    -0.162 C  
BRANCH  23  24
HETATM   24  C   UNL     1      -6.737  12.996  68.806  1.00  0.00    -0.100 C  
BRANCH  24  25
HETATM   25  C   UNL     1      -5.980  14.302  68.643  1.00  0.00    -0.085 C  
BRANCH  25  26
HETATM   26  C   UNL     1      -5.734  14.956  69.983  1.00  0.00    -0.127 C  
BRANCH  26  27
HETATM   27  C   UNL     1      -6.483  16.276  70.041  1.00  0.00     0.009 C  
BRANCH  27  28
HETATM   28  C   UNL     1      -6.954  16.654  68.652  1.00  0.00    -0.172 C  
BRANCH  28  29
HETATM   29  C   UNL     1      -6.244  17.910  68.186  1.00  0.00    -0.175 C  
BRANCH  29  30
HETATM   30  C   UNL     1      -6.874  19.120  68.847  1.00  0.00    -0.357 C  
BRANCH  30  31
HETATM   31  C   UNL     1      -7.634  19.945  67.828  1.00  0.00    -0.322 C  
BRANCH  31  32
HETATM   32  C   UNL     1      -9.102  19.562  67.842  1.00  0.00    -0.387 C  
BRANCH  32  33
HETATM   33  C   UNL     1      -9.414  18.639  66.677  1.00  0.00    -0.328 C  
BRANCH  33  34
HETATM   34  C   UNL     1     -10.520  17.666  67.057  1.00  0.00    -0.305 C  
BRANCH  34  35
HETATM   35  C   UNL     1     -10.541  17.455  68.564  1.00  0.00    -0.340 C  
BRANCH  35  36
HETATM   36  C   UNL     1     -11.203  16.127  68.912  1.00  0.00    -0.351 C  
BRANCH  36  37
HETATM   37  C   UNL     1     -10.728  15.634  70.275  1.00  0.00    -0.354 C  
BRANCH  37  38
HETATM   38  C   UNL     1     -11.706  16.036  71.373  1.00  0.00    -0.536 C  
HETATM   39  C   UNL     1     -12.167  14.821  72.161  1.00  0.00    -0.396 C  
ENDBRANCH  37  38
ENDBRANCH  36  37
ENDBRANCH  35  36
ENDBRANCH  34  35
ENDBRANCH  33  34
ENDBRANCH  32  33
ENDBRANCH  31  32
ENDBRANCH  30  31
ENDBRANCH  29  30
ENDBRANCH  28  29
ENDBRANCH  27  28
ENDBRANCH  26  27
ENDBRANCH  25  26
ENDBRANCH  24  25
ENDBRANCH  23  24
ENDBRANCH  22  23
ENDBRANCH  19  22
ENDBRANCH  18  19
ENDBRANCH  17  18
ENDBRANCH  16  17
ENDBRANCH  15  16
ENDBRANCH  14  15
ENDBRANCH  13  14
ENDBRANCH  12  13
ENDBRANCH  11  12
ENDBRANCH  10  11
ENDBRANCH   9  10
ENDBRANCH   8   9
ENDBRANCH   7   8
ENDBRANCH   6   7
ENDBRANCH   5   6
ENDBRANCH   4   5
ENDBRANCH   3   4
ENDBRANCH   2   3
TORSDOF 34
ENDMDL
MODEL      143
REMARK 921   NORMALIZED FREE ENERGY PREDICTED BY IDOCK:   -2.57 KCAL/MOL
REMARK 922        TOTAL FREE ENERGY PREDICTED BY IDOCK:  -14.02 KCAL/MOL
REMARK 923 INTER-LIGAND FREE ENERGY PREDICTED BY IDOCK:   -8.83 KCAL/MOL
REMARK 924 INTRA-LIGAND FREE ENERGY PREDICTED BY IDOCK:   -5.18 KCAL/MOL
REMARK 927      BINDING AFFINITY PREDICTED BY RF-SCORE:    0.00 PKD
ROOT
HETATM    1  C   UNL     1     -10.086   4.772  65.905  1.00  0.00    -0.265 C  
HETATM    2  C   UNL     1      -9.759   5.786  66.986  1.00  0.00    -0.155 C  
ENDROOT
BRANCH   2   3
HETATM    3  C   UNL     1      -9.121   7.033  66.391  1.00  0.00    -0.189 C  
BRANCH   3   4
HETATM    4  C   UNL     1      -7.599   6.925  66.391  1.00  0.00    -0.089 C  
BRANCH   4   5
HETATM    5  C   UNL     1      -6.971   8.165  67.015  1.00  0.00    -0.074 C  
BRANCH   5   6
HETATM    6  C   UNL     1      -6.687   7.935  68.492  1.00  0.00    -0.062 C  
BRANCH   6   7
HETATM    7  C   UNL     1      -6.391   6.464  68.747  1.00  0.00    -0.038 C  
BRANCH   7   8
HETATM    8  C   UNL     1      -6.132   6.229  70.227  1.00  0.00    -0.030 C  
BRANCH   8   9
HETATM    9  C   UNL     1      -7.447   6.120  70.979  1.00  0.00    -0.085 C  
BRANCH   9  10
HETATM   10  C   UNL     1      -8.401   5.213  70.224  1.00  0.00    -0.097 C  
BRANCH  10  11
HETATM   11  C   UNL     1      -8.276   3.786  70.724  1.00  0.00    -0.079 C  
BRANCH  11  12
HETATM   12  C   UNL     1      -9.637   3.289  71.171  1.00  0.00    -0.230 C  
BRANCH  12  13
HETATM   13  C   UNL     1      -9.776   3.428  72.673  1.00  0.00    -0.198 C  
BRANCH  13  14
HETATM   14  C   UNL     1     -10.764   4.535  72.992  1.00  0.00    -0.298 C  
BRANCH  14  15
HETATM   15  C   UNL     1     -10.336   5.228  74.266  1.00  0.00    -0.308 C  
BRANCH  15  16
HETATM   16  C   UNL     1     -10.004   6.687  74.007  1.00  0.00    -0.346 C  
BRANCH  16  17
HETATM   17  C   UNL     1     -10.319   6.975  72.551  1.00  0.00    -0.230 C  
BRANCH  17  18
HETATM   18  C   UNL     1     -10.673   8.434  72.334  1.00  0.00    -0.335 C  
BRANCH  18  19
HETATM   19  N   UNL     1     -11.878   8.606  71.385  1.00  0.00    -0.285 N  
HETATM   20  C   UNL     1     -12.877   7.462  71.578  1.00  0.00    -0.375 C  
HETATM   21  C   UNL     1     -12.569   9.948  71.638  1.00  0.00    -0.424 C  
BRANCH  19  22
HETATM   22  C   UNL     1     -11.287   8.566  69.958  1.00  0.00    -0.007 C  
BRANCH  22  23
HETATM   23  C   UNL     1      -9.893   9.157  69.899  1.00  0.00    -0.206 C  
BRANCH  23  24
HETATM   24  C   UNL     1      -9.872  10.464  69.127  1.00  0.00    -0.237 C  
BRANCH  24  25
HETATM   25  C   UNL     1      -9.950  10.122  67.649  1.00  0.00    -0.216 C  
BRANCH  25  26
HETATM   26  C   UNL     1     -10.855  11.087  66.918  1.00  0.00    -0.324 C  
BRANCH  26  27
HETATM   27  C   UNL     1     -11.954  11.551  67.856  1.00  0.00    -0.145 C  
BRANCH  27  28
HETATM   28  C   UNL     1     -11.901  13.058  67.995  1.00  0.00    -0.391 C  
BRANCH  28  29
HETATM   29  C   UNL     1     -11.287  13.674  66.753  1.00  0.00    -0.346 C  
BRANCH  29  30
HETATM   30  C   UNL     1     -10.455  14.879  67.146  1.00  0.00    -0.271 C  
BRANCH  30  31
HETATM   31  C   UNL     1      -9.236  14.447  67.936  1.00  0.00    -0.195 C  
BRANCH  31  32
HETATM   32  C   UNL     1      -9.126  15.267  69.208  1.00  0.00    -0.240 C  
BRANCH  32  33
HETATM   33  C   UNL     1      -8.021  16.301  69.072  1.00  0.00    -0.238 C  
BRANCH  33  34
HETATM   34  C   UNL     1      -7.097  15.936  67.920  1.00  0.00    -0.147 C  
BRANCH  34  35
HETATM   35  C   UNL     1      -6.862  17.147  67.028  1.00  0.00    -0.228 C  
BRANCH  35  36
HETATM   36  C   UNL     1      -7.883  18.238  67.324  1.00  0.00    -0.233 C  
BRANCH  36  37
HETATM   37  C   UNL     1      -9.052  18.154  66.348  1.00  0.00    -0.255 C  
BRANCH  37  38
HETATM   38  C   UNL     1     -10.357  18.561  67.022  1.00  0.00    -0.433 C  
HETATM   39  C   UNL     1     -10.090  19.373  68.278  1.00  0.00    -0.531 C  
ENDBRANCH  37  38
ENDBRANCH  36  37
ENDBRANCH  35  36
ENDBRANCH  34  35
ENDBRANCH  33  34
ENDBRANCH  32  33
ENDBRANCH  31  32
ENDBRANCH  30  31
ENDBRANCH  29  30
ENDBRANCH  28  29
ENDBRANCH  27  28
ENDBRANCH  26  27
ENDBRANCH  25  26
ENDBRANCH  24  25
ENDBRANCH  23  24
ENDBRANCH  22  23
ENDBRANCH  19  22
ENDBRANCH  18  19
ENDBRANCH  17  18
ENDBRANCH  16  17
ENDBRANCH  15  16
ENDBRANCH  14  15
ENDBRANCH  13  14
ENDBRANCH  12  13
ENDBRANCH  11  12
ENDBRANCH  10  11
ENDBRANCH   9  10
ENDBRANCH   8   9
ENDBRANCH   7   8
ENDBRANCH   6   7
ENDBRANCH   5   6
ENDBRANCH   4   5
ENDBRANCH   3   4
ENDBRANCH   2   3
TORSDOF 34
ENDMDL
MODEL      144
REMARK 921   NORMALIZED FREE ENERGY PREDICTED BY IDOCK:   -2.57 KCAL/MOL
REMARK 922        TOTAL FREE ENERGY PREDICTED BY IDOCK:  -13.99 KCAL/MOL
REMARK 923 INTER-LIGAND FREE ENERGY PREDICTED BY IDOCK:   -8.96 KCAL/MOL
REMARK 924 INTRA-LIGAND FREE ENERGY PREDICTED BY IDOCK:   -5.04 KCAL/MOL
REMARK 927      BINDING AFFINITY PREDICTED BY RF-SCORE:    0.00 PKD
ROOT
HETATM    1  C   UNL     1     -10.595   6.582  72.972  1.00  0.00    -0.276 C  
HETATM    2  C   UNL     1     -11.222   7.231  71.752  1.00  0.00    -0.278 C  
ENDROOT
BRANCH   2   3
HETATM    3  C   UNL     1     -12.730   7.355  71.913  1.00  0.00    -0.310 C  
BRANCH   3   4
HETATM    4  C   UNL     1     -13.150   8.817  72.043  1.00  0.00    -0.436 C  
BRANCH   4   5
HETATM    5  C   UNL     1     -11.933   9.732  71.996  1.00  0.00    -0.108 C  
BRANCH   5   6
HETATM    6  C   UNL     1     -12.257  11.014  71.242  1.00  0.00    -0.365 C  
BRANCH   6   7
HETATM    7  C   UNL     1     -12.209  10.767  69.741  1.00  0.00    -0.359 C  
BRANCH   7   8
HETATM    8  C   UNL     1     -10.846  10.225  69.341  1.00  0.00    -0.282 C  
BRANCH   8   9
HETATM    9  C   UNL     1      -9.845  11.361  69.219  1.00  0.00     0.138 C  
BRANCH   9  10
HETATM   10  C   UNL     1      -8.629  10.896  68.439  1.00  0.00    -0.146 C  
BRANCH  10  11
HETATM   11  C   UNL     1      -8.588   9.380  68.385  1.00  0.00    -0.124 C  
BRANCH  11  12
HETATM   12  C   UNL     1      -7.241   8.932  67.852  1.00  0.00    -0.083 C  
BRANCH  12  13
HETATM   13  C   UNL     1      -7.415   7.755  66.915  1.00  0.00    -0.094 C  
BRANCH  13  14
HETATM   14  C   UNL     1      -8.385   8.126  65.808  1.00  0.00    -0.140 C  
BRANCH  14  15
HETATM   15  C   UNL     1      -7.650   8.919  64.752  1.00  0.00    -0.106 C  
BRANCH  15  16
HETATM   16  C   UNL     1      -8.626   9.587  63.797  1.00  0.00    -0.222 C  
BRANCH  16  17
HETATM   17  C   UNL     1      -9.626  10.361  64.635  1.00  0.00    -0.360 C  
BRANCH  17  18
HETATM   18  C   UNL     1     -10.233  11.513  63.856  1.00  0.00    -0.362 C  
BRANCH  18  19
HETATM   19  N   UNL     1     -11.360  12.217  64.642  1.00  0.00    -0.318 N  
HETATM   20  C   UNL     1     -12.654  12.230  63.823  1.00  0.00    -0.470 C  
HETATM   21  C   UNL     1     -11.598  11.511  65.978  1.00  0.00     0.102 C  
BRANCH  19  22
HETATM   22  C   UNL     1     -10.860  13.659  64.876  1.00  0.00    -0.375 C  
BRANCH  22  23
HETATM   23  C   UNL     1     -10.980  14.078  66.328  1.00  0.00    -0.300 C  
BRANCH  23  24
HETATM   24  C   UNL     1     -11.426  15.522  66.459  1.00  0.00     0.080 C  
BRANCH  24  25
HETATM   25  C   UNL     1     -10.578  16.349  65.508  1.00  0.00    -0.346 C  
BRANCH  25  26
HETATM   26  C   UNL     1     -10.165  17.655  66.147  1.00  0.00    -0.345 C  
BRANCH  26  27
HETATM   27  C   UNL     1     -10.904  17.824  67.462  1.00  0.00    -0.221 C  
BRANCH  27  28
HETATM   28  C   UNL     1     -10.647  19.211  68.014  1.00  0.00    -0.405 C  
BRANCH  28  29
HETATM   29  C   UNL     1      -9.303  19.722  67.535  1.00  0.00    -0.443 C  
BRANCH  29  30
HETATM   30  C   UNL     1      -8.236  19.369  68.553  1.00  0.00    -0.392 C  
BRANCH  30  31
HETATM   31  C   UNL     1      -7.370  18.236  68.040  1.00  0.00    -0.244 C  
BRANCH  31  32
HETATM   32  C   UNL     1      -6.526  17.677  69.171  1.00  0.00    -0.237 C  
BRANCH  32  33
HETATM   33  C   UNL     1      -6.812  16.196  69.356  1.00  0.00    -0.214 C  
BRANCH  33  34
HETATM   34  C   UNL     1      -8.246  15.882  68.959  1.00  0.00    -0.234 C  
BRANCH  34  35
HETATM   35  C   UNL     1      -8.925  15.057  70.043  1.00  0.00     0.411 C  
BRANCH  35  36
HETATM   36  C   UNL     1     -10.433  15.272  70.016  1.00  0.00    -0.266 C  
BRANCH  36  37
HETATM   37  C   UNL     1     -11.008  15.197  71.427  1.00  0.00    -0.119 C  
BRANCH  37  38
HETATM   38  C   UNL     1     -12.498  15.519  71.427  1.00  0.00    -0.480 C  
HETATM   39  C   UNL     1     -13.275  14.496  70.617  1.00  0.00    -0.228 C  
ENDBRANCH  37  38
ENDBRANCH  36  37
ENDBRANCH  35  36
ENDBRANCH  34  35
ENDBRANCH  33  34
ENDBRANCH  32  33
ENDBRANCH  31  32
ENDBRANCH  30  31
ENDBRANCH  29  30
ENDBRANCH  28  29
ENDBRANCH  27  28
ENDBRANCH  26  27
ENDBRANCH  25  26
ENDBRANCH  24  25
ENDBRANCH  23  24
ENDBRANCH  22  23
ENDBRANCH  19  22
ENDBRANCH  18  19
ENDBRANCH  17  18
ENDBRANCH  16  17
ENDBRANCH  15  16
ENDBRANCH  14  15
ENDBRANCH  13  14
ENDBRANCH  12  13
ENDBRANCH  11  12
ENDBRANCH  10  11
ENDBRANCH   9  10
ENDBRANCH   8   9
ENDBRANCH   7   8
ENDBRANCH   6   7
ENDBRANCH   5   6
ENDBRANCH   4   5
ENDBRANCH   3   4
ENDBRANCH   2   3
TORSDOF 34
ENDMDL
MODEL      145
REMARK 921   NORMALIZED FREE ENERGY PREDICTED BY IDOCK:   -2.57 KCAL/MOL
REMARK 922        TOTAL FREE ENERGY PREDICTED BY IDOCK:  -13.99 KCAL/MOL
REMARK 923 INTER-LIGAND FREE ENERGY PREDICTED BY IDOCK:   -8.76 KCAL/MOL
REMARK 924 INTRA-LIGAND FREE ENERGY PREDICTED BY IDOCK:   -5.23 KCAL/MOL
REMARK 927      BINDING AFFINITY PREDICTED BY RF-SCORE:    0.00 PKD
ROOT
HETATM    1  C   UNL     1      -6.382   6.877  68.367  1.00  0.00    -0.035 C  
HETATM    2  C   UNL     1      -6.850   8.321  68.367  1.00  0.00    -0.065 C  
ENDROOT
BRANCH   2   3
HETATM    3  C   UNL     1      -7.742   8.606  69.566  1.00  0.00    -0.090 C  
BRANCH   3   4
HETATM    4  C   UNL     1      -6.947   8.550  70.868  1.00  0.00    -0.057 C  
BRANCH   4   5
HETATM    5  C   UNL     1      -7.699   7.748  71.923  1.00  0.00    -0.099 C  
BRANCH   5   6
HETATM    6  C   UNL     1      -8.987   8.456  72.316  1.00  0.00    -0.303 C  
BRANCH   6   7
HETATM    7  C   UNL     1      -9.722   7.657  73.383  1.00  0.00    -0.363 C  
BRANCH   7   8
HETATM    8  C   UNL     1     -11.223   7.743  73.163  1.00  0.00    -0.277 C  
BRANCH   8   9
HETATM    9  C   UNL     1     -11.522   8.089  71.714  1.00  0.00    -0.324 C  
BRANCH   9  10
HETATM   10  C   UNL     1     -12.227   6.926  71.040  1.00  0.00    -0.427 C  
BRANCH  10  11
HETATM   11  C   UNL     1     -11.373   6.376  69.912  1.00  0.00    -0.500 C  
BRANCH  11  12
HETATM   12  C   UNL     1     -10.486   5.268  70.446  1.00  0.00    -0.322 C  
BRANCH  12  13
HETATM   13  C   UNL     1      -9.226   5.161  69.612  1.00  0.00    -0.164 C  
BRANCH  13  14
HETATM   14  C   UNL     1      -8.599   3.793  69.810  1.00  0.00    -0.106 C  
BRANCH  14  15
HETATM   15  C   UNL     1      -8.987   2.899  68.654  1.00  0.00    -0.191 C  
BRANCH  15  16
HETATM   16  C   UNL     1      -7.772   2.179  68.093  1.00  0.00    -0.054 C  
BRANCH  16  17
HETATM   17  C   UNL     1      -7.050   3.148  67.176  1.00  0.00    -0.058 C  
BRANCH  17  18
HETATM   18  C   UNL     1      -6.810   2.545  65.804  1.00  0.00    -0.043 C  
BRANCH  18  19
HETATM   19  N   UNL     1      -6.982   3.581  64.674  1.00  0.00    -0.052 N  
HETATM   20  C   UNL     1      -6.539   4.968  65.150  1.00  0.00    -0.040 C  
HETATM   21  C   UNL     1      -6.167   3.170  63.446  1.00  0.00    -0.014 C  
BRANCH  19  22
HETATM   22  C   UNL     1      -8.491   3.584  64.343  1.00  0.00    -0.093 C  
BRANCH  22  23
HETATM   23  C   UNL     1      -9.180   4.845  64.824  1.00  0.00    -0.058 C  
BRANCH  23  24
HETATM   24  C   UNL     1     -10.385   4.528  65.691  1.00  0.00    -0.274 C  
BRANCH  24  25
HETATM   25  C   UNL     1     -10.747   5.793  66.449  1.00  0.00    -0.193 C  
BRANCH  25  26
HETATM   26  C   UNL     1      -9.605   6.782  66.431  1.00  0.00    -0.149 C  
BRANCH  26  27
HETATM   27  C   UNL     1     -10.144   8.174  66.705  1.00  0.00    -0.344 C  
BRANCH  27  28
HETATM   28  C   UNL     1      -9.770   9.097  65.564  1.00  0.00    -0.171 C  
BRANCH  28  29
HETATM   29  C   UNL     1      -9.643  10.522  66.066  1.00  0.00    -0.242 C  
BRANCH  29  30
HETATM   30  C   UNL     1     -10.306  11.465  65.082  1.00  0.00    -0.344 C  
BRANCH  30  31
HETATM   31  C   UNL     1     -10.967  12.616  65.815  1.00  0.00    -0.313 C  
BRANCH  31  32
HETATM   32  C   UNL     1     -10.508  13.937  65.226  1.00  0.00    -0.386 C  
BRANCH  32  33
HETATM   33  C   UNL     1     -10.851  15.078  66.168  1.00  0.00    -0.329 C  
BRANCH  33  34
HETATM   34  C   UNL     1      -9.688  16.055  66.257  1.00  0.00    -0.332 C  
BRANCH  34  35
HETATM   35  C   UNL     1     -10.190  17.486  66.126  1.00  0.00    -0.339 C  
BRANCH  35  36
HETATM   36  C   UNL     1     -10.630  18.028  67.480  1.00  0.00    -0.402 C  
BRANCH  36  37
HETATM   37  C   UNL     1     -10.097  19.441  67.689  1.00  0.00    -0.505 C  
BRANCH  37  38
HETATM   38  C   UNL     1      -8.642  19.547  67.247  1.00  0.00    -0.341 C  
HETATM   39  C   UNL     1      -7.702  19.133  68.367  1.00  0.00    -0.359 C  
ENDBRANCH  37  38
ENDBRANCH  36  37
ENDBRANCH  35  36
ENDBRANCH  34  35
ENDBRANCH  33  34
ENDBRANCH  32  33
ENDBRANCH  31  32
ENDBRANCH  30  31
ENDBRANCH  29  30
ENDBRANCH  28  29
ENDBRANCH  27  28
ENDBRANCH  26  27
ENDBRANCH  25  26
ENDBRANCH  24  25
ENDBRANCH  23  24
ENDBRANCH  22  23
ENDBRANCH  19  22
ENDBRANCH  18  19
ENDBRANCH  17  18
ENDBRANCH  16  17
ENDBRANCH  15  16
ENDBRANCH  14  15
ENDBRANCH  13  14
ENDBRANCH  12  13
ENDBRANCH  11  12
ENDBRANCH  10  11
ENDBRANCH   9  10
ENDBRANCH   8   9
ENDBRANCH   7   8
ENDBRANCH   6   7
ENDBRANCH   5   6
ENDBRANCH   4   5
ENDBRANCH   3   4
ENDBRANCH   2   3
TORSDOF 34
ENDMDL
MODEL      146
REMARK 921   NORMALIZED FREE ENERGY PREDICTED BY IDOCK:   -2.56 KCAL/MOL
REMARK 922        TOTAL FREE ENERGY PREDICTED BY IDOCK:  -13.96 KCAL/MOL
REMARK 923 INTER-LIGAND FREE ENERGY PREDICTED BY IDOCK:   -9.84 KCAL/MOL
REMARK 924 INTRA-LIGAND FREE ENERGY PREDICTED BY IDOCK:   -4.12 KCAL/MOL
REMARK 927      BINDING AFFINITY PREDICTED BY RF-SCORE:    0.00 PKD
ROOT
HETATM    1  C   UNL     1      -9.274  19.261  66.791  1.00  0.00    -0.367 C  
HETATM    2  C   UNL     1     -10.324  18.258  67.233  1.00  0.00    -0.407 C  
ENDROOT
BRANCH   2   3
HETATM    3  C   UNL     1     -10.038  17.750  68.638  1.00  0.00    -0.384 C  
BRANCH   3   4
HETATM    4  C   UNL     1     -10.104  16.226  68.696  1.00  0.00    -0.233 C  
BRANCH   4   5
HETATM    5  C   UNL     1     -11.525  15.760  68.980  1.00  0.00    -0.394 C  
BRANCH   5   6
HETATM    6  C   UNL     1     -11.842  14.497  68.192  1.00  0.00    -0.348 C  
BRANCH   6   7
HETATM    7  C   UNL     1     -10.702  14.175  67.237  1.00  0.00    -0.279 C  
BRANCH   7   8
HETATM    8  C   UNL     1     -11.033  14.670  65.838  1.00  0.00    -0.332 C  
BRANCH   8   9
HETATM    9  C   UNL     1     -12.418  14.199  65.429  1.00  0.00    -0.488 C  
BRANCH   9  10
HETATM   10  C   UNL     1     -12.362  12.746  64.994  1.00  0.00    -0.559 C  
BRANCH  10  11
HETATM   11  C   UNL     1     -12.015  12.652  63.520  1.00  0.00    -0.630 C  
BRANCH  11  12
HETATM   12  C   UNL     1     -10.590  12.154  63.369  1.00  0.00    -0.454 C  
BRANCH  12  13
HETATM   13  C   UNL     1     -10.399  10.870  64.147  1.00  0.00    -0.432 C  
BRANCH  13  14
HETATM   14  C   UNL     1      -9.247  11.031  65.121  1.00  0.00    -0.227 C  
BRANCH  14  15
HETATM   15  C   UNL     1      -9.518  10.197  66.352  1.00  0.00    -0.223 C  
BRANCH  15  16
HETATM   16  C   UNL     1      -9.551   8.717  66.010  1.00  0.00    -0.297 C  
BRANCH  16  17
HETATM   17  C   UNL     1      -8.158   8.321  65.562  1.00  0.00    -0.128 C  
BRANCH  17  18
HETATM   18  C   UNL     1      -7.628   7.143  66.357  1.00  0.00    -0.092 C  
BRANCH  18  19
HETATM   19  N   UNL     1      -6.270   7.453  67.022  1.00  0.00    -0.045 N  
HETATM   20  C   UNL     1      -5.428   8.359  66.120  1.00  0.00    -0.035 C  
HETATM   21  C   UNL     1      -6.483   8.125  68.380  1.00  0.00    -0.058 C  
BRANCH  19  22
HETATM   22  C   UNL     1      -5.578   6.083  67.202  1.00  0.00    -0.012 C  
BRANCH  22  23
HETATM   23  C   UNL     1      -6.520   5.034  67.758  1.00  0.00    -0.045 C  
BRANCH  23  24
HETATM   24  C   UNL     1      -5.823   4.133  68.761  1.00  0.00    -0.022 C  
BRANCH  24  25
HETATM   25  C   UNL     1      -6.792   3.022  69.126  1.00  0.00    -0.041 C  
BRANCH  25  26
HETATM   26  C   UNL     1      -6.942   2.905  70.625  1.00  0.00    -0.033 C  
BRANCH  26  27
HETATM   27  C   UNL     1      -8.289   2.284  70.946  1.00  0.00    -0.075 C  
BRANCH  27  28
HETATM   28  C   UNL     1      -9.297   2.682  69.889  1.00  0.00    -0.191 C  
BRANCH  28  29
HETATM   29  C   UNL     1     -10.017   3.949  70.306  1.00  0.00    -0.039 C  
BRANCH  29  30
HETATM   30  C   UNL     1      -9.893   4.986  69.207  1.00  0.00    -0.266 C  
BRANCH  30  31
HETATM   31  C   UNL     1     -11.138   5.847  69.147  1.00  0.00    -0.328 C  
BRANCH  31  32
HETATM   32  C   UNL     1     -10.752   7.309  69.031  1.00  0.00    -0.183 C  
BRANCH  32  33
HETATM   33  C   UNL     1     -10.809   7.977  70.395  1.00  0.00    -0.247 C  
BRANCH  33  34
HETATM   34  C   UNL     1     -11.877   7.322  71.258  1.00  0.00    -0.340 C  
BRANCH  34  35
HETATM   35  C   UNL     1     -12.638   8.377  72.048  1.00  0.00    -0.400 C  
BRANCH  35  36
HETATM   36  C   UNL     1     -13.298   9.378  71.109  1.00  0.00    -0.279 C  
BRANCH  36  37
HETATM   37  C   UNL     1     -13.594  10.683  71.842  1.00  0.00    -0.200 C  
BRANCH  37  38
HETATM   38  C   UNL     1     -12.584  11.762  71.466  1.00  0.00    -0.320 C  
HETATM   39  C   UNL     1     -12.079  11.563  70.047  1.00  0.00    -0.408 C  
ENDBRANCH  37  38
ENDBRANCH  36  37
ENDBRANCH  35  36
ENDBRANCH  34  35
ENDBRANCH  33  34
ENDBRANCH  32  33
ENDBRANCH  31  32
ENDBRANCH  30  31
ENDBRANCH  29  30
ENDBRANCH  28  29
ENDBRANCH  27  28
ENDBRANCH  26  27
ENDBRANCH  25  26
ENDBRANCH  24  25
ENDBRANCH  23  24
ENDBRANCH  22  23
ENDBRANCH  19  22
ENDBRANCH  18  19
ENDBRANCH  17  18
ENDBRANCH  16  17
ENDBRANCH  15  16
ENDBRANCH  14  15
ENDBRANCH  13  14
ENDBRANCH  12  13
ENDBRANCH  11  12
ENDBRANCH  10  11
ENDBRANCH   9  10
ENDBRANCH   8   9
ENDBRANCH   7   8
ENDBRANCH   6   7
ENDBRANCH   5   6
ENDBRANCH   4   5
ENDBRANCH   3   4
ENDBRANCH   2   3
TORSDOF 34
ENDMDL
MODEL      147
REMARK 921   NORMALIZED FREE ENERGY PREDICTED BY IDOCK:   -2.54 KCAL/MOL
REMARK 922        TOTAL FREE ENERGY PREDICTED BY IDOCK:  -13.92 KCAL/MOL
REMARK 923 INTER-LIGAND FREE ENERGY PREDICTED BY IDOCK:   -9.77 KCAL/MOL
REMARK 924 INTRA-LIGAND FREE ENERGY PREDICTED BY IDOCK:   -4.14 KCAL/MOL
REMARK 927      BINDING AFFINITY PREDICTED BY RF-SCORE:    0.00 PKD
ROOT
HETATM    1  C   UNL     1     -12.784  15.067  73.350  1.00  0.00    -0.654 C  
HETATM    2  C   UNL     1     -13.743  14.794  72.205  1.00  0.00    -0.543 C  
ENDROOT
BRANCH   2   3
HETATM    3  C   UNL     1     -13.240  15.417  70.911  1.00  0.00    -0.512 C  
BRANCH   3   4
HETATM    4  C   UNL     1     -11.745  15.712  70.988  1.00  0.00    -0.444 C  
BRANCH   4   5
HETATM    5  C   UNL     1     -11.189  16.038  69.608  1.00  0.00    -0.336 C  
BRANCH   5   6
HETATM    6  C   UNL     1      -9.751  15.555  69.483  1.00  0.00    -0.282 C  
BRANCH   6   7
HETATM    7  C   UNL     1      -9.318  15.566  68.024  1.00  0.00    -0.193 C  
BRANCH   7   8
HETATM    8  C   UNL     1     -10.497  15.913  67.129  1.00  0.00    -0.313 C  
BRANCH   8   9
HETATM    9  C   UNL     1     -10.236  15.438  65.710  1.00  0.00    -0.378 C  
BRANCH   9  10
HETATM   10  C   UNL     1     -11.509  14.864  65.116  1.00  0.00    -0.357 C  
BRANCH  10  11
HETATM   11  C   UNL     1     -12.177  13.929  66.107  1.00  0.00    -0.498 C  
BRANCH  11  12
HETATM   12  C   UNL     1     -11.508  12.570  66.048  1.00  0.00    -0.423 C  
BRANCH  12  13
HETATM   13  C   UNL     1     -11.128  12.113  67.441  1.00  0.00    -0.330 C  
BRANCH  13  14
HETATM   14  C   UNL     1     -12.003  12.814  68.463  1.00  0.00    -0.265 C  
BRANCH  14  15
HETATM   15  C   UNL     1     -11.669  12.293  69.842  1.00  0.00    -0.346 C  
BRANCH  15  16
HETATM   16  C   UNL     1     -12.554  11.113  70.207  1.00  0.00    -0.288 C  
BRANCH  16  17
HETATM   17  C   UNL     1     -11.840  10.324  71.288  1.00  0.00    -0.425 C  
BRANCH  17  18
HETATM   18  C   UNL     1     -12.456   8.950  71.475  1.00  0.00    -0.324 C  
BRANCH  18  19
HETATM   19  N   UNL     1     -11.388   7.838  71.545  1.00  0.00    -0.250 N  
HETATM   20  C   UNL     1     -11.816   6.633  70.703  1.00  0.00    -0.383 C  
HETATM   21  C   UNL     1     -10.038   8.363  71.052  1.00  0.00    -0.196 C  
BRANCH  19  22
HETATM   22  C   UNL     1     -11.300   7.445  73.037  1.00  0.00    -0.234 C  
BRANCH  22  23
HETATM   23  C   UNL     1     -11.466   5.953  73.247  1.00  0.00     0.073 C  
BRANCH  23  24
HETATM   24  C   UNL     1     -10.470   5.416  74.258  1.00  0.00    -0.294 C  
BRANCH  24  25
HETATM   25  C   UNL     1      -9.080   5.613  73.678  1.00  0.00    -0.127 C  
BRANCH  25  26
HETATM   26  C   UNL     1      -8.797   4.599  72.593  1.00  0.00    -0.120 C  
BRANCH  26  27
HETATM   27  C   UNL     1      -7.901   5.229  71.542  1.00  0.00    -0.113 C  
BRANCH  27  28
HETATM   28  C   UNL     1      -8.346   4.785  70.164  1.00  0.00    -0.079 C  
BRANCH  28  29
HETATM   29  C   UNL     1      -9.430   3.731  70.280  1.00  0.00    -0.257 C  
BRANCH  29  30
HETATM   30  C   UNL     1      -8.907   2.408  69.756  1.00  0.00    -0.140 C  
BRANCH  30  31
HETATM   31  C   UNL     1      -8.754   2.459  68.249  1.00  0.00    -0.128 C  
BRANCH  31  32
HETATM   32  C   UNL     1      -7.335   2.090  67.860  1.00  0.00    -0.051 C  
BRANCH  32  33
HETATM   33  C   UNL     1      -6.810   3.058  66.813  1.00  0.00    -0.049 C  
BRANCH  33  34
HETATM   34  C   UNL     1      -5.904   2.332  65.831  1.00  0.00    -0.022 C  
BRANCH  34  35
HETATM   35  C   UNL     1      -6.279   2.693  64.400  1.00  0.00    -0.019 C  
BRANCH  35  36
HETATM   36  C   UNL     1      -7.763   2.451  64.156  1.00  0.00    -0.072 C  
BRANCH  36  37
HETATM   37  C   UNL     1      -8.382   3.631  63.414  1.00  0.00    -0.090 C  
BRANCH  37  38
HETATM   38  C   UNL     1      -9.865   3.395  63.151  1.00  0.00    -0.124 C  
HETATM   39  C   UNL     1     -10.719   4.065  64.213  1.00  0.00    -0.191 C  
ENDBRANCH  37  38
ENDBRANCH  36  37
ENDBRANCH  35  36
ENDBRANCH  34  35
ENDBRANCH  33  34
ENDBRANCH  32  33
ENDBRANCH  31  32
ENDBRANCH  30  31
ENDBRANCH  29  30
ENDBRANCH  28  29
ENDBRANCH  27  28
ENDBRANCH  26  27
ENDBRANCH  25  26
ENDBRANCH  24  25
ENDBRANCH  23  24
ENDBRANCH  22  23
ENDBRANCH  19  22
ENDBRANCH  18  19
ENDBRANCH  17  18
ENDBRANCH  16  17
ENDBRANCH  15  16
ENDBRANCH  14  15
ENDBRANCH  13  14
ENDBRANCH  12  13
ENDBRANCH  11  12
ENDBRANCH  10  11
ENDBRANCH   9  10
ENDBRANCH   8   9
ENDBRANCH   7   8
ENDBRANCH   6   7
ENDBRANCH   5   6
ENDBRANCH   4   5
ENDBRANCH   3   4
ENDBRANCH   2   3
TORSDOF 34
ENDMDL
MODEL      148
REMARK 921   NORMALIZED FREE ENERGY PREDICTED BY IDOCK:   -2.54 KCAL/MOL
REMARK 922        TOTAL FREE ENERGY PREDICTED BY IDOCK:  -13.90 KCAL/MOL
REMARK 923 INTER-LIGAND FREE ENERGY PREDICTED BY IDOCK:   -9.22 KCAL/MOL
REMARK 924 INTRA-LIGAND FREE ENERGY PREDICTED BY IDOCK:   -4.69 KCAL/MOL
REMARK 927      BINDING AFFINITY PREDICTED BY RF-SCORE:    0.00 PKD
ROOT
HETATM    1  C   UNL     1      -7.968   4.360  72.303  1.00  0.00    -0.096 C  
HETATM    2  C   UNL     1      -9.406   4.581  71.870  1.00  0.00    -0.189 C  
ENDROOT
BRANCH   2   3
HETATM    3  C   UNL     1      -9.468   5.287  70.524  1.00  0.00    -0.222 C  
BRANCH   3   4
HETATM    4  C   UNL     1     -10.911   5.594  70.130  1.00  0.00    -0.356 C  
BRANCH   4   5
HETATM    5  C   UNL     1     -11.275   7.027  70.498  1.00  0.00    -0.335 C  
BRANCH   5   6
HETATM    6  C   UNL     1     -12.124   7.055  71.762  1.00  0.00    -0.371 C  
BRANCH   6   7
HETATM    7  C   UNL     1     -13.402   7.843  71.518  1.00  0.00    -0.343 C  
BRANCH   7   8
HETATM    8  C   UNL     1     -13.185   9.311  71.848  1.00  0.00    -0.493 C  
BRANCH   8   9
HETATM    9  C   UNL     1     -13.034  10.119  70.571  1.00  0.00    -0.214 C  
BRANCH   9  10
HETATM   10  C   UNL     1     -12.491  11.499  70.894  1.00  0.00    -0.464 C  
BRANCH  10  11
HETATM   11  C   UNL     1     -13.305  12.137  72.004  1.00  0.00    -0.470 C  
BRANCH  11  12
HETATM   12  C   UNL     1     -13.400  13.631  71.765  1.00  0.00    -0.469 C  
BRANCH  12  13
HETATM   13  C   UNL     1     -12.541  14.027  70.582  1.00  0.00    -0.414 C  
BRANCH  13  14
HETATM   14  C   UNL     1     -12.204  15.504  70.669  1.00  0.00    -0.445 C  
BRANCH  14  15
HETATM   15  C   UNL     1     -10.851  15.741  70.036  1.00  0.00    -0.348 C  
BRANCH  15  16
HETATM   16  C   UNL     1     -10.890  16.938  69.102  1.00  0.00    -0.237 C  
BRANCH  16  17
HETATM   17  C   UNL     1      -9.470  17.199  68.635  1.00  0.00    -0.275 C  
BRANCH  17  18
HETATM   18  C   UNL     1      -8.653  15.921  68.592  1.00  0.00    -0.198 C  
BRANCH  18  19
HETATM   19  N   UNL     1      -8.201  15.568  67.159  1.00  0.00    -0.196 N  
HETATM   20  C   UNL     1      -9.089  16.273  66.130  1.00  0.00    -0.341 C  
HETATM   21  C   UNL     1      -6.740  15.971  66.946  1.00  0.00     0.004 C  
BRANCH  19  22
HETATM   22  C   UNL     1      -8.358  14.036  67.043  1.00  0.00    -0.104 C  
BRANCH  22  23
HETATM   23  C   UNL     1      -9.743  13.636  66.575  1.00  0.00    -0.298 C  
BRANCH  23  24
HETATM   24  C   UNL     1     -10.627  13.216  67.735  1.00  0.00    -0.242 C  
BRANCH  24  25
HETATM   25  C   UNL     1     -10.267  11.783  68.086  1.00  0.00    -0.210 C  
BRANCH  25  26
HETATM   26  C   UNL     1     -10.340  10.891  66.868  1.00  0.00    -0.285 C  
BRANCH  26  27
HETATM   27  C   UNL     1     -11.008   9.581  67.247  1.00  0.00    -0.062 C  
BRANCH  27  28
HETATM   28  C   UNL     1     -10.013   8.447  67.113  1.00  0.00    -0.304 C  
BRANCH  28  29
HETATM   29  C   UNL     1      -8.698   8.969  66.568  1.00  0.00    -0.144 C  
BRANCH  29  30
HETATM   30  C   UNL     1      -7.557   8.455  67.423  1.00  0.00    -0.098 C  
BRANCH  30  31
HETATM   31  C   UNL     1      -8.040   8.162  68.830  1.00  0.00    -0.116 C  
BRANCH  31  32
HETATM   32  C   UNL     1      -6.915   8.392  69.822  1.00  0.00    -0.047 C  
BRANCH  32  33
HETATM   33  C   UNL     1      -6.973   9.812  70.361  1.00  0.00    -0.139 C  
BRANCH  33  34
HETATM   34  C   UNL     1      -5.675  10.544  70.056  1.00  0.00    -0.059 C  
BRANCH  34  35
HETATM   35  C   UNL     1      -5.963  11.835  69.301  1.00  0.00    -0.077 C  
BRANCH  35  36
HETATM   36  C   UNL     1      -5.138  12.984  69.868  1.00  0.00    -0.085 C  
BRANCH  36  37
HETATM   37  C   UNL     1      -6.031  14.182  70.173  1.00  0.00    -0.151 C  
BRANCH  37  38
HETATM   38  C   UNL     1      -5.272  15.241  70.964  1.00  0.00    -0.132 C  
HETATM   39  C   UNL     1      -5.466  16.619  70.353  1.00  0.00    -0.189 C  
ENDBRANCH  37  38
ENDBRANCH  36  37
ENDBRANCH  35  36
ENDBRANCH  34  35
ENDBRANCH  33  34
ENDBRANCH  32  33
ENDBRANCH  31  32
ENDBRANCH  30  31
ENDBRANCH  29  30
ENDBRANCH  28  29
ENDBRANCH  27  28
ENDBRANCH  26  27
ENDBRANCH  25  26
ENDBRANCH  24  25
ENDBRANCH  23  24
ENDBRANCH  22  23
ENDBRANCH  19  22
ENDBRANCH  18  19
ENDBRANCH  17  18
ENDBRANCH  16  17
ENDBRANCH  15  16
ENDBRANCH  14  15
ENDBRANCH  13  14
ENDBRANCH  12  13
ENDBRANCH  11  12
ENDBRANCH  10  11
ENDBRANCH   9  10
ENDBRANCH   8   9
ENDBRANCH   7   8
ENDBRANCH   6   7
ENDBRANCH   5   6
ENDBRANCH   4   5
ENDBRANCH   3   4
ENDBRANCH   2   3
TORSDOF 34
ENDMDL
MODEL      149
REMARK 921   NORMALIZED FREE ENERGY PREDICTED BY IDOCK:   -2.53 KCAL/MOL
REMARK 922        TOTAL FREE ENERGY PREDICTED BY IDOCK:  -13.88 KCAL/MOL
REMARK 923 INTER-LIGAND FREE ENERGY PREDICTED BY IDOCK:   -8.82 KCAL/MOL
REMARK 924 INTRA-LIGAND FREE ENERGY PREDICTED BY IDOCK:   -5.06 KCAL/MOL
REMARK 927      BINDING AFFINITY PREDICTED BY RF-SCORE:    0.00 PKD
ROOT
HETATM    1  C   UNL     1     -11.956   5.479  72.740  1.00  0.00    -0.094 C  
HETATM    2  C   UNL     1     -12.122   6.597  71.726  1.00  0.00    -0.400 C  
ENDROOT
BRANCH   2   3
HETATM    3  C   UNL     1     -13.562   7.086  71.685  1.00  0.00    -0.346 C  
BRANCH   3   4
HETATM    4  C   UNL     1     -13.650   8.565  72.051  1.00  0.00    -0.427 C  
BRANCH   4   5
HETATM    5  C   UNL     1     -12.259   9.176  72.163  1.00  0.00    -0.408 C  
BRANCH   5   6
HETATM    6  C   UNL     1     -12.092  10.312  71.164  1.00  0.00    -0.494 C  
BRANCH   6   7
HETATM    7  C   UNL     1     -10.818  10.117  70.355  1.00  0.00    -0.365 C  
BRANCH   7   8
HETATM    8  C   UNL     1      -9.868   9.183  71.089  1.00  0.00    -0.371 C  
BRANCH   8   9
HETATM    9  C   UNL     1      -8.569   9.041  70.313  1.00  0.00    -0.193 C  
BRANCH   9  10
HETATM   10  C   UNL     1      -7.537   8.324  71.163  1.00  0.00    -0.082 C  
BRANCH  10  11
HETATM   11  C   UNL     1      -8.222   7.453  72.200  1.00  0.00    -0.109 C  
BRANCH  11  12
HETATM   12  C   UNL     1      -7.367   6.233  72.478  1.00  0.00    -0.085 C  
BRANCH  12  13
HETATM   13  C   UNL     1      -8.246   5.025  72.730  1.00  0.00    -0.109 C  
BRANCH  13  14
HETATM   14  C   UNL     1      -8.803   4.518  71.413  1.00  0.00    -0.153 C  
BRANCH  14  15
HETATM   15  C   UNL     1      -7.672   3.958  70.580  1.00  0.00    -0.047 C  
BRANCH  15  16
HETATM   16  C   UNL     1      -8.206   3.105  69.441  1.00  0.00    -0.075 C  
BRANCH  16  17
HETATM   17  C   UNL     1      -8.780   4.045  68.398  1.00  0.00    -0.126 C  
BRANCH  17  18
HETATM   18  C   UNL     1      -8.337   3.663  66.998  1.00  0.00    -0.099 C  
BRANCH  18  19
HETATM   19  N   UNL     1      -8.812   4.680  65.939  1.00  0.00    -0.121 N  
HETATM   20  C   UNL     1      -8.146   4.396  64.590  1.00  0.00    -0.099 C  
HETATM   21  C   UNL     1     -10.334   4.622  65.790  1.00  0.00    -0.264 C  
BRANCH  19  22
HETATM   22  C   UNL     1      -8.376   6.063  66.472  1.00  0.00    -0.113 C  
BRANCH  22  23
HETATM   23  C   UNL     1      -9.373   7.151  66.125  1.00  0.00    -0.097 C  
BRANCH  23  24
HETATM   24  C   UNL     1      -8.921   8.507  66.636  1.00  0.00    -0.178 C  
BRANCH  24  25
HETATM   25  C   UNL     1     -10.117   9.441  66.569  1.00  0.00    -0.332 C  
BRANCH  25  26
HETATM   26  C   UNL     1      -9.688  10.882  66.726  1.00  0.00    -0.221 C  
BRANCH  26  27
HETATM   27  C   UNL     1      -8.391  11.103  65.969  1.00  0.00    -0.115 C  
BRANCH  27  28
HETATM   28  C   UNL     1      -7.279  11.418  66.947  1.00  0.00    -0.144 C  
BRANCH  28  29
HETATM   29  C   UNL     1      -7.856  12.011  68.218  1.00  0.00    -0.145 C  
BRANCH  29  30
HETATM   30  C   UNL     1      -7.025  13.207  68.639  1.00  0.00    -0.102 C  
BRANCH  30  31
HETATM   31  C   UNL     1      -7.905  14.429  68.812  1.00  0.00    -0.138 C  
BRANCH  31  32
HETATM   32  C   UNL     1      -7.321  15.600  68.045  1.00  0.00    -0.137 C  
BRANCH  32  33
HETATM   33  C   UNL     1      -8.430  16.392  67.373  1.00  0.00    -0.195 C  
BRANCH  33  34
HETATM   34  C   UNL     1      -9.477  15.451  66.798  1.00  0.00    -0.260 C  
BRANCH  34  35
HETATM   35  C   UNL     1     -10.469  16.225  65.941  1.00  0.00    -0.359 C  
BRANCH  35  36
HETATM   36  C   UNL     1     -11.099  15.315  64.895  1.00  0.00    -0.435 C  
BRANCH  36  37
HETATM   37  C   UNL     1     -10.289  14.031  64.745  1.00  0.00    -0.407 C  
BRANCH  37  38
HETATM   38  C   UNL     1     -11.168  12.883  64.264  1.00  0.00    -0.408 C  
HETATM   39  C   UNL     1     -12.417  12.758  65.121  1.00  0.00    -0.565 C  
ENDBRANCH  37  38
ENDBRANCH  36  37
ENDBRANCH  35  36
ENDBRANCH  34  35
ENDBRANCH  33  34
ENDBRANCH  32  33
ENDBRANCH  31  32
ENDBRANCH  30  31
ENDBRANCH  29  30
ENDBRANCH  28  29
ENDBRANCH  27  28
ENDBRANCH  26  27
ENDBRANCH  25  26
ENDBRANCH  24  25
ENDBRANCH  23  24
ENDBRANCH  22  23
ENDBRANCH  19  22
ENDBRANCH  18  19
ENDBRANCH  17  18
ENDBRANCH  16  17
ENDBRANCH  15  16
ENDBRANCH  14  15
ENDBRANCH  13  14
ENDBRANCH  12  13
ENDBRANCH  11  12
ENDBRANCH  10  11
ENDBRANCH   9  10
ENDBRANCH   8   9
ENDBRANCH   7   8
ENDBRANCH   6   7
ENDBRANCH   5   6
ENDBRANCH   4   5
ENDBRANCH   3   4
ENDBRANCH   2   3
TORSDOF 34
ENDMDL
MODEL      150
REMARK 921   NORMALIZED FREE ENERGY PREDICTED BY IDOCK:   -2.52 KCAL/MOL
REMARK 922        TOTAL FREE ENERGY PREDICTED BY IDOCK:  -13.86 KCAL/MOL
REMARK 923 INTER-LIGAND FREE ENERGY PREDICTED BY IDOCK:   -9.11 KCAL/MOL
REMARK 924 INTRA-LIGAND FREE ENERGY PREDICTED BY IDOCK:   -4.75 KCAL/MOL
REMARK 927      BINDING AFFINITY PREDICTED BY RF-SCORE:    0.00 PKD
ROOT
HETATM    1  C   UNL     1      -8.356   4.437  72.471  1.00  0.00    -0.109 C  
HETATM    2  C   UNL     1      -9.643   4.514  71.669  1.00  0.00    -0.222 C  
ENDROOT
BRANCH   2   3
HETATM    3  C   UNL     1      -9.539   5.560  70.569  1.00  0.00    -0.225 C  
BRANCH   3   4
HETATM    4  C   UNL     1     -10.885   5.769  69.880  1.00  0.00    -0.417 C  
BRANCH   4   5
HETATM    5  C   UNL     1     -11.549   7.048  70.373  1.00  0.00    -0.341 C  
BRANCH   5   6
HETATM    6  C   UNL     1     -12.457   6.757  71.559  1.00  0.00    -0.390 C  
BRANCH   6   7
HETATM    7  C   UNL     1     -13.613   7.746  71.591  1.00  0.00    -0.416 C  
BRANCH   7   8
HETATM    8  C   UNL     1     -13.117   9.122  72.005  1.00  0.00    -0.497 C  
BRANCH   8   9
HETATM    9  C   UNL     1     -13.067  10.046  70.801  1.00  0.00    -0.316 C  
BRANCH   9  10
HETATM   10  C   UNL     1     -12.650  11.439  71.236  1.00  0.00    -0.480 C  
BRANCH  10  11
HETATM   11  C   UNL     1     -13.670  12.016  72.199  1.00  0.00    -0.080 C  
BRANCH  11  12
HETATM   12  C   UNL     1     -13.505  13.522  72.266  1.00  0.00    -0.669 C  
BRANCH  12  13
HETATM   13  C   UNL     1     -12.657  14.006  71.109  1.00  0.00    -0.445 C  
BRANCH  13  14
HETATM   14  C   UNL     1     -11.835  15.204  71.548  1.00  0.00    -0.436 C  
BRANCH  14  15
HETATM   15  C   UNL     1     -10.916  15.614  70.419  1.00  0.00    -0.366 C  
BRANCH  15  16
HETATM   16  C   UNL     1     -11.712  16.011  69.187  1.00  0.00    -0.310 C  
BRANCH  16  17
HETATM   17  C   UNL     1     -10.862  16.982  68.389  1.00  0.00    -0.333 C  
BRANCH  17  18
HETATM   18  C   UNL     1      -9.455  16.453  68.182  1.00  0.00    -0.213 C  
BRANCH  18  19
HETATM   19  N   UNL     1      -9.183  16.082  66.709  1.00  0.00    -0.225 N  
HETATM   20  C   UNL     1     -10.464  16.217  65.879  1.00  0.00    -0.352 C  
HETATM   21  C   UNL     1      -8.090  16.980  66.126  1.00  0.00    -0.257 C  
BRANCH  19  22
HETATM   22  C   UNL     1      -8.714  14.610  66.735  1.00  0.00    -0.203 C  
BRANCH  22  23
HETATM   23  C   UNL     1      -8.602  14.070  68.147  1.00  0.00    -0.181 C  
BRANCH  23  24
HETATM   24  C   UNL     1      -7.323  13.277  68.343  1.00  0.00    -0.112 C  
BRANCH  24  25
HETATM   25  C   UNL     1      -7.244  12.254  67.223  1.00  0.00    -0.138 C  
BRANCH  25  26
HETATM   26  C   UNL     1      -7.769  10.912  67.678  1.00  0.00    -0.108 C  
BRANCH  26  27
HETATM   27  C   UNL     1      -7.763  10.860  69.195  1.00  0.00    -0.127 C  
BRANCH  27  28
HETATM   28  C   UNL     1      -6.655   9.943  69.668  1.00  0.00    -0.056 C  
BRANCH  28  29
HETATM   29  C   UNL     1      -6.474   8.798  68.690  1.00  0.00    -0.054 C  
BRANCH  29  30
HETATM   30  C   UNL     1      -6.959   7.510  69.326  1.00  0.00    -0.068 C  
BRANCH  30  31
HETATM   31  C   UNL     1      -5.851   6.870  70.139  1.00  0.00    -0.023 C  
BRANCH  31  32
HETATM   32  C   UNL     1      -5.885   5.364  69.965  1.00  0.00    -0.017 C  
BRANCH  32  33
HETATM   33  C   UNL     1      -6.113   5.009  68.505  1.00  0.00    -0.030 C  
BRANCH  33  34
HETATM   34  C   UNL     1      -7.093   3.851  68.392  1.00  0.00    -0.051 C  
BRANCH  34  35
HETATM   35  C   UNL     1      -8.107   4.124  67.290  1.00  0.00    -0.099 C  
BRANCH  35  36
HETATM   36  C   UNL     1      -7.885   5.504  66.685  1.00  0.00    -0.101 C  
BRANCH  36  37
HETATM   37  C   UNL     1      -9.191   6.060  66.127  1.00  0.00    -0.154 C  
BRANCH  37  38
HETATM   38  C   UNL     1      -9.155   7.583  66.066  1.00  0.00    -0.139 C  
HETATM   39  C   UNL     1     -10.113   8.190  67.077  1.00  0.00    -0.350 C  
ENDBRANCH  37  38
ENDBRANCH  36  37
ENDBRANCH  35  36
ENDBRANCH  34  35
ENDBRANCH  33  34
ENDBRANCH  32  33
ENDBRANCH  31  32
ENDBRANCH  30  31
ENDBRANCH  29  30
ENDBRANCH  28  29
ENDBRANCH  27  28
ENDBRANCH  26  27
ENDBRANCH  25  26
ENDBRANCH  24  25
ENDBRANCH  23  24
ENDBRANCH  22  23
ENDBRANCH  19  22
ENDBRANCH  18  19
ENDBRANCH  17  18
ENDBRANCH  16  17
ENDBRANCH  15  16
ENDBRANCH  14  15
ENDBRANCH  13  14
ENDBRANCH  12  13
ENDBRANCH  11  12
ENDBRANCH  10  11
ENDBRANCH   9  10
ENDBRANCH   8   9
ENDBRANCH   7   8
ENDBRANCH   6   7
ENDBRANCH   5   6
ENDBRANCH   4   5
ENDBRANCH   3   4
ENDBRANCH   2   3
TORSDOF 34
ENDMDL
MODEL      151
REMARK 921   NORMALIZED FREE ENERGY PREDICTED BY IDOCK:   -2.49 KCAL/MOL
REMARK 922        TOTAL FREE ENERGY PREDICTED BY IDOCK:  -13.77 KCAL/MOL
REMARK 923 INTER-LIGAND FREE ENERGY PREDICTED BY IDOCK:   -9.02 KCAL/MOL
REMARK 924 INTRA-LIGAND FREE ENERGY PREDICTED BY IDOCK:   -4.75 KCAL/MOL
REMARK 927      BINDING AFFINITY PREDICTED BY RF-SCORE:    0.00 PKD
ROOT
HETATM    1  C   UNL     1     -10.407  19.829  66.163  1.00  0.00    -0.627 C  
HETATM    2  C   UNL     1      -8.983  19.314  66.280  1.00  0.00    -0.347 C  
ENDROOT
BRANCH   2   3
HETATM    3  C   UNL     1      -8.935  18.018  67.076  1.00  0.00    -0.261 C  
BRANCH   3   4
HETATM    4  C   UNL     1      -8.284  16.900  66.266  1.00  0.00    -0.344 C  
BRANCH   4   5
HETATM    5  C   UNL     1      -9.105  15.621  66.359  1.00  0.00    -0.355 C  
BRANCH   5   6
HETATM    6  C   UNL     1     -10.100  15.706  67.509  1.00  0.00    -0.253 C  
BRANCH   6   7
HETATM    7  C   UNL     1     -11.330  14.865  67.202  1.00  0.00    -0.348 C  
BRANCH   7   8
HETATM    8  C   UNL     1     -11.511  14.727  65.699  1.00  0.00    -0.327 C  
BRANCH   8   9
HETATM    9  C   UNL     1     -12.717  13.855  65.393  1.00  0.00    -0.525 C  
BRANCH   9  10
HETATM   10  C   UNL     1     -12.259  12.486  64.926  1.00  0.00    -0.534 C  
BRANCH  10  11
HETATM   11  C   UNL     1     -10.859  12.570  64.345  1.00  0.00    -0.375 C  
BRANCH  11  12
HETATM   12  C   UNL     1     -10.655  11.437  63.358  1.00  0.00    -0.435 C  
BRANCH  12  13
HETATM   13  C   UNL     1      -9.177  11.162  63.177  1.00  0.00    -0.298 C  
BRANCH  13  14
HETATM   14  C   UNL     1      -8.859   9.755  63.648  1.00  0.00    -0.258 C  
BRANCH  14  15
HETATM   15  C   UNL     1      -7.359   9.567  63.670  1.00  0.00    -0.109 C  
BRANCH  15  16
HETATM   16  C   UNL     1      -6.862   9.323  65.085  1.00  0.00    -0.082 C  
BRANCH  16  17
HETATM   17  C   UNL     1      -6.349  10.646  65.622  1.00  0.00    -0.103 C  
BRANCH  17  18
HETATM   18  C   UNL     1      -6.089  10.579  67.115  1.00  0.00    -0.055 C  
BRANCH  18  19
HETATM   19  N   UNL     1      -6.568  11.850  67.847  1.00  0.00    -0.069 N  
HETATM   20  C   UNL     1      -6.743  11.571  69.343  1.00  0.00    -0.116 C  
HETATM   21  C   UNL     1      -5.568  12.990  67.645  1.00  0.00    -0.105 C  
BRANCH  19  22
HETATM   22  C   UNL     1      -7.928  12.206  67.207  1.00  0.00    -0.176 C  
BRANCH  22  23
HETATM   23  C   UNL     1      -9.033  12.325  68.237  1.00  0.00    -0.182 C  
BRANCH  23  24
HETATM   24  C   UNL     1     -10.219  11.444  67.889  1.00  0.00    -0.201 C  
BRANCH  24  25
HETATM   25  C   UNL     1      -9.682  10.059  67.575  1.00  0.00    -0.189 C  
BRANCH  25  26
HETATM   26  C   UNL     1     -10.614   9.314  66.647  1.00  0.00    -0.161 C  
BRANCH  26  27
HETATM   27  C   UNL     1     -10.557   7.830  66.965  1.00  0.00    -0.396 C  
BRANCH  27  28
HETATM   28  C   UNL     1      -9.116   7.365  66.959  1.00  0.00    -0.155 C  
BRANCH  28  29
HETATM   29  C   UNL     1      -9.008   6.013  66.282  1.00  0.00    -0.156 C  
BRANCH  29  30
HETATM   30  C   UNL     1     -10.296   5.240  66.491  1.00  0.00    -0.332 C  
BRANCH  30  31
HETATM   31  C   UNL     1     -10.484   4.911  67.958  1.00  0.00     0.044 C  
BRANCH  31  32
HETATM   32  C   UNL     1      -9.473   3.865  68.389  1.00  0.00    -0.210 C  
BRANCH  32  33
HETATM   33  C   UNL     1      -8.912   4.211  69.758  1.00  0.00    -0.156 C  
BRANCH  33  34
HETATM   34  C   UNL     1      -9.978   4.024  70.827  1.00  0.00    -0.158 C  
BRANCH  34  35
HETATM   35  C   UNL     1      -9.548   2.952  71.819  1.00  0.00    -0.217 C  
BRANCH  35  36
HETATM   36  C   UNL     1      -9.826   3.399  73.248  1.00  0.00    -0.170 C  
BRANCH  36  37
HETATM   37  C   UNL     1      -9.093   4.702  73.552  1.00  0.00    -0.113 C  
BRANCH  37  38
HETATM   38  C   UNL     1      -7.618   4.445  73.839  1.00  0.00    -0.081 C  
HETATM   39  C   UNL     1      -6.875   5.748  74.077  1.00  0.00    -0.081 C  
ENDBRANCH  37  38
ENDBRANCH  36  37
ENDBRANCH  35  36
ENDBRANCH  34  35
ENDBRANCH  33  34
ENDBRANCH  32  33
ENDBRANCH  31  32
ENDBRANCH  30  31
ENDBRANCH  29  30
ENDBRANCH  28  29
ENDBRANCH  27  28
ENDBRANCH  26  27
ENDBRANCH  25  26
ENDBRANCH  24  25
ENDBRANCH  23  24
ENDBRANCH  22  23
ENDBRANCH  19  22
ENDBRANCH  18  19
ENDBRANCH  17  18
ENDBRANCH  16  17
ENDBRANCH  15  16
ENDBRANCH  14  15
ENDBRANCH  13  14
ENDBRANCH  12  13
ENDBRANCH  11  12
ENDBRANCH  10  11
ENDBRANCH   9  10
ENDBRANCH   8   9
ENDBRANCH   7   8
ENDBRANCH   6   7
ENDBRANCH   5   6
ENDBRANCH   4   5
ENDBRANCH   3   4
ENDBRANCH   2   3
TORSDOF 34
ENDMDL
MODEL      152
REMARK 921   NORMALIZED FREE ENERGY PREDICTED BY IDOCK:   -2.47 KCAL/MOL
REMARK 922        TOTAL FREE ENERGY PREDICTED BY IDOCK:  -13.71 KCAL/MOL
REMARK 923 INTER-LIGAND FREE ENERGY PREDICTED BY IDOCK:   -8.71 KCAL/MOL
REMARK 924 INTRA-LIGAND FREE ENERGY PREDICTED BY IDOCK:   -5.00 KCAL/MOL
REMARK 927      BINDING AFFINITY PREDICTED BY RF-SCORE:    0.00 PKD
ROOT
HETATM    1  C   UNL     1      -8.872   5.775  69.421  1.00  0.00    -0.117 C  
HETATM    2  C   UNL     1      -8.015   5.118  70.488  1.00  0.00    -0.090 C  
ENDROOT
BRANCH   2   3
HETATM    3  C   UNL     1      -6.690   5.847  70.650  1.00  0.00    -0.053 C  
BRANCH   3   4
HETATM    4  C   UNL     1      -6.221   5.820  72.102  1.00  0.00    -0.044 C  
BRANCH   4   5
HETATM    5  C   UNL     1      -7.408   5.916  73.052  1.00  0.00    -0.094 C  
BRANCH   5   6
HETATM    6  C   UNL     1      -7.341   4.818  74.104  1.00  0.00    -0.078 C  
BRANCH   6   7
HETATM    7  C   UNL     1      -8.745   4.384  74.500  1.00  0.00    -0.097 C  
BRANCH   7   8
HETATM    8  C   UNL     1      -9.187   3.201  73.653  1.00  0.00    -0.096 C  
BRANCH   8   9
HETATM    9  C   UNL     1     -10.466   3.540  72.906  1.00  0.00    -0.239 C  
BRANCH   9  10
HETATM   10  C   UNL     1     -11.045   4.838  73.436  1.00  0.00    -0.422 C  
BRANCH  10  11
HETATM   11  C   UNL     1     -11.060   5.892  72.344  1.00  0.00    -0.328 C  
BRANCH  11  12
HETATM   12  C   UNL     1     -11.753   7.140  72.858  1.00  0.00    -0.013 C  
BRANCH  12  13
HETATM   13  C   UNL     1     -12.567   7.777  71.751  1.00  0.00    -0.356 C  
BRANCH  13  14
HETATM   14  C   UNL     1     -11.637   8.317  70.681  1.00  0.00    -0.199 C  
BRANCH  14  15
HETATM   15  C   UNL     1     -10.820   9.450  71.260  1.00  0.00    -0.431 C  
BRANCH  15  16
HETATM   16  C   UNL     1      -9.355   9.313  70.881  1.00  0.00    -0.313 C  
BRANCH  16  17
HETATM   17  C   UNL     1      -9.152  10.050  69.571  1.00  0.00    -0.236 C  
BRANCH  17  18
HETATM   18  C   UNL     1      -8.880   9.091  68.427  1.00  0.00    -0.134 C  
BRANCH  18  19
HETATM   19  N   UNL     1      -9.837   9.318  67.237  1.00  0.00    -0.170 N  
HETATM   20  C   UNL     1     -10.410   7.984  66.751  1.00  0.00    -0.290 C  
HETATM   21  C   UNL     1     -10.976  10.257  67.641  1.00  0.00    -0.294 C  
BRANCH  19  22
HETATM   22  C   UNL     1      -8.973   9.965  66.132  1.00  0.00    -0.150 C  
BRANCH  22  23
HETATM   23  C   UNL     1      -7.489   9.829  66.411  1.00  0.00    -0.099 C  
BRANCH  23  24
HETATM   24  C   UNL     1      -6.753  11.134  66.174  1.00  0.00    -0.015 C  
BRANCH  24  25
HETATM   25  C   UNL     1      -7.267  12.139  67.190  1.00  0.00    -0.117 C  
BRANCH  25  26
HETATM   26  C   UNL     1      -6.166  12.569  68.133  1.00  0.00    -0.072 C  
BRANCH  26  27
HETATM   27  C   UNL     1      -6.290  14.058  68.400  1.00  0.00    -0.105 C  
BRANCH  27  28
HETATM   28  C   UNL     1      -7.325  14.657  67.470  1.00  0.00    -0.220 C  
BRANCH  28  29
HETATM   29  C   UNL     1      -7.089  16.147  67.319  1.00  0.00    -0.231 C  
BRANCH  29  30
HETATM   30  C   UNL     1      -7.938  16.679  66.181  1.00  0.00    -0.237 C  
BRANCH  30  31
HETATM   31  C   UNL     1      -8.794  17.836  66.654  1.00  0.00    -0.282 C  
BRANCH  31  32
HETATM   32  C   UNL     1     -10.227  17.643  66.195  1.00  0.00    -0.345 C  
BRANCH  32  33
HETATM   33  C   UNL     1     -10.512  16.168  65.971  1.00  0.00    -0.349 C  
BRANCH  33  34
HETATM   34  C   UNL     1     -11.160  15.563  67.206  1.00  0.00    -0.271 C  
BRANCH  34  35
HETATM   35  C   UNL     1     -11.208  14.046  67.088  1.00  0.00    -0.327 C  
BRANCH  35  36
HETATM   36  C   UNL     1     -10.928  13.609  65.655  1.00  0.00    -0.294 C  
BRANCH  36  37
HETATM   37  C   UNL     1     -12.065  12.740  65.130  1.00  0.00    -0.498 C  
BRANCH  37  38
HETATM   38  C   UNL     1     -11.818  12.333  63.682  1.00  0.00    -0.610 C  
HETATM   39  C   UNL     1     -10.330  12.290  63.375  1.00  0.00    -0.395 C  
ENDBRANCH  37  38
ENDBRANCH  36  37
ENDBRANCH  35  36
ENDBRANCH  34  35
ENDBRANCH  33  34
ENDBRANCH  32  33
ENDBRANCH  31  32
ENDBRANCH  30  31
ENDBRANCH  29  30
ENDBRANCH  28  29
ENDBRANCH  27  28
ENDBRANCH  26  27
ENDBRANCH  25  26
ENDBRANCH  24  25
ENDBRANCH  23  24
ENDBRANCH  22  23
ENDBRANCH  19  22
ENDBRANCH  18  19
ENDBRANCH  17  18
ENDBRANCH  16  17
ENDBRANCH  15  16
ENDBRANCH  14  15
ENDBRANCH  13  14
ENDBRANCH  12  13
ENDBRANCH  11  12
ENDBRANCH  10  11
ENDBRANCH   9  10
ENDBRANCH   8   9
ENDBRANCH   7   8
ENDBRANCH   6   7
ENDBRANCH   5   6
ENDBRANCH   4   5
ENDBRANCH   3   4
ENDBRANCH   2   3
TORSDOF 34
ENDMDL
MODEL      153
REMARK 921   NORMALIZED FREE ENERGY PREDICTED BY IDOCK:   -2.45 KCAL/MOL
REMARK 922        TOTAL FREE ENERGY PREDICTED BY IDOCK:  -13.65 KCAL/MOL
REMARK 923 INTER-LIGAND FREE ENERGY PREDICTED BY IDOCK:   -8.56 KCAL/MOL
REMARK 924 INTRA-LIGAND FREE ENERGY PREDICTED BY IDOCK:   -5.09 KCAL/MOL
REMARK 927      BINDING AFFINITY PREDICTED BY RF-SCORE:    0.00 PKD
ROOT
HETATM    1  C   UNL     1     -10.565   3.724  63.978  1.00  0.00    -0.274 C  
HETATM    2  C   UNL     1      -9.727   3.242  62.807  1.00  0.00    -0.097 C  
ENDROOT
BRANCH   2   3
HETATM    3  C   UNL     1      -8.897   2.027  63.193  1.00  0.00    -0.084 C  
BRANCH   3   4
HETATM    4  C   UNL     1      -7.404   2.332  63.109  1.00  0.00    -0.045 C  
BRANCH   4   5
HETATM    5  C   UNL     1      -6.803   2.465  64.502  1.00  0.00    -0.043 C  
BRANCH   5   6
HETATM    6  C   UNL     1      -6.552   3.928  64.839  1.00  0.00    -0.043 C  
BRANCH   6   7
HETATM    7  C   UNL     1      -7.473   4.372  65.966  1.00  0.00    -0.085 C  
BRANCH   7   8
HETATM    8  C   UNL     1      -7.690   3.232  66.948  1.00  0.00    -0.079 C  
BRANCH   8   9
HETATM    9  C   UNL     1      -9.124   3.235  67.448  1.00  0.00    -0.201 C  
BRANCH   9  10
HETATM   10  C   UNL     1      -9.444   4.574  68.088  1.00  0.00    -0.201 C  
BRANCH  10  11
HETATM   11  C   UNL     1     -10.620   5.225  67.384  1.00  0.00    -0.168 C  
BRANCH  11  12
HETATM   12  C   UNL     1     -10.870   6.596  67.981  1.00  0.00    -0.345 C  
BRANCH  12  13
HETATM   13  C   UNL     1     -10.742   7.662  66.914  1.00  0.00    -0.271 C  
BRANCH  13  14
HETATM   14  C   UNL     1      -9.275   7.897  66.602  1.00  0.00    -0.221 C  
BRANCH  14  15
HETATM   15  C   UNL     1      -9.016   9.384  66.529  1.00  0.00    -0.176 C  
BRANCH  15  16
HETATM   16  C   UNL     1     -10.078  10.080  65.694  1.00  0.00    -0.321 C  
BRANCH  16  17
HETATM   17  C   UNL     1     -10.048  11.554  66.053  1.00  0.00    -0.270 C  
BRANCH  17  18
HETATM   18  C   UNL     1     -10.817  12.390  65.048  1.00  0.00    -0.295 C  
BRANCH  18  19
HETATM   19  N   UNL     1     -11.228  13.761  65.624  1.00  0.00    -0.300 N  
HETATM   20  C   UNL     1     -10.460  14.886  64.924  1.00  0.00    -0.359 C  
HETATM   21  C   UNL     1     -12.733  13.980  65.458  1.00  0.00    -0.486 C  
BRANCH  19  22
HETATM   22  C   UNL     1     -10.853  13.708  67.122  1.00  0.00    -0.285 C  
BRANCH  22  23
HETATM   23  C   UNL     1     -12.075  13.622  68.014  1.00  0.00    -0.309 C  
BRANCH  23  24
HETATM   24  C   UNL     1     -11.884  14.405  69.300  1.00  0.00    -0.365 C  
BRANCH  24  25
HETATM   25  C   UNL     1     -11.663  13.402  70.418  1.00  0.00    -0.184 C  
BRANCH  25  26
HETATM   26  C   UNL     1     -12.529  12.178  70.227  1.00  0.00    -0.164 C  
BRANCH  26  27
HETATM   27  C   UNL     1     -11.681  10.932  70.405  1.00  0.00    -0.444 C  
BRANCH  27  28
HETATM   28  C   UNL     1     -12.574   9.749  70.713  1.00  0.00    -0.276 C  
BRANCH  28  29
HETATM   29  C   UNL     1     -12.176   9.126  72.037  1.00  0.00    -0.443 C  
BRANCH  29  30
HETATM   30  C   UNL     1     -11.250   7.952  71.784  1.00  0.00    -0.305 C  
BRANCH  30  31
HETATM   31  C   UNL     1     -12.049   6.678  71.599  1.00  0.00    -0.404 C  
BRANCH  31  32
HETATM   32  C   UNL     1     -11.110   5.496  71.446  1.00  0.00    -0.151 C  
BRANCH  32  33
HETATM   33  C   UNL     1     -10.677   4.989  72.811  1.00  0.00    -0.292 C  
BRANCH  33  34
HETATM   34  C   UNL     1      -9.172   5.137  72.975  1.00  0.00    -0.129 C  
BRANCH  34  35
HETATM   35  C   UNL     1      -8.509   5.323  71.618  1.00  0.00    -0.126 C  
BRANCH  35  36
HETATM   36  C   UNL     1      -7.497   6.460  71.666  1.00  0.00    -0.093 C  
BRANCH  36  37
HETATM   37  C   UNL     1      -7.902   7.577  70.709  1.00  0.00    -0.098 C  
BRANCH  37  38
HETATM   38  C   UNL     1      -7.279   7.371  69.333  1.00  0.00    -0.083 C  
HETATM   39  C   UNL     1      -6.348   6.170  69.333  1.00  0.00    -0.041 C  
ENDBRANCH  37  38
ENDBRANCH  36  37
ENDBRANCH  35  36
ENDBRANCH  34  35
ENDBRANCH  33  34
ENDBRANCH  32  33
ENDBRANCH  31  32
ENDBRANCH  30  31
ENDBRANCH  29  30
ENDBRANCH  28  29
ENDBRANCH  27  28
ENDBRANCH  26  27
ENDBRANCH  25  26
ENDBRANCH  24  25
ENDBRANCH  23  24
ENDBRANCH  22  23
ENDBRANCH  19  22
ENDBRANCH  18  19
ENDBRANCH  17  18
ENDBRANCH  16  17
ENDBRANCH  15  16
ENDBRANCH  14  15
ENDBRANCH  13  14
ENDBRANCH  12  13
ENDBRANCH  11  12
ENDBRANCH  10  11
ENDBRANCH   9  10
ENDBRANCH   8   9
ENDBRANCH   7   8
ENDBRANCH   6   7
ENDBRANCH   5   6
ENDBRANCH   4   5
ENDBRANCH   3   4
ENDBRANCH   2   3
TORSDOF 34
ENDMDL
MODEL      154
REMARK 921   NORMALIZED FREE ENERGY PREDICTED BY IDOCK:   -2.44 KCAL/MOL
REMARK 922        TOTAL FREE ENERGY PREDICTED BY IDOCK:  -13.63 KCAL/MOL
REMARK 923 INTER-LIGAND FREE ENERGY PREDICTED BY IDOCK:   -9.37 KCAL/MOL
REMARK 924 INTRA-LIGAND FREE ENERGY PREDICTED BY IDOCK:   -4.26 KCAL/MOL
REMARK 927      BINDING AFFINITY PREDICTED BY RF-SCORE:    0.00 PKD
ROOT
HETATM    1  C   UNL     1      -6.787  15.346  67.414  1.00  0.00    -0.204 C  
HETATM    2  C   UNL     1      -7.536  15.983  68.571  1.00  0.00    -0.156 C  
ENDROOT
BRANCH   2   3
HETATM    3  C   UNL     1      -6.806  17.217  69.080  1.00  0.00    -0.236 C  
BRANCH   3   4
HETATM    4  C   UNL     1      -6.775  18.314  68.019  1.00  0.00    -0.203 C  
BRANCH   4   5
HETATM    5  C   UNL     1      -7.499  19.560  68.512  1.00  0.00    -0.368 C  
BRANCH   5   6
HETATM    6  C   UNL     1      -8.988  19.468  68.210  1.00  0.00    -0.386 C  
BRANCH   6   7
HETATM    7  C   UNL     1      -9.232  19.633  66.717  1.00  0.00    -0.438 C  
BRANCH   7   8
HETATM    8  C   UNL     1     -10.499  18.899  66.308  1.00  0.00    -0.510 C  
BRANCH   8   9
HETATM    9  C   UNL     1     -10.617  17.590  67.069  1.00  0.00    -0.245 C  
BRANCH   9  10
HETATM   10  C   UNL     1     -10.167  16.439  66.190  1.00  0.00    -0.363 C  
BRANCH  10  11
HETATM   11  C   UNL     1     -11.034  16.357  64.947  1.00  0.00    -0.277 C  
BRANCH  11  12
HETATM   12  C   UNL     1     -11.193  14.906  64.537  1.00  0.00    -0.273 C  
BRANCH  12  13
HETATM   13  C   UNL     1     -12.309  14.259  65.329  1.00  0.00    -0.427 C  
BRANCH  13  14
HETATM   14  C   UNL     1     -12.463  12.811  64.902  1.00  0.00    -0.563 C  
BRANCH  14  15
HETATM   15  C   UNL     1     -11.219  12.045  65.291  1.00  0.00    -0.374 C  
BRANCH  15  16
HETATM   16  C   UNL     1     -10.996  12.096  66.793  1.00  0.00    -0.325 C  
BRANCH  16  17
HETATM   17  C   UNL     1     -10.736  10.678  67.264  1.00  0.00    -0.338 C  
BRANCH  17  18
HETATM   18  C   UNL     1      -9.266  10.316  67.163  1.00  0.00    -0.145 C  
BRANCH  18  19
HETATM   19  N   UNL     1      -8.615  10.131  68.550  1.00  0.00    -0.114 N  
HETATM   20  C   UNL     1      -7.586  11.236  68.808  1.00  0.00    -0.130 C  
HETATM   21  C   UNL     1      -9.682  10.149  69.646  1.00  0.00    -0.221 C  
BRANCH  19  22
HETATM   22  C   UNL     1      -7.920   8.753  68.498  1.00  0.00    -0.112 C  
BRANCH  22  23
HETATM   23  C   UNL     1      -7.758   8.246  67.078  1.00  0.00    -0.096 C  
BRANCH  23  24
HETATM   24  C   UNL     1      -8.374   6.871  66.902  1.00  0.00    -0.114 C  
BRANCH  24  25
HETATM   25  C   UNL     1      -9.878   7.054  66.803  1.00  0.00    -0.250 C  
BRANCH  25  26
HETATM   26  C   UNL     1     -10.604   6.060  67.680  1.00  0.00    -0.336 C  
BRANCH  26  27
HETATM   27  C   UNL     1     -11.095   6.763  68.933  1.00  0.00    -0.243 C  
BRANCH  27  28
HETATM   28  C   UNL     1     -10.994   5.824  70.116  1.00  0.00    -0.368 C  
BRANCH  28  29
HETATM   29  C   UNL     1      -9.566   5.775  70.622  1.00  0.00    -0.214 C  
BRANCH  29  30
HETATM   30  C   UNL     1      -9.263   4.384  71.143  1.00  0.00    -0.199 C  
BRANCH  30  31
HETATM   31  C   UNL     1      -9.563   3.343  70.083  1.00  0.00    -0.211 C  
BRANCH  31  32
HETATM   32  C   UNL     1      -8.723   2.103  70.322  1.00  0.00    -0.118 C  
BRANCH  32  33
HETATM   33  C   UNL     1      -8.017   1.693  69.041  1.00  0.00    -0.055 C  
BRANCH  33  34
HETATM   34  C   UNL     1      -8.718   2.299  67.835  1.00  0.00    -0.134 C  
BRANCH  34  35
HETATM   35  C   UNL     1      -7.700   2.925  66.892  1.00  0.00    -0.075 C  
BRANCH  35  36
HETATM   36  C   UNL     1      -7.920   2.441  65.465  1.00  0.00    -0.079 C  
BRANCH  36  37
HETATM   37  C   UNL     1      -8.198   3.620  64.537  1.00  0.00    -0.093 C  
BRANCH  37  38
HETATM   38  C   UNL     1      -9.694   3.892  64.433  1.00  0.00    -0.181 C  
HETATM   39  C   UNL     1     -10.373   2.866  63.541  1.00  0.00    -0.198 C  
ENDBRANCH  37  38
ENDBRANCH  36  37
ENDBRANCH  35  36
ENDBRANCH  34  35
ENDBRANCH  33  34
ENDBRANCH  32  33
ENDBRANCH  31  32
ENDBRANCH  30  31
ENDBRANCH  29  30
ENDBRANCH  28  29
ENDBRANCH  27  28
ENDBRANCH  26  27
ENDBRANCH  25  26
ENDBRANCH  24  25
ENDBRANCH  23  24
ENDBRANCH  22  23
ENDBRANCH  19  22
ENDBRANCH  18  19
ENDBRANCH  17  18
ENDBRANCH  16  17
ENDBRANCH  15  16
ENDBRANCH  14  15
ENDBRANCH  13  14
ENDBRANCH  12  13
ENDBRANCH  11  12
ENDBRANCH  10  11
ENDBRANCH   9  10
ENDBRANCH   8   9
ENDBRANCH   7   8
ENDBRANCH   6   7
ENDBRANCH   5   6
ENDBRANCH   4   5
ENDBRANCH   3   4
ENDBRANCH   2   3
TORSDOF 34
ENDMDL
MODEL      155
REMARK 921   NORMALIZED FREE ENERGY PREDICTED BY IDOCK:   -2.41 KCAL/MOL
REMARK 922        TOTAL FREE ENERGY PREDICTED BY IDOCK:  -13.53 KCAL/MOL
REMARK 923 INTER-LIGAND FREE ENERGY PREDICTED BY IDOCK:   -8.98 KCAL/MOL
REMARK 924 INTRA-LIGAND FREE ENERGY PREDICTED BY IDOCK:   -4.55 KCAL/MOL
REMARK 927      BINDING AFFINITY PREDICTED BY RF-SCORE:    0.00 PKD
ROOT
HETATM    1  C   UNL     1      -8.319  19.960  66.242  1.00  0.00    -0.371 C  
HETATM    2  C   UNL     1      -9.707  19.453  66.591  1.00  0.00    -0.441 C  
ENDROOT
BRANCH   2   3
HETATM    3  C   UNL     1     -10.032  19.713  68.054  1.00  0.00    -0.541 C  
BRANCH   3   4
HETATM    4  C   UNL     1     -10.253  18.405  68.809  1.00  0.00    -0.333 C  
BRANCH   4   5
HETATM    5  C   UNL     1      -9.637  17.236  68.051  1.00  0.00    -0.274 C  
BRANCH   5   6
HETATM    6  C   UNL     1      -9.072  16.208  69.021  1.00  0.00    -0.250 C  
BRANCH   6   7
HETATM    7  C   UNL     1      -8.463  15.043  68.255  1.00  0.00    -0.147 C  
BRANCH   7   8
HETATM    8  C   UNL     1      -9.404  13.850  68.276  1.00  0.00    -0.209 C  
BRANCH   8   9
HETATM    9  C   UNL     1     -10.189  13.777  66.977  1.00  0.00    -0.254 C  
BRANCH   9  10
HETATM   10  C   UNL     1     -11.472  12.996  67.192  1.00  0.00    -0.379 C  
BRANCH  10  11
HETATM   11  C   UNL     1     -11.575  11.866  66.186  1.00  0.00    -0.299 C  
BRANCH  11  12
HETATM   12  C   UNL     1     -10.567  10.788  66.534  1.00  0.00    -0.279 C  
BRANCH  12  13
HETATM   13  C   UNL     1     -10.857  10.226  67.910  1.00  0.00    -0.337 C  
BRANCH  13  14
HETATM   14  C   UNL     1     -10.233   8.848  68.039  1.00  0.00    -0.262 C  
BRANCH  14  15
HETATM   15  C   UNL     1      -9.550   8.491  66.739  1.00  0.00    -0.273 C  
BRANCH  15  16
HETATM   16  C   UNL     1      -8.192   7.858  66.994  1.00  0.00    -0.117 C  
BRANCH  16  17
HETATM   17  C   UNL     1      -7.976   6.798  65.931  1.00  0.00    -0.112 C  
BRANCH  17  18
HETATM   18  C   UNL     1      -7.792   5.422  66.543  1.00  0.00    -0.100 C  
BRANCH  18  19
HETATM   19  N   UNL     1      -8.249   4.296  65.592  1.00  0.00    -0.108 N  
HETATM   20  C   UNL     1      -8.638   4.874  64.228  1.00  0.00    -0.141 C  
HETATM   21  C   UNL     1      -7.135   3.261  65.419  1.00  0.00    -0.062 C  
BRANCH  19  22
HETATM   22  C   UNL     1      -9.478   3.654  66.273  1.00  0.00    -0.165 C  
BRANCH  22  23
HETATM   23  C   UNL     1      -9.659   4.136  67.699  1.00  0.00    -0.213 C  
BRANCH  23  24
HETATM   24  C   UNL     1      -9.406   3.026  68.701  1.00  0.00    -0.237 C  
BRANCH  24  25
HETATM   25  C   UNL     1      -9.705   3.581  70.083  1.00  0.00    -0.155 C  
BRANCH  25  26
HETATM   26  C   UNL     1     -10.024   5.056  70.017  1.00  0.00    -0.324 C  
BRANCH  26  27
HETATM   27  C   UNL     1     -10.870   5.439  71.218  1.00  0.00    -0.201 C  
BRANCH  27  28
HETATM   28  C   UNL     1     -11.690   6.669  70.891  1.00  0.00    -0.431 C  
BRANCH  28  29
HETATM   29  C   UNL     1     -11.906   7.500  72.140  1.00  0.00    -0.338 C  
BRANCH  29  30
HETATM   30  C   UNL     1     -11.538   8.943  71.857  1.00  0.00    -0.442 C  
BRANCH  30  31
HETATM   31  C   UNL     1     -10.051   9.069  71.594  1.00  0.00    -0.405 C  
BRANCH  31  32
HETATM   32  C   UNL     1      -9.276   8.229  72.592  1.00  0.00    -0.345 C  
BRANCH  32  33
HETATM   33  C   UNL     1      -7.790   8.281  72.278  1.00  0.00    -0.176 C  
BRANCH  33  34
HETATM   34  C   UNL     1      -7.568   8.271  70.774  1.00  0.00    -0.073 C  
BRANCH  34  35
HETATM   35  C   UNL     1      -7.392   6.843  70.276  1.00  0.00    -0.084 C  
BRANCH  35  36
HETATM   36  C   UNL     1      -6.905   5.938  71.400  1.00  0.00    -0.063 C  
BRANCH  36  37
HETATM   37  C   UNL     1      -5.536   5.356  71.062  1.00  0.00    -0.009 C  
BRANCH  37  38
HETATM   38  C   UNL     1      -5.673   4.033  70.318  1.00  0.00    -0.013 C  
HETATM   39  C   UNL     1      -6.271   2.963  71.216  1.00  0.00    -0.018 C  
ENDBRANCH  37  38
ENDBRANCH  36  37
ENDBRANCH  35  36
ENDBRANCH  34  35
ENDBRANCH  33  34
ENDBRANCH  32  33
ENDBRANCH  31  32
ENDBRANCH  30  31
ENDBRANCH  29  30
ENDBRANCH  28  29
ENDBRANCH  27  28
ENDBRANCH  26  27
ENDBRANCH  25  26
ENDBRANCH  24  25
ENDBRANCH  23  24
ENDBRANCH  22  23
ENDBRANCH  19  22
ENDBRANCH  18  19
ENDBRANCH  17  18
ENDBRANCH  16  17
ENDBRANCH  15  16
ENDBRANCH  14  15
ENDBRANCH  13  14
ENDBRANCH  12  13
ENDBRANCH  11  12
ENDBRANCH  10  11
ENDBRANCH   9  10
ENDBRANCH   8   9
ENDBRANCH   7   8
ENDBRANCH   6   7
ENDBRANCH   5   6
ENDBRANCH   4   5
ENDBRANCH   3   4
ENDBRANCH   2   3
TORSDOF 34
ENDMDL
MODEL      156
REMARK 921   NORMALIZED FREE ENERGY PREDICTED BY IDOCK:   -2.40 KCAL/MOL
REMARK 922        TOTAL FREE ENERGY PREDICTED BY IDOCK:  -13.51 KCAL/MOL
REMARK 923 INTER-LIGAND FREE ENERGY PREDICTED BY IDOCK:   -8.53 KCAL/MOL
REMARK 924 INTRA-LIGAND FREE ENERGY PREDICTED BY IDOCK:   -4.98 KCAL/MOL
REMARK 927      BINDING AFFINITY PREDICTED BY RF-SCORE:    0.00 PKD
ROOT
HETATM    1  C   UNL     1     -10.427   2.844  72.844  1.00  0.00    -0.239 C  
HETATM    2  C   UNL     1      -9.727   2.632  71.514  1.00  0.00    -0.222 C  
ENDROOT
BRANCH   2   3
HETATM    3  C   UNL     1      -9.108   3.927  71.009  1.00  0.00    -0.184 C  
BRANCH   3   4
HETATM    4  C   UNL     1      -8.715   3.812  69.539  1.00  0.00    -0.127 C  
BRANCH   4   5
HETATM    5  C   UNL     1      -9.323   2.562  68.916  1.00  0.00    -0.218 C  
BRANCH   5   6
HETATM    6  C   UNL     1      -9.386   2.697  67.401  1.00  0.00    -0.162 C  
BRANCH   6   7
HETATM    7  C   UNL     1      -8.029   3.113  66.854  1.00  0.00    -0.079 C  
BRANCH   7   8
HETATM    8  C   UNL     1      -8.204   4.051  65.670  1.00  0.00    -0.105 C  
BRANCH   8   9
HETATM    9  C   UNL     1      -9.591   4.672  65.694  1.00  0.00    -0.189 C  
BRANCH   9  10
HETATM   10  C   UNL     1      -9.481   6.171  65.904  1.00  0.00     0.025 C  
BRANCH  10  11
HETATM   11  C   UNL     1      -8.038   6.561  66.166  1.00  0.00    -0.118 C  
BRANCH  11  12
HETATM   12  C   UNL     1      -7.873   6.928  67.628  1.00  0.00    -0.112 C  
BRANCH  12  13
HETATM   13  C   UNL     1      -6.624   6.282  68.190  1.00  0.00    -0.066 C  
BRANCH  13  14
HETATM   14  C   UNL     1      -6.200   7.009  69.453  1.00  0.00    -0.034 C  
BRANCH  14  15
HETATM   15  C   UNL     1      -6.604   8.462  69.347  1.00  0.00    -0.041 C  
BRANCH  15  16
HETATM   16  C   UNL     1      -5.665   9.348  70.147  1.00  0.00    -0.032 C  
BRANCH  16  17
HETATM   17  C   UNL     1      -6.305  10.720  70.246  1.00  0.00    -0.142 C  
BRANCH  17  18
HETATM   18  C   UNL     1      -7.479  10.858  69.296  1.00  0.00    -0.124 C  
BRANCH  18  19
HETATM   19  N   UNL     1      -7.378  12.130  68.427  1.00  0.00    -0.101 N  
HETATM   20  C   UNL     1      -6.428  13.143  69.071  1.00  0.00    -0.103 C  
HETATM   21  C   UNL     1      -6.886  11.777  67.021  1.00  0.00    -0.137 C  
BRANCH  19  22
HETATM   22  C   UNL     1      -8.812  12.703  68.367  1.00  0.00    -0.119 C  
BRANCH  22  23
HETATM   23  C   UNL     1      -8.951  13.789  67.319  1.00  0.00    -0.227 C  
BRANCH  23  24
HETATM   24  C   UNL     1      -9.508  15.070  67.912  1.00  0.00    -0.195 C  
BRANCH  24  25
HETATM   25  C   UNL     1     -10.683  14.690  68.797  1.00  0.00    -0.252 C  
BRANCH  25  26
HETATM   26  C   UNL     1     -11.350  15.920  69.369  1.00  0.00    -0.349 C  
BRANCH  26  27
HETATM   27  C   UNL     1     -12.071  15.546  70.652  1.00  0.00    -0.430 C  
BRANCH  27  28
HETATM   28  C   UNL     1     -12.763  14.211  70.474  1.00  0.00    -0.374 C  
BRANCH  28  29
HETATM   29  C   UNL     1     -13.439  13.798  71.767  1.00  0.00    -0.456 C  
BRANCH  29  30
HETATM   30  C   UNL     1     -13.284  12.303  71.963  1.00  0.00    -0.508 C  
BRANCH  30  31
HETATM   31  C   UNL     1     -12.336  11.729  70.930  1.00  0.00    -0.420 C  
BRANCH  31  32
HETATM   32  C   UNL     1     -12.283  10.218  71.058  1.00  0.00    -0.487 C  
BRANCH  32  33
HETATM   33  C   UNL     1     -13.658   9.673  71.403  1.00  0.00    -0.343 C  
BRANCH  33  34
HETATM   34  C   UNL     1     -13.530   8.429  72.269  1.00  0.00    -0.301 C  
BRANCH  34  35
HETATM   35  C   UNL     1     -13.391   7.190  71.397  1.00  0.00    -0.380 C  
BRANCH  35  36
HETATM   36  C   UNL     1     -11.995   6.593  71.529  1.00  0.00    -0.402 C  
BRANCH  36  37
HETATM   37  C   UNL     1     -11.079   7.131  70.434  1.00  0.00    -0.309 C  
BRANCH  37  38
HETATM   38  C   UNL     1      -9.703   7.475  70.993  1.00  0.00    -0.170 C  
HETATM   39  C   UNL     1      -9.792   7.854  72.461  1.00  0.00    -0.299 C  
ENDBRANCH  37  38
ENDBRANCH  36  37
ENDBRANCH  35  36
ENDBRANCH  34  35
ENDBRANCH  33  34
ENDBRANCH  32  33
ENDBRANCH  31  32
ENDBRANCH  30  31
ENDBRANCH  29  30
ENDBRANCH  28  29
ENDBRANCH  27  28
ENDBRANCH  26  27
ENDBRANCH  25  26
ENDBRANCH  24  25
ENDBRANCH  23  24
ENDBRANCH  22  23
ENDBRANCH  19  22
ENDBRANCH  18  19
ENDBRANCH  17  18
ENDBRANCH  16  17
ENDBRANCH  15  16
ENDBRANCH  14  15
ENDBRANCH  13  14
ENDBRANCH  12  13
ENDBRANCH  11  12
ENDBRANCH  10  11
ENDBRANCH   9  10
ENDBRANCH   8   9
ENDBRANCH   7   8
ENDBRANCH   6   7
ENDBRANCH   5   6
ENDBRANCH   4   5
ENDBRANCH   3   4
ENDBRANCH   2   3
TORSDOF 34
ENDMDL
MODEL      157
REMARK 921   NORMALIZED FREE ENERGY PREDICTED BY IDOCK:   -2.38 KCAL/MOL
REMARK 922        TOTAL FREE ENERGY PREDICTED BY IDOCK:  -13.45 KCAL/MOL
REMARK 923 INTER-LIGAND FREE ENERGY PREDICTED BY IDOCK:   -8.56 KCAL/MOL
REMARK 924 INTRA-LIGAND FREE ENERGY PREDICTED BY IDOCK:   -4.89 KCAL/MOL
REMARK 927      BINDING AFFINITY PREDICTED BY RF-SCORE:    0.00 PKD
ROOT
HETATM    1  C   UNL     1     -12.536   5.644  72.653  1.00  0.00     0.270 C  
HETATM    2  C   UNL     1     -12.586   6.817  71.690  1.00  0.00    -0.380 C  
ENDROOT
BRANCH   2   3
HETATM    3  C   UNL     1     -14.006   7.345  71.547  1.00  0.00    -0.517 C  
BRANCH   3   4
HETATM    4  C   UNL     1     -14.084   8.820  71.931  1.00  0.00    -0.488 C  
BRANCH   4   5
HETATM    5  C   UNL     1     -12.691   9.392  72.157  1.00  0.00    -0.460 C  
BRANCH   5   6
HETATM    6  C   UNL     1     -12.427  10.550  71.204  1.00  0.00    -0.517 C  
BRANCH   6   7
HETATM    7  C   UNL     1     -11.137  10.310  70.432  1.00  0.00    -0.391 C  
BRANCH   7   8
HETATM    8  C   UNL     1     -10.232   9.362  71.202  1.00  0.00    -0.361 C  
BRANCH   8   9
HETATM    9  C   UNL     1      -8.884   9.247  70.511  1.00  0.00    -0.285 C  
BRANCH   9  10
HETATM   10  C   UNL     1      -8.035   8.201  71.208  1.00  0.00    -0.107 C  
BRANCH  10  11
HETATM   11  C   UNL     1      -8.917   7.233  71.975  1.00  0.00    -0.143 C  
BRANCH  11  12
HETATM   12  C   UNL     1      -8.141   5.962  72.260  1.00  0.00    -0.107 C  
BRANCH  12  13
HETATM   13  C   UNL     1      -9.096   4.813  72.509  1.00  0.00    -0.142 C  
BRANCH  13  14
HETATM   14  C   UNL     1      -9.629   4.298  71.184  1.00  0.00    -0.249 C  
BRANCH  14  15
HETATM   15  C   UNL     1      -8.546   3.500  70.492  1.00  0.00    -0.114 C  
BRANCH  15  16
HETATM   16  C   UNL     1      -9.113   2.717  69.320  1.00  0.00    -0.193 C  
BRANCH  16  17
HETATM   17  C   UNL     1      -9.605   3.722  68.295  1.00  0.00    -0.171 C  
BRANCH  17  18
HETATM   18  C   UNL     1      -9.084   3.403  66.906  1.00  0.00    -0.170 C  
BRANCH  18  19
HETATM   19  N   UNL     1      -9.136   4.628  65.969  1.00  0.00    -0.125 N  
HETATM   20  C   UNL     1      -8.129   4.470  64.826  1.00  0.00    -0.101 C  
HETATM   21  C   UNL     1     -10.545   4.803  65.399  1.00  0.00    -0.067 C  
BRANCH  19  22
HETATM   22  C   UNL     1      -8.759   5.838  66.852  1.00  0.00    -0.110 C  
BRANCH  22  23
HETATM   23  C   UNL     1      -9.719   6.998  66.675  1.00  0.00    -0.226 C  
BRANCH  23  24
HETATM   24  C   UNL     1      -9.076   8.319  67.053  1.00  0.00    -0.172 C  
BRANCH  24  25
HETATM   25  C   UNL     1     -10.176   9.365  67.101  1.00  0.00    -0.319 C  
BRANCH  25  26
HETATM   26  C   UNL     1      -9.600  10.749  67.292  1.00  0.00    -0.182 C  
BRANCH  26  27
HETATM   27  C   UNL     1      -8.264  10.838  66.575  1.00  0.00    -0.148 C  
BRANCH  27  28
HETATM   28  C   UNL     1      -7.195  11.290  67.548  1.00  0.00    -0.100 C  
BRANCH  28  29
HETATM   29  C   UNL     1      -7.787  12.242  68.568  1.00  0.00    -0.111 C  
BRANCH  29  30
HETATM   30  C   UNL     1      -6.781  13.330  68.886  1.00  0.00    -0.110 C  
BRANCH  30  31
HETATM   31  C   UNL     1      -7.334  14.690  68.508  1.00  0.00    -0.117 C  
BRANCH  31  32
HETATM   32  C   UNL     1      -8.086  14.596  67.193  1.00  0.00    -0.213 C  
BRANCH  32  33
HETATM   33  C   UNL     1      -9.284  15.530  67.206  1.00  0.00    -0.219 C  
BRANCH  33  34
HETATM   34  C   UNL     1      -9.804  15.702  68.625  1.00  0.00    -0.210 C  
BRANCH  34  35
HETATM   35  C   UNL     1     -10.965  16.686  68.646  1.00  0.00    -0.328 C  
BRANCH  35  36
HETATM   36  C   UNL     1     -11.905  16.384  69.805  1.00  0.00     0.203 C  
BRANCH  36  37
HETATM   37  C   UNL     1     -11.804  14.915  70.206  1.00  0.00    -0.358 C  
BRANCH  37  38
HETATM   38  C   UNL     1     -11.867  14.757  71.720  1.00  0.00    -0.373 C  
HETATM   39  C   UNL     1     -11.927  16.110  72.407  1.00  0.00    -0.649 C  
ENDBRANCH  37  38
ENDBRANCH  36  37
ENDBRANCH  35  36
ENDBRANCH  34  35
ENDBRANCH  33  34
ENDBRANCH  32  33
ENDBRANCH  31  32
ENDBRANCH  30  31
ENDBRANCH  29  30
ENDBRANCH  28  29
ENDBRANCH  27  28
ENDBRANCH  26  27
ENDBRANCH  25  26
ENDBRANCH  24  25
ENDBRANCH  23  24
ENDBRANCH  22  23
ENDBRANCH  19  22
ENDBRANCH  18  19
ENDBRANCH  17  18
ENDBRANCH  16  17
ENDBRANCH  15  16
ENDBRANCH  14  15
ENDBRANCH  13  14
ENDBRANCH  12  13
ENDBRANCH  11  12
ENDBRANCH  10  11
ENDBRANCH   9  10
ENDBRANCH   8   9
ENDBRANCH   7   8
ENDBRANCH   6   7
ENDBRANCH   5   6
ENDBRANCH   4   5
ENDBRANCH   3   4
ENDBRANCH   2   3
TORSDOF 34
ENDMDL
MODEL      158
REMARK 921   NORMALIZED FREE ENERGY PREDICTED BY IDOCK:   -2.38 KCAL/MOL
REMARK 922        TOTAL FREE ENERGY PREDICTED BY IDOCK:  -13.44 KCAL/MOL
REMARK 923 INTER-LIGAND FREE ENERGY PREDICTED BY IDOCK:   -8.40 KCAL/MOL
REMARK 924 INTRA-LIGAND FREE ENERGY PREDICTED BY IDOCK:   -5.04 KCAL/MOL
REMARK 927      BINDING AFFINITY PREDICTED BY RF-SCORE:    0.00 PKD
ROOT
HETATM    1  C   UNL     1      -9.456   1.744  70.702  1.00  0.00    -0.179 C  
HETATM    2  C   UNL     1      -9.286   1.810  69.194  1.00  0.00    -0.188 C  
ENDROOT
BRANCH   2   3
HETATM    3  C   UNL     1      -9.339   3.248  68.700  1.00  0.00    -0.234 C  
BRANCH   3   4
HETATM    4  C   UNL     1      -7.956   3.893  68.738  1.00  0.00    -0.068 C  
BRANCH   4   5
HETATM    5  C   UNL     1      -7.373   3.998  67.335  1.00  0.00    -0.068 C  
BRANCH   5   6
HETATM    6  C   UNL     1      -8.205   4.943  66.480  1.00  0.00    -0.107 C  
BRANCH   6   7
HETATM    7  C   UNL     1      -8.168   4.503  65.023  1.00  0.00    -0.109 C  
BRANCH   7   8
HETATM    8  C   UNL     1      -8.150   5.717  64.108  1.00  0.00    -0.129 C  
BRANCH   8   9
HETATM    9  C   UNL     1      -7.036   6.666  64.517  1.00  0.00    -0.060 C  
BRANCH   9  10
HETATM   10  C   UNL     1      -7.577   8.079  64.628  1.00  0.00    -0.111 C  
BRANCH  10  11
HETATM   11  C   UNL     1      -8.032   8.576  63.269  1.00  0.00    -0.161 C  
BRANCH  11  12
HETATM   12  C   UNL     1      -8.982   9.744  63.451  1.00  0.00    -0.271 C  
BRANCH  12  13
HETATM   13  C   UNL     1      -9.084  10.110  64.917  1.00  0.00    -0.256 C  
BRANCH  13  14
HETATM   14  C   UNL     1     -10.388  10.845  65.168  1.00  0.00    -0.344 C  
BRANCH  14  15
HETATM   15  C   UNL     1     -10.539  11.092  66.652  1.00  0.00    -0.314 C  
BRANCH  15  16
HETATM   16  C   UNL     1      -9.716  12.292  67.090  1.00  0.00    -0.203 C  
BRANCH  16  17
HETATM   17  C   UNL     1      -8.986  11.906  68.362  1.00  0.00    -0.163 C  
BRANCH  17  18
HETATM   18  C   UNL     1      -9.115  10.422  68.651  1.00  0.00    -0.157 C  
BRANCH  18  19
HETATM   19  N   UNL     1      -7.743   9.718  68.706  1.00  0.00    -0.079 N  
HETATM   20  C   UNL     1      -7.893   8.229  68.379  1.00  0.00    -0.118 C  
HETATM   21  C   UNL     1      -6.770  10.370  67.721  1.00  0.00    -0.070 C  
BRANCH  19  22
HETATM   22  C   UNL     1      -7.243   9.901  70.156  1.00  0.00    -0.155 C  
BRANCH  22  23
HETATM   23  C   UNL     1      -7.899   8.926  71.114  1.00  0.00    -0.172 C  
BRANCH  23  24
HETATM   24  C   UNL     1      -6.894   8.340  72.090  1.00  0.00    -0.089 C  
BRANCH  24  25
HETATM   25  C   UNL     1      -7.614   8.120  73.408  1.00  0.00    -0.200 C  
BRANCH  25  26
HETATM   26  C   UNL     1      -7.417   6.706  73.904  1.00  0.00    -0.082 C  
BRANCH  26  27
HETATM   27  C   UNL     1      -7.160   5.792  72.719  1.00  0.00    -0.089 C  
BRANCH  27  28
HETATM   28  C   UNL     1      -8.335   4.853  72.538  1.00  0.00    -0.119 C  
BRANCH  28  29
HETATM   29  C   UNL     1      -9.383   5.495  71.650  1.00  0.00    -0.168 C  
BRANCH  29  30
HETATM   30  C   UNL     1     -10.753   4.963  72.021  1.00  0.00    -0.161 C  
BRANCH  30  31
HETATM   31  C   UNL     1     -11.712   6.107  72.282  1.00  0.00    -0.352 C  
BRANCH  31  32
HETATM   32  C   UNL     1     -10.947   7.324  72.767  1.00  0.00    -0.366 C  
BRANCH  32  33
HETATM   33  C   UNL     1     -11.349   8.550  71.965  1.00  0.00    -0.425 C  
BRANCH  33  34
HETATM   34  C   UNL     1     -12.787   8.936  72.277  1.00  0.00    -0.475 C  
BRANCH  34  35
HETATM   35  C   UNL     1     -13.314   9.902  71.225  1.00  0.00    -0.419 C  
BRANCH  35  36
HETATM   36  C   UNL     1     -12.994  11.341  71.608  1.00  0.00    -0.537 C  
BRANCH  36  37
HETATM   37  C   UNL     1     -12.152  12.007  70.526  1.00  0.00    -0.402 C  
BRANCH  37  38
HETATM   38  C   UNL     1     -12.210  13.526  70.645  1.00  0.00    -0.434 C  
HETATM   39  C   UNL     1     -12.141  14.182  69.277  1.00  0.00    -0.364 C  
ENDBRANCH  37  38
ENDBRANCH  36  37
ENDBRANCH  35  36
ENDBRANCH  34  35
ENDBRANCH  33  34
ENDBRANCH  32  33
ENDBRANCH  31  32
ENDBRANCH  30  31
ENDBRANCH  29  30
ENDBRANCH  28  29
ENDBRANCH  27  28
ENDBRANCH  26  27
ENDBRANCH  25  26
ENDBRANCH  24  25
ENDBRANCH  23  24
ENDBRANCH  22  23
ENDBRANCH  19  22
ENDBRANCH  18  19
ENDBRANCH  17  18
ENDBRANCH  16  17
ENDBRANCH  15  16
ENDBRANCH  14  15
ENDBRANCH  13  14
ENDBRANCH  12  13
ENDBRANCH  11  12
ENDBRANCH  10  11
ENDBRANCH   9  10
ENDBRANCH   8   9
ENDBRANCH   7   8
ENDBRANCH   6   7
ENDBRANCH   5   6
ENDBRANCH   4   5
ENDBRANCH   3   4
ENDBRANCH   2   3
TORSDOF 34
ENDMDL
MODEL      159
REMARK 921   NORMALIZED FREE ENERGY PREDICTED BY IDOCK:   -2.36 KCAL/MOL
REMARK 922        TOTAL FREE ENERGY PREDICTED BY IDOCK:  -13.38 KCAL/MOL
REMARK 923 INTER-LIGAND FREE ENERGY PREDICTED BY IDOCK:   -8.76 KCAL/MOL
REMARK 924 INTRA-LIGAND FREE ENERGY PREDICTED BY IDOCK:   -4.62 KCAL/MOL
REMARK 927      BINDING AFFINITY PREDICTED BY RF-SCORE:    0.00 PKD
ROOT
HETATM    1  C   UNL     1      -7.417  10.043  64.281  1.00  0.00    -0.137 C  
HETATM    2  C   UNL     1      -8.016   9.922  65.670  1.00  0.00    -0.130 C  
ENDROOT
BRANCH   2   3
HETATM    3  C   UNL     1      -9.422   9.343  65.611  1.00  0.00    -0.328 C  
BRANCH   3   4
HETATM    4  C   UNL     1      -9.550   8.118  66.513  1.00  0.00    -0.303 C  
BRANCH   4   5
HETATM    5  C   UNL     1      -8.202   7.756  67.123  1.00  0.00    -0.118 C  
BRANCH   5   6
HETATM    6  C   UNL     1      -7.779   6.358  66.695  1.00  0.00    -0.099 C  
BRANCH   6   7
HETATM    7  C   UNL     1      -8.663   5.314  67.361  1.00  0.00    -0.106 C  
BRANCH   7   8
HETATM    8  C   UNL     1      -8.107   4.951  68.729  1.00  0.00    -0.084 C  
BRANCH   8   9
HETATM    9  C   UNL     1      -8.901   5.649  69.820  1.00  0.00    -0.130 C  
BRANCH   9  10
HETATM   10  C   UNL     1     -10.337   5.160  69.807  1.00  0.00    -0.332 C  
BRANCH  10  11
HETATM   11  C   UNL     1     -11.254   6.236  69.256  1.00  0.00    -0.458 C  
BRANCH  11  12
HETATM   12  C   UNL     1     -11.168   7.470  70.133  1.00  0.00    -0.213 C  
BRANCH  12  13
HETATM   13  C   UNL     1     -12.189   7.390  71.249  1.00  0.00    -0.374 C  
BRANCH  13  14
HETATM   14  C   UNL     1     -11.638   8.064  72.492  1.00  0.00    -0.464 C  
BRANCH  14  15
HETATM   15  C   UNL     1     -10.204   8.472  72.239  1.00  0.00    -0.395 C  
BRANCH  15  16
HETATM   16  C   UNL     1      -9.281   7.895  73.299  1.00  0.00    -0.346 C  
BRANCH  16  17
HETATM   17  C   UNL     1      -7.925   7.679  72.653  1.00  0.00    -0.132 C  
BRANCH  17  18
HETATM   18  C   UNL     1      -7.718   8.600  71.466  1.00  0.00    -0.118 C  
BRANCH  18  19
HETATM   19  N   UNL     1      -6.226   8.761  71.106  1.00  0.00    -0.045 N  
HETATM   20  C   UNL     1      -5.356   8.604  72.356  1.00  0.00    -0.050 C  
HETATM   21  C   UNL     1      -5.817   7.726  70.056  1.00  0.00    -0.023 C  
BRANCH  19  22
HETATM   22  C   UNL     1      -6.092  10.190  70.535  1.00  0.00    -0.108 C  
BRANCH  22  23
HETATM   23  C   UNL     1      -7.185  10.512  69.536  1.00  0.00    -0.137 C  
BRANCH  23  24
HETATM   24  C   UNL     1      -7.116  11.957  69.078  1.00  0.00    -0.092 C  
BRANCH  24  25
HETATM   25  C   UNL     1      -5.800  12.531  69.573  1.00  0.00    -0.105 C  
BRANCH  25  26
HETATM   26  C   UNL     1      -6.033  13.645  70.567  1.00  0.00    -0.145 C  
BRANCH  26  27
HETATM   27  C   UNL     1      -6.656  14.831  69.852  1.00  0.00    -0.175 C  
BRANCH  27  28
HETATM   28  C   UNL     1      -5.763  16.044  70.009  1.00  0.00    -0.171 C  
BRANCH  28  29
HETATM   29  C   UNL     1      -6.317  17.205  69.207  1.00  0.00    -0.231 C  
BRANCH  29  30
HETATM   30  C   UNL     1      -7.529  16.744  68.421  1.00  0.00    -0.202 C  
BRANCH  30  31
HETATM   31  C   UNL     1      -7.257  16.823  66.932  1.00  0.00    -0.258 C  
BRANCH  31  32
HETATM   32  C   UNL     1      -8.566  16.902  66.170  1.00  0.00    -0.277 C  
BRANCH  32  33
HETATM   33  C   UNL     1      -9.706  17.231  67.118  1.00  0.00    -0.259 C  
BRANCH  33  34
HETATM   34  C   UNL     1     -10.800  16.179  67.013  1.00  0.00    -0.194 C  
BRANCH  34  35
HETATM   35  C   UNL     1     -10.594  15.326  65.769  1.00  0.00    -0.359 C  
BRANCH  35  36
HETATM   36  C   UNL     1     -11.133  13.918  65.988  1.00  0.00    -0.289 C  
BRANCH  36  37
HETATM   37  C   UNL     1     -10.214  12.888  65.338  1.00  0.00    -0.301 C  
BRANCH  37  38
HETATM   38  C   UNL     1     -10.557  12.702  63.865  1.00  0.00    -0.460 C  
HETATM   39  C   UNL     1     -11.919  12.048  63.702  1.00  0.00    -0.612 C  
ENDBRANCH  37  38
ENDBRANCH  36  37
ENDBRANCH  35  36
ENDBRANCH  34  35
ENDBRANCH  33  34
ENDBRANCH  32  33
ENDBRANCH  31  32
ENDBRANCH  30  31
ENDBRANCH  29  30
ENDBRANCH  28  29
ENDBRANCH  27  28
ENDBRANCH  26  27
ENDBRANCH  25  26
ENDBRANCH  24  25
ENDBRANCH  23  24
ENDBRANCH  22  23
ENDBRANCH  19  22
ENDBRANCH  18  19
ENDBRANCH  17  18
ENDBRANCH  16  17
ENDBRANCH  15  16
ENDBRANCH  14  15
ENDBRANCH  13  14
ENDBRANCH  12  13
ENDBRANCH  11  12
ENDBRANCH  10  11
ENDBRANCH   9  10
ENDBRANCH   8   9
ENDBRANCH   7   8
ENDBRANCH   6   7
ENDBRANCH   5   6
ENDBRANCH   4   5
ENDBRANCH   3   4
ENDBRANCH   2   3
TORSDOF 34
ENDMDL
MODEL      160
REMARK 921   NORMALIZED FREE ENERGY PREDICTED BY IDOCK:   -2.36 KCAL/MOL
REMARK 922        TOTAL FREE ENERGY PREDICTED BY IDOCK:  -13.36 KCAL/MOL
REMARK 923 INTER-LIGAND FREE ENERGY PREDICTED BY IDOCK:   -9.17 KCAL/MOL
REMARK 924 INTRA-LIGAND FREE ENERGY PREDICTED BY IDOCK:   -4.20 KCAL/MOL
REMARK 927      BINDING AFFINITY PREDICTED BY RF-SCORE:    0.00 PKD
ROOT
HETATM    1  C   UNL     1      -9.500   7.624  73.644  1.00  0.00    -0.340 C  
HETATM    2  C   UNL     1      -9.637   7.863  72.151  1.00  0.00    -0.255 C  
ENDROOT
BRANCH   2   3
HETATM    3  C   UNL     1     -10.984   7.374  71.641  1.00  0.00    -0.252 C  
BRANCH   3   4
HETATM    4  C   UNL     1     -11.858   8.541  71.189  1.00  0.00    -0.322 C  
BRANCH   4   5
HETATM    5  C   UNL     1     -11.058   9.837  71.175  1.00  0.00    -0.414 C  
BRANCH   5   6
HETATM    6  C   UNL     1     -11.161  10.514  69.815  1.00  0.00    -0.354 C  
BRANCH   6   7
HETATM    7  C   UNL     1     -10.782   9.537  68.712  1.00  0.00    -0.218 C  
BRANCH   7   8
HETATM    8  C   UNL     1      -9.274   9.352  68.668  1.00  0.00    -0.131 C  
BRANCH   8   9
HETATM    9  C   UNL     1      -8.582  10.703  68.596  1.00  0.00    -0.144 C  
BRANCH   9  10
HETATM   10  C   UNL     1      -7.273  10.573  67.840  1.00  0.00    -0.084 C  
BRANCH  10  11
HETATM   11  C   UNL     1      -7.102   9.156  67.325  1.00  0.00    -0.079 C  
BRANCH  11  12
HETATM   12  C   UNL     1      -5.747   9.023  66.657  1.00  0.00    -0.047 C  
BRANCH  12  13
HETATM   13  C   UNL     1      -5.869   8.209  65.386  1.00  0.00    -0.044 C  
BRANCH  13  14
HETATM   14  C   UNL     1      -7.124   8.618  64.638  1.00  0.00    -0.081 C  
BRANCH  14  15
HETATM   15  C   UNL     1      -6.809   9.804  63.756  1.00  0.00    -0.119 C  
BRANCH  15  16
HETATM   16  C   UNL     1      -7.908  10.026  62.730  1.00  0.00    -0.140 C  
BRANCH  16  17
HETATM   17  C   UNL     1      -9.212  10.196  63.488  1.00  0.00    -0.322 C  
BRANCH  17  18
HETATM   18  C   UNL     1      -9.971  11.425  63.024  1.00  0.00    -0.322 C  
BRANCH  18  19
HETATM   19  N   UNL     1     -11.029  11.877  64.053  1.00  0.00    -0.348 N  
HETATM   20  C   UNL     1     -12.368  12.145  63.359  1.00  0.00    -0.538 C  
HETATM   21  C   UNL     1     -11.210  10.811  65.135  1.00  0.00     0.450 C  
BRANCH  19  22
HETATM   22  C   UNL     1     -10.474  13.181  64.668  1.00  0.00    -0.392 C  
BRANCH  22  23
HETATM   23  C   UNL     1      -9.698  12.926  65.945  1.00  0.00    -0.190 C  
BRANCH  23  24
HETATM   24  C   UNL     1     -10.419  13.485  67.158  1.00  0.00    -0.256 C  
BRANCH  24  25
HETATM   25  C   UNL     1     -11.338  14.591  66.673  1.00  0.00    -0.359 C  
BRANCH  25  26
HETATM   26  C   UNL     1     -10.874  15.940  67.173  1.00  0.00    -0.267 C  
BRANCH  26  27
HETATM   27  C   UNL     1      -9.491  15.798  67.782  1.00  0.00    -0.212 C  
BRANCH  27  28
HETATM   28  C   UNL     1      -9.390  16.665  69.020  1.00  0.00    -0.227 C  
BRANCH  28  29
HETATM   29  C   UNL     1     -10.521  17.675  69.042  1.00  0.00    -0.200 C  
BRANCH  29  30
HETATM   30  C   UNL     1      -9.976  19.051  68.713  1.00  0.00    -0.475 C  
BRANCH  30  31
HETATM   31  C   UNL     1     -10.016  19.293  67.218  1.00  0.00    -0.456 C  
BRANCH  31  32
HETATM   32  C   UNL     1      -9.054  20.405  66.847  1.00  0.00    -0.412 C  
BRANCH  32  33
HETATM   33  C   UNL     1      -7.942  19.865  65.964  1.00  0.00    -0.328 C  
BRANCH  33  34
HETATM   34  C   UNL     1      -7.625  18.425  66.337  1.00  0.00    -0.282 C  
BRANCH  34  35
HETATM   35  C   UNL     1      -6.195  18.314  66.847  1.00  0.00    -0.196 C  
BRANCH  35  36
HETATM   36  C   UNL     1      -6.025  19.098  68.142  1.00  0.00    -0.229 C  
BRANCH  36  37
HETATM   37  C   UNL     1      -5.297  18.256  69.185  1.00  0.00    -0.194 C  
BRANCH  37  38
HETATM   38  C   UNL     1      -6.037  16.949  69.444  1.00  0.00    -0.218 C  
HETATM   39  C   UNL     1      -5.220  16.029  70.335  1.00  0.00    -0.169 C  
ENDBRANCH  37  38
ENDBRANCH  36  37
ENDBRANCH  35  36
ENDBRANCH  34  35
ENDBRANCH  33  34
ENDBRANCH  32  33
ENDBRANCH  31  32
ENDBRANCH  30  31
ENDBRANCH  29  30
ENDBRANCH  28  29
ENDBRANCH  27  28
ENDBRANCH  26  27
ENDBRANCH  25  26
ENDBRANCH  24  25
ENDBRANCH  23  24
ENDBRANCH  22  23
ENDBRANCH  19  22
ENDBRANCH  18  19
ENDBRANCH  17  18
ENDBRANCH  16  17
ENDBRANCH  15  16
ENDBRANCH  14  15
ENDBRANCH  13  14
ENDBRANCH  12  13
ENDBRANCH  11  12
ENDBRANCH  10  11
ENDBRANCH   9  10
ENDBRANCH   8   9
ENDBRANCH   7   8
ENDBRANCH   6   7
ENDBRANCH   5   6
ENDBRANCH   4   5
ENDBRANCH   3   4
ENDBRANCH   2   3
TORSDOF 34
ENDMDL
MODEL      161
REMARK 921   NORMALIZED FREE ENERGY PREDICTED BY IDOCK:   -2.35 KCAL/MOL
REMARK 922        TOTAL FREE ENERGY PREDICTED BY IDOCK:  -13.35 KCAL/MOL
REMARK 923 INTER-LIGAND FREE ENERGY PREDICTED BY IDOCK:   -7.82 KCAL/MOL
REMARK 924 INTRA-LIGAND FREE ENERGY PREDICTED BY IDOCK:   -5.53 KCAL/MOL
REMARK 927      BINDING AFFINITY PREDICTED BY RF-SCORE:    0.00 PKD
ROOT
HETATM    1  C   UNL     1      -6.561   8.589  70.911  1.00  0.00    -0.044 C  
HETATM    2  C   UNL     1      -7.650   8.815  71.944  1.00  0.00    -0.051 C  
ENDROOT
BRANCH   2   3
HETATM    3  C   UNL     1      -8.007   7.518  72.655  1.00  0.00    -0.120 C  
BRANCH   3   4
HETATM    4  C   UNL     1      -6.828   6.999  73.474  1.00  0.00    -0.070 C  
BRANCH   4   5
HETATM    5  C   UNL     1      -6.851   5.477  73.544  1.00  0.00    -0.084 C  
BRANCH   5   6
HETATM    6  C   UNL     1      -7.880   5.005  74.562  1.00  0.00    -0.095 C  
BRANCH   6   7
HETATM    7  C   UNL     1      -8.053   3.495  74.471  1.00  0.00    -0.080 C  
BRANCH   7   8
HETATM    8  C   UNL     1      -9.530   3.134  74.501  1.00  0.00    -0.121 C  
BRANCH   8   9
HETATM    9  C   UNL     1     -10.372   4.335  74.106  1.00  0.00    -0.284 C  
BRANCH   9  10
HETATM   10  C   UNL     1     -10.974   4.113  72.731  1.00  0.00    -0.106 C  
BRANCH  10  11
HETATM   11  C   UNL     1     -10.305   5.017  71.712  1.00  0.00    -0.268 C  
BRANCH  11  12
HETATM   12  C   UNL     1      -9.535   4.172  70.716  1.00  0.00    -0.242 C  
BRANCH  12  13
HETATM   13  C   UNL     1      -8.215   4.833  70.380  1.00  0.00    -0.083 C  
BRANCH  13  14
HETATM   14  C   UNL     1      -7.597   4.151  69.173  1.00  0.00    -0.054 C  
BRANCH  14  15
HETATM   15  C   UNL     1      -7.889   4.972  67.937  1.00  0.00    -0.090 C  
BRANCH  15  16
HETATM   16  C   UNL     1      -6.606   5.504  67.322  1.00  0.00    -0.053 C  
BRANCH  16  17
HETATM   17  C   UNL     1      -6.536   6.989  67.623  1.00  0.00    -0.055 C  
BRANCH  17  18
HETATM   18  C   UNL     1      -6.217   7.797  66.379  1.00  0.00    -0.045 C  
BRANCH  18  19
HETATM   19  N   UNL     1      -7.225   8.943  66.155  1.00  0.00    -0.088 N  
HETATM   20  C   UNL     1      -7.482   9.692  67.466  1.00  0.00    -0.091 C  
HETATM   21  C   UNL     1      -6.701   9.915  65.095  1.00  0.00    -0.109 C  
BRANCH  19  22
HETATM   22  C   UNL     1      -8.522   8.261  65.664  1.00  0.00    -0.158 C  
BRANCH  22  23
HETATM   23  C   UNL     1      -9.643   8.366  66.679  1.00  0.00    -0.294 C  
BRANCH  23  24
HETATM   24  C   UNL     1     -10.365   7.043  66.854  1.00  0.00    -0.338 C  
BRANCH  24  25
HETATM   25  C   UNL     1     -10.926   7.012  68.265  1.00  0.00    -0.148 C  
BRANCH  25  26
HETATM   26  C   UNL     1     -10.119   7.896  69.188  1.00  0.00    -0.197 C  
BRANCH  26  27
HETATM   27  C   UNL     1     -10.996   8.342  70.345  1.00  0.00    -0.244 C  
BRANCH  27  28
HETATM   28  C   UNL     1     -11.322   9.814  70.197  1.00  0.00    -0.305 C  
BRANCH  28  29
HETATM   29  C   UNL     1     -12.032  10.317  71.438  1.00  0.00    -0.419 C  
BRANCH  29  30
HETATM   30  C   UNL     1     -13.125  11.288  71.034  1.00  0.00    -0.171 C  
BRANCH  30  31
HETATM   31  C   UNL     1     -13.450  12.225  72.181  1.00  0.00    -0.431 C  
BRANCH  31  32
HETATM   32  C   UNL     1     -13.558  13.650  71.671  1.00  0.00    -0.370 C  
BRANCH  32  33
HETATM   33  C   UNL     1     -12.180  14.285  71.595  1.00  0.00    -0.351 C  
BRANCH  33  34
HETATM   34  C   UNL     1     -11.947  14.875  70.212  1.00  0.00    -0.365 C  
BRANCH  34  35
HETATM   35  C   UNL     1     -11.878  13.766  69.171  1.00  0.00    -0.398 C  
BRANCH  35  36
HETATM   36  C   UNL     1     -11.202  14.264  67.900  1.00  0.00    -0.305 C  
BRANCH  36  37
HETATM   37  C   UNL     1     -10.598  13.098  67.124  1.00  0.00    -0.259 C  
BRANCH  37  38
HETATM   38  C   UNL     1     -10.886  13.227  65.633  1.00  0.00    -0.291 C  
HETATM   39  C   UNL     1     -12.358  12.992  65.340  1.00  0.00    -0.538 C  
ENDBRANCH  37  38
ENDBRANCH  36  37
ENDBRANCH  35  36
ENDBRANCH  34  35
ENDBRANCH  33  34
ENDBRANCH  32  33
ENDBRANCH  31  32
ENDBRANCH  30  31
ENDBRANCH  29  30
ENDBRANCH  28  29
ENDBRANCH  27  28
ENDBRANCH  26  27
ENDBRANCH  25  26
ENDBRANCH  24  25
ENDBRANCH  23  24
ENDBRANCH  22  23
ENDBRANCH  19  22
ENDBRANCH  18  19
ENDBRANCH  17  18
ENDBRANCH  16  17
ENDBRANCH  15  16
ENDBRANCH  14  15
ENDBRANCH  13  14
ENDBRANCH  12  13
ENDBRANCH  11  12
ENDBRANCH  10  11
ENDBRANCH   9  10
ENDBRANCH   8   9
ENDBRANCH   7   8
ENDBRANCH   6   7
ENDBRANCH   5   6
ENDBRANCH   4   5
ENDBRANCH   3   4
ENDBRANCH   2   3
TORSDOF 34
ENDMDL
MODEL      162
REMARK 921   NORMALIZED FREE ENERGY PREDICTED BY IDOCK:   -2.34 KCAL/MOL
REMARK 922        TOTAL FREE ENERGY PREDICTED BY IDOCK:  -13.33 KCAL/MOL
REMARK 923 INTER-LIGAND FREE ENERGY PREDICTED BY IDOCK:   -8.41 KCAL/MOL
REMARK 924 INTRA-LIGAND FREE ENERGY PREDICTED BY IDOCK:   -4.91 KCAL/MOL
REMARK 927      BINDING AFFINITY PREDICTED BY RF-SCORE:    0.00 PKD
ROOT
HETATM    1  C   UNL     1      -6.165   8.191  72.047  1.00  0.00    -0.049 C  
HETATM    2  C   UNL     1      -6.933   8.770  70.872  1.00  0.00    -0.072 C  
ENDROOT
BRANCH   2   3
HETATM    3  C   UNL     1      -8.355   8.230  70.829  1.00  0.00    -0.127 C  
BRANCH   3   4
HETATM    4  C   UNL     1      -9.366   9.358  70.650  1.00  0.00    -0.314 C  
BRANCH   4   5
HETATM    5  C   UNL     1     -10.439   9.295  71.730  1.00  0.00    -0.238 C  
BRANCH   5   6
HETATM    6  C   UNL     1     -11.827   9.281  71.104  1.00  0.00    -0.396 C  
BRANCH   6   7
HETATM    7  C   UNL     1     -12.529   7.967  71.414  1.00  0.00    -0.330 C  
BRANCH   7   8
HETATM    8  C   UNL     1     -12.035   6.873  70.480  1.00  0.00    -0.358 C  
BRANCH   8   9
HETATM    9  C   UNL     1     -11.200   5.864  71.250  1.00  0.00    -0.280 C  
BRANCH   9  10
HETATM   10  C   UNL     1     -11.565   5.908  72.722  1.00  0.00    -0.235 C  
BRANCH  10  11
HETATM   11  C   UNL     1     -11.399   4.534  73.346  1.00  0.00    -0.376 C  
BRANCH  11  12
HETATM   12  C   UNL     1     -10.097   3.919  72.871  1.00  0.00    -0.218 C  
BRANCH  12  13
HETATM   13  C   UNL     1      -8.966   4.307  73.799  1.00  0.00    -0.091 C  
BRANCH  13  14
HETATM   14  C   UNL     1      -7.910   5.074  73.023  1.00  0.00    -0.097 C  
BRANCH  14  15
HETATM   15  C   UNL     1      -6.765   4.143  72.694  1.00  0.00    -0.045 C  
BRANCH  15  16
HETATM   16  C   UNL     1      -6.791   3.747  71.227  1.00  0.00    -0.031 C  
BRANCH  16  17
HETATM   17  C   UNL     1      -6.569   5.005  70.410  1.00  0.00    -0.035 C  
BRANCH  17  18
HETATM   18  C   UNL     1      -7.513   5.075  69.225  1.00  0.00    -0.057 C  
BRANCH  18  19
HETATM   19  N   UNL     1      -6.778   4.883  67.882  1.00  0.00    -0.053 N  
HETATM   20  C   UNL     1      -5.286   5.191  68.041  1.00  0.00    -0.011 C  
HETATM   21  C   UNL     1      -6.961   3.451  67.374  1.00  0.00    -0.054 C  
BRANCH  19  22
HETATM   22  C   UNL     1      -7.431   5.887  66.907  1.00  0.00    -0.084 C  
BRANCH  22  23
HETATM   23  C   UNL     1      -8.944   5.800  66.924  1.00  0.00    -0.114 C  
BRANCH  23  24
HETATM   24  C   UNL     1      -9.570   7.062  67.490  1.00  0.00    -0.155 C  
BRANCH  24  25
HETATM   25  C   UNL     1      -9.439   8.149  66.438  1.00  0.00    -0.285 C  
BRANCH  25  26
HETATM   26  C   UNL     1      -8.572   9.282  66.935  1.00  0.00    -0.132 C  
BRANCH  26  27
HETATM   27  C   UNL     1      -9.270  10.603  66.662  1.00  0.00    -0.184 C  
BRANCH  27  28
HETATM   28  C   UNL     1     -10.769  10.419  66.780  1.00  0.00    -0.235 C  
BRANCH  28  29
HETATM   29  C   UNL     1     -11.258  10.972  68.104  1.00  0.00    -0.364 C  
BRANCH  29  30
HETATM   30  C   UNL     1     -10.834  12.422  68.232  1.00  0.00    -0.264 C  
BRANCH  30  31
HETATM   31  C   UNL     1     -11.863  13.334  67.594  1.00  0.00    -0.400 C  
BRANCH  31  32
HETATM   32  C   UNL     1     -11.226  14.664  67.238  1.00  0.00    -0.344 C  
BRANCH  32  33
HETATM   33  C   UNL     1     -10.209  14.478  66.125  1.00  0.00    -0.317 C  
BRANCH  33  34
HETATM   34  C   UNL     1      -8.844  14.979  66.568  1.00  0.00    -0.286 C  
BRANCH  34  35
HETATM   35  C   UNL     1      -8.965  16.363  67.189  1.00  0.00    -0.218 C  
BRANCH  35  36
HETATM   36  C   UNL     1      -9.608  17.337  66.210  1.00  0.00    -0.268 C  
BRANCH  36  37
HETATM   37  C   UNL     1     -10.628  18.217  66.924  1.00  0.00    -0.356 C  
BRANCH  37  38
HETATM   38  C   UNL     1      -9.971  19.476  67.478  1.00  0.00    -0.495 C  
HETATM   39  C   UNL     1     -10.117  19.546  68.989  1.00  0.00    -0.444 C  
ENDBRANCH  37  38
ENDBRANCH  36  37
ENDBRANCH  35  36
ENDBRANCH  34  35
ENDBRANCH  33  34
ENDBRANCH  32  33
ENDBRANCH  31  32
ENDBRANCH  30  31
ENDBRANCH  29  30
ENDBRANCH  28  29
ENDBRANCH  27  28
ENDBRANCH  26  27
ENDBRANCH  25  26
ENDBRANCH  24  25
ENDBRANCH  23  24
ENDBRANCH  22  23
ENDBRANCH  19  22
ENDBRANCH  18  19
ENDBRANCH  17  18
ENDBRANCH  16  17
ENDBRANCH  15  16
ENDBRANCH  14  15
ENDBRANCH  13  14
ENDBRANCH  12  13
ENDBRANCH  11  12
ENDBRANCH  10  11
ENDBRANCH   9  10
ENDBRANCH   8   9
ENDBRANCH   7   8
ENDBRANCH   6   7
ENDBRANCH   5   6
ENDBRANCH   4   5
ENDBRANCH   3   4
ENDBRANCH   2   3
TORSDOF 34
ENDMDL
MODEL      163
REMARK 921   NORMALIZED FREE ENERGY PREDICTED BY IDOCK:   -2.33 KCAL/MOL
REMARK 922        TOTAL FREE ENERGY PREDICTED BY IDOCK:  -13.28 KCAL/MOL
REMARK 923 INTER-LIGAND FREE ENERGY PREDICTED BY IDOCK:   -9.25 KCAL/MOL
REMARK 924 INTRA-LIGAND FREE ENERGY PREDICTED BY IDOCK:   -4.04 KCAL/MOL
REMARK 927      BINDING AFFINITY PREDICTED BY RF-SCORE:    0.00 PKD
ROOT
HETATM    1  C   UNL     1     -10.807   6.880  67.663  1.00  0.00    -0.333 C  
HETATM    2  C   UNL     1     -10.319   5.729  66.801  1.00  0.00    -0.312 C  
ENDROOT
BRANCH   2   3
HETATM    3  C   UNL     1      -8.861   5.918  66.412  1.00  0.00    -0.134 C  
BRANCH   3   4
HETATM    4  C   UNL     1      -8.691   7.111  65.476  1.00  0.00    -0.042 C  
BRANCH   4   5
HETATM    5  C   UNL     1      -7.216   7.389  65.220  1.00  0.00    -0.069 C  
BRANCH   5   6
HETATM    6  C   UNL     1      -6.908   7.314  63.731  1.00  0.00    -0.053 C  
BRANCH   6   7
HETATM    7  C   UNL     1      -7.081   8.683  63.089  1.00  0.00    -0.090 C  
BRANCH   7   8
HETATM    8  C   UNL     1      -8.542   8.919  62.741  1.00  0.00    -0.167 C  
BRANCH   8   9
HETATM    9  C   UNL     1      -8.758  10.369  62.340  1.00  0.00    -0.262 C  
BRANCH   9  10
HETATM   10  C   UNL     1      -9.002  11.215  63.575  1.00  0.00    -0.064 C  
BRANCH  10  11
HETATM   11  C   UNL     1      -9.604  10.370  64.682  1.00  0.00    -0.360 C  
BRANCH  11  12
HETATM   12  C   UNL     1     -10.992  10.884  65.010  1.00  0.00    -0.035 C  
BRANCH  12  13
HETATM   13  C   UNL     1     -11.377  11.995  64.055  1.00  0.00    -0.478 C  
BRANCH  13  14
HETATM   14  C   UNL     1     -12.641  12.675  64.549  1.00  0.00    -0.491 C  
BRANCH  14  15
HETATM   15  C   UNL     1     -12.314  14.096  64.949  1.00  0.00    -0.446 C  
BRANCH  15  16
HETATM   16  C   UNL     1     -12.281  14.240  66.461  1.00  0.00    -0.419 C  
BRANCH  16  17
HETATM   17  C   UNL     1     -10.827  14.203  66.892  1.00  0.00    -0.296 C  
BRANCH  17  18
HETATM   18  C   UNL     1     -10.098  15.476  66.508  1.00  0.00    -0.279 C  
BRANCH  18  19
HETATM   19  N   UNL     1      -8.986  15.837  67.515  1.00  0.00    -0.192 N  
HETATM   20  C   UNL     1      -7.737  16.329  66.778  1.00  0.00    -0.260 C  
HETATM   21  C   UNL     1      -9.475  16.914  68.486  1.00  0.00    -0.266 C  
BRANCH  19  22
HETATM   22  C   UNL     1      -8.678  14.527  68.275  1.00  0.00    -0.173 C  
BRANCH  22  23
HETATM   23  C   UNL     1      -7.700  13.646  67.524  1.00  0.00    -0.183 C  
BRANCH  23  24
HETATM   24  C   UNL     1      -7.240  12.474  68.371  1.00  0.00    -0.111 C  
BRANCH  24  25
HETATM   25  C   UNL     1      -7.983  11.241  67.888  1.00  0.00    -0.118 C  
BRANCH  25  26
HETATM   26  C   UNL     1      -7.018  10.141  67.509  1.00  0.00    -0.085 C  
BRANCH  26  27
HETATM   27  C   UNL     1      -6.735   9.283  68.730  1.00  0.00    -0.053 C  
BRANCH  27  28
HETATM   28  C   UNL     1      -8.036   8.956  69.434  1.00  0.00    -0.100 C  
BRANCH  28  29
HETATM   29  C   UNL     1      -7.756   8.216  70.727  1.00  0.00    -0.080 C  
BRANCH  29  30
HETATM   30  C   UNL     1      -9.012   8.190  71.575  1.00  0.00    -0.201 C  
BRANCH  30  31
HETATM   31  C   UNL     1     -10.244   8.331  70.703  1.00  0.00    -0.214 C  
BRANCH  31  32
HETATM   32  C   UNL     1     -11.192   9.350  71.306  1.00  0.00    -0.437 C  
BRANCH  32  33
HETATM   33  C   UNL     1     -12.580   8.749  71.458  1.00  0.00    -0.372 C  
BRANCH  33  34
HETATM   34  C   UNL     1     -13.547   9.788  72.003  1.00  0.00    -0.436 C  
BRANCH  34  35
HETATM   35  C   UNL     1     -12.926  11.176  71.932  1.00  0.00    -0.477 C  
BRANCH  35  36
HETATM   36  C   UNL     1     -13.029  11.740  70.521  1.00  0.00     0.128 C  
BRANCH  36  37
HETATM   37  C   UNL     1     -12.112  12.948  70.359  1.00  0.00    -0.385 C  
BRANCH  37  38
HETATM   38  C   UNL     1     -12.452  14.031  71.376  1.00  0.00    -0.438 C  
HETATM   39  C   UNL     1     -12.856  15.321  70.683  1.00  0.00    -0.462 C  
ENDBRANCH  37  38
ENDBRANCH  36  37
ENDBRANCH  35  36
ENDBRANCH  34  35
ENDBRANCH  33  34
ENDBRANCH  32  33
ENDBRANCH  31  32
ENDBRANCH  30  31
ENDBRANCH  29  30
ENDBRANCH  28  29
ENDBRANCH  27  28
ENDBRANCH  26  27
ENDBRANCH  25  26
ENDBRANCH  24  25
ENDBRANCH  23  24
ENDBRANCH  22  23
ENDBRANCH  19  22
ENDBRANCH  18  19
ENDBRANCH  17  18
ENDBRANCH  16  17
ENDBRANCH  15  16
ENDBRANCH  14  15
ENDBRANCH  13  14
ENDBRANCH  12  13
ENDBRANCH  11  12
ENDBRANCH  10  11
ENDBRANCH   9  10
ENDBRANCH   8   9
ENDBRANCH   7   8
ENDBRANCH   6   7
ENDBRANCH   5   6
ENDBRANCH   4   5
ENDBRANCH   3   4
ENDBRANCH   2   3
TORSDOF 34
ENDMDL
MODEL      164
REMARK 921   NORMALIZED FREE ENERGY PREDICTED BY IDOCK:   -2.32 KCAL/MOL
REMARK 922        TOTAL FREE ENERGY PREDICTED BY IDOCK:  -13.25 KCAL/MOL
REMARK 923 INTER-LIGAND FREE ENERGY PREDICTED BY IDOCK:   -8.88 KCAL/MOL
REMARK 924 INTRA-LIGAND FREE ENERGY PREDICTED BY IDOCK:   -4.37 KCAL/MOL
REMARK 927      BINDING AFFINITY PREDICTED BY RF-SCORE:    0.00 PKD
ROOT
HETATM    1  C   UNL     1     -11.733  15.739  72.258  1.00  0.00    -0.580 C  
HETATM    2  C   UNL     1     -12.898  14.939  71.701  1.00  0.00    -0.402 C  
ENDROOT
BRANCH   2   3
HETATM    3  C   UNL     1     -12.738  14.710  70.206  1.00  0.00    -0.323 C  
BRANCH   3   4
HETATM    4  C   UNL     1     -11.879  15.801  69.572  1.00  0.00    -0.359 C  
BRANCH   4   5
HETATM    5  C   UNL     1     -11.646  15.511  68.094  1.00  0.00    -0.313 C  
BRANCH   5   6
HETATM    6  C   UNL     1     -10.312  16.086  67.641  1.00  0.00    -0.284 C  
BRANCH   6   7
HETATM    7  C   UNL     1      -9.567  15.073  66.784  1.00  0.00    -0.260 C  
BRANCH   7   8
HETATM    8  C   UNL     1     -10.268  13.725  66.836  1.00  0.00    -0.261 C  
BRANCH   8   9
HETATM    9  C   UNL     1      -9.326  12.625  66.378  1.00  0.00    -0.198 C  
BRANCH   9  10
HETATM   10  C   UNL     1     -10.124  11.440  65.869  1.00  0.00    -0.286 C  
BRANCH  10  11
HETATM   11  C   UNL     1     -11.242  11.104  66.839  1.00  0.00    -0.258 C  
BRANCH  11  12
HETATM   12  C   UNL     1     -10.800   9.972  67.746  1.00  0.00    -0.337 C  
BRANCH  12  13
HETATM   13  C   UNL     1     -10.717  10.453  69.179  1.00  0.00    -0.266 C  
BRANCH  13  14
HETATM   14  C   UNL     1     -12.032  11.097  69.578  1.00  0.00    -0.425 C  
BRANCH  14  15
HETATM   15  C   UNL     1     -12.188  11.014  71.079  1.00  0.00    -0.456 C  
BRANCH  15  16
HETATM   16  C   UNL     1     -12.374   9.575  71.528  1.00  0.00    -0.465 C  
BRANCH  16  17
HETATM   17  C   UNL     1     -11.044   9.090  72.072  1.00  0.00    -0.371 C  
BRANCH  17  18
HETATM   18  C   UNL     1     -11.204   7.824  72.893  1.00  0.00    -0.376 C  
BRANCH  18  19
HETATM   19  N   UNL     1     -10.621   6.588  72.176  1.00  0.00    -0.210 N  
HETATM   20  C   UNL     1     -11.559   6.128  71.057  1.00  0.00    -0.191 C  
HETATM   21  C   UNL     1      -9.241   6.909  71.597  1.00  0.00    -0.146 C  
BRANCH  19  22
HETATM   22  C   UNL     1     -10.507   5.497  73.264  1.00  0.00    -0.225 C  
BRANCH  22  23
HETATM   23  C   UNL     1     -11.509   4.378  73.058  1.00  0.00    -0.160 C  
BRANCH  23  24
HETATM   24  C   UNL     1     -10.832   3.020  73.034  1.00  0.00    -0.187 C  
BRANCH  24  25
HETATM   25  C   UNL     1      -9.413   3.225  72.536  1.00  0.00    -0.174 C  
BRANCH  25  26
HETATM   26  C   UNL     1      -9.318   2.970  71.049  1.00  0.00    -0.214 C  
BRANCH  26  27
HETATM   27  C   UNL     1      -7.937   3.371  70.560  1.00  0.00    -0.050 C  
BRANCH  27  28
HETATM   28  C   UNL     1      -8.061   4.122  69.251  1.00  0.00    -0.063 C  
BRANCH  28  29
HETATM   29  C   UNL     1      -9.481   4.030  68.730  1.00  0.00    -0.226 C  
BRANCH  29  30
HETATM   30  C   UNL     1      -9.464   3.510  67.306  1.00  0.00    -0.228 C  
BRANCH  30  31
HETATM   31  C   UNL     1      -8.735   4.479  66.397  1.00  0.00    -0.112 C  
BRANCH  31  32
HETATM   32  C   UNL     1      -7.708   3.736  65.563  1.00  0.00    -0.082 C  
BRANCH  32  33
HETATM   33  C   UNL     1      -6.503   4.623  65.303  1.00  0.00    -0.036 C  
BRANCH  33  34
HETATM   34  C   UNL     1      -6.891   6.089  65.420  1.00  0.00    -0.052 C  
BRANCH  34  35
HETATM   35  C   UNL     1      -5.795   6.870  66.130  1.00  0.00    -0.034 C  
BRANCH  35  36
HETATM   36  C   UNL     1      -6.280   7.365  67.487  1.00  0.00    -0.048 C  
BRANCH  36  37
HETATM   37  C   UNL     1      -7.519   8.240  67.324  1.00  0.00    -0.089 C  
BRANCH  37  38
HETATM   38  C   UNL     1      -7.150   9.719  67.339  1.00  0.00    -0.085 C  
HETATM   39  C   UNL     1      -5.908   9.961  68.180  1.00  0.00    -0.042 C  
ENDBRANCH  37  38
ENDBRANCH  36  37
ENDBRANCH  35  36
ENDBRANCH  34  35
ENDBRANCH  33  34
ENDBRANCH  32  33
ENDBRANCH  31  32
ENDBRANCH  30  31
ENDBRANCH  29  30
ENDBRANCH  28  29
ENDBRANCH  27  28
ENDBRANCH  26  27
ENDBRANCH  25  26
ENDBRANCH  24  25
ENDBRANCH  23  24
ENDBRANCH  22  23
ENDBRANCH  19  22
ENDBRANCH  18  19
ENDBRANCH  17  18
ENDBRANCH  16  17
ENDBRANCH  15  16
ENDBRANCH  14  15
ENDBRANCH  13  14
ENDBRANCH  12  13
ENDBRANCH  11  12
ENDBRANCH  10  11
ENDBRANCH   9  10
ENDBRANCH   8   9
ENDBRANCH   7   8
ENDBRANCH   6   7
ENDBRANCH   5   6
ENDBRANCH   4   5
ENDBRANCH   3   4
ENDBRANCH   2   3
TORSDOF 34
ENDMDL
MODEL      165
REMARK 921   NORMALIZED FREE ENERGY PREDICTED BY IDOCK:   -2.31 KCAL/MOL
REMARK 922        TOTAL FREE ENERGY PREDICTED BY IDOCK:  -13.23 KCAL/MOL
REMARK 923 INTER-LIGAND FREE ENERGY PREDICTED BY IDOCK:   -8.42 KCAL/MOL
REMARK 924 INTRA-LIGAND FREE ENERGY PREDICTED BY IDOCK:   -4.81 KCAL/MOL
REMARK 927      BINDING AFFINITY PREDICTED BY RF-SCORE:    0.00 PKD
ROOT
HETATM    1  C   UNL     1      -7.060   7.751  70.955  1.00  0.00    -0.053 C  
HETATM    2  C   UNL     1      -7.783   7.899  72.281  1.00  0.00    -0.125 C  
ENDROOT
BRANCH   2   3
HETATM    3  C   UNL     1      -7.723   6.609  73.084  1.00  0.00    -0.095 C  
BRANCH   3   4
HETATM    4  C   UNL     1      -6.284   6.122  73.234  1.00  0.00    -0.063 C  
BRANCH   4   5
HETATM    5  C   UNL     1      -6.203   4.614  73.034  1.00  0.00    -0.033 C  
BRANCH   5   6
HETATM    6  C   UNL     1      -6.556   3.883  74.322  1.00  0.00    -0.044 C  
BRANCH   6   7
HETATM    7  C   UNL     1      -6.534   2.379  74.096  1.00  0.00    -0.020 C  
BRANCH   7   8
HETATM    8  C   UNL     1      -7.941   1.866  73.834  1.00  0.00    -0.046 C  
BRANCH   8   9
HETATM    9  C   UNL     1      -8.801   2.971  73.243  1.00  0.00    -0.083 C  
BRANCH   9  10
HETATM   10  C   UNL     1      -9.362   2.529  71.905  1.00  0.00    -0.175 C  
BRANCH  10  11
HETATM   11  C   UNL     1      -9.125   3.600  70.856  1.00  0.00    -0.180 C  
BRANCH  11  12
HETATM   12  C   UNL     1      -8.343   3.008  69.700  1.00  0.00    -0.086 C  
BRANCH  12  13
HETATM   13  C   UNL     1      -7.227   3.946  69.290  1.00  0.00    -0.053 C  
BRANCH  13  14
HETATM   14  C   UNL     1      -6.916   3.754  67.817  1.00  0.00    -0.055 C  
BRANCH  14  15
HETATM   15  C   UNL     1      -7.506   4.903  67.032  1.00  0.00    -0.087 C  
BRANCH  15  16
HETATM   16  C   UNL     1      -6.430   5.898  66.632  1.00  0.00    -0.047 C  
BRANCH  16  17
HETATM   17  C   UNL     1      -6.750   7.215  67.314  1.00  0.00    -0.064 C  
BRANCH  17  18
HETATM   18  C   UNL     1      -6.646   8.383  66.351  1.00  0.00    -0.058 C  
BRANCH  18  19
HETATM   19  N   UNL     1      -7.880   9.306  66.420  1.00  0.00    -0.103 N  
HETATM   20  C   UNL     1      -8.206   9.654  67.876  1.00  0.00    -0.106 C  
HETATM   21  C   UNL     1      -7.631  10.589  65.623  1.00  0.00    -0.134 C  
BRANCH  19  22
HETATM   22  C   UNL     1      -9.036   8.497  65.791  1.00  0.00    -0.167 C  
BRANCH  22  23
HETATM   23  C   UNL     1     -10.104   8.141  66.805  1.00  0.00    -0.365 C  
BRANCH  23  24
HETATM   24  C   UNL     1     -10.480   6.673  66.729  1.00  0.00    -0.298 C  
BRANCH  24  25
HETATM   25  C   UNL     1     -11.098   6.290  68.063  1.00  0.00    -0.365 C  
BRANCH  25  26
HETATM   26  C   UNL     1     -10.104   6.459  69.189  1.00  0.00    -0.194 C  
BRANCH  26  27
HETATM   27  C   UNL     1     -10.802   7.086  70.382  1.00  0.00    -0.283 C  
BRANCH  27  28
HETATM   28  C   UNL     1     -10.845   8.590  70.213  1.00  0.00    -0.249 C  
BRANCH  28  29
HETATM   29  C   UNL     1     -11.562   9.226  71.388  1.00  0.00    -0.437 C  
BRANCH  29  30
HETATM   30  C   UNL     1     -12.733  10.045  70.880  1.00  0.00    -0.414 C  
BRANCH  30  31
HETATM   31  C   UNL     1     -13.168  11.052  71.927  1.00  0.00    -0.503 C  
BRANCH  31  32
HETATM   32  C   UNL     1     -12.539  12.402  71.641  1.00  0.00    -0.190 C  
BRANCH  32  33
HETATM   33  C   UNL     1     -12.060  12.463  70.200  1.00  0.00    -0.366 C  
BRANCH  33  34
HETATM   34  C   UNL     1     -12.188  13.880  69.661  1.00  0.00    -0.374 C  
BRANCH  34  35
HETATM   35  C   UNL     1     -11.195  14.800  70.357  1.00  0.00    -0.213 C  
BRANCH  35  36
HETATM   36  C   UNL     1     -11.909  16.002  70.963  1.00  0.00    -0.435 C  
BRANCH  36  37
HETATM   37  C   UNL     1     -13.364  15.660  71.268  1.00  0.00    -0.485 C  
BRANCH  37  38
HETATM   38  C   UNL     1     -13.659  15.806  72.756  1.00  0.00    -0.662 C  
HETATM   39  C   UNL     1     -12.472  15.359  73.593  1.00  0.00    -0.715 C  
ENDBRANCH  37  38
ENDBRANCH  36  37
ENDBRANCH  35  36
ENDBRANCH  34  35
ENDBRANCH  33  34
ENDBRANCH  32  33
ENDBRANCH  31  32
ENDBRANCH  30  31
ENDBRANCH  29  30
ENDBRANCH  28  29
ENDBRANCH  27  28
ENDBRANCH  26  27
ENDBRANCH  25  26
ENDBRANCH  24  25
ENDBRANCH  23  24
ENDBRANCH  22  23
ENDBRANCH  19  22
ENDBRANCH  18  19
ENDBRANCH  17  18
ENDBRANCH  16  17
ENDBRANCH  15  16
ENDBRANCH  14  15
ENDBRANCH  13  14
ENDBRANCH  12  13
ENDBRANCH  11  12
ENDBRANCH  10  11
ENDBRANCH   9  10
ENDBRANCH   8   9
ENDBRANCH   7   8
ENDBRANCH   6   7
ENDBRANCH   5   6
ENDBRANCH   4   5
ENDBRANCH   3   4
ENDBRANCH   2   3
TORSDOF 34
ENDMDL
MODEL      166
REMARK 921   NORMALIZED FREE ENERGY PREDICTED BY IDOCK:   -2.31 KCAL/MOL
REMARK 922        TOTAL FREE ENERGY PREDICTED BY IDOCK:  -13.22 KCAL/MOL
REMARK 923 INTER-LIGAND FREE ENERGY PREDICTED BY IDOCK:   -9.13 KCAL/MOL
REMARK 924 INTRA-LIGAND FREE ENERGY PREDICTED BY IDOCK:   -4.10 KCAL/MOL
REMARK 927      BINDING AFFINITY PREDICTED BY RF-SCORE:    0.00 PKD
ROOT
HETATM    1  C   UNL     1      -7.671   9.803  69.106  1.00  0.00    -0.092 C  
HETATM    2  C   UNL     1      -8.246   9.423  70.459  1.00  0.00    -0.221 C  
ENDROOT
BRANCH   2   3
HETATM    3  C   UNL     1      -9.418   8.465  70.305  1.00  0.00    -0.168 C  
BRANCH   3   4
HETATM    4  C   UNL     1      -9.459   7.458  71.452  1.00  0.00    -0.160 C  
BRANCH   4   5
HETATM    5  C   UNL     1     -10.877   7.310  71.987  1.00  0.00    -0.264 C  
BRANCH   5   6
HETATM    6  C   UNL     1     -11.391   5.896  71.754  1.00  0.00    -0.289 C  
BRANCH   6   7
HETATM    7  C   UNL     1     -11.578   5.180  73.084  1.00  0.00    -0.281 C  
BRANCH   7   8
HETATM    8  C   UNL     1     -10.318   4.410  73.447  1.00  0.00    -0.237 C  
BRANCH   8   9
HETATM    9  C   UNL     1      -9.824   3.618  72.249  1.00  0.00    -0.234 C  
BRANCH   9  10
HETATM   10  C   UNL     1      -8.349   3.891  72.021  1.00  0.00    -0.100 C  
BRANCH  10  11
HETATM   11  C   UNL     1      -8.046   3.939  70.535  1.00  0.00    -0.059 C  
BRANCH  11  12
HETATM   12  C   UNL     1      -8.977   2.994  69.800  1.00  0.00    -0.172 C  
BRANCH  12  13
HETATM   13  C   UNL     1      -9.396   3.599  68.476  1.00  0.00    -0.226 C  
BRANCH  13  14
HETATM   14  C   UNL     1      -9.997   4.972  68.711  1.00  0.00    -0.225 C  
BRANCH  14  15
HETATM   15  C   UNL     1      -9.634   5.875  67.554  1.00  0.00    -0.114 C  
BRANCH  15  16
HETATM   16  C   UNL     1      -9.994   5.230  66.227  1.00  0.00    -0.216 C  
BRANCH  16  17
HETATM   17  C   UNL     1      -8.821   5.433  65.288  1.00  0.00    -0.132 C  
BRANCH  17  18
HETATM   18  C   UNL     1      -7.601   5.957  66.023  1.00  0.00    -0.086 C  
BRANCH  18  19
HETATM   19  N   UNL     1      -6.996   7.199  65.336  1.00  0.00    -0.055 N  
HETATM   20  C   UNL     1      -5.938   7.845  66.236  1.00  0.00    -0.041 C  
HETATM   21  C   UNL     1      -6.371   6.815  63.994  1.00  0.00    -0.035 C  
BRANCH  19  22
HETATM   22  C   UNL     1      -8.180   8.168  65.121  1.00  0.00    -0.154 C  
BRANCH  22  23
HETATM   23  C   UNL     1      -8.103   8.877  63.783  1.00  0.00    -0.163 C  
BRANCH  23  24
HETATM   24  C   UNL     1      -7.971  10.379  63.953  1.00  0.00    -0.075 C  
BRANCH  24  25
HETATM   25  C   UNL     1      -9.228  11.015  63.385  1.00  0.00    -0.255 C  
BRANCH  25  26
HETATM   26  C   UNL     1     -10.425  10.728  64.262  1.00  0.00    -0.330 C  
BRANCH  26  27
HETATM   27  C   UNL     1     -10.364  11.611  65.495  1.00  0.00    -0.309 C  
BRANCH  27  28
HETATM   28  C   UNL     1     -11.650  12.402  65.617  1.00  0.00    -0.441 C  
BRANCH  28  29
HETATM   29  C   UNL     1     -11.743  13.420  64.498  1.00  0.00    -0.422 C  
BRANCH  29  30
HETATM   30  C   UNL     1     -12.009  14.793  65.085  1.00  0.00    -0.278 C  
BRANCH  30  31
HETATM   31  C   UNL     1     -10.774  15.664  64.972  1.00  0.00    -0.458 C  
BRANCH  31  32
HETATM   32  C   UNL     1      -9.959  15.576  66.249  1.00  0.00    -0.313 C  
BRANCH  32  33
HETATM   33  C   UNL     1     -10.323  16.716  67.184  1.00  0.00    -0.300 C  
BRANCH  33  34
HETATM   34  C   UNL     1     -11.322  16.243  68.229  1.00  0.00    -0.280 C  
BRANCH  34  35
HETATM   35  C   UNL     1     -10.684  15.200  69.135  1.00  0.00    -0.253 C  
BRANCH  35  36
HETATM   36  C   UNL     1     -11.681  14.097  69.469  1.00  0.00    -0.364 C  
BRANCH  36  37
HETATM   37  C   UNL     1     -12.357  14.376  70.808  1.00  0.00    -0.417 C  
BRANCH  37  38
HETATM   38  C   UNL     1     -12.668  13.078  71.544  1.00  0.00    -0.349 C  
HETATM   39  C   UNL     1     -13.922  13.219  72.390  1.00  0.00    -0.557 C  
ENDBRANCH  37  38
ENDBRANCH  36  37
ENDBRANCH  35  36
ENDBRANCH  34  35
ENDBRANCH  33  34
ENDBRANCH  32  33
ENDBRANCH  31  32
ENDBRANCH  30  31
ENDBRANCH  29  30
ENDBRANCH  28  29
ENDBRANCH  27  28
ENDBRANCH  26  27
ENDBRANCH  25  26
ENDBRANCH  24  25
ENDBRANCH  23  24
ENDBRANCH  22  23
ENDBRANCH  19  22
ENDBRANCH  18  19
ENDBRANCH  17  18
ENDBRANCH  16  17
ENDBRANCH  15  16
ENDBRANCH  14  15
ENDBRANCH  13  14
ENDBRANCH  12  13
ENDBRANCH  11  12
ENDBRANCH  10  11
ENDBRANCH   9  10
ENDBRANCH   8   9
ENDBRANCH   7   8
ENDBRANCH   6   7
ENDBRANCH   5   6
ENDBRANCH   4   5
ENDBRANCH   3   4
ENDBRANCH   2   3
TORSDOF 34
ENDMDL
MODEL      167
REMARK 921   NORMALIZED FREE ENERGY PREDICTED BY IDOCK:   -2.30 KCAL/MOL
REMARK 922        TOTAL FREE ENERGY PREDICTED BY IDOCK:  -13.20 KCAL/MOL
REMARK 923 INTER-LIGAND FREE ENERGY PREDICTED BY IDOCK:   -8.29 KCAL/MOL
REMARK 924 INTRA-LIGAND FREE ENERGY PREDICTED BY IDOCK:   -4.90 KCAL/MOL
REMARK 927      BINDING AFFINITY PREDICTED BY RF-SCORE:    0.00 PKD
ROOT
HETATM    1  C   UNL     1      -8.863   3.699  68.832  1.00  0.00    -0.158 C  
HETATM    2  C   UNL     1      -9.826   4.350  67.855  1.00  0.00    -0.141 C  
ENDROOT
BRANCH   2   3
HETATM    3  C   UNL     1      -9.565   3.876  66.433  1.00  0.00    -0.204 C  
BRANCH   3   4
HETATM    4  C   UNL     1      -8.276   3.062  66.353  1.00  0.00    -0.087 C  
BRANCH   4   5
HETATM    5  C   UNL     1      -7.418   3.528  65.183  1.00  0.00    -0.073 C  
BRANCH   5   6
HETATM    6  C   UNL     1      -6.960   4.964  65.394  1.00  0.00    -0.062 C  
BRANCH   6   7
HETATM    7  C   UNL     1      -6.078   5.058  66.630  1.00  0.00    -0.031 C  
BRANCH   7   8
HETATM    8  C   UNL     1      -6.584   6.153  67.555  1.00  0.00    -0.056 C  
BRANCH   8   9
HETATM    9  C   UNL     1      -6.550   7.496  66.847  1.00  0.00    -0.061 C  
BRANCH   9  10
HETATM   10  C   UNL     1      -7.813   8.277  67.159  1.00  0.00    -0.097 C  
BRANCH  10  11
HETATM   11  C   UNL     1      -8.712   8.333  65.938  1.00  0.00    -0.187 C  
BRANCH  11  12
HETATM   12  C   UNL     1      -7.865   8.234  64.684  1.00  0.00    -0.132 C  
BRANCH  12  13
HETATM   13  C   UNL     1      -8.318   9.259  63.665  1.00  0.00    -0.185 C  
BRANCH  13  14
HETATM   14  C   UNL     1      -9.324  10.200  64.303  1.00  0.00    -0.349 C  
BRANCH  14  15
HETATM   15  C   UNL     1      -9.549  11.380  63.384  1.00  0.00    -0.344 C  
BRANCH  15  16
HETATM   16  C   UNL     1     -11.010  11.799  63.386  1.00  0.00    -0.458 C  
BRANCH  16  17
HETATM   17  C   UNL     1     -11.406  12.066  64.826  1.00  0.00    -0.369 C  
BRANCH  17  18
HETATM   18  C   UNL     1     -10.590  13.194  65.430  1.00  0.00    -0.299 C  
BRANCH  18  19
HETATM   19  N   UNL     1     -11.438  14.459  65.676  1.00  0.00    -0.331 N  
HETATM   20  C   UNL     1     -10.912  15.626  64.836  1.00  0.00    -0.431 C  
HETATM   21  C   UNL     1     -12.905  14.192  65.334  1.00  0.00    -0.368 C  
BRANCH  19  22
HETATM   22  C   UNL     1     -11.285  14.771  67.182  1.00  0.00    -0.343 C  
BRANCH  22  23
HETATM   23  C   UNL     1     -10.144  15.731  67.454  1.00  0.00    -0.246 C  
BRANCH  23  24
HETATM   24  C   UNL     1      -9.053  15.082  68.286  1.00  0.00    -0.182 C  
BRANCH  24  25
HETATM   25  C   UNL     1      -8.022  14.515  67.325  1.00  0.00    -0.216 C  
BRANCH  25  26
HETATM   26  C   UNL     1      -6.702  15.239  67.459  1.00  0.00    -0.197 C  
BRANCH  26  27
HETATM   27  C   UNL     1      -5.833  14.511  68.468  1.00  0.00    -0.095 C  
BRANCH  27  28
HETATM   28  C   UNL     1      -6.051  13.018  68.344  1.00  0.00    -0.081 C  
BRANCH  28  29
HETATM   29  C   UNL     1      -6.088  12.380  69.718  1.00  0.00    -0.137 C  
BRANCH  29  30
HETATM   30  C   UNL     1      -6.054  10.871  69.576  1.00  0.00    -0.061 C  
BRANCH  30  31
HETATM   31  C   UNL     1      -7.240  10.245  70.282  1.00  0.00    -0.077 C  
BRANCH  31  32
HETATM   32  C   UNL     1      -6.836   8.918  70.897  1.00  0.00    -0.076 C  
BRANCH  32  33
HETATM   33  C   UNL     1      -8.011   8.305  71.639  1.00  0.00    -0.157 C  
BRANCH  33  34
HETATM   34  C   UNL     1      -8.651   7.209  70.800  1.00  0.00    -0.146 C  
BRANCH  34  35
HETATM   35  C   UNL     1     -10.032   7.644  70.329  1.00  0.00    -0.189 C  
BRANCH  35  36
HETATM   36  C   UNL     1     -10.569   8.768  71.205  1.00  0.00    -0.310 C  
BRANCH  36  37
HETATM   37  C   UNL     1     -11.142   9.889  70.343  1.00  0.00    -0.382 C  
BRANCH  37  38
HETATM   38  C   UNL     1     -12.233  10.648  71.089  1.00  0.00    -0.479 C  
HETATM   39  C   UNL     1     -13.283   9.695  71.635  1.00  0.00    -0.499 C  
ENDBRANCH  37  38
ENDBRANCH  36  37
ENDBRANCH  35  36
ENDBRANCH  34  35
ENDBRANCH  33  34
ENDBRANCH  32  33
ENDBRANCH  31  32
ENDBRANCH  30  31
ENDBRANCH  29  30
ENDBRANCH  28  29
ENDBRANCH  27  28
ENDBRANCH  26  27
ENDBRANCH  25  26
ENDBRANCH  24  25
ENDBRANCH  23  24
ENDBRANCH  22  23
ENDBRANCH  19  22
ENDBRANCH  18  19
ENDBRANCH  17  18
ENDBRANCH  16  17
ENDBRANCH  15  16
ENDBRANCH  14  15
ENDBRANCH  13  14
ENDBRANCH  12  13
ENDBRANCH  11  12
ENDBRANCH  10  11
ENDBRANCH   9  10
ENDBRANCH   8   9
ENDBRANCH   7   8
ENDBRANCH   6   7
ENDBRANCH   5   6
ENDBRANCH   4   5
ENDBRANCH   3   4
ENDBRANCH   2   3
TORSDOF 34
ENDMDL
MODEL      168
REMARK 921   NORMALIZED FREE ENERGY PREDICTED BY IDOCK:   -2.30 KCAL/MOL
REMARK 922        TOTAL FREE ENERGY PREDICTED BY IDOCK:  -13.19 KCAL/MOL
REMARK 923 INTER-LIGAND FREE ENERGY PREDICTED BY IDOCK:   -7.05 KCAL/MOL
REMARK 924 INTRA-LIGAND FREE ENERGY PREDICTED BY IDOCK:   -6.15 KCAL/MOL
REMARK 927      BINDING AFFINITY PREDICTED BY RF-SCORE:    0.00 PKD
ROOT
HETATM    1  C   UNL     1     -10.417   2.396  72.942  1.00  0.00    -0.243 C  
HETATM    2  C   UNL     1      -9.459   1.551  72.123  1.00  0.00    -0.146 C  
ENDROOT
BRANCH   2   3
HETATM    3  C   UNL     1      -8.291   2.384  71.617  1.00  0.00    -0.073 C  
BRANCH   3   4
HETATM    4  C   UNL     1      -7.959   2.042  70.167  1.00  0.00    -0.052 C  
BRANCH   4   5
HETATM    5  C   UNL     1      -9.227   1.716  69.388  1.00  0.00    -0.170 C  
BRANCH   5   6
HETATM    6  C   UNL     1      -9.139   2.264  67.971  1.00  0.00    -0.223 C  
BRANCH   6   7
HETATM    7  C   UNL     1      -7.699   2.225  67.480  1.00  0.00    -0.060 C  
BRANCH   7   8
HETATM    8  C   UNL     1      -7.516   3.178  66.310  1.00  0.00    -0.076 C  
BRANCH   8   9
HETATM    9  C   UNL     1      -8.826   3.882  65.998  1.00  0.00    -0.123 C  
BRANCH   9  10
HETATM   10  C   UNL     1      -8.565   5.346  65.698  1.00  0.00    -0.146 C  
BRANCH  10  11
HETATM   11  C   UNL     1      -7.181   5.743  66.176  1.00  0.00    -0.076 C  
BRANCH  11  12
HETATM   12  C   UNL     1      -7.307   6.657  67.380  1.00  0.00    -0.095 C  
BRANCH  12  13
HETATM   13  C   UNL     1      -6.765   5.971  68.616  1.00  0.00    -0.061 C  
BRANCH  13  14
HETATM   14  C   UNL     1      -6.713   6.960  69.766  1.00  0.00    -0.049 C  
BRANCH  14  15
HETATM   15  C   UNL     1      -6.559   8.357  69.210  1.00  0.00    -0.042 C  
BRANCH  15  16
HETATM   16  C   UNL     1      -5.715   9.220  70.132  1.00  0.00    -0.031 C  
BRANCH  16  17
HETATM   17  C   UNL     1      -6.221  10.645  70.015  1.00  0.00    -0.111 C  
BRANCH  17  18
HETATM   18  C   UNL     1      -7.327  10.762  68.982  1.00  0.00    -0.109 C  
BRANCH  18  19
HETATM   19  N   UNL     1      -7.245  12.083  68.190  1.00  0.00    -0.083 N  
HETATM   20  C   UNL     1      -6.988  13.259  69.136  1.00  0.00    -0.031 C  
HETATM   21  C   UNL     1      -6.133  12.008  67.141  1.00  0.00    -0.155 C  
BRANCH  19  22
HETATM   22  C   UNL     1      -8.621  12.238  67.504  1.00  0.00    -0.174 C  
BRANCH  22  23
HETATM   23  C   UNL     1      -8.891  13.667  67.078  1.00  0.00    -0.233 C  
BRANCH  23  24
HETATM   24  C   UNL     1     -10.132  14.226  67.750  1.00  0.00    -0.231 C  
BRANCH  24  25
HETATM   25  C   UNL     1     -11.011  13.050  68.135  1.00  0.00    -0.269 C  
BRANCH  25  26
HETATM   26  C   UNL     1     -12.091  13.474  69.104  1.00  0.00    -0.331 C  
BRANCH  26  27
HETATM   27  C   UNL     1     -11.980  12.645  70.371  1.00  0.00    -0.331 C  
BRANCH  27  28
HETATM   28  C   UNL     1     -12.380  11.214  70.078  1.00  0.00    -0.351 C  
BRANCH  28  29
HETATM   29  C   UNL     1     -11.833  10.291  71.149  1.00  0.00    -0.455 C  
BRANCH  29  30
HETATM   30  C   UNL     1     -10.754   9.409  70.552  1.00  0.00    -0.335 C  
BRANCH  30  31
HETATM   31  C   UNL     1     -10.800   9.466  69.038  1.00  0.00    -0.161 C  
BRANCH  31  32
HETATM   32  C   UNL     1     -10.439   8.112  68.457  1.00  0.00    -0.199 C  
BRANCH  32  33
HETATM   33  C   UNL     1     -11.097   7.004  69.262  1.00  0.00    -0.166 C  
BRANCH  33  34
HETATM   34  C   UNL     1     -10.447   5.665  68.946  1.00  0.00    -0.310 C  
BRANCH  34  35
HETATM   35  C   UNL     1      -9.705   5.138  70.166  1.00  0.00    -0.274 C  
BRANCH  35  36
HETATM   36  C   UNL     1     -10.371   5.617  71.449  1.00  0.00    -0.287 C  
BRANCH  36  37
HETATM   37  C   UNL     1      -9.323   5.903  72.520  1.00  0.00    -0.146 C  
BRANCH  37  38
HETATM   38  C   UNL     1      -9.512   7.295  73.111  1.00  0.00    -0.228 C  
HETATM   39  C   UNL     1     -10.986   7.656  73.193  1.00  0.00    -0.411 C  
ENDBRANCH  37  38
ENDBRANCH  36  37
ENDBRANCH  35  36
ENDBRANCH  34  35
ENDBRANCH  33  34
ENDBRANCH  32  33
ENDBRANCH  31  32
ENDBRANCH  30  31
ENDBRANCH  29  30
ENDBRANCH  28  29
ENDBRANCH  27  28
ENDBRANCH  26  27
ENDBRANCH  25  26
ENDBRANCH  24  25
ENDBRANCH  23  24
ENDBRANCH  22  23
ENDBRANCH  19  22
ENDBRANCH  18  19
ENDBRANCH  17  18
ENDBRANCH  16  17
ENDBRANCH  15  16
ENDBRANCH  14  15
ENDBRANCH  13  14
ENDBRANCH  12  13
ENDBRANCH  11  12
ENDBRANCH  10  11
ENDBRANCH   9  10
ENDBRANCH   8   9
ENDBRANCH   7   8
ENDBRANCH   6   7
ENDBRANCH   5   6
ENDBRANCH   4   5
ENDBRANCH   3   4
ENDBRANCH   2   3
TORSDOF 34
ENDMDL
MODEL      169
REMARK 921   NORMALIZED FREE ENERGY PREDICTED BY IDOCK:   -2.25 KCAL/MOL
REMARK 922        TOTAL FREE ENERGY PREDICTED BY IDOCK:  -13.04 KCAL/MOL
REMARK 923 INTER-LIGAND FREE ENERGY PREDICTED BY IDOCK:   -8.78 KCAL/MOL
REMARK 924 INTRA-LIGAND FREE ENERGY PREDICTED BY IDOCK:   -4.26 KCAL/MOL
REMARK 927      BINDING AFFINITY PREDICTED BY RF-SCORE:    0.00 PKD
ROOT
HETATM    1  C   UNL     1     -12.503  13.202  70.682  1.00  0.00    -0.363 C  
HETATM    2  C   UNL     1     -12.803  14.613  71.156  1.00  0.00    -0.411 C  
ENDROOT
BRANCH   2   3
HETATM    3  C   UNL     1     -12.069  15.642  70.310  1.00  0.00    -0.413 C  
BRANCH   3   4
HETATM    4  C   UNL     1     -10.935  14.994  69.519  1.00  0.00    -0.281 C  
BRANCH   4   5
HETATM    5  C   UNL     1     -10.790  15.651  68.152  1.00  0.00    -0.301 C  
BRANCH   5   6
HETATM    6  C   UNL     1     -11.034  17.150  68.250  1.00  0.00    -0.229 C  
BRANCH   6   7
HETATM    7  C   UNL     1     -10.394  17.865  67.069  1.00  0.00    -0.366 C  
BRANCH   7   8
HETATM    8  C   UNL     1     -10.470  19.371  67.262  1.00  0.00    -0.579 C  
BRANCH   8   9
HETATM    9  C   UNL     1      -9.072  19.963  67.326  1.00  0.00    -0.434 C  
BRANCH   9  10
HETATM   10  C   UNL     1      -8.316  19.375  68.503  1.00  0.00    -0.399 C  
BRANCH  10  11
HETATM   11  C   UNL     1      -6.830  19.326  68.201  1.00  0.00    -0.288 C  
BRANCH  11  12
HETATM   12  C   UNL     1      -6.267  17.993  68.653  1.00  0.00    -0.206 C  
BRANCH  12  13
HETATM   13  C   UNL     1      -7.320  16.912  68.528  1.00  0.00    -0.206 C  
BRANCH  13  14
HETATM   14  C   UNL     1      -6.650  15.575  68.274  1.00  0.00    -0.127 C  
BRANCH  14  15
HETATM   15  C   UNL     1      -7.247  14.538  69.199  1.00  0.00    -0.138 C  
BRANCH  15  16
HETATM   16  C   UNL     1      -6.577  13.188  69.007  1.00  0.00    -0.105 C  
BRANCH  16  17
HETATM   17  C   UNL     1      -7.474  12.357  68.109  1.00  0.00    -0.118 C  
BRANCH  17  18
HETATM   18  C   UNL     1      -8.919  12.401  68.568  1.00  0.00    -0.058 C  
BRANCH  18  19
HETATM   19  N   UNL     1      -9.789  11.344  67.856  1.00  0.00    -0.175 N  
HETATM   20  C   UNL     1     -10.685  10.621  68.866  1.00  0.00    -0.219 C  
HETATM   21  C   UNL     1     -10.650  12.002  66.775  1.00  0.00    -0.227 C  
BRANCH  19  22
HETATM   22  C   UNL     1      -8.791  10.352  67.218  1.00  0.00    -0.132 C  
BRANCH  22  23
HETATM   23  C   UNL     1      -9.337   9.725  65.951  1.00  0.00    -0.260 C  
BRANCH  23  24
HETATM   24  C   UNL     1      -9.256   8.211  65.996  1.00  0.00    -0.207 C  
BRANCH  24  25
HETATM   25  C   UNL     1      -8.050   7.793  65.173  1.00  0.00    -0.137 C  
BRANCH  25  26
HETATM   26  C   UNL     1      -6.795   8.474  65.667  1.00  0.00    -0.067 C  
BRANCH  26  27
HETATM   27  C   UNL     1      -5.824   7.425  66.179  1.00  0.00    -0.036 C  
BRANCH  27  28
HETATM   28  C   UNL     1      -6.593   6.307  66.853  1.00  0.00    -0.059 C  
BRANCH  28  29
HETATM   29  C   UNL     1      -6.772   6.613  68.327  1.00  0.00    -0.068 C  
BRANCH  29  30
HETATM   30  C   UNL     1      -5.742   7.639  68.758  1.00  0.00    -0.023 C  
BRANCH  30  31
HETATM   31  C   UNL     1      -6.394   8.730  69.582  1.00  0.00    -0.039 C  
BRANCH  31  32
HETATM   32  C   UNL     1      -7.772   8.284  70.034  1.00  0.00    -0.095 C  
BRANCH  32  33
HETATM   33  C   UNL     1      -8.064   8.815  71.428  1.00  0.00    -0.189 C  
BRANCH  33  34
HETATM   34  C   UNL     1      -8.486   7.679  72.347  1.00  0.00    -0.151 C  
BRANCH  34  35
HETATM   35  C   UNL     1      -9.883   7.934  72.895  1.00  0.00    -0.348 C  
BRANCH  35  36
HETATM   36  C   UNL     1     -10.938   7.639  71.837  1.00  0.00    -0.282 C  
BRANCH  36  37
HETATM   37  C   UNL     1     -10.641   6.314  71.142  1.00  0.00    -0.289 C  
BRANCH  37  38
HETATM   38  C   UNL     1     -11.389   6.212  69.818  1.00  0.00    -0.452 C  
HETATM   39  C   UNL     1     -10.436   5.898  68.678  1.00  0.00    -0.302 C  
ENDBRANCH  37  38
ENDBRANCH  36  37
ENDBRANCH  35  36
ENDBRANCH  34  35
ENDBRANCH  33  34
ENDBRANCH  32  33
ENDBRANCH  31  32
ENDBRANCH  30  31
ENDBRANCH  29  30
ENDBRANCH  28  29
ENDBRANCH  27  28
ENDBRANCH  26  27
ENDBRANCH  25  26
ENDBRANCH  24  25
ENDBRANCH  23  24
ENDBRANCH  22  23
ENDBRANCH  19  22
ENDBRANCH  18  19
ENDBRANCH  17  18
ENDBRANCH  16  17
ENDBRANCH  15  16
ENDBRANCH  14  15
ENDBRANCH  13  14
ENDBRANCH  12  13
ENDBRANCH  11  12
ENDBRANCH  10  11
ENDBRANCH   9  10
ENDBRANCH   8   9
ENDBRANCH   7   8
ENDBRANCH   6   7
ENDBRANCH   5   6
ENDBRANCH   4   5
ENDBRANCH   3   4
ENDBRANCH   2   3
TORSDOF 34
ENDMDL
MODEL      170
REMARK 921   NORMALIZED FREE ENERGY PREDICTED BY IDOCK:   -2.24 KCAL/MOL
REMARK 922        TOTAL FREE ENERGY PREDICTED BY IDOCK:  -13.01 KCAL/MOL
REMARK 923 INTER-LIGAND FREE ENERGY PREDICTED BY IDOCK:   -8.64 KCAL/MOL
REMARK 924 INTRA-LIGAND FREE ENERGY PREDICTED BY IDOCK:   -4.37 KCAL/MOL
REMARK 927      BINDING AFFINITY PREDICTED BY RF-SCORE:    0.00 PKD
ROOT
HETATM    1  C   UNL     1     -10.744  19.655  67.191  1.00  0.00    -0.587 C  
HETATM    2  C   UNL     1      -9.325  19.570  66.657  1.00  0.00    -0.430 C  
ENDROOT
BRANCH   2   3
HETATM    3  C   UNL     1      -8.364  19.085  67.733  1.00  0.00    -0.318 C  
BRANCH   3   4
HETATM    4  C   UNL     1      -8.337  17.561  67.799  1.00  0.00    -0.220 C  
BRANCH   4   5
HETATM    5  C   UNL     1      -8.676  16.958  66.442  1.00  0.00    -0.321 C  
BRANCH   5   6
HETATM    6  C   UNL     1      -9.406  15.632  66.613  1.00  0.00    -0.291 C  
BRANCH   6   7
HETATM    7  C   UNL     1     -10.805  15.870  67.163  1.00  0.00    -0.267 C  
BRANCH   7   8
HETATM    8  C   UNL     1     -11.532  14.547  67.338  1.00  0.00    -0.385 C  
BRANCH   8   9
HETATM    9  C   UNL     1     -10.767  13.432  66.646  1.00  0.00    -0.282 C  
BRANCH   9  10
HETATM   10  C   UNL     1     -11.678  12.706  65.674  1.00  0.00    -0.458 C  
BRANCH  10  11
HETATM   11  C   UNL     1     -11.206  12.923  64.248  1.00  0.00    -0.408 C  
BRANCH  11  12
HETATM   12  C   UNL     1     -10.694  11.612  63.682  1.00  0.00    -0.500 C  
BRANCH  12  13
HETATM   13  C   UNL     1     -10.188  10.723  64.799  1.00  0.00    -0.403 C  
BRANCH  13  14
HETATM   14  C   UNL     1      -8.790  10.235  64.467  1.00  0.00    -0.223 C  
BRANCH  14  15
HETATM   15  C   UNL     1      -7.985  10.133  65.743  1.00  0.00    -0.140 C  
BRANCH  15  16
HETATM   16  C   UNL     1      -7.233   8.814  65.808  1.00  0.00    -0.084 C  
BRANCH  16  17
HETATM   17  C   UNL     1      -7.887   7.968  66.883  1.00  0.00    -0.103 C  
BRANCH  17  18
HETATM   18  C   UNL     1      -9.128   7.267  66.364  1.00  0.00    -0.158 C  
BRANCH  18  19
HETATM   19  N   UNL     1      -8.950   5.735  66.306  1.00  0.00    -0.142 N  
HETATM   20  C   UNL     1     -10.314   5.038  66.306  1.00  0.00    -0.291 C  
HETATM   21  C   UNL     1      -8.164   5.337  65.055  1.00  0.00    -0.134 C  
BRANCH  19  22
HETATM   22  C   UNL     1      -8.159   5.364  67.580  1.00  0.00    -0.101 C  
BRANCH  22  23
HETATM   23  C   UNL     1      -8.588   4.027  68.152  1.00  0.00    -0.111 C  
BRANCH  23  24
HETATM   24  C   UNL     1      -7.536   2.957  67.924  1.00  0.00    -0.057 C  
BRANCH  24  25
HETATM   25  C   UNL     1      -6.176   3.617  68.066  1.00  0.00    -0.032 C  
BRANCH  25  26
HETATM   26  C   UNL     1      -5.262   2.791  68.941  1.00  0.00    -0.012 C  
BRANCH  26  27
HETATM   27  C   UNL     1      -5.954   2.511  70.264  1.00  0.00    -0.019 C  
BRANCH  27  28
HETATM   28  C   UNL     1      -5.195   3.187  71.387  1.00  0.00    -0.004 C  
BRANCH  28  29
HETATM   29  C   UNL     1      -6.164   3.864  72.337  1.00  0.00    -0.013 C  
BRANCH  29  30
HETATM   30  C   UNL     1      -7.268   4.532  71.541  1.00  0.00    -0.059 C  
BRANCH  30  31
HETATM   31  C   UNL     1      -8.626   4.067  72.025  1.00  0.00    -0.116 C  
BRANCH  31  32
HETATM   32  C   UNL     1      -9.433   5.253  72.520  1.00  0.00    -0.164 C  
BRANCH  32  33
HETATM   33  C   UNL     1     -10.783   5.295  71.825  1.00  0.00    -0.240 C  
BRANCH  33  34
HETATM   34  C   UNL     1     -11.450   6.644  72.050  1.00  0.00    -0.329 C  
BRANCH  34  35
HETATM   35  C   UNL     1     -11.731   7.322  70.716  1.00  0.00    -0.333 C  
BRANCH  35  36
HETATM   36  C   UNL     1     -10.506   7.261  69.813  1.00  0.00    -0.236 C  
BRANCH  36  37
HETATM   37  C   UNL     1      -9.580   8.442  70.088  1.00  0.00    -0.166 C  
BRANCH  37  38
HETATM   38  C   UNL     1     -10.343   9.760  70.028  1.00  0.00    -0.307 C  
HETATM   39  C   UNL     1     -10.262  10.372  68.640  1.00  0.00    -0.196 C  
ENDBRANCH  37  38
ENDBRANCH  36  37
ENDBRANCH  35  36
ENDBRANCH  34  35
ENDBRANCH  33  34
ENDBRANCH  32  33
ENDBRANCH  31  32
ENDBRANCH  30  31
ENDBRANCH  29  30
ENDBRANCH  28  29
ENDBRANCH  27  28
ENDBRANCH  26  27
ENDBRANCH  25  26
ENDBRANCH  24  25
ENDBRANCH  23  24
ENDBRANCH  22  23
ENDBRANCH  19  22
ENDBRANCH  18  19
ENDBRANCH  17  18
ENDBRANCH  16  17
ENDBRANCH  15  16
ENDBRANCH  14  15
ENDBRANCH  13  14
ENDBRANCH  12  13
ENDBRANCH  11  12
ENDBRANCH  10  11
ENDBRANCH   9  10
ENDBRANCH   8   9
ENDBRANCH   7   8
ENDBRANCH   6   7
ENDBRANCH   5   6
ENDBRANCH   4   5
ENDBRANCH   3   4
ENDBRANCH   2   3
TORSDOF 34
ENDMDL
MODEL      171
REMARK 921   NORMALIZED FREE ENERGY PREDICTED BY IDOCK:   -2.22 KCAL/MOL
REMARK 922        TOTAL FREE ENERGY PREDICTED BY IDOCK:  -12.96 KCAL/MOL
REMARK 923 INTER-LIGAND FREE ENERGY PREDICTED BY IDOCK:   -8.24 KCAL/MOL
REMARK 924 INTRA-LIGAND FREE ENERGY PREDICTED BY IDOCK:   -4.71 KCAL/MOL
REMARK 927      BINDING AFFINITY PREDICTED BY RF-SCORE:    0.00 PKD
ROOT
HETATM    1  C   UNL     1      -7.695   9.223  69.267  1.00  0.00    -0.081 C  
HETATM    2  C   UNL     1      -8.696   9.520  70.369  1.00  0.00    -0.265 C  
ENDROOT
BRANCH   2   3
HETATM    3  C   UNL     1      -9.841   8.518  70.352  1.00  0.00    -0.198 C  
BRANCH   3   4
HETATM    4  C   UNL     1     -10.286   8.168  71.769  1.00  0.00    -0.293 C  
BRANCH   4   5
HETATM    5  C   UNL     1     -11.703   7.608  71.765  1.00  0.00    -0.319 C  
BRANCH   5   6
HETATM    6  C   UNL     1     -11.678   6.095  71.595  1.00  0.00    -0.290 C  
BRANCH   6   7
HETATM    7  C   UNL     1     -12.100   5.414  72.889  1.00  0.00     0.042 C  
BRANCH   7   8
HETATM    8  C   UNL     1     -10.876   4.942  73.657  1.00  0.00    -0.374 C  
BRANCH   8   9
HETATM    9  C   UNL     1      -9.933   4.192  72.731  1.00  0.00    -0.206 C  
BRANCH   9  10
HETATM   10  C   UNL     1      -8.539   4.783  72.825  1.00  0.00    -0.114 C  
BRANCH  10  11
HETATM   11  C   UNL     1      -7.927   4.911  71.443  1.00  0.00    -0.105 C  
BRANCH  11  12
HETATM   12  C   UNL     1      -8.329   3.715  70.601  1.00  0.00    -0.092 C  
BRANCH  12  13
HETATM   13  C   UNL     1      -8.580   4.144  69.170  1.00  0.00    -0.112 C  
BRANCH  13  14
HETATM   14  C   UNL     1      -9.117   5.564  69.152  1.00  0.00    -0.127 C  
BRANCH  14  15
HETATM   15  C   UNL     1      -9.094   6.083  67.732  1.00  0.00    -0.109 C  
BRANCH  15  16
HETATM   16  C   UNL     1      -9.806   5.126  66.791  1.00  0.00    -0.205 C  
BRANCH  16  17
HETATM   17  C   UNL     1      -9.120   5.217  65.442  1.00  0.00    -0.145 C  
BRANCH  17  18
HETATM   18  C   UNL     1      -7.748   5.855  65.555  1.00  0.00    -0.091 C  
BRANCH  18  19
HETATM   19  N   UNL     1      -7.432   6.772  64.354  1.00  0.00    -0.092 N  
HETATM   20  C   UNL     1      -5.920   6.968  64.215  1.00  0.00    -0.036 C  
HETATM   21  C   UNL     1      -8.000   6.176  63.064  1.00  0.00    -0.098 C  
BRANCH  19  22
HETATM   22  C   UNL     1      -8.120   8.119  64.672  1.00  0.00    -0.148 C  
BRANCH  22  23
HETATM   23  C   UNL     1      -8.629   8.811  63.423  1.00  0.00    -0.063 C  
BRANCH  23  24
HETATM   24  C   UNL     1      -8.174  10.257  63.360  1.00  0.00    -0.164 C  
BRANCH  24  25
HETATM   25  C   UNL     1      -9.398  11.109  63.075  1.00  0.00    -0.365 C  
BRANCH  25  26
HETATM   26  C   UNL     1     -10.389  11.032  64.213  1.00  0.00    -0.430 C  
BRANCH  26  27
HETATM   27  C   UNL     1     -10.621  12.426  64.769  1.00  0.00    -0.331 C  
BRANCH  27  28
HETATM   28  C   UNL     1      -9.600  12.719  65.848  1.00  0.00    -0.143 C  
BRANCH  28  29
HETATM   29  C   UNL     1      -9.770  11.752  67.003  1.00  0.00    -0.198 C  
BRANCH  29  30
HETATM   30  C   UNL     1      -9.605  12.496  68.313  1.00  0.00    -0.209 C  
BRANCH  30  31
HETATM   31  C   UNL     1     -10.865  12.386  69.148  1.00  0.00    -0.148 C  
BRANCH  31  32
HETATM   32  C   UNL     1     -11.690  13.651  69.011  1.00  0.00    -0.375 C  
BRANCH  32  33
HETATM   33  C   UNL     1     -11.723  14.402  70.331  1.00  0.00    -0.346 C  
BRANCH  33  34
HETATM   34  C   UNL     1     -10.960  15.713  70.212  1.00  0.00    -0.363 C  
BRANCH  34  35
HETATM   35  C   UNL     1     -10.634  16.003  68.753  1.00  0.00    -0.262 C  
BRANCH  35  36
HETATM   36  C   UNL     1     -10.375  17.489  68.546  1.00  0.00    -0.380 C  
BRANCH  36  37
HETATM   37  C   UNL     1     -10.583  17.869  67.083  1.00  0.00    -0.315 C  
BRANCH  37  38
HETATM   38  C   UNL     1      -9.774  16.963  66.163  1.00  0.00    -0.296 C  
HETATM   39  C   UNL     1     -10.686  16.076  65.332  1.00  0.00    -0.399 C  
ENDBRANCH  37  38
ENDBRANCH  36  37
ENDBRANCH  35  36
ENDBRANCH  34  35
ENDBRANCH  33  34
ENDBRANCH  32  33
ENDBRANCH  31  32
ENDBRANCH  30  31
ENDBRANCH  29  30
ENDBRANCH  28  29
ENDBRANCH  27  28
ENDBRANCH  26  27
ENDBRANCH  25  26
ENDBRANCH  24  25
ENDBRANCH  23  24
ENDBRANCH  22  23
ENDBRANCH  19  22
ENDBRANCH  18  19
ENDBRANCH  17  18
ENDBRANCH  16  17
ENDBRANCH  15  16
ENDBRANCH  14  15
ENDBRANCH  13  14
ENDBRANCH  12  13
ENDBRANCH  11  12
ENDBRANCH  10  11
ENDBRANCH   9  10
ENDBRANCH   8   9
ENDBRANCH   7   8
ENDBRANCH   6   7
ENDBRANCH   5   6
ENDBRANCH   4   5
ENDBRANCH   3   4
ENDBRANCH   2   3
TORSDOF 34
ENDMDL
MODEL      172
REMARK 921   NORMALIZED FREE ENERGY PREDICTED BY IDOCK:   -2.21 KCAL/MOL
REMARK 922        TOTAL FREE ENERGY PREDICTED BY IDOCK:  -12.94 KCAL/MOL
REMARK 923 INTER-LIGAND FREE ENERGY PREDICTED BY IDOCK:   -9.15 KCAL/MOL
REMARK 924 INTRA-LIGAND FREE ENERGY PREDICTED BY IDOCK:   -3.79 KCAL/MOL
REMARK 927      BINDING AFFINITY PREDICTED BY RF-SCORE:    0.00 PKD
ROOT
HETATM    1  C   UNL     1      -9.889  19.441  69.026  1.00  0.00    -0.487 C  
HETATM    2  C   UNL     1      -8.917  18.652  68.165  1.00  0.00    -0.335 C  
ENDROOT
BRANCH   2   3
HETATM    3  C   UNL     1      -9.563  18.238  66.852  1.00  0.00    -0.296 C  
BRANCH   3   4
HETATM    4  C   UNL     1     -10.774  17.341  67.093  1.00  0.00    -0.181 C  
BRANCH   4   5
HETATM    5  C   UNL     1     -10.335  15.955  67.547  1.00  0.00    -0.283 C  
BRANCH   5   6
HETATM    6  C   UNL     1     -11.531  15.144  68.027  1.00  0.00    -0.355 C  
BRANCH   6   7
HETATM    7  C   UNL     1     -11.167  13.669  68.109  1.00  0.00    -0.303 C  
BRANCH   7   8
HETATM    8  C   UNL     1     -11.830  12.900  66.978  1.00  0.00    -0.437 C  
BRANCH   8   9
HETATM    9  C   UNL     1     -10.885  12.792  65.793  1.00  0.00    -0.299 C  
BRANCH   9  10
HETATM   10  C   UNL     1     -11.663  12.927  64.498  1.00  0.00    -0.416 C  
BRANCH  10  11
HETATM   11  C   UNL     1     -11.372  11.752  63.583  1.00  0.00    -0.525 C  
BRANCH  11  12
HETATM   12  C   UNL     1      -9.873  11.541  63.495  1.00  0.00    -0.407 C  
BRANCH  12  13
HETATM   13  C   UNL     1      -9.567  10.280  62.715  1.00  0.00    -0.277 C  
BRANCH  13  14
HETATM   14  C   UNL     1      -8.065  10.117  62.578  1.00  0.00    -0.158 C  
BRANCH  14  15
HETATM   15  C   UNL     1      -7.492   9.676  63.906  1.00  0.00    -0.123 C  
BRANCH  15  16
HETATM   16  C   UNL     1      -5.986   9.868  63.940  1.00  0.00    -0.121 C  
BRANCH  16  17
HETATM   17  C   UNL     1      -5.637  10.510  65.269  1.00  0.00    -0.139 C  
BRANCH  17  18
HETATM   18  C   UNL     1      -5.999   9.610  66.436  1.00  0.00    -0.059 C  
BRANCH  18  19
HETATM   19  N   UNL     1      -6.831  10.349  67.505  1.00  0.00    -0.075 N  
HETATM   20  C   UNL     1      -6.030  10.488  68.803  1.00  0.00    -0.040 C  
HETATM   21  C   UNL     1      -7.241  11.733  66.998  1.00  0.00    -0.134 C  
BRANCH  19  22
HETATM   22  C   UNL     1      -8.079   9.469  67.737  1.00  0.00    -0.106 C  
BRANCH  22  23
HETATM   23  C   UNL     1      -9.305  10.292  68.078  1.00  0.00    -0.145 C  
BRANCH  23  24
HETATM   24  C   UNL     1      -9.631  10.223  69.559  1.00  0.00    -0.225 C  
BRANCH  24  25
HETATM   25  C   UNL     1     -11.119  10.486  69.711  1.00  0.00    -0.354 C  
BRANCH  25  26
HETATM   26  C   UNL     1     -11.593  10.129  71.101  1.00  0.00    -0.430 C  
BRANCH  26  27
HETATM   27  C   UNL     1     -12.051   8.681  71.116  1.00  0.00    -0.297 C  
BRANCH  27  28
HETATM   28  C   UNL     1     -12.300   8.241  72.543  1.00  0.00    -0.335 C  
BRANCH  28  29
HETATM   29  C   UNL     1     -11.025   7.683  73.146  1.00  0.00    -0.411 C  
BRANCH  29  30
HETATM   30  C   UNL     1     -11.007   6.176  72.981  1.00  0.00    -0.278 C  
BRANCH  30  31
HETATM   31  C   UNL     1     -10.257   5.790  71.722  1.00  0.00    -0.245 C  
BRANCH  31  32
HETATM   32  C   UNL     1      -8.762   5.876  71.962  1.00  0.00    -0.137 C  
BRANCH  32  33
HETATM   33  C   UNL     1      -8.181   4.486  72.160  1.00  0.00    -0.105 C  
BRANCH  33  34
HETATM   34  C   UNL     1      -8.406   3.639  70.917  1.00  0.00    -0.088 C  
BRANCH  34  35
HETATM   35  C   UNL     1      -7.131   3.570  70.088  1.00  0.00    -0.041 C  
BRANCH  35  36
HETATM   36  C   UNL     1      -7.401   3.995  68.651  1.00  0.00    -0.055 C  
BRANCH  36  37
HETATM   37  C   UNL     1      -8.515   3.147  68.044  1.00  0.00    -0.105 C  
BRANCH  37  38
HETATM   38  C   UNL     1      -9.608   4.027  67.449  1.00  0.00    -0.222 C  
HETATM   39  C   UNL     1      -9.360   5.492  67.764  1.00  0.00    -0.119 C  
ENDBRANCH  37  38
ENDBRANCH  36  37
ENDBRANCH  35  36
ENDBRANCH  34  35
ENDBRANCH  33  34
ENDBRANCH  32  33
ENDBRANCH  31  32
ENDBRANCH  30  31
ENDBRANCH  29  30
ENDBRANCH  28  29
ENDBRANCH  27  28
ENDBRANCH  26  27
ENDBRANCH  25  26
ENDBRANCH  24  25
ENDBRANCH  23  24
ENDBRANCH  22  23
ENDBRANCH  19  22
ENDBRANCH  18  19
ENDBRANCH  17  18
ENDBRANCH  16  17
ENDBRANCH  15  16
ENDBRANCH  14  15
ENDBRANCH  13  14
ENDBRANCH  12  13
ENDBRANCH  11  12
ENDBRANCH  10  11
ENDBRANCH   9  10
ENDBRANCH   8   9
ENDBRANCH   7   8
ENDBRANCH   6   7
ENDBRANCH   5   6
ENDBRANCH   4   5
ENDBRANCH   3   4
ENDBRANCH   2   3
TORSDOF 34
ENDMDL
MODEL      173
REMARK 921   NORMALIZED FREE ENERGY PREDICTED BY IDOCK:   -2.18 KCAL/MOL
REMARK 922        TOTAL FREE ENERGY PREDICTED BY IDOCK:  -12.84 KCAL/MOL
REMARK 923 INTER-LIGAND FREE ENERGY PREDICTED BY IDOCK:   -8.51 KCAL/MOL
REMARK 924 INTRA-LIGAND FREE ENERGY PREDICTED BY IDOCK:   -4.33 KCAL/MOL
REMARK 927      BINDING AFFINITY PREDICTED BY RF-SCORE:    0.00 PKD
ROOT
HETATM    1  C   UNL     1     -10.876   4.467  64.989  1.00  0.00    -0.056 C  
HETATM    2  C   UNL     1     -10.202   3.781  63.814  1.00  0.00    -0.219 C  
ENDROOT
BRANCH   2   3
HETATM    3  C   UNL     1      -9.589   2.454  64.236  1.00  0.00    -0.135 C  
BRANCH   3   4
HETATM    4  C   UNL     1      -8.090   2.595  64.485  1.00  0.00    -0.082 C  
BRANCH   4   5
HETATM    5  C   UNL     1      -7.720   2.053  65.860  1.00  0.00    -0.071 C  
BRANCH   5   6
HETATM    6  C   UNL     1      -6.868   3.060  66.619  1.00  0.00    -0.052 C  
BRANCH   6   7
HETATM    7  C   UNL     1      -7.735   3.866  67.577  1.00  0.00    -0.075 C  
BRANCH   7   8
HETATM    8  C   UNL     1      -8.036   3.051  68.824  1.00  0.00    -0.065 C  
BRANCH   8   9
HETATM    9  C   UNL     1      -9.349   3.502  69.441  1.00  0.00    -0.243 C  
BRANCH   9  10
HETATM   10  C   UNL     1      -9.372   5.015  69.556  1.00  0.00    -0.184 C  
BRANCH  10  11
HETATM   11  C   UNL     1     -10.594   5.577  68.853  1.00  0.00    -0.258 C  
BRANCH  11  12
HETATM   12  C   UNL     1     -10.576   7.090  68.943  1.00  0.00    -0.233 C  
BRANCH  12  13
HETATM   13  C   UNL     1     -10.472   7.694  67.558  1.00  0.00    -0.336 C  
BRANCH  13  14
HETATM   14  C   UNL     1      -9.014   7.951  67.223  1.00  0.00    -0.137 C  
BRANCH  14  15
HETATM   15  C   UNL     1      -8.822   9.426  66.948  1.00  0.00    -0.141 C  
BRANCH  15  16
HETATM   16  C   UNL     1      -9.850   9.931  65.950  1.00  0.00    -0.342 C  
BRANCH  16  17
HETATM   17  C   UNL     1     -10.297  11.305  66.412  1.00  0.00    -0.291 C  
BRANCH  17  18
HETATM   18  C   UNL     1     -11.172  11.985  65.375  1.00  0.00    -0.322 C  
BRANCH  18  19
HETATM   19  N   UNL     1     -11.296  13.503  65.624  1.00  0.00    -0.297 N  
HETATM   20  C   UNL     1     -10.306  14.272  64.743  1.00  0.00    -0.343 C  
HETATM   21  C   UNL     1     -12.723  13.976  65.336  1.00  0.00    -0.471 C  
BRANCH  19  22
HETATM   22  C   UNL     1     -10.954  13.705  67.117  1.00  0.00    -0.288 C  
BRANCH  22  23
HETATM   23  C   UNL     1     -12.154  14.160  67.923  1.00  0.00    -0.309 C  
BRANCH  23  24
HETATM   24  C   UNL     1     -11.738  14.786  69.242  1.00  0.00    -0.347 C  
BRANCH  24  25
HETATM   25  C   UNL     1     -11.683  13.676  70.277  1.00  0.00    -0.259 C  
BRANCH  25  26
HETATM   26  C   UNL     1     -12.529  12.498  69.853  1.00  0.00     0.018 C  
BRANCH  26  27
HETATM   27  C   UNL     1     -11.647  11.268  69.728  1.00  0.00    -0.408 C  
BRANCH  27  28
HETATM   28  C   UNL     1     -12.468  10.025  69.999  1.00  0.00     0.075 C  
BRANCH  28  29
HETATM   29  C   UNL     1     -12.475   9.719  71.484  1.00  0.00    -0.495 C  
BRANCH  29  30
HETATM   30  C   UNL     1     -11.247   8.902  71.838  1.00  0.00    -0.447 C  
BRANCH  30  31
HETATM   31  C   UNL     1     -11.651   7.583  72.464  1.00  0.00    -0.352 C  
BRANCH  31  32
HETATM   32  C   UNL     1     -10.576   7.116  73.428  1.00  0.00    -0.424 C  
BRANCH  32  33
HETATM   33  C   UNL     1      -9.226   7.081  72.731  1.00  0.00    -0.157 C  
BRANCH  33  34
HETATM   34  C   UNL     1      -8.494   5.790  73.065  1.00  0.00    -0.118 C  
BRANCH  34  35
HETATM   35  C   UNL     1      -9.262   5.006  74.121  1.00  0.00    -0.117 C  
BRANCH  35  36
HETATM   36  C   UNL     1      -8.890   3.530  74.069  1.00  0.00    -0.088 C  
BRANCH  36  37
HETATM   37  C   UNL     1      -9.311   2.920  72.736  1.00  0.00    -0.135 C  
BRANCH  37  38
HETATM   38  C   UNL     1     -10.781   2.518  72.758  1.00  0.00    -0.156 C  
HETATM   39  C   UNL     1     -11.186   2.016  74.133  1.00  0.00    -0.149 C  
ENDBRANCH  37  38
ENDBRANCH  36  37
ENDBRANCH  35  36
ENDBRANCH  34  35
ENDBRANCH  33  34
ENDBRANCH  32  33
ENDBRANCH  31  32
ENDBRANCH  30  31
ENDBRANCH  29  30
ENDBRANCH  28  29
ENDBRANCH  27  28
ENDBRANCH  26  27
ENDBRANCH  25  26
ENDBRANCH  24  25
ENDBRANCH  23  24
ENDBRANCH  22  23
ENDBRANCH  19  22
ENDBRANCH  18  19
ENDBRANCH  17  18
ENDBRANCH  16  17
ENDBRANCH  15  16
ENDBRANCH  14  15
ENDBRANCH  13  14
ENDBRANCH  12  13
ENDBRANCH  11  12
ENDBRANCH  10  11
ENDBRANCH   9  10
ENDBRANCH   8   9
ENDBRANCH   7   8
ENDBRANCH   6   7
ENDBRANCH   5   6
ENDBRANCH   4   5
ENDBRANCH   3   4
ENDBRANCH   2   3
TORSDOF 34
ENDMDL
MODEL      174
REMARK 921   NORMALIZED FREE ENERGY PREDICTED BY IDOCK:   -2.15 KCAL/MOL
REMARK 922        TOTAL FREE ENERGY PREDICTED BY IDOCK:  -12.76 KCAL/MOL
REMARK 923 INTER-LIGAND FREE ENERGY PREDICTED BY IDOCK:   -9.34 KCAL/MOL
REMARK 924 INTRA-LIGAND FREE ENERGY PREDICTED BY IDOCK:   -3.42 KCAL/MOL
REMARK 927      BINDING AFFINITY PREDICTED BY RF-SCORE:    0.00 PKD
ROOT
HETATM    1  C   UNL     1      -6.937  10.539  66.051  1.00  0.00    -0.134 C  
HETATM    2  C   UNL     1      -7.004   9.198  66.760  1.00  0.00    -0.081 C  
ENDROOT
BRANCH   2   3
HETATM    3  C   UNL     1      -6.556   8.071  65.840  1.00  0.00    -0.046 C  
BRANCH   3   4
HETATM    4  C   UNL     1      -7.681   7.063  65.618  1.00  0.00    -0.102 C  
BRANCH   4   5
HETATM    5  C   UNL     1      -7.231   5.661  66.007  1.00  0.00    -0.073 C  
BRANCH   5   6
HETATM    6  C   UNL     1      -6.665   5.653  67.420  1.00  0.00    -0.059 C  
BRANCH   6   7
HETATM    7  C   UNL     1      -7.762   5.330  68.423  1.00  0.00    -0.080 C  
BRANCH   7   8
HETATM    8  C   UNL     1      -8.118   3.854  68.356  1.00  0.00    -0.078 C  
BRANCH   8   9
HETATM    9  C   UNL     1      -8.530   3.350  69.728  1.00  0.00    -0.090 C  
BRANCH   9  10
HETATM   10  C   UNL     1      -9.748   4.113  70.214  1.00  0.00    -0.277 C  
BRANCH  10  11
HETATM   11  C   UNL     1     -10.143   3.644  71.603  1.00  0.00    -0.132 C  
BRANCH  11  12
HETATM   12  C   UNL     1     -10.601   4.833  72.424  1.00  0.00    -0.246 C  
BRANCH  12  13
HETATM   13  C   UNL     1     -10.206   6.125  71.740  1.00  0.00    -0.236 C  
BRANCH  13  14
HETATM   14  C   UNL     1     -10.272   7.269  72.735  1.00  0.00    -0.266 C  
BRANCH  14  15
HETATM   15  C   UNL     1     -11.533   8.067  72.489  1.00  0.00    -0.471 C  
BRANCH  15  16
HETATM   16  C   UNL     1     -11.655   8.452  71.024  1.00  0.00    -0.307 C  
BRANCH  16  17
HETATM   17  C   UNL     1     -11.217   9.898  70.894  1.00  0.00    -0.433 C  
BRANCH  17  18
HETATM   18  C   UNL     1     -10.114  10.058  69.865  1.00  0.00    -0.246 C  
BRANCH  18  19
HETATM   19  N   UNL     1     -10.602  10.793  68.598  1.00  0.00    -0.186 N  
HETATM   20  C   UNL     1     -10.666   9.827  67.411  1.00  0.00    -0.249 C  
HETATM   21  C   UNL     1     -11.981  11.412  68.839  1.00  0.00    -0.304 C  
BRANCH  19  22
HETATM   22  C   UNL     1      -9.555  11.898  68.335  1.00  0.00    -0.196 C  
BRANCH  22  23
HETATM   23  C   UNL     1     -10.070  12.959  67.383  1.00  0.00    -0.223 C  
BRANCH  23  24
HETATM   24  C   UNL     1      -9.727  14.357  67.865  1.00  0.00    -0.223 C  
BRANCH  24  25
HETATM   25  C   UNL     1     -11.031  15.121  68.016  1.00  0.00    -0.295 C  
BRANCH  25  26
HETATM   26  C   UNL     1     -10.773  16.591  68.256  1.00  0.00    -0.345 C  
BRANCH  26  27
HETATM   27  C   UNL     1      -9.689  17.070  67.307  1.00  0.00    -0.253 C  
BRANCH  27  28
HETATM   28  C   UNL     1     -10.262  18.104  66.361  1.00  0.00    -0.405 C  
BRANCH  28  29
HETATM   29  C   UNL     1     -10.785  19.292  67.144  1.00  0.00    -0.584 C  
BRANCH  29  30
HETATM   30  C   UNL     1      -9.656  20.277  67.381  1.00  0.00    -0.569 C  
BRANCH  30  31
HETATM   31  C   UNL     1      -8.544  20.060  66.375  1.00  0.00    -0.350 C  
BRANCH  31  32
HETATM   32  C   UNL     1      -7.200  20.077  67.077  1.00  0.00    -0.274 C  
BRANCH  32  33
HETATM   33  C   UNL     1      -7.277  19.296  68.378  1.00  0.00    -0.338 C  
BRANCH  33  34
HETATM   34  C   UNL     1      -6.309  19.875  69.398  1.00  0.00    -0.374 C  
BRANCH  34  35
HETATM   35  C   UNL     1      -5.668  18.758  70.210  1.00  0.00    -0.226 C  
BRANCH  35  36
HETATM   36  C   UNL     1      -5.489  17.508  69.357  1.00  0.00    -0.198 C  
BRANCH  36  37
HETATM   37  C   UNL     1      -6.263  16.338  69.954  1.00  0.00    -0.161 C  
BRANCH  37  38
HETATM   38  C   UNL     1      -6.443  15.223  68.931  1.00  0.00    -0.103 C  
HETATM   39  C   UNL     1      -5.398  15.319  67.832  1.00  0.00    -0.125 C  
ENDBRANCH  37  38
ENDBRANCH  36  37
ENDBRANCH  35  36
ENDBRANCH  34  35
ENDBRANCH  33  34
ENDBRANCH  32  33
ENDBRANCH  31  32
ENDBRANCH  30  31
ENDBRANCH  29  30
ENDBRANCH  28  29
ENDBRANCH  27  28
ENDBRANCH  26  27
ENDBRANCH  25  26
ENDBRANCH  24  25
ENDBRANCH  23  24
ENDBRANCH  22  23
ENDBRANCH  19  22
ENDBRANCH  18  19
ENDBRANCH  17  18
ENDBRANCH  16  17
ENDBRANCH  15  16
ENDBRANCH  14  15
ENDBRANCH  13  14
ENDBRANCH  12  13
ENDBRANCH  11  12
ENDBRANCH  10  11
ENDBRANCH   9  10
ENDBRANCH   8   9
ENDBRANCH   7   8
ENDBRANCH   6   7
ENDBRANCH   5   6
ENDBRANCH   4   5
ENDBRANCH   3   4
ENDBRANCH   2   3
TORSDOF 34
ENDMDL
MODEL      175
REMARK 921   NORMALIZED FREE ENERGY PREDICTED BY IDOCK:   -2.15 KCAL/MOL
REMARK 922        TOTAL FREE ENERGY PREDICTED BY IDOCK:  -12.76 KCAL/MOL
REMARK 923 INTER-LIGAND FREE ENERGY PREDICTED BY IDOCK:   -9.08 KCAL/MOL
REMARK 924 INTRA-LIGAND FREE ENERGY PREDICTED BY IDOCK:   -3.67 KCAL/MOL
REMARK 927      BINDING AFFINITY PREDICTED BY RF-SCORE:    0.00 PKD
ROOT
HETATM    1  C   UNL     1      -8.387  20.734  67.120  1.00  0.00    -0.215 C  
HETATM    2  C   UNL     1      -9.242  19.619  66.546  1.00  0.00    -0.449 C  
ENDROOT
BRANCH   2   3
HETATM    3  C   UNL     1     -10.523  19.444  67.349  1.00  0.00    -0.581 C  
BRANCH   3   4
HETATM    4  C   UNL     1     -10.587  18.059  67.987  1.00  0.00    -0.361 C  
BRANCH   4   5
HETATM    5  C   UNL     1      -9.207  17.415  68.014  1.00  0.00    -0.266 C  
BRANCH   5   6
HETATM    6  C   UNL     1      -9.243  16.105  68.789  1.00  0.00    -0.224 C  
BRANCH   6   7
HETATM    7  C   UNL     1      -8.311  15.088  68.146  1.00  0.00    -0.142 C  
BRANCH   7   8
HETATM    8  C   UNL     1      -9.085  13.837  67.762  1.00  0.00    -0.193 C  
BRANCH   8   9
HETATM    9  C   UNL     1      -9.648  13.978  66.358  1.00  0.00    -0.299 C  
BRANCH   9  10
HETATM   10  C   UNL     1     -11.026  13.347  66.288  1.00  0.00    -0.296 C  
BRANCH  10  11
HETATM   11  C   UNL     1     -11.064  12.285  65.205  1.00  0.00    -0.361 C  
BRANCH  11  12
HETATM   12  C   UNL     1     -10.079  11.183  65.544  1.00  0.00    -0.309 C  
BRANCH  12  13
HETATM   13  C   UNL     1     -10.621  10.327  66.670  1.00  0.00    -0.232 C  
BRANCH  13  14
HETATM   14  C   UNL     1     -10.099   8.909  66.527  1.00  0.00    -0.356 C  
BRANCH  14  15
HETATM   15  C   UNL     1      -8.875   8.919  65.639  1.00  0.00    -0.230 C  
BRANCH  15  16
HETATM   16  C   UNL     1      -7.980   7.727  65.932  1.00  0.00    -0.107 C  
BRANCH  16  17
HETATM   17  C   UNL     1      -7.878   6.909  64.659  1.00  0.00    -0.116 C  
BRANCH  17  18
HETATM   18  C   UNL     1      -7.132   5.608  64.889  1.00  0.00    -0.060 C  
BRANCH  18  19
HETATM   19  N   UNL     1      -7.617   4.485  63.947  1.00  0.00    -0.069 N  
HETATM   20  C   UNL     1      -8.311   5.080  62.719  1.00  0.00    -0.109 C  
HETATM   21  C   UNL     1      -6.439   3.613  63.507  1.00  0.00    -0.030 C  
BRANCH  19  22
HETATM   22  C   UNL     1      -8.620   3.655  64.779  1.00  0.00    -0.105 C  
BRANCH  22  23
HETATM   23  C   UNL     1      -8.384   3.799  66.270  1.00  0.00    -0.105 C  
BRANCH  23  24
HETATM   24  C   UNL     1      -7.638   2.605  66.836  1.00  0.00    -0.070 C  
BRANCH  24  25
HETATM   25  C   UNL     1      -7.141   2.991  68.218  1.00  0.00    -0.049 C  
BRANCH  25  26
HETATM   26  C   UNL     1      -7.622   4.371  68.601  1.00  0.00    -0.063 C  
BRANCH  26  27
HETATM   27  C   UNL     1      -7.462   4.558  70.100  1.00  0.00    -0.050 C  
BRANCH  27  28
HETATM   28  C   UNL     1      -8.697   5.230  70.662  1.00  0.00    -0.136 C  
BRANCH  28  29
HETATM   29  C   UNL     1      -8.585   5.349  72.169  1.00  0.00    -0.126 C  
BRANCH  29  30
HETATM   30  C   UNL     1      -9.218   6.651  72.621  1.00  0.00    -0.148 C  
BRANCH  30  31
HETATM   31  C   UNL     1      -9.363   7.603  71.451  1.00  0.00    -0.157 C  
BRANCH  31  32
HETATM   32  C   UNL     1     -10.306   8.734  71.817  1.00  0.00    -0.413 C  
BRANCH  32  33
HETATM   33  C   UNL     1     -11.249   9.025  70.662  1.00  0.00    -0.318 C  
BRANCH  33  34
HETATM   34  C   UNL     1     -12.163  10.191  71.008  1.00  0.00    -0.474 C  
BRANCH  34  35
HETATM   35  C   UNL     1     -12.410  11.051  69.777  1.00  0.00    -0.331 C  
BRANCH  35  36
HETATM   36  C   UNL     1     -11.389  12.179  69.695  1.00  0.00    -0.223 C  
BRANCH  36  37
HETATM   37  C   UNL     1     -12.092  13.530  69.615  1.00  0.00    -0.365 C  
BRANCH  37  38
HETATM   38  C   UNL     1     -12.016  14.265  70.949  1.00  0.00    -0.389 C  
HETATM   39  C   UNL     1     -12.993  15.428  70.984  1.00  0.00    -0.556 C  
ENDBRANCH  37  38
ENDBRANCH  36  37
ENDBRANCH  35  36
ENDBRANCH  34  35
ENDBRANCH  33  34
ENDBRANCH  32  33
ENDBRANCH  31  32
ENDBRANCH  30  31
ENDBRANCH  29  30
ENDBRANCH  28  29
ENDBRANCH  27  28
ENDBRANCH  26  27
ENDBRANCH  25  26
ENDBRANCH  24  25
ENDBRANCH  23  24
ENDBRANCH  22  23
ENDBRANCH  19  22
ENDBRANCH  18  19
ENDBRANCH  17  18
ENDBRANCH  16  17
ENDBRANCH  15  16
ENDBRANCH  14  15
ENDBRANCH  13  14
ENDBRANCH  12  13
ENDBRANCH  11  12
ENDBRANCH  10  11
ENDBRANCH   9  10
ENDBRANCH   8   9
ENDBRANCH   7   8
ENDBRANCH   6   7
ENDBRANCH   5   6
ENDBRANCH   4   5
ENDBRANCH   3   4
ENDBRANCH   2   3
TORSDOF 34
ENDMDL
MODEL      176
REMARK 921   NORMALIZED FREE ENERGY PREDICTED BY IDOCK:   -2.13 KCAL/MOL
REMARK 922        TOTAL FREE ENERGY PREDICTED BY IDOCK:  -12.70 KCAL/MOL
REMARK 923 INTER-LIGAND FREE ENERGY PREDICTED BY IDOCK:   -8.10 KCAL/MOL
REMARK 924 INTRA-LIGAND FREE ENERGY PREDICTED BY IDOCK:   -4.60 KCAL/MOL
REMARK 927      BINDING AFFINITY PREDICTED BY RF-SCORE:    0.00 PKD
ROOT
HETATM    1  C   UNL     1     -10.181   2.063  72.578  1.00  0.00    -0.226 C  
HETATM    2  C   UNL     1      -9.251   1.844  71.398  1.00  0.00    -0.167 C  
ENDROOT
BRANCH   2   3
HETATM    3  C   UNL     1      -8.456   3.104  71.088  1.00  0.00    -0.098 C  
BRANCH   3   4
HETATM    4  C   UNL     1      -8.254   3.270  69.585  1.00  0.00    -0.072 C  
BRANCH   4   5
HETATM    5  C   UNL     1      -9.518   2.884  68.826  1.00  0.00    -0.182 C  
BRANCH   5   6
HETATM    6  C   UNL     1      -9.448   3.374  67.387  1.00  0.00    -0.220 C  
BRANCH   6   7
HETATM    7  C   UNL     1      -8.133   2.949  66.750  1.00  0.00    -0.084 C  
BRANCH   7   8
HETATM    8  C   UNL     1      -7.710   3.958  65.695  1.00  0.00    -0.089 C  
BRANCH   8   9
HETATM    9  C   UNL     1      -8.851   4.917  65.399  1.00  0.00    -0.149 C  
BRANCH   9  10
HETATM   10  C   UNL     1      -8.296   6.273  65.004  1.00  0.00    -0.099 C  
BRANCH  10  11
HETATM   11  C   UNL     1      -7.046   6.583  65.805  1.00  0.00    -0.062 C  
BRANCH  11  12
HETATM   12  C   UNL     1      -7.417   7.421  67.013  1.00  0.00    -0.098 C  
BRANCH  12  13
HETATM   13  C   UNL     1      -7.234   6.617  68.283  1.00  0.00    -0.085 C  
BRANCH  13  14
HETATM   14  C   UNL     1      -7.358   7.532  69.488  1.00  0.00    -0.084 C  
BRANCH  14  15
HETATM   15  C   UNL     1      -7.222   8.968  69.034  1.00  0.00    -0.072 C  
BRANCH  15  16
HETATM   16  C   UNL     1      -5.940   9.586  69.564  1.00  0.00    -0.033 C  
BRANCH  16  17
HETATM   17  C   UNL     1      -6.236  11.036  69.898  1.00  0.00    -0.127 C  
BRANCH  17  18
HETATM   18  C   UNL     1      -7.486  11.528  69.191  1.00  0.00    -0.025 C  
BRANCH  18  19
HETATM   19  N   UNL     1      -7.336  12.978  68.686  1.00  0.00    -0.106 N  
HETATM   20  C   UNL     1      -6.587  13.828  69.717  1.00  0.00    -0.034 C  
HETATM   21  C   UNL     1      -6.588  13.003  67.351  1.00  0.00    -0.107 C  
BRANCH  19  22
HETATM   22  C   UNL     1      -8.778  13.503  68.505  1.00  0.00    -0.082 C  
BRANCH  22  23
HETATM   23  C   UNL     1      -8.808  14.928  67.991  1.00  0.00    -0.167 C  
BRANCH  23  24
HETATM   24  C   UNL     1      -9.472  15.866  68.982  1.00  0.00    -0.247 C  
BRANCH  24  25
HETATM   25  C   UNL     1     -10.731  15.182  69.485  1.00  0.00    -0.273 C  
BRANCH  25  26
HETATM   26  C   UNL     1     -11.374  15.980  70.596  1.00  0.00    -0.424 C  
BRANCH  26  27
HETATM   27  C   UNL     1     -11.900  15.029  71.655  1.00  0.00    -0.441 C  
BRANCH  27  28
HETATM   28  C   UNL     1     -13.001  14.171  71.067  1.00  0.00    -0.399 C  
BRANCH  28  29
HETATM   29  C   UNL     1     -13.455  13.139  72.080  1.00  0.00    -0.598 C  
BRANCH  29  30
HETATM   30  C   UNL     1     -12.809  11.804  71.766  1.00  0.00    -0.403 C  
BRANCH  30  31
HETATM   31  C   UNL     1     -11.929  11.917  70.537  1.00  0.00    -0.360 C  
BRANCH  31  32
HETATM   32  C   UNL     1     -12.409  10.956  69.466  1.00  0.00    -0.241 C  
BRANCH  32  33
HETATM   33  C   UNL     1     -11.457  10.972  68.281  1.00  0.00    -0.374 C  
BRANCH  33  34
HETATM   34  C   UNL     1     -10.782   9.618  68.129  1.00  0.00    -0.266 C  
BRANCH  34  35
HETATM   35  C   UNL     1     -10.390   9.384  66.676  1.00  0.00    -0.284 C  
BRANCH  35  36
HETATM   36  C   UNL     1      -9.581  10.559  66.142  1.00  0.00    -0.237 C  
BRANCH  36  37
HETATM   37  C   UNL     1      -9.294  10.378  64.656  1.00  0.00    -0.304 C  
BRANCH  37  38
HETATM   38  C   UNL     1     -10.408  10.978  63.806  1.00  0.00    -0.427 C  
HETATM   39  C   UNL     1     -10.985  12.219  64.464  1.00  0.00    -0.358 C  
ENDBRANCH  37  38
ENDBRANCH  36  37
ENDBRANCH  35  36
ENDBRANCH  34  35
ENDBRANCH  33  34
ENDBRANCH  32  33
ENDBRANCH  31  32
ENDBRANCH  30  31
ENDBRANCH  29  30
ENDBRANCH  28  29
ENDBRANCH  27  28
ENDBRANCH  26  27
ENDBRANCH  25  26
ENDBRANCH  24  25
ENDBRANCH  23  24
ENDBRANCH  22  23
ENDBRANCH  19  22
ENDBRANCH  18  19
ENDBRANCH  17  18
ENDBRANCH  16  17
ENDBRANCH  15  16
ENDBRANCH  14  15
ENDBRANCH  13  14
ENDBRANCH  12  13
ENDBRANCH  11  12
ENDBRANCH  10  11
ENDBRANCH   9  10
ENDBRANCH   8   9
ENDBRANCH   7   8
ENDBRANCH   6   7
ENDBRANCH   5   6
ENDBRANCH   4   5
ENDBRANCH   3   4
ENDBRANCH   2   3
TORSDOF 34
ENDMDL
MODEL      177
REMARK 921   NORMALIZED FREE ENERGY PREDICTED BY IDOCK:   -2.12 KCAL/MOL
REMARK 922        TOTAL FREE ENERGY PREDICTED BY IDOCK:  -12.66 KCAL/MOL
REMARK 923 INTER-LIGAND FREE ENERGY PREDICTED BY IDOCK:   -8.03 KCAL/MOL
REMARK 924 INTRA-LIGAND FREE ENERGY PREDICTED BY IDOCK:   -4.64 KCAL/MOL
REMARK 927      BINDING AFFINITY PREDICTED BY RF-SCORE:    0.00 PKD
ROOT
HETATM    1  C   UNL     1      -6.298   2.423  66.680  1.00  0.00    -0.024 C  
HETATM    2  C   UNL     1      -7.457   2.450  67.660  1.00  0.00    -0.056 C  
ENDROOT
BRANCH   2   3
HETATM    3  C   UNL     1      -7.562   3.805  68.344  1.00  0.00    -0.061 C  
BRANCH   3   4
HETATM    4  C   UNL     1      -8.370   4.786  67.499  1.00  0.00    -0.104 C  
BRANCH   4   5
HETATM    5  C   UNL     1      -9.735   4.204  67.156  1.00  0.00    -0.224 C  
BRANCH   5   6
HETATM    6  C   UNL     1     -10.139   4.586  65.739  1.00  0.00    -0.274 C  
BRANCH   6   7
HETATM    7  C   UNL     1      -9.255   3.868  64.730  1.00  0.00    -0.149 C  
BRANCH   7   8
HETATM    8  C   UNL     1      -9.956   3.786  63.383  1.00  0.00    -0.174 C  
BRANCH   8   9
HETATM    9  C   UNL     1      -9.177   4.565  62.337  1.00  0.00    -0.126 C  
BRANCH   9  10
HETATM   10  C   UNL     1      -7.774   4.847  62.843  1.00  0.00    -0.065 C  
BRANCH  10  11
HETATM   11  C   UNL     1      -7.309   6.211  62.368  1.00  0.00    -0.054 C  
BRANCH  11  12
HETATM   12  C   UNL     1      -8.108   7.290  63.072  1.00  0.00    -0.038 C  
BRANCH  12  13
HETATM   13  C   UNL     1      -7.687   7.389  64.523  1.00  0.00    -0.126 C  
BRANCH  13  14
HETATM   14  C   UNL     1      -8.592   8.367  65.250  1.00  0.00    -0.177 C  
BRANCH  14  15
HETATM   15  C   UNL     1      -7.912   9.715  65.317  1.00  0.00    -0.115 C  
BRANCH  15  16
HETATM   16  C   UNL     1      -7.721  10.157  66.759  1.00  0.00    -0.105 C  
BRANCH  16  17
HETATM   17  C   UNL     1      -8.136   9.001  67.649  1.00  0.00    -0.109 C  
BRANCH  17  18
HETATM   18  C   UNL     1      -6.983   8.515  68.506  1.00  0.00    -0.065 C  
BRANCH  18  19
HETATM   19  N   UNL     1      -7.408   8.267  69.969  1.00  0.00    -0.062 N  
HETATM   20  C   UNL     1      -6.414   7.332  70.663  1.00  0.00    -0.043 C  
HETATM   21  C   UNL     1      -7.494   9.592  70.730  1.00  0.00    -0.076 C  
BRANCH  19  22
HETATM   22  C   UNL     1      -8.800   7.603  69.886  1.00  0.00    -0.143 C  
BRANCH  22  23
HETATM   23  C   UNL     1      -8.892   6.357  70.744  1.00  0.00    -0.144 C  
BRANCH  23  24
HETATM   24  C   UNL     1     -10.262   5.710  70.646  1.00  0.00    -0.292 C  
BRANCH  24  25
HETATM   25  C   UNL     1     -11.288   6.826  70.563  1.00  0.00    -0.394 C  
BRANCH  25  26
HETATM   26  C   UNL     1     -12.270   6.746  71.709  1.00  0.00    -0.402 C  
BRANCH  26  27
HETATM   27  C   UNL     1     -12.362   8.102  72.386  1.00  0.00    -0.345 C  
BRANCH  27  28
HETATM   28  C   UNL     1     -13.438   8.931  71.718  1.00  0.00    -0.447 C  
BRANCH  28  29
HETATM   29  C   UNL     1     -13.091  10.404  71.806  1.00  0.00    -0.567 C  
BRANCH  29  30
HETATM   30  C   UNL     1     -11.841  10.678  70.993  1.00  0.00    -0.396 C  
BRANCH  30  31
HETATM   31  C   UNL     1     -12.151  11.620  69.847  1.00  0.00    -0.373 C  
BRANCH  31  32
HETATM   32  C   UNL     1     -12.213  13.049  70.352  1.00  0.00    -0.386 C  
BRANCH  32  33
HETATM   33  C   UNL     1     -11.834  14.015  69.242  1.00  0.00    -0.389 C  
BRANCH  33  34
HETATM   34  C   UNL     1     -11.644  13.265  67.933  1.00  0.00    -0.370 C  
BRANCH  34  35
HETATM   35  C   UNL     1     -10.166  13.196  67.575  1.00  0.00    -0.225 C  
BRANCH  35  36
HETATM   36  C   UNL     1      -9.964  13.407  66.080  1.00  0.00    -0.299 C  
BRANCH  36  37
HETATM   37  C   UNL     1      -9.319  14.763  65.814  1.00  0.00    -0.097 C  
BRANCH  37  38
HETATM   38  C   UNL     1      -9.303  15.618  67.076  1.00  0.00    -0.241 C  
HETATM   39  C   UNL     1     -10.226  16.815  66.934  1.00  0.00    -0.290 C  
ENDBRANCH  37  38
ENDBRANCH  36  37
ENDBRANCH  35  36
ENDBRANCH  34  35
ENDBRANCH  33  34
ENDBRANCH  32  33
ENDBRANCH  31  32
ENDBRANCH  30  31
ENDBRANCH  29  30
ENDBRANCH  28  29
ENDBRANCH  27  28
ENDBRANCH  26  27
ENDBRANCH  25  26
ENDBRANCH  24  25
ENDBRANCH  23  24
ENDBRANCH  22  23
ENDBRANCH  19  22
ENDBRANCH  18  19
ENDBRANCH  17  18
ENDBRANCH  16  17
ENDBRANCH  15  16
ENDBRANCH  14  15
ENDBRANCH  13  14
ENDBRANCH  12  13
ENDBRANCH  11  12
ENDBRANCH  10  11
ENDBRANCH   9  10
ENDBRANCH   8   9
ENDBRANCH   7   8
ENDBRANCH   6   7
ENDBRANCH   5   6
ENDBRANCH   4   5
ENDBRANCH   3   4
ENDBRANCH   2   3
TORSDOF 34
ENDMDL
MODEL      178
REMARK 921   NORMALIZED FREE ENERGY PREDICTED BY IDOCK:   -2.09 KCAL/MOL
REMARK 922        TOTAL FREE ENERGY PREDICTED BY IDOCK:  -12.57 KCAL/MOL
REMARK 923 INTER-LIGAND FREE ENERGY PREDICTED BY IDOCK:   -8.58 KCAL/MOL
REMARK 924 INTRA-LIGAND FREE ENERGY PREDICTED BY IDOCK:   -3.98 KCAL/MOL
REMARK 927      BINDING AFFINITY PREDICTED BY RF-SCORE:    0.00 PKD
ROOT
HETATM    1  C   UNL     1      -7.650   9.807  69.092  1.00  0.00    -0.085 C  
HETATM    2  C   UNL     1      -8.297   9.433  70.413  1.00  0.00    -0.234 C  
ENDROOT
BRANCH   2   3
HETATM    3  C   UNL     1      -9.488   8.511  70.197  1.00  0.00    -0.169 C  
BRANCH   3   4
HETATM    4  C   UNL     1      -9.627   7.514  71.344  1.00  0.00    -0.168 C  
BRANCH   4   5
HETATM    5  C   UNL     1     -11.079   7.408  71.792  1.00  0.00    -0.269 C  
BRANCH   5   6
HETATM    6  C   UNL     1     -11.593   5.987  71.605  1.00  0.00    -0.263 C  
BRANCH   6   7
HETATM    7  C   UNL     1     -11.840   5.336  72.959  1.00  0.00    -0.129 C  
BRANCH   7   8
HETATM    8  C   UNL     1     -10.600   4.583  73.413  1.00  0.00    -0.293 C  
BRANCH   8   9
HETATM    9  C   UNL     1     -10.004   3.804  72.253  1.00  0.00    -0.239 C  
BRANCH   9  10
HETATM   10  C   UNL     1      -8.522   4.107  72.134  1.00  0.00    -0.110 C  
BRANCH  10  11
HETATM   11  C   UNL     1      -8.115   4.177  70.674  1.00  0.00    -0.059 C  
BRANCH  11  12
HETATM   12  C   UNL     1      -8.935   3.183  69.874  1.00  0.00    -0.171 C  
BRANCH  12  13
HETATM   13  C   UNL     1      -9.264   3.755  68.511  1.00  0.00    -0.214 C  
BRANCH  13  14
HETATM   14  C   UNL     1      -9.986   5.080  68.676  1.00  0.00    -0.215 C  
BRANCH  14  15
HETATM   15  C   UNL     1      -9.642   5.979  67.510  1.00  0.00    -0.116 C  
BRANCH  15  16
HETATM   16  C   UNL     1      -9.887   5.273  66.188  1.00  0.00    -0.186 C  
BRANCH  16  17
HETATM   17  C   UNL     1      -8.686   5.536  65.300  1.00  0.00    -0.136 C  
BRANCH  17  18
HETATM   18  C   UNL     1      -7.594   6.281  66.044  1.00  0.00    -0.087 C  
BRANCH  18  19
HETATM   19  N   UNL     1      -7.078   7.501  65.252  1.00  0.00    -0.062 N  
HETATM   20  C   UNL     1      -5.988   8.229  66.044  1.00  0.00    -0.044 C  
HETATM   21  C   UNL     1      -6.526   7.060  63.894  1.00  0.00    -0.043 C  
BRANCH  19  22
HETATM   22  C   UNL     1      -8.306   8.418  65.062  1.00  0.00    -0.158 C  
BRANCH  22  23
HETATM   23  C   UNL     1      -8.379   8.994  63.662  1.00  0.00    -0.178 C  
BRANCH  23  24
HETATM   24  C   UNL     1      -8.325  10.511  63.678  1.00  0.00    -0.108 C  
BRANCH  24  25
HETATM   25  C   UNL     1      -9.657  11.021  63.159  1.00  0.00    -0.384 C  
BRANCH  25  26
HETATM   26  C   UNL     1     -10.753  10.810  64.178  1.00  0.00    -0.070 C  
BRANCH  26  27
HETATM   27  C   UNL     1     -10.631  11.859  65.268  1.00  0.00    -0.320 C  
BRANCH  27  28
HETATM   28  C   UNL     1     -11.916  12.657  65.351  1.00  0.00    -0.496 C  
BRANCH  28  29
HETATM   29  C   UNL     1     -11.969  13.677  64.230  1.00  0.00    -0.488 C  
BRANCH  29  30
HETATM   30  C   UNL     1     -12.258  15.048  64.809  1.00  0.00    -0.223 C  
BRANCH  30  31
HETATM   31  C   UNL     1     -11.056  15.956  64.646  1.00  0.00    -0.368 C  
BRANCH  31  32
HETATM   32  C   UNL     1     -10.061  15.703  65.762  1.00  0.00    -0.394 C  
BRANCH  32  33
HETATM   33  C   UNL     1     -10.563  16.311  67.061  1.00  0.00    -0.284 C  
BRANCH  33  34
HETATM   34  C   UNL     1     -10.524  17.830  66.982  1.00  0.00    -0.324 C  
BRANCH  34  35
HETATM   35  C   UNL     1      -9.170  18.297  66.465  1.00  0.00    -0.298 C  
BRANCH  35  36
HETATM   36  C   UNL     1      -8.809  19.654  67.054  1.00  0.00    -0.376 C  
BRANCH  36  37
HETATM   37  C   UNL     1      -8.037  19.482  68.358  1.00  0.00    -0.377 C  
BRANCH  37  38
HETATM   38  C   UNL     1      -6.882  18.502  68.185  1.00  0.00    -0.238 C  
HETATM   39  C   UNL     1      -6.989  17.355  69.175  1.00  0.00    -0.209 C  
ENDBRANCH  37  38
ENDBRANCH  36  37
ENDBRANCH  35  36
ENDBRANCH  34  35
ENDBRANCH  33  34
ENDBRANCH  32  33
ENDBRANCH  31  32
ENDBRANCH  30  31
ENDBRANCH  29  30
ENDBRANCH  28  29
ENDBRANCH  27  28
ENDBRANCH  26  27
ENDBRANCH  25  26
ENDBRANCH  24  25
ENDBRANCH  23  24
ENDBRANCH  22  23
ENDBRANCH  19  22
ENDBRANCH  18  19
ENDBRANCH  17  18
ENDBRANCH  16  17
ENDBRANCH  15  16
ENDBRANCH  14  15
ENDBRANCH  13  14
ENDBRANCH  12  13
ENDBRANCH  11  12
ENDBRANCH  10  11
ENDBRANCH   9  10
ENDBRANCH   8   9
ENDBRANCH   7   8
ENDBRANCH   6   7
ENDBRANCH   5   6
ENDBRANCH   4   5
ENDBRANCH   3   4
ENDBRANCH   2   3
TORSDOF 34
ENDMDL
MODEL      179
REMARK 921   NORMALIZED FREE ENERGY PREDICTED BY IDOCK:   -2.09 KCAL/MOL
REMARK 922        TOTAL FREE ENERGY PREDICTED BY IDOCK:  -12.56 KCAL/MOL
REMARK 923 INTER-LIGAND FREE ENERGY PREDICTED BY IDOCK:   -8.18 KCAL/MOL
REMARK 924 INTRA-LIGAND FREE ENERGY PREDICTED BY IDOCK:   -4.38 KCAL/MOL
REMARK 927      BINDING AFFINITY PREDICTED BY RF-SCORE:    0.00 PKD
ROOT
HETATM    1  C   UNL     1      -9.076   4.592  74.010  1.00  0.00    -0.107 C  
HETATM    2  C   UNL     1      -9.827   4.921  72.732  1.00  0.00    -0.192 C  
ENDROOT
BRANCH   2   3
HETATM    3  C   UNL     1      -9.321   6.219  72.120  1.00  0.00    -0.152 C  
BRANCH   3   4
HETATM    4  C   UNL     1     -10.009   7.427  72.749  1.00  0.00    -0.263 C  
BRANCH   4   5
HETATM    5  C   UNL     1     -11.497   7.430  72.422  1.00  0.00    -0.343 C  
BRANCH   5   6
HETATM    6  C   UNL     1     -11.737   7.988  71.026  1.00  0.00    -0.295 C  
BRANCH   6   7
HETATM    7  C   UNL     1     -11.744   9.510  71.063  1.00  0.00    -0.419 C  
BRANCH   7   8
HETATM    8  C   UNL     1     -10.631  10.062  70.187  1.00  0.00    -0.350 C  
BRANCH   8   9
HETATM    9  C   UNL     1     -10.116   8.982  69.251  1.00  0.00    -0.197 C  
BRANCH   9  10
HETATM   10  C   UNL     1     -10.148   9.482  67.819  1.00  0.00    -0.244 C  
BRANCH  10  11
HETATM   11  C   UNL     1     -10.766   8.435  66.910  1.00  0.00    -0.163 C  
BRANCH  11  12
HETATM   12  C   UNL     1     -10.708   7.081  67.589  1.00  0.00    -0.331 C  
BRANCH  12  13
HETATM   13  C   UNL     1      -9.684   6.198  66.908  1.00  0.00    -0.178 C  
BRANCH  13  14
HETATM   14  C   UNL     1      -8.592   5.829  67.895  1.00  0.00    -0.101 C  
BRANCH  14  15
HETATM   15  C   UNL     1      -7.244   6.106  67.268  1.00  0.00    -0.075 C  
BRANCH  15  16
HETATM   16  C   UNL     1      -7.186   7.516  66.704  1.00  0.00    -0.083 C  
BRANCH  16  17
HETATM   17  C   UNL     1      -6.644   7.420  65.291  1.00  0.00    -0.044 C  
BRANCH  17  18
HETATM   18  C   UNL     1      -6.703   8.758  64.578  1.00  0.00    -0.070 C  
BRANCH  18  19
HETATM   19  N   UNL     1      -6.902   8.598  63.056  1.00  0.00    -0.090 N  
HETATM   20  C   UNL     1      -5.623   8.067  62.403  1.00  0.00    -0.066 C  
HETATM   21  C   UNL     1      -8.066   7.647  62.768  1.00  0.00    -0.097 C  
BRANCH  19  22
HETATM   22  C   UNL     1      -7.223  10.016  62.532  1.00  0.00    -0.127 C  
BRANCH  22  23
HETATM   23  C   UNL     1      -8.693  10.356  62.665  1.00  0.00    -0.236 C  
BRANCH  23  24
HETATM   24  C   UNL     1      -9.123  10.419  64.119  1.00  0.00    -0.272 C  
BRANCH  24  25
HETATM   25  C   UNL     1     -10.573  10.868  64.148  1.00  0.00    -0.327 C  
BRANCH  25  26
HETATM   26  C   UNL     1     -10.711  12.288  63.650  1.00  0.00    -0.513 C  
BRANCH  26  27
HETATM   27  C   UNL     1     -10.079  13.234  64.655  1.00  0.00    -0.249 C  
BRANCH  27  28
HETATM   28  C   UNL     1     -10.955  13.327  65.886  1.00  0.00    -0.288 C  
BRANCH  28  29
HETATM   29  C   UNL     1     -10.810  14.693  66.527  1.00  0.00    -0.315 C  
BRANCH  29  30
HETATM   30  C   UNL     1     -11.523  14.701  67.865  1.00  0.00    -0.350 C  
BRANCH  30  31
HETATM   31  C   UNL     1     -11.508  16.093  68.464  1.00  0.00    -0.324 C  
BRANCH  31  32
HETATM   32  C   UNL     1     -10.819  16.069  69.815  1.00  0.00    -0.337 C  
BRANCH  32  33
HETATM   33  C   UNL     1      -9.312  16.005  69.635  1.00  0.00    -0.040 C  
BRANCH  33  34
HETATM   34  C   UNL     1      -8.864  17.008  68.583  1.00  0.00    -0.267 C  
BRANCH  34  35
HETATM   35  C   UNL     1      -7.696  16.448  67.783  1.00  0.00    -0.162 C  
BRANCH  35  36
HETATM   36  C   UNL     1      -7.311  15.065  68.291  1.00  0.00    -0.111 C  
BRANCH  36  37
HETATM   37  C   UNL     1      -7.567  14.011  67.218  1.00  0.00    -0.094 C  
BRANCH  37  38
HETATM   38  C   UNL     1      -6.727  12.764  67.467  1.00  0.00    -0.154 C  
HETATM   39  C   UNL     1      -7.488  11.509  67.073  1.00  0.00    -0.151 C  
ENDBRANCH  37  38
ENDBRANCH  36  37
ENDBRANCH  35  36
ENDBRANCH  34  35
ENDBRANCH  33  34
ENDBRANCH  32  33
ENDBRANCH  31  32
ENDBRANCH  30  31
ENDBRANCH  29  30
ENDBRANCH  28  29
ENDBRANCH  27  28
ENDBRANCH  26  27
ENDBRANCH  25  26
ENDBRANCH  24  25
ENDBRANCH  23  24
ENDBRANCH  22  23
ENDBRANCH  19  22
ENDBRANCH  18  19
ENDBRANCH  17  18
ENDBRANCH  16  17
ENDBRANCH  15  16
ENDBRANCH  14  15
ENDBRANCH  13  14
ENDBRANCH  12  13
ENDBRANCH  11  12
ENDBRANCH  10  11
ENDBRANCH   9  10
ENDBRANCH   8   9
ENDBRANCH   7   8
ENDBRANCH   6   7
ENDBRANCH   5   6
ENDBRANCH   4   5
ENDBRANCH   3   4
ENDBRANCH   2   3
TORSDOF 34
ENDMDL
MODEL      180
REMARK 921   NORMALIZED FREE ENERGY PREDICTED BY IDOCK:   -2.08 KCAL/MOL
REMARK 922        TOTAL FREE ENERGY PREDICTED BY IDOCK:  -12.55 KCAL/MOL
REMARK 923 INTER-LIGAND FREE ENERGY PREDICTED BY IDOCK:   -8.93 KCAL/MOL
REMARK 924 INTRA-LIGAND FREE ENERGY PREDICTED BY IDOCK:   -3.61 KCAL/MOL
REMARK 927      BINDING AFFINITY PREDICTED BY RF-SCORE:    0.00 PKD
ROOT
HETATM    1  C   UNL     1      -7.735  14.813  68.042  1.00  0.00    -0.130 C  
HETATM    2  C   UNL     1      -7.590  15.527  69.374  1.00  0.00    -0.225 C  
ENDROOT
BRANCH   2   3
HETATM    3  C   UNL     1      -6.745  16.784  69.230  1.00  0.00    -0.229 C  
BRANCH   3   4
HETATM    4  C   UNL     1      -7.236  17.646  68.071  1.00  0.00    -0.216 C  
BRANCH   4   5
HETATM    5  C   UNL     1      -7.540  19.062  68.544  1.00  0.00    -0.364 C  
BRANCH   5   6
HETATM    6  C   UNL     1      -8.979  19.438  68.218  1.00  0.00    -0.384 C  
BRANCH   6   7
HETATM    7  C   UNL     1      -9.171  19.523  66.711  1.00  0.00    -0.415 C  
BRANCH   7   8
HETATM    8  C   UNL     1     -10.540  18.986  66.324  1.00  0.00    -0.493 C  
BRANCH   8   9
HETATM    9  C   UNL     1     -10.775  17.632  66.973  1.00  0.00    -0.176 C  
BRANCH   9  10
HETATM   10  C   UNL     1     -10.183  16.536  66.107  1.00  0.00    -0.360 C  
BRANCH  10  11
HETATM   11  C   UNL     1     -11.002  16.366  64.841  1.00  0.00    -0.277 C  
BRANCH  11  12
HETATM   12  C   UNL     1     -11.147  14.889  64.528  1.00  0.00    -0.249 C  
BRANCH  12  13
HETATM   13  C   UNL     1     -11.692  14.151  65.732  1.00  0.00    -0.360 C  
BRANCH  13  14
HETATM   14  C   UNL     1     -12.287  12.826  65.291  1.00  0.00    -0.546 C  
BRANCH  14  15
HETATM   15  C   UNL     1     -11.261  11.734  65.486  1.00  0.00    -0.316 C  
BRANCH  15  16
HETATM   16  C   UNL     1     -10.661  11.794  66.881  1.00  0.00    -0.270 C  
BRANCH  16  17
HETATM   17  C   UNL     1     -11.272  10.665  67.689  1.00  0.00    -0.361 C  
BRANCH  17  18
HETATM   18  C   UNL     1     -10.418   9.413  67.635  1.00  0.00    -0.268 C  
BRANCH  18  19
HETATM   19  N   UNL     1      -9.726   9.121  68.983  1.00  0.00    -0.163 N  
HETATM   20  C   UNL     1      -8.317   9.723  69.001  1.00  0.00    -0.127 C  
HETATM   21  C   UNL     1     -10.549   9.692  70.139  1.00  0.00    -0.272 C  
BRANCH  19  22
HETATM   22  C   UNL     1      -9.652   7.581  69.084  1.00  0.00    -0.157 C  
BRANCH  22  23
HETATM   23  C   UNL     1     -11.027   6.944  69.127  1.00  0.00    -0.240 C  
BRANCH  23  24
HETATM   24  C   UNL     1     -11.074   5.783  70.104  1.00  0.00    -0.323 C  
BRANCH  24  25
HETATM   25  C   UNL     1     -11.504   6.337  71.451  1.00  0.00    -0.352 C  
BRANCH  25  26
HETATM   26  C   UNL     1     -10.593   5.849  72.553  1.00  0.00    -0.256 C  
BRANCH  26  27
HETATM   27  C   UNL     1     -10.521   6.902  73.645  1.00  0.00    -0.400 C  
BRANCH  27  28
HETATM   28  C   UNL     1      -9.087   7.358  73.816  1.00  0.00    -0.294 C  
BRANCH  28  29
HETATM   29  C   UNL     1      -8.698   8.290  72.686  1.00  0.00    -0.291 C  
BRANCH  29  30
HETATM   30  C   UNL     1      -7.242   8.067  72.326  1.00  0.00    -0.105 C  
BRANCH  30  31
HETATM   31  C   UNL     1      -6.997   6.611  71.986  1.00  0.00    -0.072 C  
BRANCH  31  32
HETATM   32  C   UNL     1      -6.289   6.504  70.648  1.00  0.00    -0.040 C  
BRANCH  32  33
HETATM   33  C   UNL     1      -6.900   5.387  69.819  1.00  0.00    -0.060 C  
BRANCH  33  34
HETATM   34  C   UNL     1      -5.836   4.368  69.442  1.00  0.00    -0.018 C  
BRANCH  34  35
HETATM   35  C   UNL     1      -6.462   2.991  69.270  1.00  0.00    -0.029 C  
BRANCH  35  36
HETATM   36  C   UNL     1      -6.634   2.659  67.794  1.00  0.00    -0.036 C  
BRANCH  36  37
HETATM   37  C   UNL     1      -5.276   2.462  67.129  1.00  0.00    -0.009 C  
BRANCH  37  38
HETATM   38  C   UNL     1      -5.432   2.196  65.636  1.00  0.00    -0.012 C  
HETATM   39  C   UNL     1      -6.638   2.930  65.076  1.00  0.00    -0.039 C  
ENDBRANCH  37  38
ENDBRANCH  36  37
ENDBRANCH  35  36
ENDBRANCH  34  35
ENDBRANCH  33  34
ENDBRANCH  32  33
ENDBRANCH  31  32
ENDBRANCH  30  31
ENDBRANCH  29  30
ENDBRANCH  28  29
ENDBRANCH  27  28
ENDBRANCH  26  27
ENDBRANCH  25  26
ENDBRANCH  24  25
ENDBRANCH  23  24
ENDBRANCH  22  23
ENDBRANCH  19  22
ENDBRANCH  18  19
ENDBRANCH  17  18
ENDBRANCH  16  17
ENDBRANCH  15  16
ENDBRANCH  14  15
ENDBRANCH  13  14
ENDBRANCH  12  13
ENDBRANCH  11  12
ENDBRANCH  10  11
ENDBRANCH   9  10
ENDBRANCH   8   9
ENDBRANCH   7   8
ENDBRANCH   6   7
ENDBRANCH   5   6
ENDBRANCH   4   5
ENDBRANCH   3   4
ENDBRANCH   2   3
TORSDOF 34
ENDMDL
MODEL      181
REMARK 921   NORMALIZED FREE ENERGY PREDICTED BY IDOCK:   -2.08 KCAL/MOL
REMARK 922        TOTAL FREE ENERGY PREDICTED BY IDOCK:  -12.53 KCAL/MOL
REMARK 923 INTER-LIGAND FREE ENERGY PREDICTED BY IDOCK:   -8.17 KCAL/MOL
REMARK 924 INTRA-LIGAND FREE ENERGY PREDICTED BY IDOCK:   -4.36 KCAL/MOL
REMARK 927      BINDING AFFINITY PREDICTED BY RF-SCORE:    0.00 PKD
ROOT
HETATM    1  C   UNL     1      -7.930   5.235  69.299  1.00  0.00    -0.088 C  
HETATM    2  C   UNL     1      -7.231   4.221  70.187  1.00  0.00    -0.045 C  
ENDROOT
BRANCH   2   3
HETATM    3  C   UNL     1      -5.838   4.698  70.569  1.00  0.00    -0.017 C  
BRANCH   3   4
HETATM    4  C   UNL     1      -5.458   4.222  71.968  1.00  0.00    -0.003 C  
BRANCH   4   5
HETATM    5  C   UNL     1      -6.660   4.286  72.903  1.00  0.00    -0.049 C  
BRANCH   5   6
HETATM    6  C   UNL     1      -6.854   2.955  73.616  1.00  0.00    -0.034 C  
BRANCH   6   7
HETATM    7  C   UNL     1      -8.325   2.745  73.944  1.00  0.00    -0.072 C  
BRANCH   7   8
HETATM    8  C   UNL     1      -8.997   1.936  72.846  1.00  0.00    -0.073 C  
BRANCH   8   9
HETATM    9  C   UNL     1      -9.971   2.808  72.073  1.00  0.00    -0.226 C  
BRANCH   9  10
HETATM   10  C   UNL     1     -10.386   3.996  72.921  1.00  0.00    -0.238 C  
BRANCH  10  11
HETATM   11  C   UNL     1     -10.458   5.250  72.070  1.00  0.00    -0.283 C  
BRANCH  11  12
HETATM   12  C   UNL     1     -11.695   6.043  72.445  1.00  0.00    -0.322 C  
BRANCH  12  13
HETATM   13  C   UNL     1     -12.255   6.745  71.226  1.00  0.00    -0.415 C  
BRANCH  13  14
HETATM   14  C   UNL     1     -11.129   7.420  70.465  1.00  0.00    -0.280 C  
BRANCH  14  15
HETATM   15  C   UNL     1     -10.922   8.812  71.017  1.00  0.00    -0.328 C  
BRANCH  15  16
HETATM   16  C   UNL     1      -9.504   9.293  70.762  1.00  0.00    -0.336 C  
BRANCH  16  17
HETATM   17  C   UNL     1      -9.564  10.316  69.644  1.00  0.00    -0.192 C  
BRANCH  17  18
HETATM   18  C   UNL     1      -8.888   9.807  68.384  1.00  0.00    -0.120 C  
BRANCH  18  19
HETATM   19  N   UNL     1      -9.694  10.148  67.113  1.00  0.00    -0.168 N  
HETATM   20  C   UNL     1      -9.782   8.927  66.193  1.00  0.00    -0.268 C  
HETATM   21  C   UNL     1     -11.101  10.621  67.484  1.00  0.00    -0.300 C  
BRANCH  19  22
HETATM   22  C   UNL     1      -8.909  11.285  66.421  1.00  0.00    -0.182 C  
BRANCH  22  23
HETATM   23  C   UNL     1      -7.485  11.389  66.928  1.00  0.00    -0.147 C  
BRANCH  23  24
HETATM   24  C   UNL     1      -7.072  12.833  67.144  1.00  0.00    -0.004 C  
BRANCH  24  25
HETATM   25  C   UNL     1      -7.484  13.221  68.553  1.00  0.00    -0.115 C  
BRANCH  25  26
HETATM   26  C   UNL     1      -6.274  13.509  69.412  1.00  0.00    -0.107 C  
BRANCH  26  27
HETATM   27  C   UNL     1      -6.567  14.703  70.303  1.00  0.00    -0.107 C  
BRANCH  27  28
HETATM   28  C   UNL     1      -7.267  15.778  69.498  1.00  0.00    -0.186 C  
BRANCH  28  29
HETATM   29  C   UNL     1      -6.411  17.028  69.444  1.00  0.00    -0.236 C  
BRANCH  29  30
HETATM   30  C   UNL     1      -6.898  17.926  68.323  1.00  0.00    -0.212 C  
BRANCH  30  31
HETATM   31  C   UNL     1      -7.355  19.261  68.875  1.00  0.00    -0.392 C  
BRANCH  31  32
HETATM   32  C   UNL     1      -8.544  19.770  68.081  1.00  0.00    -0.333 C  
BRANCH  32  33
HETATM   33  C   UNL     1      -9.471  18.619  67.728  1.00  0.00    -0.326 C  
BRANCH  33  34
HETATM   34  C   UNL     1      -9.412  18.333  66.235  1.00  0.00    -0.237 C  
BRANCH  34  35
HETATM   35  C   UNL     1     -10.269  17.122  65.896  1.00  0.00    -0.290 C  
BRANCH  35  36
HETATM   36  C   UNL     1      -9.514  15.831  66.184  1.00  0.00    -0.375 C  
BRANCH  36  37
HETATM   37  C   UNL     1     -10.188  14.652  65.490  1.00  0.00    -0.395 C  
BRANCH  37  38
HETATM   38  C   UNL     1     -11.424  14.199  66.259  1.00  0.00    -0.358 C  
HETATM   39  C   UNL     1     -11.207  14.318  67.757  1.00  0.00    -0.309 C  
ENDBRANCH  37  38
ENDBRANCH  36  37
ENDBRANCH  35  36
ENDBRANCH  34  35
ENDBRANCH  33  34
ENDBRANCH  32  33
ENDBRANCH  31  32
ENDBRANCH  30  31
ENDBRANCH  29  30
ENDBRANCH  28  29
ENDBRANCH  27  28
ENDBRANCH  26  27
ENDBRANCH  25  26
ENDBRANCH  24  25
ENDBRANCH  23  24
ENDBRANCH  22  23
ENDBRANCH  19  22
ENDBRANCH  18  19
ENDBRANCH  17  18
ENDBRANCH  16  17
ENDBRANCH  15  16
ENDBRANCH  14  15
ENDBRANCH  13  14
ENDBRANCH  12  13
ENDBRANCH  11  12
ENDBRANCH  10  11
ENDBRANCH   9  10
ENDBRANCH   8   9
ENDBRANCH   7   8
ENDBRANCH   6   7
ENDBRANCH   5   6
ENDBRANCH   4   5
ENDBRANCH   3   4
ENDBRANCH   2   3
TORSDOF 34
ENDMDL
MODEL      182
REMARK 921   NORMALIZED FREE ENERGY PREDICTED BY IDOCK:   -2.07 KCAL/MOL
REMARK 922        TOTAL FREE ENERGY PREDICTED BY IDOCK:  -12.52 KCAL/MOL
REMARK 923 INTER-LIGAND FREE ENERGY PREDICTED BY IDOCK:   -8.27 KCAL/MOL
REMARK 924 INTRA-LIGAND FREE ENERGY PREDICTED BY IDOCK:   -4.25 KCAL/MOL
REMARK 927      BINDING AFFINITY PREDICTED BY RF-SCORE:    0.00 PKD
ROOT
HETATM    1  C   UNL     1      -7.241   9.199  71.079  1.00  0.00    -0.113 C  
HETATM    2  C   UNL     1      -7.600   8.111  72.076  1.00  0.00    -0.129 C  
ENDROOT
BRANCH   2   3
HETATM    3  C   UNL     1      -8.839   7.349  71.630  1.00  0.00    -0.125 C  
BRANCH   3   4
HETATM    4  C   UNL     1      -8.736   5.870  71.995  1.00  0.00    -0.137 C  
BRANCH   4   5
HETATM    5  C   UNL     1      -9.786   5.499  73.034  1.00  0.00    -0.164 C  
BRANCH   5   6
HETATM    6  C   UNL     1     -10.444   4.173  72.679  1.00  0.00    -0.228 C  
BRANCH   6   7
HETATM    7  C   UNL     1     -10.367   3.215  73.859  1.00  0.00    -0.227 C  
BRANCH   7   8
HETATM    8  C   UNL     1      -9.277   2.182  73.626  1.00  0.00    -0.084 C  
BRANCH   8   9
HETATM    9  C   UNL     1      -9.154   1.873  72.144  1.00  0.00    -0.119 C  
BRANCH   9  10
HETATM   10  C   UNL     1      -7.735   2.142  71.677  1.00  0.00    -0.041 C  
BRANCH  10  11
HETATM   11  C   UNL     1      -7.704   2.330  70.171  1.00  0.00    -0.045 C  
BRANCH  11  12
HETATM   12  C   UNL     1      -8.983   1.784  69.569  1.00  0.00    -0.143 C  
BRANCH  12  13
HETATM   13  C   UNL     1      -9.563   2.778  68.584  1.00  0.00    -0.081 C  
BRANCH  13  14
HETATM   14  C   UNL     1      -9.547   4.167  69.195  1.00  0.00    -0.243 C  
BRANCH  14  15
HETATM   15  C   UNL     1      -8.827   5.111  68.259  1.00  0.00    -0.107 C  
BRANCH  15  16
HETATM   16  C   UNL     1      -9.407   5.034  66.857  1.00  0.00    -0.134 C  
BRANCH  16  17
HETATM   17  C   UNL     1      -8.367   5.587  65.902  1.00  0.00    -0.125 C  
BRANCH  17  18
HETATM   18  C   UNL     1      -7.230   6.264  66.644  1.00  0.00    -0.074 C  
BRANCH  18  19
HETATM   19  N   UNL     1      -7.029   7.726  66.192  1.00  0.00    -0.061 N  
HETATM   20  C   UNL     1      -6.060   8.447  67.133  1.00  0.00    -0.055 C  
HETATM   21  C   UNL     1      -6.493   7.771  64.760  1.00  0.00    -0.044 C  
BRANCH  19  22
HETATM   22  C   UNL     1      -8.429   8.375  66.263  1.00  0.00    -0.127 C  
BRANCH  22  23
HETATM   23  C   UNL     1      -8.513   9.645  65.440  1.00  0.00    -0.155 C  
BRANCH  23  24
HETATM   24  C   UNL     1      -8.487  10.883  66.318  1.00  0.00    -0.166 C  
BRANCH  24  25
HETATM   25  C   UNL     1      -9.910  11.404  66.416  1.00  0.00    -0.242 C  
BRANCH  25  26
HETATM   26  C   UNL     1     -10.800  10.416  67.135  1.00  0.00    -0.301 C  
BRANCH  26  27
HETATM   27  C   UNL     1     -11.142  10.959  68.510  1.00  0.00    -0.311 C  
BRANCH  27  28
HETATM   28  C   UNL     1     -10.621  10.015  69.574  1.00  0.00    -0.267 C  
BRANCH  28  29
HETATM   29  C   UNL     1     -11.778   9.350  70.292  1.00  0.00    -0.127 C  
BRANCH  29  30
HETATM   30  C   UNL     1     -11.917   9.941  71.681  1.00  0.00    -0.427 C  
BRANCH  30  31
HETATM   31  C   UNL     1     -13.119  10.861  71.748  1.00  0.00    -0.564 C  
BRANCH  31  32
HETATM   32  C   UNL     1     -12.664  12.308  71.748  1.00  0.00    -0.257 C  
BRANCH  32  33
HETATM   33  C   UNL     1     -13.850  13.232  71.965  1.00  0.00    -0.452 C  
BRANCH  33  34
HETATM   34  C   UNL     1     -13.381  14.579  72.493  1.00  0.00    -0.565 C  
BRANCH  34  35
HETATM   35  C   UNL     1     -11.981  14.887  71.982  1.00  0.00    -0.428 C  
BRANCH  35  36
HETATM   36  C   UNL     1     -12.042  15.553  70.614  1.00  0.00    -0.430 C  
BRANCH  36  37
HETATM   37  C   UNL     1     -11.250  14.746  69.590  1.00  0.00    -0.305 C  
BRANCH  37  38
HETATM   38  C   UNL     1     -12.142  14.299  68.438  1.00  0.00    -0.297 C  
HETATM   39  C   UNL     1     -11.566  14.738  67.102  1.00  0.00    -0.373 C  
ENDBRANCH  37  38
ENDBRANCH  36  37
ENDBRANCH  35  36
ENDBRANCH  34  35
ENDBRANCH  33  34
ENDBRANCH  32  33
ENDBRANCH  31  32
ENDBRANCH  30  31
ENDBRANCH  29  30
ENDBRANCH  28  29
ENDBRANCH  27  28
ENDBRANCH  26  27
ENDBRANCH  25  26
ENDBRANCH  24  25
ENDBRANCH  23  24
ENDBRANCH  22  23
ENDBRANCH  19  22
ENDBRANCH  18  19
ENDBRANCH  17  18
ENDBRANCH  16  17
ENDBRANCH  15  16
ENDBRANCH  14  15
ENDBRANCH  13  14
ENDBRANCH  12  13
ENDBRANCH  11  12
ENDBRANCH  10  11
ENDBRANCH   9  10
ENDBRANCH   8   9
ENDBRANCH   7   8
ENDBRANCH   6   7
ENDBRANCH   5   6
ENDBRANCH   4   5
ENDBRANCH   3   4
ENDBRANCH   2   3
TORSDOF 34
ENDMDL
MODEL      183
REMARK 921   NORMALIZED FREE ENERGY PREDICTED BY IDOCK:   -2.07 KCAL/MOL
REMARK 922        TOTAL FREE ENERGY PREDICTED BY IDOCK:  -12.50 KCAL/MOL
REMARK 923 INTER-LIGAND FREE ENERGY PREDICTED BY IDOCK:   -7.96 KCAL/MOL
REMARK 924 INTRA-LIGAND FREE ENERGY PREDICTED BY IDOCK:   -4.55 KCAL/MOL
REMARK 927      BINDING AFFINITY PREDICTED BY RF-SCORE:    0.00 PKD
ROOT
HETATM    1  C   UNL     1     -10.885  19.431  67.139  1.00  0.00    -0.561 C  
HETATM    2  C   UNL     1      -9.786  19.709  66.130  1.00  0.00    -0.523 C  
ENDROOT
BRANCH   2   3
HETATM    3  C   UNL     1      -8.412  19.470  66.738  1.00  0.00    -0.337 C  
BRANCH   3   4
HETATM    4  C   UNL     1      -8.327  18.088  67.379  1.00  0.00    -0.233 C  
BRANCH   4   5
HETATM    5  C   UNL     1      -8.184  17.009  66.314  1.00  0.00    -0.322 C  
BRANCH   5   6
HETATM    6  C   UNL     1      -8.959  15.760  66.710  1.00  0.00    -0.289 C  
BRANCH   6   7
HETATM    7  C   UNL     1     -10.413  15.886  66.279  1.00  0.00    -0.324 C  
BRANCH   7   8
HETATM    8  C   UNL     1     -11.148  14.578  66.526  1.00  0.00    -0.332 C  
BRANCH   8   9
HETATM    9  C   UNL     1     -10.166  13.420  66.549  1.00  0.00    -0.282 C  
BRANCH   9  10
HETATM   10  C   UNL     1     -10.760  12.223  65.830  1.00  0.00    -0.294 C  
BRANCH  10  11
HETATM   11  C   UNL     1     -10.934  12.529  64.354  1.00  0.00    -0.378 C  
BRANCH  11  12
HETATM   12  C   UNL     1     -10.578  11.301  63.539  1.00  0.00    -0.436 C  
BRANCH  12  13
HETATM   13  C   UNL     1      -9.846  10.296  64.403  1.00  0.00    -0.374 C  
BRANCH  13  14
HETATM   14  C   UNL     1      -8.403  10.187  63.947  1.00  0.00    -0.172 C  
BRANCH  14  15
HETATM   15  C   UNL     1      -7.547   9.743  65.112  1.00  0.00    -0.125 C  
BRANCH  15  16
HETATM   16  C   UNL     1      -6.798   8.464  64.780  1.00  0.00    -0.072 C  
BRANCH  16  17
HETATM   17  C   UNL     1      -7.433   7.342  65.579  1.00  0.00    -0.088 C  
BRANCH  17  18
HETATM   18  C   UNL     1      -8.541   6.659  64.798  1.00  0.00     0.187 C  
BRANCH  18  19
HETATM   19  N   UNL     1      -8.328   5.133  64.701  1.00  0.00    -0.135 N  
HETATM   20  C   UNL     1      -9.591   4.450  64.170  1.00  0.00    -0.061 C  
HETATM   21  C   UNL     1      -7.143   4.818  63.784  1.00  0.00    -0.049 C  
BRANCH  19  22
HETATM   22  C   UNL     1      -8.031   4.666  66.143  1.00  0.00    -0.103 C  
BRANCH  22  23
HETATM   23  C   UNL     1      -9.122   3.765  66.688  1.00  0.00    -0.167 C  
BRANCH  23  24
HETATM   24  C   UNL     1      -8.545   2.529  67.353  1.00  0.00    -0.122 C  
BRANCH  24  25
HETATM   25  C   UNL     1      -7.300   2.956  68.110  1.00  0.00    -0.049 C  
BRANCH  25  26
HETATM   26  C   UNL     1      -7.203   2.243  69.439  1.00  0.00    -0.043 C  
BRANCH  26  27
HETATM   27  C   UNL     1      -8.601   1.963  69.960  1.00  0.00    -0.096 C  
BRANCH  27  28
HETATM   28  C   UNL     1      -8.718   2.450  71.389  1.00  0.00    -0.109 C  
BRANCH  28  29
HETATM   29  C   UNL     1      -9.771   3.536  71.485  1.00  0.00    -0.237 C  
BRANCH  29  30
HETATM   30  C   UNL     1      -9.096   4.893  71.505  1.00  0.00    -0.172 C  
BRANCH  30  31
HETATM   31  C   UNL     1      -9.399   5.654  70.230  1.00  0.00    -0.186 C  
BRANCH  31  32
HETATM   32  C   UNL     1     -10.874   6.002  70.172  1.00  0.00    -0.409 C  
BRANCH  32  33
HETATM   33  C   UNL     1     -11.069   7.352  69.501  1.00  0.00    -0.092 C  
BRANCH  33  34
HETATM   34  C   UNL     1     -10.124   8.381  70.103  1.00  0.00    -0.193 C  
BRANCH  34  35
HETATM   35  C   UNL     1     -10.676   9.785  69.902  1.00  0.00    -0.303 C  
BRANCH  35  36
HETATM   36  C   UNL     1      -9.619  10.696  69.292  1.00  0.00    -0.164 C  
BRANCH  36  37
HETATM   37  C   UNL     1      -8.384   9.892  68.898  1.00  0.00    -0.124 C  
BRANCH  37  38
HETATM   38  C   UNL     1      -7.112  10.708  69.103  1.00  0.00    -0.095 C  
HETATM   39  C   UNL     1      -7.219  12.061  68.420  1.00  0.00    -0.092 C  
ENDBRANCH  37  38
ENDBRANCH  36  37
ENDBRANCH  35  36
ENDBRANCH  34  35
ENDBRANCH  33  34
ENDBRANCH  32  33
ENDBRANCH  31  32
ENDBRANCH  30  31
ENDBRANCH  29  30
ENDBRANCH  28  29
ENDBRANCH  27  28
ENDBRANCH  26  27
ENDBRANCH  25  26
ENDBRANCH  24  25
ENDBRANCH  23  24
ENDBRANCH  22  23
ENDBRANCH  19  22
ENDBRANCH  18  19
ENDBRANCH  17  18
ENDBRANCH  16  17
ENDBRANCH  15  16
ENDBRANCH  14  15
ENDBRANCH  13  14
ENDBRANCH  12  13
ENDBRANCH  11  12
ENDBRANCH  10  11
ENDBRANCH   9  10
ENDBRANCH   8   9
ENDBRANCH   7   8
ENDBRANCH   6   7
ENDBRANCH   5   6
ENDBRANCH   4   5
ENDBRANCH   3   4
ENDBRANCH   2   3
TORSDOF 34
ENDMDL
MODEL      184
REMARK 921   NORMALIZED FREE ENERGY PREDICTED BY IDOCK:   -2.03 KCAL/MOL
REMARK 922        TOTAL FREE ENERGY PREDICTED BY IDOCK:  -12.40 KCAL/MOL
REMARK 923 INTER-LIGAND FREE ENERGY PREDICTED BY IDOCK:   -8.44 KCAL/MOL
REMARK 924 INTRA-LIGAND FREE ENERGY PREDICTED BY IDOCK:   -3.96 KCAL/MOL
REMARK 927      BINDING AFFINITY PREDICTED BY RF-SCORE:    0.00 PKD
ROOT
HETATM    1  C   UNL     1      -6.506   1.986  65.180  1.00  0.00    -0.023 C  
HETATM    2  C   UNL     1      -7.691   1.650  66.068  1.00  0.00    -0.066 C  
ENDROOT
BRANCH   2   3
HETATM    3  C   UNL     1      -7.625   2.416  67.381  1.00  0.00    -0.061 C  
BRANCH   3   4
HETATM    4  C   UNL     1      -8.252   3.800  67.241  1.00  0.00    -0.091 C  
BRANCH   4   5
HETATM    5  C   UNL     1      -9.461   3.753  66.316  1.00  0.00    -0.190 C  
BRANCH   5   6
HETATM    6  C   UNL     1      -9.468   4.955  65.382  1.00  0.00    -0.134 C  
BRANCH   6   7
HETATM    7  C   UNL     1      -8.181   4.997  64.570  1.00  0.00    -0.126 C  
BRANCH   7   8
HETATM    8  C   UNL     1      -8.388   5.807  63.301  1.00  0.00    -0.023 C  
BRANCH   8   9
HETATM    9  C   UNL     1      -7.715   7.163  63.429  1.00  0.00    -0.119 C  
BRANCH   9  10
HETATM   10  C   UNL     1      -6.635   7.105  64.494  1.00  0.00    -0.043 C  
BRANCH  10  11
HETATM   11  C   UNL     1      -6.574   8.417  65.253  1.00  0.00    -0.056 C  
BRANCH  11  12
HETATM   12  C   UNL     1      -7.903   8.664  65.941  1.00  0.00    -0.102 C  
BRANCH  12  13
HETATM   13  C   UNL     1      -8.003   7.829  67.200  1.00  0.00    -0.117 C  
BRANCH  13  14
HETATM   14  C   UNL     1      -8.863   8.549  68.222  1.00  0.00    -0.142 C  
BRANCH  14  15
HETATM   15  C   UNL     1      -8.052   9.655  68.859  1.00  0.00    -0.098 C  
BRANCH  15  16
HETATM   16  C   UNL     1      -8.126   9.580  70.375  1.00  0.00    -0.209 C  
BRANCH  16  17
HETATM   17  C   UNL     1      -8.888   8.319  70.732  1.00  0.00    -0.162 C  
BRANCH  17  18
HETATM   18  C   UNL     1      -8.024   7.346  71.513  1.00  0.00    -0.095 C  
BRANCH  18  19
HETATM   19  N   UNL     1      -8.526   7.154  72.960  1.00  0.00    -0.118 N  
HETATM   20  C   UNL     1      -8.313   5.705  73.410  1.00  0.00    -0.116 C  
HETATM   21  C   UNL     1      -7.794   8.105  73.909  1.00  0.00    -0.204 C  
BRANCH  19  22
HETATM   22  C   UNL     1     -10.034   7.487  72.921  1.00  0.00    -0.249 C  
BRANCH  22  23
HETATM   23  C   UNL     1     -10.896   6.273  73.203  1.00  0.00    -0.281 C  
BRANCH  23  24
HETATM   24  C   UNL     1     -11.988   6.109  72.163  1.00  0.00    -0.314 C  
BRANCH  24  25
HETATM   25  C   UNL     1     -12.204   7.462  71.510  1.00  0.00    -0.368 C  
BRANCH  25  26
HETATM   26  C   UNL     1     -13.599   7.979  71.781  1.00  0.00    -0.395 C  
BRANCH  26  27
HETATM   27  C   UNL     1     -13.541   9.479  72.009  1.00  0.00    -0.492 C  
BRANCH  27  28
HETATM   28  C   UNL     1     -13.395  10.189  70.679  1.00  0.00    -0.088 C  
BRANCH  28  29
HETATM   29  C   UNL     1     -12.204  11.126  70.717  1.00  0.00    -0.484 C  
BRANCH  29  30
HETATM   30  C   UNL     1     -11.344  10.899  69.489  1.00  0.00    -0.351 C  
BRANCH  30  31
HETATM   31  C   UNL     1     -11.383  12.112  68.582  1.00  0.00    -0.330 C  
BRANCH  31  32
HETATM   32  C   UNL     1     -11.771  13.343  69.379  1.00  0.00    -0.382 C  
BRANCH  32  33
HETATM   33  C   UNL     1     -12.023  14.515  68.446  1.00  0.00    -0.309 C  
BRANCH  33  34
HETATM   34  C   UNL     1     -10.709  15.027  67.877  1.00  0.00    -0.268 C  
BRANCH  34  35
HETATM   35  C   UNL     1     -10.752  15.015  66.355  1.00  0.00    -0.322 C  
BRANCH  35  36
HETATM   36  C   UNL     1      -9.800  16.057  65.782  1.00  0.00    -0.357 C  
BRANCH  36  37
HETATM   37  C   UNL     1     -10.423  17.447  65.856  1.00  0.00    -0.256 C  
BRANCH  37  38
HETATM   38  C   UNL     1      -9.928  18.204  67.082  1.00  0.00    -0.341 C  
HETATM   39  C   UNL     1     -10.874  19.338  67.441  1.00  0.00    -0.554 C  
ENDBRANCH  37  38
ENDBRANCH  36  37
ENDBRANCH  35  36
ENDBRANCH  34  35
ENDBRANCH  33  34
ENDBRANCH  32  33
ENDBRANCH  31  32
ENDBRANCH  30  31
ENDBRANCH  29  30
ENDBRANCH  28  29
ENDBRANCH  27  28
ENDBRANCH  26  27
ENDBRANCH  25  26
ENDBRANCH  24  25
ENDBRANCH  23  24
ENDBRANCH  22  23
ENDBRANCH  19  22
ENDBRANCH  18  19
ENDBRANCH  17  18
ENDBRANCH  16  17
ENDBRANCH  15  16
ENDBRANCH  14  15
ENDBRANCH  13  14
ENDBRANCH  12  13
ENDBRANCH  11  12
ENDBRANCH  10  11
ENDBRANCH   9  10
ENDBRANCH   8   9
ENDBRANCH   7   8
ENDBRANCH   6   7
ENDBRANCH   5   6
ENDBRANCH   4   5
ENDBRANCH   3   4
ENDBRANCH   2   3
TORSDOF 34
ENDMDL
MODEL      185
REMARK 921   NORMALIZED FREE ENERGY PREDICTED BY IDOCK:   -2.01 KCAL/MOL
REMARK 922        TOTAL FREE ENERGY PREDICTED BY IDOCK:  -12.33 KCAL/MOL
REMARK 923 INTER-LIGAND FREE ENERGY PREDICTED BY IDOCK:   -8.55 KCAL/MOL
REMARK 924 INTRA-LIGAND FREE ENERGY PREDICTED BY IDOCK:   -3.78 KCAL/MOL
REMARK 927      BINDING AFFINITY PREDICTED BY RF-SCORE:    0.00 PKD
ROOT
HETATM    1  C   UNL     1      -7.284   9.669  65.245  1.00  0.00    -0.113 C  
HETATM    2  C   UNL     1      -7.528   8.525  66.214  1.00  0.00    -0.090 C  
ENDROOT
BRANCH   2   3
HETATM    3  C   UNL     1      -7.344   7.180  65.528  1.00  0.00    -0.079 C  
BRANCH   3   4
HETATM    4  C   UNL     1      -8.447   6.204  65.928  1.00  0.00    -0.145 C  
BRANCH   4   5
HETATM    5  C   UNL     1      -7.850   4.923  66.499  1.00  0.00    -0.099 C  
BRANCH   5   6
HETATM    6  C   UNL     1      -7.083   5.216  67.781  1.00  0.00    -0.066 C  
BRANCH   6   7
HETATM    7  C   UNL     1      -8.006   5.095  68.984  1.00  0.00    -0.085 C  
BRANCH   7   8
HETATM    8  C   UNL     1      -8.446   3.651  69.166  1.00  0.00    -0.098 C  
BRANCH   8   9
HETATM    9  C   UNL     1      -8.762   3.378  70.627  1.00  0.00    -0.128 C  
BRANCH   9  10
HETATM   10  C   UNL     1      -9.878   4.294  71.093  1.00  0.00    -0.250 C  
BRANCH  10  11
HETATM   11  C   UNL     1     -10.248   3.982  72.531  1.00  0.00    -0.233 C  
BRANCH  11  12
HETATM   12  C   UNL     1     -10.862   5.212  73.172  1.00  0.00    -0.344 C  
BRANCH  12  13
HETATM   13  C   UNL     1     -10.563   6.440  72.338  1.00  0.00    -0.240 C  
BRANCH  13  14
HETATM   14  C   UNL     1     -10.929   7.688  73.120  1.00  0.00    -0.411 C  
BRANCH  14  15
HETATM   15  C   UNL     1     -12.165   8.309  72.510  1.00  0.00    -0.367 C  
BRANCH  15  16
HETATM   16  C   UNL     1     -11.980   8.539  71.020  1.00  0.00    -0.260 C  
BRANCH  16  17
HETATM   17  C   UNL     1     -11.364   9.913  70.843  1.00  0.00    -0.446 C  
BRANCH  17  18
HETATM   18  C   UNL     1     -10.012   9.835  70.158  1.00  0.00    -0.263 C  
BRANCH  18  19
HETATM   19  N   UNL     1      -9.964  10.677  68.866  1.00  0.00    -0.196 N  
HETATM   20  C   UNL     1     -10.354   9.822  67.657  1.00  0.00    -0.230 C  
HETATM   21  C   UNL     1     -10.905  11.879  68.978  1.00  0.00    -0.190 C  
BRANCH  19  22
HETATM   22  C   UNL     1      -8.499  11.151  68.737  1.00  0.00    -0.134 C  
BRANCH  22  23
HETATM   23  C   UNL     1      -8.354  12.302  67.762  1.00  0.00    -0.162 C  
BRANCH  23  24
HETATM   24  C   UNL     1      -7.481  13.407  68.327  1.00  0.00    -0.129 C  
BRANCH  24  25
HETATM   25  C   UNL     1      -8.300  14.686  68.318  1.00  0.00    -0.148 C  
BRANCH  25  26
HETATM   26  C   UNL     1      -7.568  15.804  69.025  1.00  0.00    -0.191 C  
BRANCH  26  27
HETATM   27  C   UNL     1      -6.072  15.568  68.918  1.00  0.00    -0.099 C  
BRANCH  27  28
HETATM   28  C   UNL     1      -5.411  16.775  68.287  1.00  0.00    -0.115 C  
BRANCH  28  29
HETATM   29  C   UNL     1      -6.247  17.280  67.127  1.00  0.00    -0.193 C  
BRANCH  29  30
HETATM   30  C   UNL     1      -6.093  18.783  67.010  1.00  0.00    -0.175 C  
BRANCH  30  31
HETATM   31  C   UNL     1      -5.920  19.407  68.380  1.00  0.00    -0.248 C  
BRANCH  31  32
HETATM   32  C   UNL     1      -7.082  20.336  68.677  1.00  0.00    -0.170 C  
BRANCH  32  33
HETATM   33  C   UNL     1      -8.396  19.578  68.588  1.00  0.00    -0.364 C  
BRANCH  33  34
HETATM   34  C   UNL     1      -9.427  20.398  67.828  1.00  0.00    -0.424 C  
BRANCH  34  35
HETATM   35  C   UNL     1      -9.704  19.769  66.470  1.00  0.00    -0.529 C  
BRANCH  35  36
HETATM   36  C   UNL     1     -10.632  18.570  66.613  1.00  0.00    -0.383 C  
BRANCH  36  37
HETATM   37  C   UNL     1      -9.903  17.283  66.241  1.00  0.00    -0.299 C  
BRANCH  37  38
HETATM   38  C   UNL     1     -10.726  16.058  66.624  1.00  0.00    -0.247 C  
HETATM   39  C   UNL     1     -11.378  16.245  67.983  1.00  0.00    -0.205 C  
ENDBRANCH  37  38
ENDBRANCH  36  37
ENDBRANCH  35  36
ENDBRANCH  34  35
ENDBRANCH  33  34
ENDBRANCH  32  33
ENDBRANCH  31  32
ENDBRANCH  30  31
ENDBRANCH  29  30
ENDBRANCH  28  29
ENDBRANCH  27  28
ENDBRANCH  26  27
ENDBRANCH  25  26
ENDBRANCH  24  25
ENDBRANCH  23  24
ENDBRANCH  22  23
ENDBRANCH  19  22
ENDBRANCH  18  19
ENDBRANCH  17  18
ENDBRANCH  16  17
ENDBRANCH  15  16
ENDBRANCH  14  15
ENDBRANCH  13  14
ENDBRANCH  12  13
ENDBRANCH  11  12
ENDBRANCH  10  11
ENDBRANCH   9  10
ENDBRANCH   8   9
ENDBRANCH   7   8
ENDBRANCH   6   7
ENDBRANCH   5   6
ENDBRANCH   4   5
ENDBRANCH   3   4
ENDBRANCH   2   3
TORSDOF 34
ENDMDL
MODEL      186
REMARK 921   NORMALIZED FREE ENERGY PREDICTED BY IDOCK:   -1.99 KCAL/MOL
REMARK 922        TOTAL FREE ENERGY PREDICTED BY IDOCK:  -12.29 KCAL/MOL
REMARK 923 INTER-LIGAND FREE ENERGY PREDICTED BY IDOCK:   -7.97 KCAL/MOL
REMARK 924 INTRA-LIGAND FREE ENERGY PREDICTED BY IDOCK:   -4.32 KCAL/MOL
REMARK 927      BINDING AFFINITY PREDICTED BY RF-SCORE:    0.00 PKD
ROOT
HETATM    1  C   UNL     1      -9.869   4.936  65.460  1.00  0.00    -0.112 C  
HETATM    2  C   UNL     1      -9.466   5.838  66.613  1.00  0.00    -0.161 C  
ENDROOT
BRANCH   2   3
HETATM    3  C   UNL     1      -9.039   7.209  66.110  1.00  0.00    -0.155 C  
BRANCH   3   4
HETATM    4  C   UNL     1      -7.525   7.381  66.201  1.00  0.00    -0.083 C  
BRANCH   4   5
HETATM    5  C   UNL     1      -7.168   8.498  67.173  1.00  0.00    -0.080 C  
BRANCH   5   6
HETATM    6  C   UNL     1      -7.062   7.959  68.593  1.00  0.00    -0.076 C  
BRANCH   6   7
HETATM    7  C   UNL     1      -6.374   6.602  68.589  1.00  0.00    -0.031 C  
BRANCH   7   8
HETATM    8  C   UNL     1      -5.482   6.461  69.812  1.00  0.00    -0.014 C  
BRANCH   8   9
HETATM    9  C   UNL     1      -6.328   6.237  71.054  1.00  0.00    -0.048 C  
BRANCH   9  10
HETATM   10  C   UNL     1      -7.360   5.157  70.788  1.00  0.00    -0.069 C  
BRANCH  10  11
HETATM   11  C   UNL     1      -6.760   3.785  71.033  1.00  0.00    -0.032 C  
BRANCH  11  12
HETATM   12  C   UNL     1      -7.802   2.886  71.670  1.00  0.00    -0.056 C  
BRANCH  12  13
HETATM   13  C   UNL     1      -8.198   3.426  73.028  1.00  0.00    -0.081 C  
BRANCH  13  14
HETATM   14  C   UNL     1      -9.554   4.099  72.933  1.00  0.00    -0.166 C  
BRANCH  14  15
HETATM   15  C   UNL     1     -10.042   4.431  74.325  1.00  0.00    -0.238 C  
BRANCH  15  16
HETATM   16  C   UNL     1     -10.366   5.910  74.449  1.00  0.00    -0.267 C  
BRANCH  16  17
HETATM   17  C   UNL     1      -9.935   6.582  73.160  1.00  0.00    -0.193 C  
BRANCH  17  18
HETATM   18  C   UNL     1     -10.735   7.843  72.892  1.00  0.00    -0.375 C  
BRANCH  18  19
HETATM   19  N   UNL     1     -11.854   7.614  71.854  1.00  0.00    -0.283 N  
HETATM   20  C   UNL     1     -12.473   6.225  72.035  1.00  0.00    -0.071 C  
HETATM   21  C   UNL     1     -12.936   8.687  71.991  1.00  0.00    -0.378 C  
BRANCH  19  22
HETATM   22  C   UNL     1     -11.164   7.718  70.476  1.00  0.00    -0.257 C  
BRANCH  22  23
HETATM   23  C   UNL     1      -9.917   8.579  70.523  1.00  0.00    -0.214 C  
BRANCH  23  24
HETATM   24  C   UNL     1     -10.239  10.043  70.285  1.00  0.00    -0.266 C  
BRANCH  24  25
HETATM   25  C   UNL     1     -10.829  10.160  68.891  1.00  0.00    -0.256 C  
BRANCH  25  26
HETATM   26  C   UNL     1     -11.876  11.249  68.834  1.00  0.00    -0.413 C  
BRANCH  26  27
HETATM   27  C   UNL     1     -12.021  11.874  70.210  1.00  0.00    -0.416 C  
BRANCH  27  28
HETATM   28  C   UNL     1     -11.600  13.328  70.155  1.00  0.00    -0.155 C  
BRANCH  28  29
HETATM   29  C   UNL     1     -12.281  14.024  68.993  1.00  0.00    -0.280 C  
BRANCH  29  30
HETATM   30  C   UNL     1     -11.608  15.359  68.740  1.00  0.00    -0.382 C  
BRANCH  30  31
HETATM   31  C   UNL     1     -10.101  15.202  68.745  1.00  0.00    -0.226 C  
BRANCH  31  32
HETATM   32  C   UNL     1      -9.524  15.703  67.435  1.00  0.00    -0.217 C  
BRANCH  32  33
HETATM   33  C   UNL     1      -9.307  14.542  66.479  1.00  0.00    -0.307 C  
BRANCH  33  34
HETATM   34  C   UNL     1      -9.193  13.237  67.252  1.00  0.00    -0.222 C  
BRANCH  34  35
HETATM   35  C   UNL     1      -9.122  12.059  66.290  1.00  0.00    -0.165 C  
BRANCH  35  36
HETATM   36  C   UNL     1      -9.960  12.328  65.048  1.00  0.00    -0.227 C  
BRANCH  36  37
HETATM   37  C   UNL     1     -11.137  11.360  64.978  1.00  0.00    -0.215 C  
BRANCH  37  38
HETATM   38  C   UNL     1     -12.397  12.065  64.488  1.00  0.00    -0.300 C  
HETATM   39  C   UNL     1     -12.135  13.542  64.250  1.00  0.00    -0.482 C  
ENDBRANCH  37  38
ENDBRANCH  36  37
ENDBRANCH  35  36
ENDBRANCH  34  35
ENDBRANCH  33  34
ENDBRANCH  32  33
ENDBRANCH  31  32
ENDBRANCH  30  31
ENDBRANCH  29  30
ENDBRANCH  28  29
ENDBRANCH  27  28
ENDBRANCH  26  27
ENDBRANCH  25  26
ENDBRANCH  24  25
ENDBRANCH  23  24
ENDBRANCH  22  23
ENDBRANCH  19  22
ENDBRANCH  18  19
ENDBRANCH  17  18
ENDBRANCH  16  17
ENDBRANCH  15  16
ENDBRANCH  14  15
ENDBRANCH  13  14
ENDBRANCH  12  13
ENDBRANCH  11  12
ENDBRANCH  10  11
ENDBRANCH   9  10
ENDBRANCH   8   9
ENDBRANCH   7   8
ENDBRANCH   6   7
ENDBRANCH   5   6
ENDBRANCH   4   5
ENDBRANCH   3   4
ENDBRANCH   2   3
TORSDOF 34
ENDMDL
MODEL      187
REMARK 921   NORMALIZED FREE ENERGY PREDICTED BY IDOCK:   -1.98 KCAL/MOL
REMARK 922        TOTAL FREE ENERGY PREDICTED BY IDOCK:  -12.25 KCAL/MOL
REMARK 923 INTER-LIGAND FREE ENERGY PREDICTED BY IDOCK:   -8.37 KCAL/MOL
REMARK 924 INTRA-LIGAND FREE ENERGY PREDICTED BY IDOCK:   -3.88 KCAL/MOL
REMARK 927      BINDING AFFINITY PREDICTED BY RF-SCORE:    0.00 PKD
ROOT
HETATM    1  C   UNL     1      -7.965  11.113  64.993  1.00  0.00     0.444 C  
HETATM    2  C   UNL     1      -8.710  11.078  66.315  1.00  0.00    -0.178 C  
ENDROOT
BRANCH   2   3
HETATM    3  C   UNL     1     -10.072  10.417  66.158  1.00  0.00    -0.299 C  
BRANCH   3   4
HETATM    4  C   UNL     1     -10.289   9.346  67.223  1.00  0.00    -0.325 C  
BRANCH   4   5
HETATM    5  C   UNL     1      -8.998   8.583  67.490  1.00  0.00    -0.142 C  
BRANCH   5   6
HETATM    6  C   UNL     1      -8.869   7.400  66.540  1.00  0.00    -0.165 C  
BRANCH   6   7
HETATM    7  C   UNL     1      -9.370   6.130  67.212  1.00  0.00    -0.117 C  
BRANCH   7   8
HETATM    8  C   UNL     1      -8.467   5.761  68.378  1.00  0.00    -0.110 C  
BRANCH   8   9
HETATM    9  C   UNL     1      -9.180   6.016  69.695  1.00  0.00    -0.148 C  
BRANCH   9  10
HETATM   10  C   UNL     1     -10.570   5.409  69.656  1.00  0.00    -0.328 C  
BRANCH  10  11
HETATM   11  C   UNL     1     -11.611   6.493  69.442  1.00  0.00    -0.249 C  
BRANCH  11  12
HETATM   12  C   UNL     1     -11.428   7.580  70.483  1.00  0.00    -0.259 C  
BRANCH  12  13
HETATM   13  C   UNL     1     -12.207   7.240  71.736  1.00  0.00    -0.368 C  
BRANCH  13  14
HETATM   14  C   UNL     1     -11.321   7.427  72.954  1.00  0.00    -0.322 C  
BRANCH  14  15
HETATM   15  C   UNL     1     -10.109   8.241  72.563  1.00  0.00    -0.376 C  
BRANCH  15  16
HETATM   16  C   UNL     1      -8.979   8.049  73.561  1.00  0.00    -0.327 C  
BRANCH  16  17
HETATM   17  C   UNL     1      -7.704   7.829  72.770  1.00  0.00    -0.133 C  
BRANCH  17  18
HETATM   18  C   UNL     1      -7.694   8.641  71.488  1.00  0.00    -0.118 C  
BRANCH  18  19
HETATM   19  N   UNL     1      -6.264   8.868  70.954  1.00  0.00    -0.042 N  
HETATM   20  C   UNL     1      -5.229   8.424  71.992  1.00  0.00    -0.036 C  
HETATM   21  C   UNL     1      -6.054   8.097  69.649  1.00  0.00    -0.029 C  
BRANCH  19  22
HETATM   22  C   UNL     1      -6.154  10.389  70.705  1.00  0.00    -0.096 C  
BRANCH  22  23
HETATM   23  C   UNL     1      -6.899  10.820  69.457  1.00  0.00    -0.116 C  
BRANCH  23  24
HETATM   24  C   UNL     1      -6.408  12.162  68.948  1.00  0.00    -0.083 C  
BRANCH  24  25
HETATM   25  C   UNL     1      -5.632  12.822  70.075  1.00  0.00    -0.125 C  
BRANCH  25  26
HETATM   26  C   UNL     1      -6.220  14.170  70.421  1.00  0.00    -0.149 C  
BRANCH  26  27
HETATM   27  C   UNL     1      -7.107  14.637  69.281  1.00  0.00    -0.150 C  
BRANCH  27  28
HETATM   28  C   UNL     1      -7.058  16.148  69.186  1.00  0.00    -0.209 C  
BRANCH  28  29
HETATM   29  C   UNL     1      -8.074  16.639  68.173  1.00  0.00    -0.186 C  
BRANCH  29  30
HETATM   30  C   UNL     1      -7.911  15.865  66.879  1.00  0.00    -0.287 C  
BRANCH  30  31
HETATM   31  C   UNL     1      -9.154  15.998  66.022  1.00  0.00    -0.361 C  
BRANCH  31  32
HETATM   32  C   UNL     1     -10.187  14.971  66.445  1.00  0.00    -0.286 C  
BRANCH  32  33
HETATM   33  C   UNL     1     -11.247  14.818  65.367  1.00  0.00    -0.347 C  
BRANCH  33  34
HETATM   34  C   UNL     1     -12.167  13.652  65.694  1.00  0.00    -0.490 C  
BRANCH  34  35
HETATM   35  C   UNL     1     -11.815  13.067  67.055  1.00  0.00    -0.437 C  
BRANCH  35  36
HETATM   36  C   UNL     1     -12.147  14.054  68.166  1.00  0.00    -0.307 C  
BRANCH  36  37
HETATM   37  C   UNL     1     -11.405  13.686  69.447  1.00  0.00    -0.303 C  
BRANCH  37  38
HETATM   38  C   UNL     1     -12.381  13.284  70.547  1.00  0.00    -0.389 C  
HETATM   39  C   UNL     1     -12.545  14.402  71.563  1.00  0.00    -0.424 C  
ENDBRANCH  37  38
ENDBRANCH  36  37
ENDBRANCH  35  36
ENDBRANCH  34  35
ENDBRANCH  33  34
ENDBRANCH  32  33
ENDBRANCH  31  32
ENDBRANCH  30  31
ENDBRANCH  29  30
ENDBRANCH  28  29
ENDBRANCH  27  28
ENDBRANCH  26  27
ENDBRANCH  25  26
ENDBRANCH  24  25
ENDBRANCH  23  24
ENDBRANCH  22  23
ENDBRANCH  19  22
ENDBRANCH  18  19
ENDBRANCH  17  18
ENDBRANCH  16  17
ENDBRANCH  15  16
ENDBRANCH  14  15
ENDBRANCH  13  14
ENDBRANCH  12  13
ENDBRANCH  11  12
ENDBRANCH  10  11
ENDBRANCH   9  10
ENDBRANCH   8   9
ENDBRANCH   7   8
ENDBRANCH   6   7
ENDBRANCH   5   6
ENDBRANCH   4   5
ENDBRANCH   3   4
ENDBRANCH   2   3
TORSDOF 34
ENDMDL
MODEL      188
REMARK 921   NORMALIZED FREE ENERGY PREDICTED BY IDOCK:   -1.91 KCAL/MOL
REMARK 922        TOTAL FREE ENERGY PREDICTED BY IDOCK:  -12.03 KCAL/MOL
REMARK 923 INTER-LIGAND FREE ENERGY PREDICTED BY IDOCK:   -9.06 KCAL/MOL
REMARK 924 INTRA-LIGAND FREE ENERGY PREDICTED BY IDOCK:   -2.97 KCAL/MOL
REMARK 927      BINDING AFFINITY PREDICTED BY RF-SCORE:    0.00 PKD
ROOT
HETATM    1  C   UNL     1      -6.043  14.622  69.571  1.00  0.00    -0.113 C  
HETATM    2  C   UNL     1      -6.899  13.566  68.893  1.00  0.00    -0.111 C  
ENDROOT
BRANCH   2   3
HETATM    3  C   UNL     1      -7.580  14.129  67.655  1.00  0.00    -0.193 C  
BRANCH   3   4
HETATM    4  C   UNL     1      -9.019  14.539  67.957  1.00  0.00    -0.180 C  
BRANCH   4   5
HETATM    5  C   UNL     1      -9.151  15.012  69.399  1.00  0.00    -0.118 C  
BRANCH   5   6
HETATM    6  C   UNL     1     -10.437  15.806  69.586  1.00  0.00    -0.289 C  
BRANCH   6   7
HETATM    7  C   UNL     1     -10.223  17.255  69.174  1.00  0.00    -0.283 C  
BRANCH   7   8
HETATM    8  C   UNL     1      -8.778  17.475  68.755  1.00  0.00    -0.214 C  
BRANCH   8   9
HETATM    9  C   UNL     1      -8.408  18.941  68.898  1.00  0.00    -0.273 C  
BRANCH   9  10
HETATM   10  C   UNL     1      -9.658  19.770  69.124  1.00  0.00    -0.263 C  
BRANCH  10  11
HETATM   11  C   UNL     1     -10.672  19.502  68.027  1.00  0.00    -0.346 C  
BRANCH  11  12
HETATM   12  C   UNL     1     -10.282  20.274  66.781  1.00  0.00    -0.497 C  
BRANCH  12  13
HETATM   13  C   UNL     1     -10.290  19.358  65.575  1.00  0.00    -0.098 C  
BRANCH  13  14
HETATM   14  C   UNL     1     -10.896  18.020  65.957  1.00  0.00     0.026 C  
BRANCH  14  15
HETATM   15  C   UNL     1     -10.414  16.964  64.988  1.00  0.00     0.120 C  
BRANCH  15  16
HETATM   16  C   UNL     1     -11.568  16.106  64.499  1.00  0.00    -0.164 C  
BRANCH  16  17
HETATM   17  C   UNL     1     -11.628  14.875  65.382  1.00  0.00    -0.280 C  
BRANCH  17  18
HETATM   18  C   UNL     1     -10.746  13.761  64.849  1.00  0.00    -0.399 C  
BRANCH  18  19
HETATM   19  N   UNL     1     -11.485  12.407  64.800  1.00  0.00    -0.315 N  
HETATM   20  C   UNL     1     -12.581  12.434  63.731  1.00  0.00    -0.437 C  
HETATM   21  C   UNL     1     -10.500  11.274  64.505  1.00  0.00    -0.334 C  
BRANCH  19  22
HETATM   22  C   UNL     1     -12.108  12.227  66.202  1.00  0.00    -0.111 C  
BRANCH  22  23
HETATM   23  C   UNL     1     -11.196  11.460  67.140  1.00  0.00    -0.363 C  
BRANCH  23  24
HETATM   24  C   UNL     1     -11.289  11.982  68.562  1.00  0.00    -0.323 C  
BRANCH  24  25
HETATM   25  C   UNL     1     -11.830  10.857  69.427  1.00  0.00    -0.400 C  
BRANCH  25  26
HETATM   26  C   UNL     1     -12.668  11.401  70.561  1.00  0.00    -0.221 C  
BRANCH  26  27
HETATM   27  C   UNL     1     -12.551  10.474  71.758  1.00  0.00    -0.445 C  
BRANCH  27  28
HETATM   28  C   UNL     1     -12.545   9.035  71.287  1.00  0.00    -0.336 C  
BRANCH  28  29
HETATM   29  C   UNL     1     -12.769   8.102  72.461  1.00  0.00    -0.159 C  
BRANCH  29  30
HETATM   30  C   UNL     1     -11.514   7.287  72.705  1.00  0.00    -0.273 C  
BRANCH  30  31
HETATM   31  C   UNL     1     -11.811   5.806  72.579  1.00  0.00    -0.222 C  
BRANCH  31  32
HETATM   32  C   UNL     1     -10.557   5.059  72.165  1.00  0.00    -0.259 C  
BRANCH  32  33
HETATM   33  C   UNL     1      -9.437   6.041  71.866  1.00  0.00    -0.163 C  
BRANCH  33  34
HETATM   34  C   UNL     1      -8.906   5.823  70.457  1.00  0.00    -0.144 C  
BRANCH  34  35
HETATM   35  C   UNL     1      -8.459   7.145  69.851  1.00  0.00    -0.140 C  
BRANCH  35  36
HETATM   36  C   UNL     1      -9.630   7.852  69.180  1.00  0.00    -0.153 C  
BRANCH  36  37
HETATM   37  C   UNL     1      -9.158   8.614  67.946  1.00  0.00    -0.145 C  
BRANCH  37  38
HETATM   38  C   UNL     1      -9.886   8.135  66.695  1.00  0.00    -0.331 C  
HETATM   39  C   UNL     1      -9.446   6.732  66.314  1.00  0.00    -0.116 C  
ENDBRANCH  37  38
ENDBRANCH  36  37
ENDBRANCH  35  36
ENDBRANCH  34  35
ENDBRANCH  33  34
ENDBRANCH  32  33
ENDBRANCH  31  32
ENDBRANCH  30  31
ENDBRANCH  29  30
ENDBRANCH  28  29
ENDBRANCH  27  28
ENDBRANCH  26  27
ENDBRANCH  25  26
ENDBRANCH  24  25
ENDBRANCH  23  24
ENDBRANCH  22  23
ENDBRANCH  19  22
ENDBRANCH  18  19
ENDBRANCH  17  18
ENDBRANCH  16  17
ENDBRANCH  15  16
ENDBRANCH  14  15
ENDBRANCH  13  14
ENDBRANCH  12  13
ENDBRANCH  11  12
ENDBRANCH  10  11
ENDBRANCH   9  10
ENDBRANCH   8   9
ENDBRANCH   7   8
ENDBRANCH   6   7
ENDBRANCH   5   6
ENDBRANCH   4   5
ENDBRANCH   3   4
ENDBRANCH   2   3
TORSDOF 34
ENDMDL
MODEL      189
REMARK 921   NORMALIZED FREE ENERGY PREDICTED BY IDOCK:   -1.91 KCAL/MOL
REMARK 922        TOTAL FREE ENERGY PREDICTED BY IDOCK:  -12.02 KCAL/MOL
REMARK 923 INTER-LIGAND FREE ENERGY PREDICTED BY IDOCK:   -9.76 KCAL/MOL
REMARK 924 INTRA-LIGAND FREE ENERGY PREDICTED BY IDOCK:   -2.26 KCAL/MOL
REMARK 927      BINDING AFFINITY PREDICTED BY RF-SCORE:    0.00 PKD
ROOT
HETATM    1  C   UNL     1     -11.148   9.478  68.473  1.00  0.00    -0.035 C  
HETATM    2  C   UNL     1     -11.007  10.990  68.452  1.00  0.00    -0.281 C  
ENDROOT
BRANCH   2   3
HETATM    3  C   UNL     1     -11.966  11.641  69.437  1.00  0.00    -0.381 C  
BRANCH   3   4
HETATM    4  C   UNL     1     -12.007  10.873  70.755  1.00  0.00    -0.449 C  
BRANCH   4   5
HETATM    5  C   UNL     1     -12.788  11.649  71.807  1.00  0.00    -0.418 C  
BRANCH   5   6
HETATM    6  C   UNL     1     -13.343  12.939  71.217  1.00  0.00    -0.038 C  
BRANCH   6   7
HETATM    7  C   UNL     1     -12.991  14.119  72.111  1.00  0.00    -0.463 C  
BRANCH   7   8
HETATM    8  C   UNL     1     -13.287  15.427  71.395  1.00  0.00    -0.601 C  
BRANCH   8   9
HETATM    9  C   UNL     1     -11.991  16.113  70.999  1.00  0.00    -0.309 C  
BRANCH   9  10
HETATM   10  C   UNL     1     -10.922  15.074  70.715  1.00  0.00    -0.176 C  
BRANCH  10  11
HETATM   11  C   UNL     1     -10.395  15.235  69.301  1.00  0.00    -0.259 C  
BRANCH  11  12
HETATM   12  C   UNL     1      -9.011  15.852  69.346  1.00  0.00    -0.209 C  
BRANCH  12  13
HETATM   13  C   UNL     1      -7.979  14.857  68.859  1.00  0.00    -0.163 C  
BRANCH  13  14
HETATM   14  C   UNL     1      -6.777  14.877  69.785  1.00  0.00    -0.179 C  
BRANCH  14  15
HETATM   15  C   UNL     1      -6.181  13.489  69.852  1.00  0.00    -0.108 C  
BRANCH  15  16
HETATM   16  C   UNL     1      -5.577  13.091  68.516  1.00  0.00    -0.069 C  
BRANCH  16  17
HETATM   17  C   UNL     1      -5.458  11.579  68.500  1.00  0.00    -0.042 C  
BRANCH  17  18
HETATM   18  C   UNL     1      -5.460  11.033  67.085  1.00  0.00    -0.053 C  
BRANCH  18  19
HETATM   19  N   UNL     1      -6.859  10.552  66.648  1.00  0.00    -0.101 N  
HETATM   20  C   UNL     1      -7.285   9.332  67.471  1.00  0.00    -0.080 C  
HETATM   21  C   UNL     1      -7.886  11.674  66.815  1.00  0.00    -0.130 C  
BRANCH  19  22
HETATM   22  C   UNL     1      -6.717  10.170  65.158  1.00  0.00    -0.131 C  
BRANCH  22  23
HETATM   23  C   UNL     1      -8.018   9.658  64.571  1.00  0.00    -0.140 C  
BRANCH  23  24
HETATM   24  C   UNL     1      -9.151   9.727  65.579  1.00  0.00    -0.242 C  
BRANCH  24  25
HETATM   25  C   UNL     1     -10.384  10.225  64.846  1.00  0.00    -0.140 C  
BRANCH  25  26
HETATM   26  C   UNL     1     -10.002  10.985  63.597  1.00  0.00    -0.415 C  
BRANCH  26  27
HETATM   27  C   UNL     1     -10.251  12.467  63.817  1.00  0.00    -0.404 C  
BRANCH  27  28
HETATM   28  C   UNL     1     -11.351  12.649  64.842  1.00  0.00    -0.347 C  
BRANCH  28  29
HETATM   29  C   UNL     1     -10.880  13.565  65.955  1.00  0.00    -0.279 C  
BRANCH  29  30
HETATM   30  C   UNL     1     -10.173  14.765  65.356  1.00  0.00    -0.415 C  
BRANCH  30  31
HETATM   31  C   UNL     1     -11.163  15.655  64.632  1.00  0.00    -0.380 C  
BRANCH  31  32
HETATM   32  C   UNL     1     -10.919  17.107  64.999  1.00  0.00     0.097 C  
BRANCH  32  33
HETATM   33  C   UNL     1     -10.138  17.195  66.300  1.00  0.00    -0.329 C  
BRANCH  33  34
HETATM   34  C   UNL     1     -10.953  17.925  67.356  1.00  0.00    -0.089 C  
BRANCH  34  35
HETATM   35  C   UNL     1     -11.031  19.410  67.029  1.00  0.00    -0.438 C  
BRANCH  35  36
HETATM   36  C   UNL     1      -9.971  20.187  67.798  1.00  0.00    -0.549 C  
BRANCH  36  37
HETATM   37  C   UNL     1      -9.290  19.287  68.825  1.00  0.00    -0.437 C  
BRANCH  37  38
HETATM   38  C   UNL     1      -7.820  19.658  68.988  1.00  0.00    -0.266 C  
HETATM   39  C   UNL     1      -7.320  20.438  67.784  1.00  0.00    -0.316 C  
ENDBRANCH  37  38
ENDBRANCH  36  37
ENDBRANCH  35  36
ENDBRANCH  34  35
ENDBRANCH  33  34
ENDBRANCH  32  33
ENDBRANCH  31  32
ENDBRANCH  30  31
ENDBRANCH  29  30
ENDBRANCH  28  29
ENDBRANCH  27  28
ENDBRANCH  26  27
ENDBRANCH  25  26
ENDBRANCH  24  25
ENDBRANCH  23  24
ENDBRANCH  22  23
ENDBRANCH  19  22
ENDBRANCH  18  19
ENDBRANCH  17  18
ENDBRANCH  16  17
ENDBRANCH  15  16
ENDBRANCH  14  15
ENDBRANCH  13  14
ENDBRANCH  12  13
ENDBRANCH  11  12
ENDBRANCH  10  11
ENDBRANCH   9  10
ENDBRANCH   8   9
ENDBRANCH   7   8
ENDBRANCH   6   7
ENDBRANCH   5   6
ENDBRANCH   4   5
ENDBRANCH   3   4
ENDBRANCH   2   3
TORSDOF 34
ENDMDL
MODEL      190
REMARK 921   NORMALIZED FREE ENERGY PREDICTED BY IDOCK:   -1.90 KCAL/MOL
REMARK 922        TOTAL FREE ENERGY PREDICTED BY IDOCK:  -12.00 KCAL/MOL
REMARK 923 INTER-LIGAND FREE ENERGY PREDICTED BY IDOCK:   -6.77 KCAL/MOL
REMARK 924 INTRA-LIGAND FREE ENERGY PREDICTED BY IDOCK:   -5.23 KCAL/MOL
REMARK 927      BINDING AFFINITY PREDICTED BY RF-SCORE:    0.00 PKD
ROOT
HETATM    1  C   UNL     1      -6.026   6.687  70.121  1.00  0.00    -0.023 C  
HETATM    2  C   UNL     1      -6.661   7.557  71.191  1.00  0.00    -0.046 C  
ENDROOT
BRANCH   2   3
HETATM    3  C   UNL     1      -7.210   6.710  72.330  1.00  0.00    -0.084 C  
BRANCH   3   4
HETATM    4  C   UNL     1      -6.095   5.928  73.019  1.00  0.00    -0.052 C  
BRANCH   4   5
HETATM    5  C   UNL     1      -6.564   4.523  73.373  1.00  0.00    -0.056 C  
BRANCH   5   6
HETATM    6  C   UNL     1      -7.630   4.573  74.460  1.00  0.00    -0.081 C  
BRANCH   6   7
HETATM    7  C   UNL     1      -8.346   3.233  74.555  1.00  0.00    -0.073 C  
BRANCH   7   8
HETATM    8  C   UNL     1      -9.852   3.440  74.537  1.00  0.00    -0.172 C  
BRANCH   8   9
HETATM    9  C   UNL     1     -10.187   4.805  73.960  1.00  0.00    -0.255 C  
BRANCH   9  10
HETATM   10  C   UNL     1     -10.917   4.642  72.640  1.00  0.00    -0.187 C  
BRANCH  10  11
HETATM   11  C   UNL     1     -10.014   5.043  71.487  1.00  0.00    -0.254 C  
BRANCH  11  12
HETATM   12  C   UNL     1      -9.711   3.824  70.638  1.00  0.00    -0.235 C  
BRANCH  12  13
HETATM   13  C   UNL     1      -8.315   3.925  70.059  1.00  0.00    -0.079 C  
BRANCH  13  14
HETATM   14  C   UNL     1      -8.145   2.895  68.957  1.00  0.00    -0.069 C  
BRANCH  14  15
HETATM   15  C   UNL     1      -8.224   3.587  67.616  1.00  0.00    -0.088 C  
BRANCH  15  16
HETATM   16  C   UNL     1      -6.870   3.593  66.927  1.00  0.00    -0.054 C  
BRANCH  16  17
HETATM   17  C   UNL     1      -6.270   4.974  67.112  1.00  0.00    -0.035 C  
BRANCH  17  18
HETATM   18  C   UNL     1      -5.745   5.535  65.803  1.00  0.00    -0.014 C  
BRANCH  18  19
HETATM   19  N   UNL     1      -6.344   6.920  65.481  1.00  0.00    -0.042 N  
HETATM   20  C   UNL     1      -6.309   7.818  66.721  1.00  0.00    -0.054 C  
HETATM   21  C   UNL     1      -5.572   7.582  64.338  1.00  0.00    -0.033 C  
BRANCH  19  22
HETATM   22  C   UNL     1      -7.805   6.648  65.057  1.00  0.00    -0.113 C  
BRANCH  22  23
HETATM   23  C   UNL     1      -8.803   7.223  66.042  1.00  0.00    -0.161 C  
BRANCH  23  24
HETATM   24  C   UNL     1      -9.875   6.213  66.405  1.00  0.00    -0.141 C  
BRANCH  24  25
HETATM   25  C   UNL     1     -10.589   6.729  67.643  1.00  0.00    -0.323 C  
BRANCH  25  26
HETATM   26  C   UNL     1      -9.811   7.852  68.288  1.00  0.00    -0.187 C  
BRANCH  26  27
HETATM   27  C   UNL     1     -10.782   8.843  68.905  1.00  0.00    -0.132 C  
BRANCH  27  28
HETATM   28  C   UNL     1     -10.831  10.099  68.061  1.00  0.00    -0.320 C  
BRANCH  28  29
HETATM   29  C   UNL     1     -10.277  11.274  68.842  1.00  0.00    -0.195 C  
BRANCH  29  30
HETATM   30  C   UNL     1     -11.065  12.524  68.500  1.00  0.00    -0.297 C  
BRANCH  30  31
HETATM   31  C   UNL     1     -10.211  13.760  68.703  1.00  0.00    -0.209 C  
BRANCH  31  32
HETATM   32  C   UNL     1     -10.447  14.743  67.572  1.00  0.00    -0.245 C  
BRANCH  32  33
HETATM   33  C   UNL     1      -9.653  14.330  66.344  1.00  0.00    -0.317 C  
BRANCH  33  34
HETATM   34  C   UNL     1     -10.490  14.519  65.088  1.00  0.00    -0.439 C  
BRANCH  34  35
HETATM   35  C   UNL     1     -11.514  13.400  64.962  1.00  0.00    -0.331 C  
BRANCH  35  36
HETATM   36  C   UNL     1     -11.805  13.099  63.498  1.00  0.00    -0.539 C  
BRANCH  36  37
HETATM   37  C   UNL     1     -11.299  11.709  63.127  1.00  0.00    -0.153 C  
BRANCH  37  38
HETATM   38  C   UNL     1     -10.768  10.976  64.354  1.00  0.00    -0.340 C  
HETATM   39  C   UNL     1      -9.497  10.212  64.023  1.00  0.00    -0.341 C  
ENDBRANCH  37  38
ENDBRANCH  36  37
ENDBRANCH  35  36
ENDBRANCH  34  35
ENDBRANCH  33  34
ENDBRANCH  32  33
ENDBRANCH  31  32
ENDBRANCH  30  31
ENDBRANCH  29  30
ENDBRANCH  28  29
ENDBRANCH  27  28
ENDBRANCH  26  27
ENDBRANCH  25  26
ENDBRANCH  24  25
ENDBRANCH  23  24
ENDBRANCH  22  23
ENDBRANCH  19  22
ENDBRANCH  18  19
ENDBRANCH  17  18
ENDBRANCH  16  17
ENDBRANCH  15  16
ENDBRANCH  14  15
ENDBRANCH  13  14
ENDBRANCH  12  13
ENDBRANCH  11  12
ENDBRANCH  10  11
ENDBRANCH   9  10
ENDBRANCH   8   9
ENDBRANCH   7   8
ENDBRANCH   6   7
ENDBRANCH   5   6
ENDBRANCH   4   5
ENDBRANCH   3   4
ENDBRANCH   2   3
TORSDOF 34
ENDMDL
MODEL      191
REMARK 921   NORMALIZED FREE ENERGY PREDICTED BY IDOCK:   -1.87 KCAL/MOL
REMARK 922        TOTAL FREE ENERGY PREDICTED BY IDOCK:  -11.91 KCAL/MOL
REMARK 923 INTER-LIGAND FREE ENERGY PREDICTED BY IDOCK:   -7.82 KCAL/MOL
REMARK 924 INTRA-LIGAND FREE ENERGY PREDICTED BY IDOCK:   -4.09 KCAL/MOL
REMARK 927      BINDING AFFINITY PREDICTED BY RF-SCORE:    0.00 PKD
ROOT
HETATM    1  C   UNL     1      -7.322  14.233  67.598  1.00  0.00    -0.192 C  
HETATM    2  C   UNL     1      -5.934  14.685  68.015  1.00  0.00    -0.158 C  
ENDROOT
BRANCH   2   3
HETATM    3  C   UNL     1      -6.004  15.925  68.893  1.00  0.00    -0.113 C  
BRANCH   3   4
HETATM    4  C   UNL     1      -6.299  17.171  68.063  1.00  0.00    -0.146 C  
BRANCH   4   5
HETATM    5  C   UNL     1      -6.697  18.334  68.962  1.00  0.00    -0.269 C  
BRANCH   5   6
HETATM    6  C   UNL     1      -6.064  19.629  68.472  1.00  0.00    -0.268 C  
BRANCH   6   7
HETATM    7  C   UNL     1      -7.130  20.550  67.896  1.00  0.00    -0.312 C  
BRANCH   7   8
HETATM    8  C   UNL     1      -7.300  20.289  66.408  1.00  0.00    -0.300 C  
BRANCH   8   9
HETATM    9  C   UNL     1      -8.631  19.605  66.143  1.00  0.00    -0.357 C  
BRANCH   9  10
HETATM   10  C   UNL     1      -9.709  20.219  67.017  1.00  0.00    -0.598 C  
BRANCH  10  11
HETATM   11  C   UNL     1     -10.616  19.136  67.572  1.00  0.00    -0.567 C  
BRANCH  11  12
HETATM   12  C   UNL     1     -10.005  17.776  67.294  1.00  0.00    -0.324 C  
BRANCH  12  13
HETATM   13  C   UNL     1     -10.324  16.820  68.424  1.00  0.00    -0.319 C  
BRANCH  13  14
HETATM   14  C   UNL     1     -11.073  15.618  67.878  1.00  0.00    -0.324 C  
BRANCH  14  15
HETATM   15  C   UNL     1     -10.724  15.440  66.418  1.00  0.00    -0.311 C  
BRANCH  15  16
HETATM   16  C   UNL     1     -10.966  14.007  65.973  1.00  0.00    -0.298 C  
BRANCH  16  17
HETATM   17  C   UNL     1     -10.754  13.112  67.178  1.00  0.00    -0.263 C  
BRANCH  17  18
HETATM   18  C   UNL     1     -11.223  11.694  66.911  1.00  0.00    -0.313 C  
BRANCH  18  19
HETATM   19  N   UNL     1     -10.093  10.661  67.102  1.00  0.00    -0.198 N  
HETATM   20  C   UNL     1     -10.620   9.243  66.865  1.00  0.00    -0.169 C  
HETATM   21  C   UNL     1      -8.937  10.952  66.141  1.00  0.00    -0.183 C  
BRANCH  19  22
HETATM   22  C   UNL     1      -9.629  10.824  68.566  1.00  0.00    -0.183 C  
BRANCH  22  23
HETATM   23  C   UNL     1      -8.156  10.511  68.739  1.00  0.00    -0.131 C  
BRANCH  23  24
HETATM   24  C   UNL     1      -7.935   9.066  69.147  1.00  0.00    -0.101 C  
BRANCH  24  25
HETATM   25  C   UNL     1      -8.109   8.985  70.653  1.00  0.00    -0.184 C  
BRANCH  25  26
HETATM   26  C   UNL     1      -7.344   7.815  71.225  1.00  0.00    -0.066 C  
BRANCH  26  27
HETATM   27  C   UNL     1      -6.297   7.363  70.222  1.00  0.00    -0.034 C  
BRANCH  27  28
HETATM   28  C   UNL     1      -5.875   5.942  70.534  1.00  0.00    -0.025 C  
BRANCH  28  29
HETATM   29  C   UNL     1      -7.087   5.032  70.559  1.00  0.00    -0.053 C  
BRANCH  29  30
HETATM   30  C   UNL     1      -7.310   4.449  69.177  1.00  0.00    -0.055 C  
BRANCH  30  31
HETATM   31  C   UNL     1      -8.600   4.975  68.582  1.00  0.00    -0.097 C  
BRANCH  31  32
HETATM   32  C   UNL     1      -9.217   3.927  67.675  1.00  0.00    -0.203 C  
BRANCH  32  33
HETATM   33  C   UNL     1      -9.351   4.468  66.262  1.00  0.00    -0.151 C  
BRANCH  33  34
HETATM   34  C   UNL     1      -8.172   5.370  65.930  1.00  0.00    -0.119 C  
BRANCH  34  35
HETATM   35  C   UNL     1      -7.943   5.406  64.425  1.00  0.00    -0.117 C  
BRANCH  35  36
HETATM   36  C   UNL     1      -6.545   5.921  64.107  1.00  0.00    -0.037 C  
BRANCH  36  37
HETATM   37  C   UNL     1      -6.554   7.440  63.969  1.00  0.00    -0.048 C  
BRANCH  37  38
HETATM   38  C   UNL     1      -7.636   7.894  62.996  1.00  0.00    -0.126 C  
HETATM   39  C   UNL     1      -7.307   9.259  62.416  1.00  0.00    -0.104 C  
ENDBRANCH  37  38
ENDBRANCH  36  37
ENDBRANCH  35  36
ENDBRANCH  34  35
ENDBRANCH  33  34
ENDBRANCH  32  33
ENDBRANCH  31  32
ENDBRANCH  30  31
ENDBRANCH  29  30
ENDBRANCH  28  29
ENDBRANCH  27  28
ENDBRANCH  26  27
ENDBRANCH  25  26
ENDBRANCH  24  25
ENDBRANCH  23  24
ENDBRANCH  22  23
ENDBRANCH  19  22
ENDBRANCH  18  19
ENDBRANCH  17  18
ENDBRANCH  16  17
ENDBRANCH  15  16
ENDBRANCH  14  15
ENDBRANCH  13  14
ENDBRANCH  12  13
ENDBRANCH  11  12
ENDBRANCH  10  11
ENDBRANCH   9  10
ENDBRANCH   8   9
ENDBRANCH   7   8
ENDBRANCH   6   7
ENDBRANCH   5   6
ENDBRANCH   4   5
ENDBRANCH   3   4
ENDBRANCH   2   3
TORSDOF 34
ENDMDL
MODEL      192
REMARK 921   NORMALIZED FREE ENERGY PREDICTED BY IDOCK:   -1.86 KCAL/MOL
REMARK 922        TOTAL FREE ENERGY PREDICTED BY IDOCK:  -11.88 KCAL/MOL
REMARK 923 INTER-LIGAND FREE ENERGY PREDICTED BY IDOCK:   -8.00 KCAL/MOL
REMARK 924 INTRA-LIGAND FREE ENERGY PREDICTED BY IDOCK:   -3.88 KCAL/MOL
REMARK 927      BINDING AFFINITY PREDICTED BY RF-SCORE:    0.00 PKD
ROOT
HETATM    1  C   UNL     1      -7.727  14.812  68.137  1.00  0.00    -0.122 C  
HETATM    2  C   UNL     1      -7.625  15.439  69.516  1.00  0.00    -0.212 C  
ENDROOT
BRANCH   2   3
HETATM    3  C   UNL     1      -6.760  16.690  69.485  1.00  0.00    -0.189 C  
BRANCH   3   4
HETATM    4  C   UNL     1      -7.159  17.605  68.330  1.00  0.00    -0.236 C  
BRANCH   4   5
HETATM    5  C   UNL     1      -7.434  19.016  68.832  1.00  0.00    -0.364 C  
BRANCH   5   6
HETATM    6  C   UNL     1      -8.839  19.457  68.446  1.00  0.00    -0.397 C  
BRANCH   6   7
HETATM    7  C   UNL     1      -8.956  19.568  66.932  1.00  0.00    -0.379 C  
BRANCH   7   8
HETATM    8  C   UNL     1     -10.351  19.165  66.482  1.00  0.00    -0.526 C  
BRANCH   8   9
HETATM    9  C   UNL     1     -10.752  17.851  67.131  1.00  0.00    -0.241 C  
BRANCH   9  10
HETATM   10  C   UNL     1     -10.187  16.689  66.336  1.00  0.00    -0.322 C  
BRANCH  10  11
HETATM   11  C   UNL     1     -10.910  16.560  65.008  1.00  0.00    -0.245 C  
BRANCH  11  12
HETATM   12  C   UNL     1     -11.227  15.100  64.746  1.00  0.00    -0.396 C  
BRANCH  12  13
HETATM   13  C   UNL     1     -11.891  14.484  65.959  1.00  0.00    -0.339 C  
BRANCH  13  14
HETATM   14  C   UNL     1     -12.556  13.177  65.567  1.00  0.00    -0.468 C  
BRANCH  14  15
HETATM   15  C   UNL     1     -11.598  12.037  65.827  1.00  0.00    -0.353 C  
BRANCH  15  16
HETATM   16  C   UNL     1     -11.090  12.069  67.259  1.00  0.00    -0.341 C  
BRANCH  16  17
HETATM   17  C   UNL     1     -11.643  10.847  67.967  1.00  0.00    -0.295 C  
BRANCH  17  18
HETATM   18  C   UNL     1     -10.724   9.650  67.815  1.00  0.00    -0.257 C  
BRANCH  18  19
HETATM   19  N   UNL     1     -10.038   9.271  69.144  1.00  0.00    -0.192 N  
HETATM   20  C   UNL     1      -8.711  10.021  69.293  1.00  0.00    -0.177 C  
HETATM   21  C   UNL     1     -10.952   9.594  70.327  1.00  0.00    -0.285 C  
BRANCH  19  22
HETATM   22  C   UNL     1      -9.786   7.749  69.058  1.00  0.00    -0.169 C  
BRANCH  22  23
HETATM   23  C   UNL     1     -11.067   6.969  68.838  1.00  0.00    -0.102 C  
BRANCH  23  24
HETATM   24  C   UNL     1     -10.983   5.576  69.434  1.00  0.00    -0.101 C  
BRANCH  24  25
HETATM   25  C   UNL     1     -11.504   5.655  70.857  1.00  0.00     0.169 C  
BRANCH  25  26
HETATM   26  C   UNL     1     -10.548   4.995  71.823  1.00  0.00    -0.204 C  
BRANCH  26  27
HETATM   27  C   UNL     1     -10.632   5.695  73.168  1.00  0.00    -0.277 C  
BRANCH  27  28
HETATM   28  C   UNL     1      -9.269   6.234  73.547  1.00  0.00    -0.137 C  
BRANCH  28  29
HETATM   29  C   UNL     1      -8.975   7.502  72.770  1.00  0.00    -0.195 C  
BRANCH  29  30
HETATM   30  C   UNL     1      -7.484   7.607  72.520  1.00  0.00    -0.092 C  
BRANCH  30  31
HETATM   31  C   UNL     1      -7.002   6.435  71.689  1.00  0.00    -0.072 C  
BRANCH  31  32
HETATM   32  C   UNL     1      -6.153   6.933  70.535  1.00  0.00    -0.027 C  
BRANCH  32  33
HETATM   33  C   UNL     1      -6.676   6.377  69.221  1.00  0.00    -0.049 C  
BRANCH  33  34
HETATM   34  C   UNL     1      -6.185   7.224  68.057  1.00  0.00    -0.039 C  
BRANCH  34  35
HETATM   35  C   UNL     1      -6.330   6.459  66.749  1.00  0.00    -0.041 C  
BRANCH  35  36
HETATM   36  C   UNL     1      -7.675   6.757  66.099  1.00  0.00    -0.091 C  
BRANCH  36  37
HETATM   37  C   UNL     1      -7.495   7.059  64.614  1.00  0.00    -0.098 C  
BRANCH  37  38
HETATM   38  C   UNL     1      -7.737   8.536  64.324  1.00  0.00    -0.130 C  
HETATM   39  C   UNL     1      -9.143   8.946  64.729  1.00  0.00    -0.007 C  
ENDBRANCH  37  38
ENDBRANCH  36  37
ENDBRANCH  35  36
ENDBRANCH  34  35
ENDBRANCH  33  34
ENDBRANCH  32  33
ENDBRANCH  31  32
ENDBRANCH  30  31
ENDBRANCH  29  30
ENDBRANCH  28  29
ENDBRANCH  27  28
ENDBRANCH  26  27
ENDBRANCH  25  26
ENDBRANCH  24  25
ENDBRANCH  23  24
ENDBRANCH  22  23
ENDBRANCH  19  22
ENDBRANCH  18  19
ENDBRANCH  17  18
ENDBRANCH  16  17
ENDBRANCH  15  16
ENDBRANCH  14  15
ENDBRANCH  13  14
ENDBRANCH  12  13
ENDBRANCH  11  12
ENDBRANCH  10  11
ENDBRANCH   9  10
ENDBRANCH   8   9
ENDBRANCH   7   8
ENDBRANCH   6   7
ENDBRANCH   5   6
ENDBRANCH   4   5
ENDBRANCH   3   4
ENDBRANCH   2   3
TORSDOF 34
ENDMDL
MODEL      193
REMARK 921   NORMALIZED FREE ENERGY PREDICTED BY IDOCK:   -1.82 KCAL/MOL
REMARK 922        TOTAL FREE ENERGY PREDICTED BY IDOCK:  -11.76 KCAL/MOL
REMARK 923 INTER-LIGAND FREE ENERGY PREDICTED BY IDOCK:   -7.86 KCAL/MOL
REMARK 924 INTRA-LIGAND FREE ENERGY PREDICTED BY IDOCK:   -3.90 KCAL/MOL
REMARK 927      BINDING AFFINITY PREDICTED BY RF-SCORE:    0.00 PKD
ROOT
HETATM    1  C   UNL     1      -6.534  13.858  69.575  1.00  0.00    -0.115 C  
HETATM    2  C   UNL     1      -7.428  12.856  68.867  1.00  0.00     0.020 C  
ENDROOT
BRANCH   2   3
HETATM    3  C   UNL     1      -8.821  13.428  68.646  1.00  0.00     0.020 C  
BRANCH   3   4
HETATM    4  C   UNL     1      -8.754  14.895  68.232  1.00  0.00    -0.166 C  
BRANCH   4   5
HETATM    5  C   UNL     1      -8.173  15.033  66.830  1.00  0.00    -0.206 C  
BRANCH   5   6
HETATM    6  C   UNL     1      -8.554  16.376  66.224  1.00  0.00    -0.375 C  
BRANCH   6   7
HETATM    7  C   UNL     1      -9.755  16.960  66.952  1.00  0.00    -0.264 C  
BRANCH   7   8
HETATM    8  C   UNL     1     -11.025  16.715  66.153  1.00  0.00     0.110 C  
BRANCH   8   9
HETATM    9  C   UNL     1     -10.698  15.986  64.860  1.00  0.00    -0.339 C  
BRANCH   9  10
HETATM   10  C   UNL     1     -11.696  14.867  64.633  1.00  0.00    -0.406 C  
BRANCH  10  11
HETATM   11  C   UNL     1     -11.557  13.811  65.713  1.00  0.00    -0.342 C  
BRANCH  11  12
HETATM   12  C   UNL     1     -12.100  12.491  65.201  1.00  0.00    -0.503 C  
BRANCH  12  13
HETATM   13  C   UNL     1     -11.087  11.826  64.293  1.00  0.00    -0.420 C  
BRANCH  13  14
HETATM   14  C   UNL     1      -9.977  11.216  65.129  1.00  0.00    -0.323 C  
BRANCH  14  15
HETATM   15  C   UNL     1      -9.329  10.096  64.348  1.00  0.00    -0.348 C  
BRANCH  15  16
HETATM   16  C   UNL     1      -7.873  10.413  64.049  1.00  0.00    -0.055 C  
BRANCH  16  17
HETATM   17  C   UNL     1      -7.096   9.113  64.134  1.00  0.00    -0.095 C  
BRANCH  17  18
HETATM   18  C   UNL     1      -7.998   7.909  63.934  1.00  0.00    -0.121 C  
BRANCH  18  19
HETATM   19  N   UNL     1      -7.436   6.642  64.614  1.00  0.00    -0.086 N  
HETATM   20  C   UNL     1      -8.570   5.825  65.239  1.00  0.00    -0.129 C  
HETATM   21  C   UNL     1      -6.677   5.785  63.599  1.00  0.00    -0.037 C  
BRANCH  19  22
HETATM   22  C   UNL     1      -6.477   7.154  65.711  1.00  0.00    -0.047 C  
BRANCH  22  23
HETATM   23  C   UNL     1      -7.168   7.305  67.051  1.00  0.00    -0.092 C  
BRANCH  23  24
HETATM   24  C   UNL     1      -7.015   6.059  67.903  1.00  0.00    -0.072 C  
BRANCH  24  25
HETATM   25  C   UNL     1      -7.530   6.389  69.293  1.00  0.00    -0.094 C  
BRANCH  25  26
HETATM   26  C   UNL     1      -6.390   6.523  70.276  1.00  0.00    -0.039 C  
BRANCH  26  27
HETATM   27  C   UNL     1      -6.950   6.847  71.650  1.00  0.00    -0.070 C  
BRANCH  27  28
HETATM   28  C   UNL     1      -7.211   8.335  71.754  1.00  0.00    -0.095 C  
BRANCH  28  29
HETATM   29  C   UNL     1      -8.677   8.626  71.500  1.00  0.00    -0.266 C  
BRANCH  29  30
HETATM   30  C   UNL     1      -9.528   7.592  72.211  1.00  0.00    -0.195 C  
BRANCH  30  31
HETATM   31  C   UNL     1     -10.827   7.371  71.464  1.00  0.00    -0.247 C  
BRANCH  31  32
HETATM   32  C   UNL     1     -12.005   7.595  72.394  1.00  0.00    -0.298 C  
BRANCH  32  33
HETATM   33  C   UNL     1     -12.932   8.652  71.821  1.00  0.00    -0.394 C  
BRANCH  33  34
HETATM   34  C   UNL     1     -12.201   9.979  71.688  1.00  0.00    -0.456 C  
BRANCH  34  35
HETATM   35  C   UNL     1     -12.878  10.852  70.640  1.00  0.00    -0.340 C  
BRANCH  35  36
HETATM   36  C   UNL     1     -11.844  11.649  69.856  1.00  0.00    -0.434 C  
BRANCH  36  37
HETATM   37  C   UNL     1     -10.670  10.759  69.461  1.00  0.00    -0.268 C  
BRANCH  37  38
HETATM   38  C   UNL     1     -11.142   9.570  68.631  1.00  0.00    -0.034 C  
HETATM   39  C   UNL     1     -10.024   9.048  67.745  1.00  0.00    -0.235 C  
ENDBRANCH  37  38
ENDBRANCH  36  37
ENDBRANCH  35  36
ENDBRANCH  34  35
ENDBRANCH  33  34
ENDBRANCH  32  33
ENDBRANCH  31  32
ENDBRANCH  30  31
ENDBRANCH  29  30
ENDBRANCH  28  29
ENDBRANCH  27  28
ENDBRANCH  26  27
ENDBRANCH  25  26
ENDBRANCH  24  25
ENDBRANCH  23  24
ENDBRANCH  22  23
ENDBRANCH  19  22
ENDBRANCH  18  19
ENDBRANCH  17  18
ENDBRANCH  16  17
ENDBRANCH  15  16
ENDBRANCH  14  15
ENDBRANCH  13  14
ENDBRANCH  12  13
ENDBRANCH  11  12
ENDBRANCH  10  11
ENDBRANCH   9  10
ENDBRANCH   8   9
ENDBRANCH   7   8
ENDBRANCH   6   7
ENDBRANCH   5   6
ENDBRANCH   4   5
ENDBRANCH   3   4
ENDBRANCH   2   3
TORSDOF 34
ENDMDL
MODEL      194
REMARK 921   NORMALIZED FREE ENERGY PREDICTED BY IDOCK:   -1.81 KCAL/MOL
REMARK 922        TOTAL FREE ENERGY PREDICTED BY IDOCK:  -11.72 KCAL/MOL
REMARK 923 INTER-LIGAND FREE ENERGY PREDICTED BY IDOCK:   -7.94 KCAL/MOL
REMARK 924 INTRA-LIGAND FREE ENERGY PREDICTED BY IDOCK:   -3.78 KCAL/MOL
REMARK 927      BINDING AFFINITY PREDICTED BY RF-SCORE:    0.00 PKD
ROOT
HETATM    1  C   UNL     1      -7.306  14.222  67.604  1.00  0.00    -0.192 C  
HETATM    2  C   UNL     1      -5.914  14.697  67.981  1.00  0.00    -0.158 C  
ENDROOT
BRANCH   2   3
HETATM    3  C   UNL     1      -5.978  15.951  68.840  1.00  0.00    -0.113 C  
BRANCH   3   4
HETATM    4  C   UNL     1      -6.301  17.180  67.994  1.00  0.00    -0.146 C  
BRANCH   4   5
HETATM    5  C   UNL     1      -6.721  18.346  68.879  1.00  0.00    -0.270 C  
BRANCH   5   6
HETATM    6  C   UNL     1      -6.120  19.648  68.369  1.00  0.00    -0.266 C  
BRANCH   6   7
HETATM    7  C   UNL     1      -7.213  20.550  67.814  1.00  0.00    -0.321 C  
BRANCH   7   8
HETATM    8  C   UNL     1      -7.409  20.285  66.330  1.00  0.00    -0.286 C  
BRANCH   8   9
HETATM    9  C   UNL     1      -8.754  19.620  66.088  1.00  0.00    -0.361 C  
BRANCH   9  10
HETATM   10  C   UNL     1      -9.812  20.263  66.965  1.00  0.00    -0.607 C  
BRANCH  10  11
HETATM   11  C   UNL     1     -10.656  19.197  67.638  1.00  0.00    -0.546 C  
BRANCH  11  12
HETATM   12  C   UNL     1     -10.047  17.833  67.377  1.00  0.00    -0.338 C  
BRANCH  12  13
HETATM   13  C   UNL     1     -10.232  16.938  68.585  1.00  0.00    -0.301 C  
BRANCH  13  14
HETATM   14  C   UNL     1     -11.068  15.731  68.201  1.00  0.00    -0.341 C  
BRANCH  14  15
HETATM   15  C   UNL     1     -10.950  15.502  66.711  1.00  0.00    -0.257 C  
BRANCH  15  16
HETATM   16  C   UNL     1     -11.241  14.053  66.359  1.00  0.00    -0.321 C  
BRANCH  16  17
HETATM   17  C   UNL     1     -10.778  13.198  67.524  1.00  0.00    -0.248 C  
BRANCH  17  18
HETATM   18  C   UNL     1     -11.311  11.781  67.424  1.00  0.00    -0.311 C  
BRANCH  18  19
HETATM   19  N   UNL     1     -10.178  10.736  67.360  1.00  0.00    -0.195 N  
HETATM   20  C   UNL     1     -10.755   9.319  67.406  1.00  0.00    -0.193 C  
HETATM   21  C   UNL     1      -9.356  10.920  66.082  1.00  0.00    -0.186 C  
BRANCH  19  22
HETATM   22  C   UNL     1      -9.302  11.000  68.605  1.00  0.00    -0.194 C  
BRANCH  22  23
HETATM   23  C   UNL     1      -7.846  10.655  68.365  1.00  0.00    -0.113 C  
BRANCH  23  24
HETATM   24  C   UNL     1      -7.500   9.282  68.911  1.00  0.00    -0.075 C  
BRANCH  24  25
HETATM   25  C   UNL     1      -6.339   8.744  68.093  1.00  0.00    -0.056 C  
BRANCH  25  26
HETATM   26  C   UNL     1      -6.595   7.320  67.659  1.00  0.00    -0.057 C  
BRANCH  26  27
HETATM   27  C   UNL     1      -8.041   6.960  67.952  1.00  0.00    -0.114 C  
BRANCH  27  28
HETATM   28  C   UNL     1      -8.569   6.051  66.862  1.00  0.00    -0.108 C  
BRANCH  28  29
HETATM   29  C   UNL     1      -7.597   4.914  66.615  1.00  0.00    -0.088 C  
BRANCH  29  30
HETATM   30  C   UNL     1      -7.904   3.772  67.563  1.00  0.00    -0.082 C  
BRANCH  30  31
HETATM   31  C   UNL     1      -6.750   3.553  68.520  1.00  0.00    -0.045 C  
BRANCH  31  32
HETATM   32  C   UNL     1      -6.585   2.072  68.803  1.00  0.00    -0.029 C  
BRANCH  32  33
HETATM   33  C   UNL     1      -6.683   1.809  70.296  1.00  0.00    -0.029 C  
BRANCH  33  34
HETATM   34  C   UNL     1      -7.750   2.696  70.919  1.00  0.00    -0.036 C  
BRANCH  34  35
HETATM   35  C   UNL     1      -8.272   2.070  72.205  1.00  0.00    -0.053 C  
BRANCH  35  36
HETATM   36  C   UNL     1      -9.792   2.152  72.263  1.00  0.00    -0.209 C  
BRANCH  36  37
HETATM   37  C   UNL     1     -10.231   3.408  73.008  1.00  0.00    -0.236 C  
BRANCH  37  38
HETATM   38  C   UNL     1     -10.502   4.552  72.038  1.00  0.00    -0.167 C  
HETATM   39  C   UNL     1     -11.560   5.493  72.589  1.00  0.00    -0.293 C  
ENDBRANCH  37  38
ENDBRANCH  36  37
ENDBRANCH  35  36
ENDBRANCH  34  35
ENDBRANCH  33  34
ENDBRANCH  32  33
ENDBRANCH  31  32
ENDBRANCH  30  31
ENDBRANCH  29  30
ENDBRANCH  28  29
ENDBRANCH  27  28
ENDBRANCH  26  27
ENDBRANCH  25  26
ENDBRANCH  24  25
ENDBRANCH  23  24
ENDBRANCH  22  23
ENDBRANCH  19  22
ENDBRANCH  18  19
ENDBRANCH  17  18
ENDBRANCH  16  17
ENDBRANCH  15  16
ENDBRANCH  14  15
ENDBRANCH  13  14
ENDBRANCH  12  13
ENDBRANCH  11  12
ENDBRANCH  10  11
ENDBRANCH   9  10
ENDBRANCH   8   9
ENDBRANCH   7   8
ENDBRANCH   6   7
ENDBRANCH   5   6
ENDBRANCH   4   5
ENDBRANCH   3   4
ENDBRANCH   2   3
TORSDOF 34
ENDMDL
MODEL      195
REMARK 921   NORMALIZED FREE ENERGY PREDICTED BY IDOCK:   -1.78 KCAL/MOL
REMARK 922        TOTAL FREE ENERGY PREDICTED BY IDOCK:  -11.66 KCAL/MOL
REMARK 923 INTER-LIGAND FREE ENERGY PREDICTED BY IDOCK:   -6.74 KCAL/MOL
REMARK 924 INTRA-LIGAND FREE ENERGY PREDICTED BY IDOCK:   -4.91 KCAL/MOL
REMARK 927      BINDING AFFINITY PREDICTED BY RF-SCORE:    0.00 PKD
ROOT
HETATM    1  C   UNL     1      -6.011   7.154  69.410  1.00  0.00    -0.026 C  
HETATM    2  C   UNL     1      -6.629   8.115  70.409  1.00  0.00    -0.036 C  
ENDROOT
BRANCH   2   3
HETATM    3  C   UNL     1      -7.232   7.365  71.588  1.00  0.00    -0.071 C  
BRANCH   3   4
HETATM    4  C   UNL     1      -6.168   6.560  72.330  1.00  0.00    -0.045 C  
BRANCH   4   5
HETATM    5  C   UNL     1      -6.730   5.221  72.790  1.00  0.00    -0.071 C  
BRANCH   5   6
HETATM    6  C   UNL     1      -7.782   5.425  73.871  1.00  0.00    -0.098 C  
BRANCH   6   7
HETATM    7  C   UNL     1      -8.569   4.141  74.087  1.00  0.00    -0.097 C  
BRANCH   7   8
HETATM    8  C   UNL     1     -10.062   4.432  74.074  1.00  0.00    -0.221 C  
BRANCH   8   9
HETATM    9  C   UNL     1     -10.333   5.751  73.372  1.00  0.00    -0.242 C  
BRANCH   9  10
HETATM   10  C   UNL     1     -11.090   5.502  72.081  1.00  0.00    -0.272 C  
BRANCH  10  11
HETATM   11  C   UNL     1     -10.187   5.748  70.887  1.00  0.00    -0.275 C  
BRANCH  11  12
HETATM   12  C   UNL     1      -9.904   4.431  70.189  1.00  0.00    -0.288 C  
BRANCH  12  13
HETATM   13  C   UNL     1      -8.505   4.436  69.611  1.00  0.00    -0.089 C  
BRANCH  13  14
HETATM   14  C   UNL     1      -8.356   3.287  68.631  1.00  0.00    -0.091 C  
BRANCH  14  15
HETATM   15  C   UNL     1      -8.480   3.820  67.221  1.00  0.00    -0.103 C  
BRANCH  15  16
HETATM   16  C   UNL     1      -7.144   3.763  66.499  1.00  0.00    -0.063 C  
BRANCH  16  17
HETATM   17  C   UNL     1      -6.534   5.150  66.556  1.00  0.00    -0.041 C  
BRANCH  17  18
HETATM   18  C   UNL     1      -6.183   5.664  65.173  1.00  0.00    -0.030 C  
BRANCH  18  19
HETATM   19  N   UNL     1      -6.788   7.057  64.898  1.00  0.00    -0.046 N  
HETATM   20  C   UNL     1      -6.464   8.016  66.047  1.00  0.00    -0.046 C  
HETATM   21  C   UNL     1      -6.248   7.622  63.582  1.00  0.00    -0.054 C  
BRANCH  19  22
HETATM   22  C   UNL     1      -8.313   6.832  64.801  1.00  0.00     0.012 C  
BRANCH  22  23
HETATM   23  C   UNL     1      -9.063   7.493  65.941  1.00  0.00    -0.086 C  
BRANCH  23  24
HETATM   24  C   UNL     1     -10.029   6.531  66.607  1.00  0.00    -0.204 C  
BRANCH  24  25
HETATM   25  C   UNL     1     -10.493   7.174  67.902  1.00  0.00    -0.268 C  
BRANCH  25  26
HETATM   26  C   UNL     1      -9.655   8.387  68.236  1.00  0.00    -0.156 C  
BRANCH  26  27
HETATM   27  C   UNL     1     -10.526   9.421  68.926  1.00  0.00    -0.236 C  
BRANCH  27  28
HETATM   28  C   UNL     1     -10.809  10.564  67.972  1.00  0.00    -0.312 C  
BRANCH  28  29
HETATM   29  C   UNL     1     -10.250  11.858  68.530  1.00  0.00    -0.221 C  
BRANCH  29  30
HETATM   30  C   UNL     1     -11.185  13.001  68.186  1.00  0.00    -0.305 C  
BRANCH  30  31
HETATM   31  C   UNL     1     -11.822  13.560  69.442  1.00  0.00    -0.389 C  
BRANCH  31  32
HETATM   32  C   UNL     1     -12.133  15.033  69.254  1.00  0.00    -0.282 C  
BRANCH  32  33
HETATM   33  C   UNL     1     -10.895  15.870  69.529  1.00  0.00    -0.305 C  
BRANCH  33  34
HETATM   34  C   UNL     1     -10.783  16.995  68.512  1.00  0.00    -0.352 C  
BRANCH  34  35
HETATM   35  C   UNL     1     -10.264  16.458  67.186  1.00  0.00    -0.282 C  
BRANCH  35  36
HETATM   36  C   UNL     1      -9.425  17.509  66.471  1.00  0.00    -0.285 C  
BRANCH  36  37
HETATM   37  C   UNL     1      -7.957  17.097  66.447  1.00  0.00    -0.346 C  
BRANCH  37  38
HETATM   38  C   UNL     1      -7.770  15.708  67.048  1.00  0.00    -0.257 C  
HETATM   39  C   UNL     1      -6.535  15.660  67.931  1.00  0.00    -0.166 C  
ENDBRANCH  37  38
ENDBRANCH  36  37
ENDBRANCH  35  36
ENDBRANCH  34  35
ENDBRANCH  33  34
ENDBRANCH  32  33
ENDBRANCH  31  32
ENDBRANCH  30  31
ENDBRANCH  29  30
ENDBRANCH  28  29
ENDBRANCH  27  28
ENDBRANCH  26  27
ENDBRANCH  25  26
ENDBRANCH  24  25
ENDBRANCH  23  24
ENDBRANCH  22  23
ENDBRANCH  19  22
ENDBRANCH  18  19
ENDBRANCH  17  18
ENDBRANCH  16  17
ENDBRANCH  15  16
ENDBRANCH  14  15
ENDBRANCH  13  14
ENDBRANCH  12  13
ENDBRANCH  11  12
ENDBRANCH  10  11
ENDBRANCH   9  10
ENDBRANCH   8   9
ENDBRANCH   7   8
ENDBRANCH   6   7
ENDBRANCH   5   6
ENDBRANCH   4   5
ENDBRANCH   3   4
ENDBRANCH   2   3
TORSDOF 34
ENDMDL
MODEL      196
REMARK 921   NORMALIZED FREE ENERGY PREDICTED BY IDOCK:   -1.74 KCAL/MOL
REMARK 922        TOTAL FREE ENERGY PREDICTED BY IDOCK:  -11.52 KCAL/MOL
REMARK 923 INTER-LIGAND FREE ENERGY PREDICTED BY IDOCK:   -6.22 KCAL/MOL
REMARK 924 INTRA-LIGAND FREE ENERGY PREDICTED BY IDOCK:   -5.31 KCAL/MOL
REMARK 927      BINDING AFFINITY PREDICTED BY RF-SCORE:    0.00 PKD
ROOT
HETATM    1  C   UNL     1     -10.397   2.402  73.017  1.00  0.00    -0.230 C  
HETATM    2  C   UNL     1      -9.467   1.570  72.152  1.00  0.00    -0.146 C  
ENDROOT
BRANCH   2   3
HETATM    3  C   UNL     1      -8.105   2.235  72.016  1.00  0.00    -0.053 C  
BRANCH   3   4
HETATM    4  C   UNL     1      -7.352   1.703  70.801  1.00  0.00    -0.033 C  
BRANCH   4   5
HETATM    5  C   UNL     1      -8.303   1.488  69.630  1.00  0.00    -0.068 C  
BRANCH   5   6
HETATM    6  C   UNL     1      -7.631   1.871  68.319  1.00  0.00    -0.053 C  
BRANCH   6   7
HETATM    7  C   UNL     1      -6.119   1.871  68.484  1.00  0.00    -0.024 C  
BRANCH   7   8
HETATM    8  C   UNL     1      -5.474   2.734  67.411  1.00  0.00    -0.017 C  
BRANCH   8   9
HETATM    9  C   UNL     1      -6.524   3.220  66.427  1.00  0.00    -0.036 C  
BRANCH   9  10
HETATM   10  C   UNL     1      -6.344   4.705  66.172  1.00  0.00    -0.036 C  
BRANCH  10  11
HETATM   11  C   UNL     1      -5.433   5.312  67.222  1.00  0.00    -0.012 C  
BRANCH  11  12
HETATM   12  C   UNL     1      -6.256   6.160  68.173  1.00  0.00    -0.029 C  
BRANCH  12  13
HETATM   13  C   UNL     1      -6.210   5.573  69.569  1.00  0.00    -0.029 C  
BRANCH  13  14
HETATM   14  C   UNL     1      -6.728   6.593  70.566  1.00  0.00    -0.057 C  
BRANCH  14  15
HETATM   15  C   UNL     1      -6.700   7.965  69.932  1.00  0.00    -0.037 C  
BRANCH  15  16
HETATM   16  C   UNL     1      -6.024   8.973  70.846  1.00  0.00    -0.046 C  
BRANCH  16  17
HETATM   17  C   UNL     1      -6.594  10.340  70.517  1.00  0.00    -0.094 C  
BRANCH  17  18
HETATM   18  C   UNL     1      -7.704  10.250  69.486  1.00  0.00    -0.165 C  
BRANCH  18  19
HETATM   19  N   UNL     1      -7.554  11.311  68.376  1.00  0.00    -0.112 N  
HETATM   20  C   UNL     1      -7.275  12.688  68.987  1.00  0.00     0.009 C  
HETATM   21  C   UNL     1      -6.422  10.928  67.421  1.00  0.00    -0.065 C  
BRANCH  19  22
HETATM   22  C   UNL     1      -8.908  11.321  67.631  1.00  0.00    -0.138 C  
BRANCH  22  23
HETATM   23  C   UNL     1      -9.051  12.524  66.720  1.00  0.00    -0.214 C  
BRANCH  23  24
HETATM   24  C   UNL     1     -10.283  13.341  67.064  1.00  0.00    -0.244 C  
BRANCH  24  25
HETATM   25  C   UNL     1     -11.228  12.440  67.838  1.00  0.00    -0.316 C  
BRANCH  25  26
HETATM   26  C   UNL     1     -11.982  13.220  68.890  1.00  0.00    -0.336 C  
BRANCH  26  27
HETATM   27  C   UNL     1     -11.812  12.538  70.236  1.00  0.00    -0.305 C  
BRANCH  27  28
HETATM   28  C   UNL     1     -12.502  11.190  70.213  1.00  0.00    -0.354 C  
BRANCH  28  29
HETATM   29  C   UNL     1     -12.194  10.426  71.486  1.00  0.00    -0.418 C  
BRANCH  29  30
HETATM   30  C   UNL     1     -11.139   9.375  71.201  1.00  0.00    -0.432 C  
BRANCH  30  31
HETATM   31  C   UNL     1     -10.840   9.314  69.717  1.00  0.00    -0.239 C  
BRANCH  31  32
HETATM   32  C   UNL     1     -10.405   7.912  69.333  1.00  0.00    -0.220 C  
BRANCH  32  33
HETATM   33  C   UNL     1     -11.373   6.888  69.902  1.00  0.00    -0.321 C  
BRANCH  33  34
HETATM   34  C   UNL     1     -10.630   5.886  70.772  1.00  0.00    -0.330 C  
BRANCH  34  35
HETATM   35  C   UNL     1     -10.104   4.737  69.923  1.00  0.00    -0.299 C  
BRANCH  35  36
HETATM   36  C   UNL     1      -9.468   5.263  68.643  1.00  0.00    -0.169 C  
BRANCH  36  37
HETATM   37  C   UNL     1      -9.794   4.346  67.468  1.00  0.00    -0.180 C  
BRANCH  37  38
HETATM   38  C   UNL     1     -10.149   5.155  66.226  1.00  0.00    -0.259 C  
HETATM   39  C   UNL     1      -9.308   6.417  66.140  1.00  0.00    -0.110 C  
ENDBRANCH  37  38
ENDBRANCH  36  37
ENDBRANCH  35  36
ENDBRANCH  34  35
ENDBRANCH  33  34
ENDBRANCH  32  33
ENDBRANCH  31  32
ENDBRANCH  30  31
ENDBRANCH  29  30
ENDBRANCH  28  29
ENDBRANCH  27  28
ENDBRANCH  26  27
ENDBRANCH  25  26
ENDBRANCH  24  25
ENDBRANCH  23  24
ENDBRANCH  22  23
ENDBRANCH  19  22
ENDBRANCH  18  19
ENDBRANCH  17  18
ENDBRANCH  16  17
ENDBRANCH  15  16
ENDBRANCH  14  15
ENDBRANCH  13  14
ENDBRANCH  12  13
ENDBRANCH  11  12
ENDBRANCH  10  11
ENDBRANCH   9  10
ENDBRANCH   8   9
ENDBRANCH   7   8
ENDBRANCH   6   7
ENDBRANCH   5   6
ENDBRANCH   4   5
ENDBRANCH   3   4
ENDBRANCH   2   3
TORSDOF 34
ENDMDL
MODEL      197
REMARK 921   NORMALIZED FREE ENERGY PREDICTED BY IDOCK:   -1.59 KCAL/MOL
REMARK 922        TOTAL FREE ENERGY PREDICTED BY IDOCK:  -11.08 KCAL/MOL
REMARK 923 INTER-LIGAND FREE ENERGY PREDICTED BY IDOCK:   -7.18 KCAL/MOL
REMARK 924 INTRA-LIGAND FREE ENERGY PREDICTED BY IDOCK:   -3.90 KCAL/MOL
REMARK 927      BINDING AFFINITY PREDICTED BY RF-SCORE:    0.00 PKD
ROOT
HETATM    1  C   UNL     1      -6.007   8.557  64.751  1.00  0.00    -0.063 C  
HETATM    2  C   UNL     1      -7.437   8.075  64.580  1.00  0.00    -0.097 C  
ENDROOT
BRANCH   2   3
HETATM    3  C   UNL     1      -8.428   9.187  64.891  1.00  0.00    -0.191 C  
BRANCH   3   4
HETATM    4  C   UNL     1      -8.310  10.326  63.883  1.00  0.00    -0.165 C  
BRANCH   4   5
HETATM    5  C   UNL     1      -9.627  10.530  63.145  1.00  0.00    -0.375 C  
BRANCH   5   6
HETATM    6  C   UNL     1     -10.658  11.179  64.058  1.00  0.00    -0.436 C  
BRANCH   6   7
HETATM    7  C   UNL     1     -10.049  12.381  64.765  1.00  0.00    -0.260 C  
BRANCH   7   8
HETATM    8  C   UNL     1     -11.146  13.278  65.315  1.00  0.00    -0.306 C  
BRANCH   8   9
HETATM    9  C   UNL     1     -11.480  14.372  64.314  1.00  0.00    -0.226 C  
BRANCH   9  10
HETATM   10  C   UNL     1     -11.170  15.731  64.913  1.00  0.00    -0.358 C  
BRANCH  10  11
HETATM   11  C   UNL     1     -11.287  15.678  66.425  1.00  0.00     0.065 C  
BRANCH  11  12
HETATM   12  C   UNL     1      -9.976  16.120  67.047  1.00  0.00    -0.259 C  
BRANCH  12  13
HETATM   13  C   UNL     1     -10.189  16.503  68.497  1.00  0.00    -0.266 C  
BRANCH  13  14
HETATM   14  C   UNL     1      -9.951  15.294  69.383  1.00  0.00    -0.257 C  
BRANCH  14  15
HETATM   15  C   UNL     1     -11.244  14.523  69.525  1.00  0.00    -0.300 C  
BRANCH  15  16
HETATM   16  C   UNL     1     -11.035  13.051  69.213  1.00  0.00    -0.122 C  
BRANCH  16  17
HETATM   17  C   UNL     1     -12.249  12.299  69.725  1.00  0.00    -0.201 C  
BRANCH  17  18
HETATM   18  C   UNL     1     -11.898  10.879  70.129  1.00  0.00    -0.353 C  
BRANCH  18  19
HETATM   19  N   UNL     1     -12.740  10.390  71.327  1.00  0.00    -0.395 N  
HETATM   20  C   UNL     1     -13.218  11.579  72.165  1.00  0.00    -0.210 C  
HETATM   21  C   UNL     1     -13.944   9.582  70.837  1.00  0.00     0.245 C  
BRANCH  19  22
HETATM   22  C   UNL     1     -11.793   9.495  72.157  1.00  0.00     0.000 C  
BRANCH  22  23
HETATM   23  C   UNL     1     -11.660   8.104  71.571  1.00  0.00    -0.315 C  
BRANCH  23  24
HETATM   24  C   UNL     1     -11.230   7.094  72.620  1.00  0.00    -0.331 C  
BRANCH  24  25
HETATM   25  C   UNL     1      -9.722   6.945  72.518  1.00  0.00    -0.169 C  
BRANCH  25  26
HETATM   26  C   UNL     1      -9.022   7.787  73.559  1.00  0.00    -0.327 C  
BRANCH  26  27
HETATM   27  C   UNL     1      -7.618   8.110  73.080  1.00  0.00    -0.197 C  
BRANCH  27  28
HETATM   28  C   UNL     1      -6.934   6.840  72.621  1.00  0.00    -0.071 C  
BRANCH  28  29
HETATM   29  C   UNL     1      -5.509   7.139  72.198  1.00  0.00    -0.037 C  
BRANCH  29  30
HETATM   30  C   UNL     1      -5.203   6.411  70.904  1.00  0.00    -0.018 C  
BRANCH  30  31
HETATM   31  C   UNL     1      -6.200   6.798  69.830  1.00  0.00    -0.034 C  
BRANCH  31  32
HETATM   32  C   UNL     1      -5.561   6.673  68.460  1.00  0.00    -0.016 C  
BRANCH  32  33
HETATM   33  C   UNL     1      -6.605   6.283  67.427  1.00  0.00    -0.052 C  
BRANCH  33  34
HETATM   34  C   UNL     1      -7.478   5.157  67.960  1.00  0.00    -0.076 C  
BRANCH  34  35
HETATM   35  C   UNL     1      -8.941   5.423  67.632  1.00  0.00    -0.108 C  
BRANCH  35  36
HETATM   36  C   UNL     1      -9.629   6.135  68.790  1.00  0.00    -0.137 C  
BRANCH  36  37
HETATM   37  C   UNL     1     -10.528   7.252  68.270  1.00  0.00    -0.239 C  
BRANCH  37  38
HETATM   38  C   UNL     1      -9.708   8.473  67.871  1.00  0.00    -0.193 C  
HETATM   39  C   UNL     1     -10.606   9.594  67.378  1.00  0.00    -0.333 C  
ENDBRANCH  37  38
ENDBRANCH  36  37
ENDBRANCH  35  36
ENDBRANCH  34  35
ENDBRANCH  33  34
ENDBRANCH  32  33
ENDBRANCH  31  32
ENDBRANCH  30  31
ENDBRANCH  29  30
ENDBRANCH  28  29
ENDBRANCH  27  28
ENDBRANCH  26  27
ENDBRANCH  25  26
ENDBRANCH  24  25
ENDBRANCH  23  24
ENDBRANCH  22  23
ENDBRANCH  19  22
ENDBRANCH  18  19
ENDBRANCH  17  18
ENDBRANCH  16  17
ENDBRANCH  15  16
ENDBRANCH  14  15
ENDBRANCH  13  14
ENDBRANCH  12  13
ENDBRANCH  11  12
ENDBRANCH  10  11
ENDBRANCH   9  10
ENDBRANCH   8   9
ENDBRANCH   7   8
ENDBRANCH   6   7
ENDBRANCH   5   6
ENDBRANCH   4   5
ENDBRANCH   3   4
ENDBRANCH   2   3
TORSDOF 34
ENDMDL
MODEL      198
REMARK 921   NORMALIZED FREE ENERGY PREDICTED BY IDOCK:   -1.55 KCAL/MOL
REMARK 922        TOTAL FREE ENERGY PREDICTED BY IDOCK:  -10.97 KCAL/MOL
REMARK 923 INTER-LIGAND FREE ENERGY PREDICTED BY IDOCK:   -7.34 KCAL/MOL
REMARK 924 INTRA-LIGAND FREE ENERGY PREDICTED BY IDOCK:   -3.63 KCAL/MOL
REMARK 927      BINDING AFFINITY PREDICTED BY RF-SCORE:    0.00 PKD
ROOT
HETATM    1  C   UNL     1      -7.546  10.176  64.543  1.00  0.00    -0.130 C  
HETATM    2  C   UNL     1      -8.368  10.097  65.818  1.00  0.00    -0.147 C  
ENDROOT
BRANCH   2   3
HETATM    3  C   UNL     1      -9.654   9.317  65.591  1.00  0.00    -0.324 C  
BRANCH   3   4
HETATM    4  C   UNL     1      -9.726   8.098  66.506  1.00  0.00    -0.309 C  
BRANCH   4   5
HETATM    5  C   UNL     1      -8.329   7.652  66.919  1.00  0.00    -0.124 C  
BRANCH   5   6
HETATM    6  C   UNL     1      -8.034   6.256  66.387  1.00  0.00    -0.109 C  
BRANCH   6   7
HETATM    7  C   UNL     1      -8.834   5.219  67.162  1.00  0.00    -0.109 C  
BRANCH   7   8
HETATM    8  C   UNL     1      -8.116   4.859  68.452  1.00  0.00    -0.085 C  
BRANCH   8   9
HETATM    9  C   UNL     1      -8.869   5.419  69.647  1.00  0.00    -0.123 C  
BRANCH   9  10
HETATM   10  C   UNL     1     -10.271   4.841  69.690  1.00  0.00    -0.200 C  
BRANCH  10  11
HETATM   11  C   UNL     1     -11.279   5.870  69.213  1.00  0.00    -0.255 C  
BRANCH  11  12
HETATM   12  C   UNL     1     -11.161   7.122  70.060  1.00  0.00    -0.271 C  
BRANCH  12  13
HETATM   13  C   UNL     1     -12.193   7.103  71.169  1.00  0.00    -0.405 C  
BRANCH  13  14
HETATM   14  C   UNL     1     -11.677   7.891  72.358  1.00  0.00    -0.423 C  
BRANCH  14  15
HETATM   15  C   UNL     1     -10.262   8.343  72.076  1.00  0.00    -0.364 C  
BRANCH  15  16
HETATM   16  C   UNL     1      -9.322   7.913  73.189  1.00  0.00    -0.337 C  
BRANCH  16  17
HETATM   17  C   UNL     1      -7.952   7.701  72.573  1.00  0.00    -0.131 C  
BRANCH  17  18
HETATM   18  C   UNL     1      -7.743   8.586  71.359  1.00  0.00    -0.109 C  
BRANCH  18  19
HETATM   19  N   UNL     1      -6.253   8.701  70.972  1.00  0.00    -0.038 N  
HETATM   20  C   UNL     1      -5.368   8.117  72.077  1.00  0.00    -0.035 C  
HETATM   21  C   UNL     1      -5.987   7.973  69.653  1.00  0.00    -0.029 C  
BRANCH  19  22
HETATM   22  C   UNL     1      -5.984  10.215  70.815  1.00  0.00    -0.093 C  
BRANCH  22  23
HETATM   23  C   UNL     1      -6.906  10.857  69.798  1.00  0.00    -0.134 C  
BRANCH  23  24
HETATM   24  C   UNL     1      -6.583  12.327  69.600  1.00  0.00    -0.020 C  
BRANCH  24  25
HETATM   25  C   UNL     1      -5.438  12.672  70.535  1.00  0.00    -0.161 C  
BRANCH  25  26
HETATM   26  C   UNL     1      -5.658  14.018  71.187  1.00  0.00    -0.212 C  
BRANCH  26  27
HETATM   27  C   UNL     1      -6.324  14.952  70.193  1.00  0.00    -0.162 C  
BRANCH  27  28
HETATM   28  C   UNL     1      -5.368  16.067  69.824  1.00  0.00    -0.127 C  
BRANCH  28  29
HETATM   29  C   UNL     1      -5.764  16.673  68.492  1.00  0.00    -0.121 C  
BRANCH  29  30
HETATM   30  C   UNL     1      -6.451  15.621  67.643  1.00  0.00    -0.191 C  
BRANCH  30  31
HETATM   31  C   UNL     1      -7.209  16.272  66.503  1.00  0.00    -0.049 C  
BRANCH  31  32
HETATM   32  C   UNL     1      -8.564  15.611  66.338  1.00  0.00    -0.319 C  
BRANCH  32  33
HETATM   33  C   UNL     1      -8.916  14.817  67.584  1.00  0.00    -0.183 C  
BRANCH  33  34
HETATM   34  C   UNL     1      -9.687  15.688  68.564  1.00  0.00    -0.202 C  
BRANCH  34  35
HETATM   35  C   UNL     1      -9.528  17.158  68.202  1.00  0.00    -0.269 C  
BRANCH  35  36
HETATM   36  C   UNL     1     -10.861  17.885  68.311  1.00  0.00    -0.127 C  
BRANCH  36  37
HETATM   37  C   UNL     1     -10.849  19.152  67.462  1.00  0.00    -0.512 C  
BRANCH  37  38
HETATM   38  C   UNL     1      -9.843  20.162  68.001  1.00  0.00    -0.498 C  
HETATM   39  C   UNL     1      -9.870  20.198  69.520  1.00  0.00     0.097 C  
ENDBRANCH  37  38
ENDBRANCH  36  37
ENDBRANCH  35  36
ENDBRANCH  34  35
ENDBRANCH  33  34
ENDBRANCH  32  33
ENDBRANCH  31  32
ENDBRANCH  30  31
ENDBRANCH  29  30
ENDBRANCH  28  29
ENDBRANCH  27  28
ENDBRANCH  26  27
ENDBRANCH  25  26
ENDBRANCH  24  25
ENDBRANCH  23  24
ENDBRANCH  22  23
ENDBRANCH  19  22
ENDBRANCH  18  19
ENDBRANCH  17  18
ENDBRANCH  16  17
ENDBRANCH  15  16
ENDBRANCH  14  15
ENDBRANCH  13  14
ENDBRANCH  12  13
ENDBRANCH  11  12
ENDBRANCH  10  11
ENDBRANCH   9  10
ENDBRANCH   8   9
ENDBRANCH   7   8
ENDBRANCH   6   7
ENDBRANCH   5   6
ENDBRANCH   4   5
ENDBRANCH   3   4
ENDBRANCH   2   3
TORSDOF 34
ENDMDL
MODEL      199
REMARK 921   NORMALIZED FREE ENERGY PREDICTED BY IDOCK:   -1.54 KCAL/MOL
REMARK 922        TOTAL FREE ENERGY PREDICTED BY IDOCK:  -10.92 KCAL/MOL
REMARK 923 INTER-LIGAND FREE ENERGY PREDICTED BY IDOCK:   -7.17 KCAL/MOL
REMARK 924 INTRA-LIGAND FREE ENERGY PREDICTED BY IDOCK:   -3.75 KCAL/MOL
REMARK 927      BINDING AFFINITY PREDICTED BY RF-SCORE:    0.00 PKD
ROOT
HETATM    1  C   UNL     1      -6.431   1.874  65.214  1.00  0.00    -0.023 C  
HETATM    2  C   UNL     1      -7.479   1.518  66.253  1.00  0.00    -0.060 C  
ENDROOT
BRANCH   2   3
HETATM    3  C   UNL     1      -7.494   2.534  67.385  1.00  0.00    -0.061 C  
BRANCH   3   4
HETATM    4  C   UNL     1      -8.379   3.729  67.040  1.00  0.00    -0.099 C  
BRANCH   4   5
HETATM    5  C   UNL     1      -9.714   3.263  66.473  1.00  0.00     0.077 C  
BRANCH   5   6
HETATM    6  C   UNL     1     -10.075   4.063  65.230  1.00  0.00    -0.174 C  
BRANCH   6   7
HETATM    7  C   UNL     1      -9.085   3.773  64.112  1.00  0.00    -0.128 C  
BRANCH   7   8
HETATM    8  C   UNL     1      -9.578   4.371  62.804  1.00  0.00    -0.088 C  
BRANCH   8   9
HETATM    9  C   UNL     1      -8.636   5.469  62.341  1.00  0.00    -0.068 C  
BRANCH   9  10
HETATM   10  C   UNL     1      -7.268   5.274  62.967  1.00  0.00    -0.043 C  
BRANCH  10  11
HETATM   11  C   UNL     1      -6.679   6.613  63.370  1.00  0.00    -0.048 C  
BRANCH  11  12
HETATM   12  C   UNL     1      -7.613   7.302  64.347  1.00  0.00    -0.111 C  
BRANCH  12  13
HETATM   13  C   UNL     1      -7.556   6.616  65.696  1.00  0.00    -0.086 C  
BRANCH  13  14
HETATM   14  C   UNL     1      -8.062   7.562  66.769  1.00  0.00    -0.123 C  
BRANCH  14  15
HETATM   15  C   UNL     1      -6.956   8.523  67.143  1.00  0.00    -0.075 C  
BRANCH  15  16
HETATM   16  C   UNL     1      -6.940   8.776  68.641  1.00  0.00    -0.064 C  
BRANCH  16  17
HETATM   17  C   UNL     1      -8.014   7.904  69.264  1.00  0.00    -0.117 C  
BRANCH  17  18
HETATM   18  C   UNL     1      -7.433   6.951  70.292  1.00  0.00    -0.086 C  
BRANCH  18  19
HETATM   19  N   UNL     1      -8.039   7.169  71.694  1.00  0.00    -0.102 N  
HETATM   20  C   UNL     1      -7.615   6.041  72.640  1.00  0.00    -0.099 C  
HETATM   21  C   UNL     1      -7.595   8.518  72.263  1.00  0.00    -0.058 C  
BRANCH  19  22
HETATM   22  C   UNL     1      -9.570   7.148  71.489  1.00  0.00    -0.157 C  
BRANCH  22  23
HETATM   23  C   UNL     1     -10.254   6.133  72.383  1.00  0.00    -0.212 C  
BRANCH  23  24
HETATM   24  C   UNL     1     -11.637   5.778  71.869  1.00  0.00    -0.184 C  
BRANCH  24  25
HETATM   25  C   UNL     1     -12.248   7.042  71.290  1.00  0.00    -0.419 C  
BRANCH  25  26
HETATM   26  C   UNL     1     -13.409   7.518  72.132  1.00  0.00    -0.083 C  
BRANCH  26  27
HETATM   27  C   UNL     1     -13.199   8.978  72.493  1.00  0.00    -0.467 C  
BRANCH  27  28
HETATM   28  C   UNL     1     -13.624   9.855  71.334  1.00  0.00    -0.297 C  
BRANCH  28  29
HETATM   29  C   UNL     1     -12.642  10.996  71.156  1.00  0.00    -0.522 C  
BRANCH  29  30
HETATM   30  C   UNL     1     -11.853  10.788  69.878  1.00  0.00    -0.413 C  
BRANCH  30  31
HETATM   31  C   UNL     1     -12.109  11.924  68.907  1.00  0.00    -0.213 C  
BRANCH  31  32
HETATM   32  C   UNL     1     -11.637  13.235  69.508  1.00  0.00    -0.349 C  
BRANCH  32  33
HETATM   33  C   UNL     1     -12.019  14.394  68.602  1.00  0.00    -0.332 C  
BRANCH  33  34
HETATM   34  C   UNL     1     -10.770  15.093  68.087  1.00  0.00    -0.254 C  
BRANCH  34  35
HETATM   35  C   UNL     1      -9.784  14.073  67.534  1.00  0.00    -0.232 C  
BRANCH  35  36
HETATM   36  C   UNL     1      -9.878  14.004  66.015  1.00  0.00    -0.316 C  
BRANCH  36  37
HETATM   37  C   UNL     1     -10.678  12.779  65.585  1.00  0.00    -0.297 C  
BRANCH  37  38
HETATM   38  C   UNL     1     -10.219  12.277  64.221  1.00  0.00    -0.356 C  
HETATM   39  C   UNL     1     -10.068  10.766  64.219  1.00  0.00    -0.427 C  
ENDBRANCH  37  38
ENDBRANCH  36  37
ENDBRANCH  35  36
ENDBRANCH  34  35
ENDBRANCH  33  34
ENDBRANCH  32  33
ENDBRANCH  31  32
ENDBRANCH  30  31
ENDBRANCH  29  30
ENDBRANCH  28  29
ENDBRANCH  27  28
ENDBRANCH  26  27
ENDBRANCH  25  26
ENDBRANCH  24  25
ENDBRANCH  23  24
ENDBRANCH  22  23
ENDBRANCH  19  22
ENDBRANCH  18  19
ENDBRANCH  17  18
ENDBRANCH  16  17
ENDBRANCH  15  16
ENDBRANCH  14  15
ENDBRANCH  13  14
ENDBRANCH  12  13
ENDBRANCH  11  12
ENDBRANCH  10  11
ENDBRANCH   9  10
ENDBRANCH   8   9
ENDBRANCH   7   8
ENDBRANCH   6   7
ENDBRANCH   5   6
ENDBRANCH   4   5
ENDBRANCH   3   4
ENDBRANCH   2   3
TORSDOF 34
ENDMDL
MODEL      200
REMARK 921   NORMALIZED FREE ENERGY PREDICTED BY IDOCK:   -1.53 KCAL/MOL
REMARK 922        TOTAL FREE ENERGY PREDICTED BY IDOCK:  -10.89 KCAL/MOL
REMARK 923 INTER-LIGAND FREE ENERGY PREDICTED BY IDOCK:   -7.41 KCAL/MOL
REMARK 924 INTRA-LIGAND FREE ENERGY PREDICTED BY IDOCK:   -3.48 KCAL/MOL
REMARK 927      BINDING AFFINITY PREDICTED BY RF-SCORE:    0.00 PKD
ROOT
HETATM    1  C   UNL     1      -6.980  13.310  68.687  1.00  0.00    -0.101 C  
HETATM    2  C   UNL     1      -7.982  12.273  68.213  1.00  0.00    -0.163 C  
ENDROOT
BRANCH   2   3
HETATM    3  C   UNL     1      -9.387  12.855  68.158  1.00  0.00    -0.214 C  
BRANCH   3   4
HETATM    4  C   UNL     1      -9.346  14.369  67.962  1.00  0.00    -0.200 C  
BRANCH   4   5
HETATM    5  C   UNL     1      -8.686  14.722  66.635  1.00  0.00    -0.229 C  
BRANCH   5   6
HETATM    6  C   UNL     1      -8.924  16.186  66.292  1.00  0.00    -0.379 C  
BRANCH   6   7
HETATM    7  C   UNL     1     -10.164  16.698  67.011  1.00  0.00    -0.290 C  
BRANCH   7   8
HETATM    8  C   UNL     1     -11.372  16.622  66.092  1.00  0.00     0.660 C  
BRANCH   8   9
HETATM    9  C   UNL     1     -10.973  16.041  64.746  1.00  0.00    -0.373 C  
BRANCH   9  10
HETATM   10  C   UNL     1     -11.959  14.963  64.337  1.00  0.00    -0.408 C  
BRANCH  10  11
HETATM   11  C   UNL     1     -11.870  13.782  65.285  1.00  0.00    -0.365 C  
BRANCH  11  12
HETATM   12  C   UNL     1     -12.650  12.615  64.711  1.00  0.00    -0.530 C  
BRANCH  12  13
HETATM   13  C   UNL     1     -11.865  11.961  63.593  1.00  0.00    -0.573 C  
BRANCH  13  14
HETATM   14  C   UNL     1     -10.484  11.583  64.095  1.00  0.00    -0.408 C  
BRANCH  14  15
HETATM   15  C   UNL     1      -9.900  10.525  63.187  1.00  0.00    -0.295 C  
BRANCH  15  16
HETATM   16  C   UNL     1      -8.685  11.057  62.445  1.00  0.00    -0.356 C  
BRANCH  16  17
HETATM   17  C   UNL     1      -7.517  10.144  62.768  1.00  0.00    -0.141 C  
BRANCH  17  18
HETATM   18  C   UNL     1      -7.964   8.704  62.939  1.00  0.00    -0.163 C  
BRANCH  18  19
HETATM   19  N   UNL     1      -6.835   7.805  63.484  1.00  0.00    -0.062 N  
HETATM   20  C   UNL     1      -7.414   6.697  64.369  1.00  0.00    -0.095 C  
HETATM   21  C   UNL     1      -6.042   7.186  62.330  1.00  0.00    -0.049 C  
BRANCH  19  22
HETATM   22  C   UNL     1      -5.930   8.740  64.318  1.00  0.00    -0.066 C  
BRANCH  22  23
HETATM   23  C   UNL     1      -6.451   8.931  65.728  1.00  0.00    -0.060 C  
BRANCH  23  24
HETATM   24  C   UNL     1      -5.596   8.197  66.745  1.00  0.00    -0.033 C  
BRANCH  24  25
HETATM   25  C   UNL     1      -6.258   8.360  68.101  1.00  0.00    -0.051 C  
BRANCH  25  26
HETATM   26  C   UNL     1      -5.664   9.525  68.859  1.00  0.00    -0.036 C  
BRANCH  26  27
HETATM   27  C   UNL     1      -5.868   9.309  70.348  1.00  0.00    -0.038 C  
BRANCH  27  28
HETATM   28  C   UNL     1      -7.228   9.835  70.755  1.00  0.00    -0.018 C  
BRANCH  28  29
HETATM   29  C   UNL     1      -8.123   8.689  71.185  1.00  0.00    -0.176 C  
BRANCH  29  30
HETATM   30  C   UNL     1      -9.554   9.178  71.288  1.00  0.00    -0.331 C  
BRANCH  30  31
HETATM   31  C   UNL     1     -10.435   8.110  71.906  1.00  0.00    -0.312 C  
BRANCH  31  32
HETATM   32  C   UNL     1     -11.752   8.028  71.158  1.00  0.00    -0.307 C  
BRANCH  32  33
HETATM   33  C   UNL     1     -11.898   6.667  70.499  1.00  0.00    -0.430 C  
BRANCH  33  34
HETATM   34  C   UNL     1     -11.102   6.620  69.203  1.00  0.00    -0.332 C  
BRANCH  34  35
HETATM   35  C   UNL     1     -10.299   5.330  69.123  1.00  0.00    -0.264 C  
BRANCH  35  36
HETATM   36  C   UNL     1      -8.805   5.627  69.105  1.00  0.00    -0.111 C  
BRANCH  36  37
HETATM   37  C   UNL     1      -8.006   4.365  69.412  1.00  0.00    -0.061 C  
BRANCH  37  38
HETATM   38  C   UNL     1      -6.739   4.696  70.191  1.00  0.00    -0.037 C  
HETATM   39  C   UNL     1      -5.509   4.576  69.307  1.00  0.00    -0.012 C  
ENDBRANCH  37  38
ENDBRANCH  36  37
ENDBRANCH  35  36
ENDBRANCH  34  35
ENDBRANCH  33  34
ENDBRANCH  32  33
ENDBRANCH  31  32
ENDBRANCH  30  31
ENDBRANCH  29  30
ENDBRANCH  28  29
ENDBRANCH  27  28
ENDBRANCH  26  27
ENDBRANCH  25  26
ENDBRANCH  24  25
ENDBRANCH  23  24
ENDBRANCH  22  23
ENDBRANCH  19  22
ENDBRANCH  18  19
ENDBRANCH  17  18
ENDBRANCH  16  17
ENDBRANCH  15  16
ENDBRANCH  14  15
ENDBRANCH  13  14
ENDBRANCH  12  13
ENDBRANCH  11  12
ENDBRANCH  10  11
ENDBRANCH   9  10
ENDBRANCH   8   9
ENDBRANCH   7   8
ENDBRANCH   6   7
ENDBRANCH   5   6
ENDBRANCH   4   5
ENDBRANCH   3   4
ENDBRANCH   2   3
TORSDOF 34
ENDMDL
MODEL      201
REMARK 921   NORMALIZED FREE ENERGY PREDICTED BY IDOCK:   -1.34 KCAL/MOL
REMARK 922        TOTAL FREE ENERGY PREDICTED BY IDOCK:  -10.34 KCAL/MOL
REMARK 923 INTER-LIGAND FREE ENERGY PREDICTED BY IDOCK:   -7.79 KCAL/MOL
REMARK 924 INTRA-LIGAND FREE ENERGY PREDICTED BY IDOCK:   -2.54 KCAL/MOL
REMARK 927      BINDING AFFINITY PREDICTED BY RF-SCORE:    0.00 PKD
ROOT
HETATM    1  C   UNL     1      -7.393  10.899  66.499  1.00  0.00    -0.142 C  
HETATM    2  C   UNL     1      -7.612   9.482  66.997  1.00  0.00    -0.091 C  
ENDROOT
BRANCH   2   3
HETATM    3  C   UNL     1      -7.556   8.484  65.850  1.00  0.00    -0.085 C  
BRANCH   3   4
HETATM    4  C   UNL     1      -8.799   7.600  65.829  1.00  0.00    -0.134 C  
BRANCH   4   5
HETATM    5  C   UNL     1      -8.433   6.150  66.120  1.00  0.00    -0.137 C  
BRANCH   5   6
HETATM    6  C   UNL     1      -7.525   6.062  67.339  1.00  0.00    -0.081 C  
BRANCH   6   7
HETATM    7  C   UNL     1      -8.264   5.411  68.498  1.00  0.00    -0.094 C  
BRANCH   7   8
HETATM    8  C   UNL     1      -8.362   3.909  68.281  1.00  0.00    -0.101 C  
BRANCH   8   9
HETATM    9  C   UNL     1      -8.363   3.185  69.617  1.00  0.00    -0.085 C  
BRANCH   9  10
HETATM   10  C   UNL     1      -9.682   3.418  70.329  1.00  0.00    -0.140 C  
BRANCH  10  11
HETATM   11  C   UNL     1      -9.713   2.655  71.641  1.00  0.00    -0.226 C  
BRANCH  11  12
HETATM   12  C   UNL     1     -10.077   3.603  72.767  1.00  0.00    -0.226 C  
BRANCH  12  13
HETATM   13  C   UNL     1      -9.631   5.010  72.430  1.00  0.00    -0.178 C  
BRANCH  13  14
HETATM   14  C   UNL     1      -8.957   5.633  73.639  1.00  0.00    -0.124 C  
BRANCH  14  15
HETATM   15  C   UNL     1      -9.863   6.697  74.217  1.00  0.00    -0.353 C  
BRANCH  15  16
HETATM   16  C   UNL     1     -10.614   7.428  73.117  1.00  0.00    -0.424 C  
BRANCH  16  17
HETATM   17  C   UNL     1      -9.847   8.700  72.808  1.00  0.00    -0.087 C  
BRANCH  17  18
HETATM   18  C   UNL     1      -9.505   8.802  71.334  1.00  0.00    -0.259 C  
BRANCH  18  19
HETATM   19  N   UNL     1     -10.720   9.230  70.483  1.00  0.00    -0.237 N  
HETATM   20  C   UNL     1     -11.588   8.015  70.143  1.00  0.00     0.086 C  
HETATM   21  C   UNL     1     -11.555  10.271  71.231  1.00  0.00    -0.235 C  
BRANCH  19  22
HETATM   22  C   UNL     1     -10.126   9.841  69.194  1.00  0.00    -0.192 C  
BRANCH  22  23
HETATM   23  C   UNL     1     -11.161  10.607  68.394  1.00  0.00    -0.328 C  
BRANCH  23  24
HETATM   24  C   UNL     1     -11.103  12.095  68.685  1.00  0.00    -0.297 C  
BRANCH  24  25
HETATM   25  C   UNL     1     -10.579  12.784  67.437  1.00  0.00    -0.241 C  
BRANCH  25  26
HETATM   26  C   UNL     1     -10.448  14.274  67.655  1.00  0.00    -0.248 C  
BRANCH  26  27
HETATM   27  C   UNL     1      -9.700  14.526  68.952  1.00  0.00    -0.169 C  
BRANCH  27  28
HETATM   28  C   UNL     1      -8.256  14.094  68.798  1.00  0.00    -0.074 C  
BRANCH  28  29
HETATM   29  C   UNL     1      -7.792  14.327  67.373  1.00  0.00    -0.207 C  
BRANCH  29  30
HETATM   30  C   UNL     1      -6.717  15.396  67.361  1.00  0.00    -0.178 C  
BRANCH  30  31
HETATM   31  C   UNL     1      -5.823  15.261  68.577  1.00  0.00    -0.097 C  
BRANCH  31  32
HETATM   32  C   UNL     1      -5.700  16.600  69.280  1.00  0.00    -0.153 C  
BRANCH  32  33
HETATM   33  C   UNL     1      -6.586  17.632  68.603  1.00  0.00    -0.209 C  
BRANCH  33  34
HETATM   34  C   UNL     1      -6.134  19.037  68.969  1.00  0.00    -0.261 C  
BRANCH  34  35
HETATM   35  C   UNL     1      -7.314  19.998  68.932  1.00  0.00    -0.188 C  
BRANCH  35  36
HETATM   36  C   UNL     1      -8.595  19.261  68.563  1.00  0.00    -0.400 C  
BRANCH  36  37
HETATM   37  C   UNL     1      -9.108  19.728  67.205  1.00  0.00    -0.418 C  
BRANCH  37  38
HETATM   38  C   UNL     1     -10.250  18.843  66.718  1.00  0.00    -0.451 C  
HETATM   39  C   UNL     1     -10.746  17.935  67.830  1.00  0.00    -0.328 C  
ENDBRANCH  37  38
ENDBRANCH  36  37
ENDBRANCH  35  36
ENDBRANCH  34  35
ENDBRANCH  33  34
ENDBRANCH  32  33
ENDBRANCH  31  32
ENDBRANCH  30  31
ENDBRANCH  29  30
ENDBRANCH  28  29
ENDBRANCH  27  28
ENDBRANCH  26  27
ENDBRANCH  25  26
ENDBRANCH  24  25
ENDBRANCH  23  24
ENDBRANCH  22  23
ENDBRANCH  19  22
ENDBRANCH  18  19
ENDBRANCH  17  18
ENDBRANCH  16  17
ENDBRANCH  15  16
ENDBRANCH  14  15
ENDBRANCH  13  14
ENDBRANCH  12  13
ENDBRANCH  11  12
ENDBRANCH  10  11
ENDBRANCH   9  10
ENDBRANCH   8   9
ENDBRANCH   7   8
ENDBRANCH   6   7
ENDBRANCH   5   6
ENDBRANCH   4   5
ENDBRANCH   3   4
ENDBRANCH   2   3
TORSDOF 34
ENDMDL
MODEL      202
REMARK 921   NORMALIZED FREE ENERGY PREDICTED BY IDOCK:   -1.30 KCAL/MOL
REMARK 922        TOTAL FREE ENERGY PREDICTED BY IDOCK:  -10.21 KCAL/MOL
REMARK 923 INTER-LIGAND FREE ENERGY PREDICTED BY IDOCK:   -6.27 KCAL/MOL
REMARK 924 INTRA-LIGAND FREE ENERGY PREDICTED BY IDOCK:   -3.95 KCAL/MOL
REMARK 927      BINDING AFFINITY PREDICTED BY RF-SCORE:    0.00 PKD
ROOT
HETATM    1  C   UNL     1      -7.878   3.408  67.398  1.00  0.00    -0.078 C  
HETATM    2  C   UNL     1      -8.590   4.063  66.228  1.00  0.00    -0.110 C  
ENDROOT
BRANCH   2   3
HETATM    3  C   UNL     1      -8.066   3.529  64.903  1.00  0.00    -0.090 C  
BRANCH   3   4
HETATM    4  C   UNL     1      -6.612   3.082  65.026  1.00  0.00    -0.039 C  
BRANCH   4   5
HETATM    5  C   UNL     1      -5.701   3.979  64.199  1.00  0.00    -0.014 C  
BRANCH   5   6
HETATM    6  C   UNL     1      -6.099   5.439  64.360  1.00  0.00    -0.022 C  
BRANCH   6   7
HETATM    7  C   UNL     1      -5.241   6.104  65.426  1.00  0.00    -0.013 C  
BRANCH   7   8
HETATM    8  C   UNL     1      -6.116   6.881  66.396  1.00  0.00    -0.034 C  
BRANCH   8   9
HETATM    9  C   UNL     1      -6.150   8.350  66.011  1.00  0.00    -0.045 C  
BRANCH   9  10
HETATM   10  C   UNL     1      -7.508   8.940  66.343  1.00  0.00    -0.088 C  
BRANCH  10  11
HETATM   11  C   UNL     1      -8.478   8.702  65.201  1.00  0.00    -0.197 C  
BRANCH  11  12
HETATM   12  C   UNL     1      -7.708   8.605  63.898  1.00  0.00    -0.135 C  
BRANCH  12  13
HETATM   13  C   UNL     1      -8.383   9.438  62.829  1.00  0.00    -0.181 C  
BRANCH  13  14
HETATM   14  C   UNL     1      -9.599  10.131  63.416  1.00  0.00    -0.236 C  
BRANCH  14  15
HETATM   15  C   UNL     1      -9.591  11.584  62.998  1.00  0.00    -0.371 C  
BRANCH  15  16
HETATM   16  C   UNL     1     -10.700  12.356  63.692  1.00  0.00    -0.497 C  
BRANCH  16  17
HETATM   17  C   UNL     1     -10.949  11.691  65.033  1.00  0.00    -0.334 C  
BRANCH  17  18
HETATM   18  C   UNL     1     -10.344  12.491  66.172  1.00  0.00    -0.253 C  
BRANCH  18  19
HETATM   19  N   UNL     1     -11.112  13.803  66.434  1.00  0.00    -0.305 N  
HETATM   20  C   UNL     1     -10.725  14.864  65.399  1.00  0.00    -0.377 C  
HETATM   21  C   UNL     1     -12.622  13.556  66.385  1.00  0.00    -0.186 C  
BRANCH  19  22
HETATM   22  C   UNL     1     -10.687  14.254  67.849  1.00  0.00    -0.240 C  
BRANCH  22  23
HETATM   23  C   UNL     1      -9.278  14.813  67.872  1.00  0.00    -0.191 C  
BRANCH  23  24
HETATM   24  C   UNL     1      -8.295  13.826  68.475  1.00  0.00    -0.120 C  
BRANCH  24  25
HETATM   25  C   UNL     1      -7.311  13.439  67.385  1.00  0.00    -0.124 C  
BRANCH  25  26
HETATM   26  C   UNL     1      -5.976  14.116  67.595  1.00  0.00    -0.044 C  
BRANCH  26  27
HETATM   27  C   UNL     1      -5.218  13.398  68.697  1.00  0.00    -0.072 C  
BRANCH  27  28
HETATM   28  C   UNL     1      -5.406  11.902  68.552  1.00  0.00    -0.052 C  
BRANCH  28  29
HETATM   29  C   UNL     1      -5.757  11.288  69.892  1.00  0.00    -0.092 C  
BRANCH  29  30
HETATM   30  C   UNL     1      -5.728   9.777  69.779  1.00  0.00    -0.037 C  
BRANCH  30  31
HETATM   31  C   UNL     1      -7.085   9.193  70.121  1.00  0.00    -0.059 C  
BRANCH  31  32
HETATM   32  C   UNL     1      -7.076   7.693  69.894  1.00  0.00    -0.063 C  
BRANCH  32  33
HETATM   33  C   UNL     1      -8.442   7.107  70.209  1.00  0.00    -0.138 C  
BRANCH  33  34
HETATM   34  C   UNL     1      -9.167   6.740  68.924  1.00  0.00    -0.131 C  
BRANCH  34  35
HETATM   35  C   UNL     1     -10.300   5.765  69.217  1.00  0.00    -0.326 C  
BRANCH  35  36
HETATM   36  C   UNL     1      -9.966   4.902  70.427  1.00  0.00    -0.316 C  
BRANCH  36  37
HETATM   37  C   UNL     1     -10.866   5.262  71.604  1.00  0.00    -0.181 C  
BRANCH  37  38
HETATM   38  C   UNL     1     -10.383   4.591  72.885  1.00  0.00    -0.243 C  
HETATM   39  C   UNL     1     -10.256   3.089  72.699  1.00  0.00    -0.231 C  
ENDBRANCH  37  38
ENDBRANCH  36  37
ENDBRANCH  35  36
ENDBRANCH  34  35
ENDBRANCH  33  34
ENDBRANCH  32  33
ENDBRANCH  31  32
ENDBRANCH  30  31
ENDBRANCH  29  30
ENDBRANCH  28  29
ENDBRANCH  27  28
ENDBRANCH  26  27
ENDBRANCH  25  26
ENDBRANCH  24  25
ENDBRANCH  23  24
ENDBRANCH  22  23
ENDBRANCH  19  22
ENDBRANCH  18  19
ENDBRANCH  17  18
ENDBRANCH  16  17
ENDBRANCH  15  16
ENDBRANCH  14  15
ENDBRANCH  13  14
ENDBRANCH  12  13
ENDBRANCH  11  12
ENDBRANCH  10  11
ENDBRANCH   9  10
ENDBRANCH   8   9
ENDBRANCH   7   8
ENDBRANCH   6   7
ENDBRANCH   5   6
ENDBRANCH   4   5
ENDBRANCH   3   4
ENDBRANCH   2   3
TORSDOF 34
ENDMDL
MODEL      203
REMARK 921   NORMALIZED FREE ENERGY PREDICTED BY IDOCK:   -1.23 KCAL/MOL
REMARK 922        TOTAL FREE ENERGY PREDICTED BY IDOCK:  -10.00 KCAL/MOL
REMARK 923 INTER-LIGAND FREE ENERGY PREDICTED BY IDOCK:   -6.94 KCAL/MOL
REMARK 924 INTRA-LIGAND FREE ENERGY PREDICTED BY IDOCK:   -3.06 KCAL/MOL
REMARK 927      BINDING AFFINITY PREDICTED BY RF-SCORE:    0.00 PKD
ROOT
HETATM    1  C   UNL     1      -6.376  15.051  67.221  1.00  0.00     0.198 C  
HETATM    2  C   UNL     1      -5.166  15.461  68.040  1.00  0.00    -0.134 C  
ENDROOT
BRANCH   2   3
HETATM    3  C   UNL     1      -5.558  16.426  69.149  1.00  0.00    -0.124 C  
BRANCH   3   4
HETATM    4  C   UNL     1      -5.962  17.783  68.579  1.00  0.00    -0.178 C  
BRANCH   4   5
HETATM    5  C   UNL     1      -7.430  18.071  68.865  1.00  0.00    -0.235 C  
BRANCH   5   6
HETATM    6  C   UNL     1      -7.609  19.502  69.352  1.00  0.00    -0.145 C  
BRANCH   6   7
HETATM    7  C   UNL     1      -8.786  20.155  68.641  1.00  0.00     0.114 C  
BRANCH   7   8
HETATM    8  C   UNL     1      -8.395  20.540  67.223  1.00  0.00    -0.355 C  
BRANCH   8   9
HETATM    9  C   UNL     1      -9.251  19.786  66.220  1.00  0.00    -0.461 C  
BRANCH   9  10
HETATM   10  C   UNL     1     -10.650  19.595  66.776  1.00  0.00    -0.602 C  
BRANCH  10  11
HETATM   11  C   UNL     1     -10.996  18.118  66.830  1.00  0.00     0.057 C  
BRANCH  11  12
HETATM   12  C   UNL     1      -9.973  17.331  66.036  1.00  0.00    -0.249 C  
BRANCH  12  13
HETATM   13  C   UNL     1      -9.820  15.940  66.614  1.00  0.00    -0.267 C  
BRANCH  13  14
HETATM   14  C   UNL     1     -11.147  15.208  66.539  1.00  0.00    -0.305 C  
BRANCH  14  15
HETATM   15  C   UNL     1     -11.324  14.644  65.147  1.00  0.00    -0.375 C  
BRANCH  15  16
HETATM   16  C   UNL     1     -11.501  13.136  65.191  1.00  0.00    -0.327 C  
BRANCH  16  17
HETATM   17  C   UNL     1     -10.383  12.569  66.046  1.00  0.00    -0.277 C  
BRANCH  17  18
HETATM   18  C   UNL     1     -10.604  11.100  66.352  1.00  0.00    -0.261 C  
BRANCH  18  19
HETATM   19  N   UNL     1      -9.474  10.212  65.789  1.00  0.00    -0.192 N  
HETATM   20  C   UNL     1      -9.597   8.785  66.331  1.00  0.00    -0.249 C  
HETATM   21  C   UNL     1      -9.523  10.193  64.260  1.00  0.00    -0.305 C  
BRANCH  19  22
HETATM   22  C   UNL     1      -8.160  10.860  66.278  1.00  0.00    -0.165 C  
BRANCH  22  23
HETATM   23  C   UNL     1      -6.941  10.047  65.887  1.00  0.00    -0.113 C  
BRANCH  23  24
HETATM   24  C   UNL     1      -6.299   9.387  67.094  1.00  0.00    -0.066 C  
BRANCH  24  25
HETATM   25  C   UNL     1      -5.451   8.235  66.586  1.00  0.00    -0.032 C  
BRANCH  25  26
HETATM   26  C   UNL     1      -5.642   7.002  67.440  1.00  0.00    -0.024 C  
BRANCH  26  27
HETATM   27  C   UNL     1      -6.997   7.072  68.121  1.00  0.00    -0.080 C  
BRANCH  27  28
HETATM   28  C   UNL     1      -7.783   5.813  67.820  1.00  0.00    -0.097 C  
BRANCH  28  29
HETATM   29  C   UNL     1      -6.909   4.592  68.028  1.00  0.00    -0.055 C  
BRANCH  29  30
HETATM   30  C   UNL     1      -7.517   3.713  69.103  1.00  0.00    -0.053 C  
BRANCH  30  31
HETATM   31  C   UNL     1      -6.861   3.983  70.442  1.00  0.00    -0.033 C  
BRANCH  31  32
HETATM   32  C   UNL     1      -7.444   3.065  71.500  1.00  0.00    -0.040 C  
BRANCH  32  33
HETATM   33  C   UNL     1      -7.315   3.700  72.874  1.00  0.00    -0.059 C  
BRANCH  33  34
HETATM   34  C   UNL     1      -7.087   5.198  72.744  1.00  0.00    -0.087 C  
BRANCH  34  35
HETATM   35  C   UNL     1      -8.092   5.961  73.595  1.00  0.00    -0.110 C  
BRANCH  35  36
HETATM   36  C   UNL     1      -9.077   6.719  72.715  1.00  0.00    -0.148 C  
BRANCH  36  37
HETATM   37  C   UNL     1     -10.120   7.431  73.571  1.00  0.00    -0.390 C  
BRANCH  37  38
HETATM   38  C   UNL     1     -11.428   7.601  72.808  1.00  0.00    -0.384 C  
HETATM   39  C   UNL     1     -11.434   6.760  71.543  1.00  0.00    -0.329 C  
ENDBRANCH  37  38
ENDBRANCH  36  37
ENDBRANCH  35  36
ENDBRANCH  34  35
ENDBRANCH  33  34
ENDBRANCH  32  33
ENDBRANCH  31  32
ENDBRANCH  30  31
ENDBRANCH  29  30
ENDBRANCH  28  29
ENDBRANCH  27  28
ENDBRANCH  26  27
ENDBRANCH  25  26
ENDBRANCH  24  25
ENDBRANCH  23  24
ENDBRANCH  22  23
ENDBRANCH  19  22
ENDBRANCH  18  19
ENDBRANCH  17  18
ENDBRANCH  16  17
ENDBRANCH  15  16
ENDBRANCH  14  15
ENDBRANCH  13  14
ENDBRANCH  12  13
ENDBRANCH  11  12
ENDBRANCH  10  11
ENDBRANCH   9  10
ENDBRANCH   8   9
ENDBRANCH   7   8
ENDBRANCH   6   7
ENDBRANCH   5   6
ENDBRANCH   4   5
ENDBRANCH   3   4
ENDBRANCH   2   3
TORSDOF 34
ENDMDL
MODEL      204
REMARK 921   NORMALIZED FREE ENERGY PREDICTED BY IDOCK:   -1.12 KCAL/MOL
REMARK 922        TOTAL FREE ENERGY PREDICTED BY IDOCK:   -9.66 KCAL/MOL
REMARK 923 INTER-LIGAND FREE ENERGY PREDICTED BY IDOCK:   -6.27 KCAL/MOL
REMARK 924 INTRA-LIGAND FREE ENERGY PREDICTED BY IDOCK:   -3.39 KCAL/MOL
REMARK 927      BINDING AFFINITY PREDICTED BY RF-SCORE:    0.00 PKD
ROOT
HETATM    1  C   UNL     1      -6.987  13.301  68.736  1.00  0.00    -0.103 C  
HETATM    2  C   UNL     1      -8.100  12.377  68.273  1.00  0.00    -0.166 C  
ENDROOT
BRANCH   2   3
HETATM    3  C   UNL     1      -9.442  13.093  68.278  1.00  0.00    -0.210 C  
BRANCH   3   4
HETATM    4  C   UNL     1      -9.269  14.586  68.010  1.00  0.00    -0.190 C  
BRANCH   4   5
HETATM    5  C   UNL     1      -8.636  14.817  66.644  1.00  0.00    -0.170 C  
BRANCH   5   6
HETATM    6  C   UNL     1      -8.825  16.262  66.204  1.00  0.00    -0.362 C  
BRANCH   6   7
HETATM    7  C   UNL     1     -10.017  16.877  66.922  1.00  0.00    -0.279 C  
BRANCH   7   8
HETATM    8  C   UNL     1     -11.253  16.813  66.040  1.00  0.00     0.481 C  
BRANCH   8   9
HETATM    9  C   UNL     1     -10.925  16.122  64.727  1.00  0.00    -0.330 C  
BRANCH   9  10
HETATM   10  C   UNL     1     -12.012  15.120  64.386  1.00  0.00    -0.321 C  
BRANCH  10  11
HETATM   11  C   UNL     1     -11.995  13.969  65.376  1.00  0.00    -0.386 C  
BRANCH  11  12
HETATM   12  C   UNL     1     -12.817  12.820  64.826  1.00  0.00    -0.374 C  
BRANCH  12  13
HETATM   13  C   UNL     1     -12.056  12.114  63.724  1.00  0.00    -0.620 C  
BRANCH  13  14
HETATM   14  C   UNL     1     -10.691  11.693  64.236  1.00  0.00    -0.398 C  
BRANCH  14  15
HETATM   15  C   UNL     1     -10.161  10.574  63.369  1.00  0.00    -0.154 C  
BRANCH  15  16
HETATM   16  C   UNL     1      -8.897  11.002  62.641  1.00  0.00    -0.334 C  
BRANCH  16  17
HETATM   17  C   UNL     1      -7.896   9.869  62.760  1.00  0.00    -0.134 C  
BRANCH  17  18
HETATM   18  C   UNL     1      -8.585   8.535  62.983  1.00  0.00     0.005 C  
BRANCH  18  19
HETATM   19  N   UNL     1      -7.682   7.531  63.729  1.00  0.00    -0.121 N  
HETATM   20  C   UNL     1      -8.493   6.753  64.769  1.00  0.00     0.095 C  
HETATM   21  C   UNL     1      -7.037   6.558  62.739  1.00  0.00    -0.045 C  
BRANCH  19  22
HETATM   22  C   UNL     1      -6.599   8.387  64.423  1.00  0.00    -0.066 C  
BRANCH  22  23
HETATM   23  C   UNL     1      -7.014   8.812  65.818  1.00  0.00    -0.076 C  
BRANCH  23  24
HETATM   24  C   UNL     1      -6.365   7.947  66.882  1.00  0.00    -0.055 C  
BRANCH  24  25
HETATM   25  C   UNL     1      -6.538   8.655  68.214  1.00  0.00    -0.061 C  
BRANCH  25  26
HETATM   26  C   UNL     1      -5.339   9.520  68.528  1.00  0.00    -0.033 C  
BRANCH  26  27
HETATM   27  C   UNL     1      -5.143   9.577  70.033  1.00  0.00    -0.032 C  
BRANCH  27  28
HETATM   28  C   UNL     1      -6.218  10.445  70.652  1.00  0.00    -0.083 C  
BRANCH  28  29
HETATM   29  C   UNL     1      -7.295   9.577  71.273  1.00  0.00     0.202 C  
BRANCH  29  30
HETATM   30  C   UNL     1      -6.652   8.546  72.180  1.00  0.00    -0.085 C  
BRANCH  30  31
HETATM   31  C   UNL     1      -7.309   7.193  71.994  1.00  0.00    -0.081 C  
BRANCH  31  32
HETATM   32  C   UNL     1      -7.748   6.641  73.337  1.00  0.00    -0.090 C  
BRANCH  32  33
HETATM   33  C   UNL     1      -9.179   6.139  73.255  1.00  0.00    -0.131 C  
BRANCH  33  34
HETATM   34  C   UNL     1      -9.990   7.011  72.309  1.00  0.00    -0.188 C  
BRANCH  34  35
HETATM   35  C   UNL     1     -10.671   6.151  71.253  1.00  0.00    -0.310 C  
BRANCH  35  36
HETATM   36  C   UNL     1     -10.020   6.357  69.891  1.00  0.00    -0.198 C  
BRANCH  36  37
HETATM   37  C   UNL     1     -11.010   6.043  68.773  1.00  0.00    -0.384 C  
BRANCH  37  38
HETATM   38  C   UNL     1     -10.830   6.999  67.600  1.00  0.00    -0.312 C  
HETATM   39  C   UNL     1     -10.555   8.412  68.086  1.00  0.00    -0.175 C  
ENDBRANCH  37  38
ENDBRANCH  36  37
ENDBRANCH  35  36
ENDBRANCH  34  35
ENDBRANCH  33  34
ENDBRANCH  32  33
ENDBRANCH  31  32
ENDBRANCH  30  31
ENDBRANCH  29  30
ENDBRANCH  28  29
ENDBRANCH  27  28
ENDBRANCH  26  27
ENDBRANCH  25  26
ENDBRANCH  24  25
ENDBRANCH  23  24
ENDBRANCH  22  23
ENDBRANCH  19  22
ENDBRANCH  18  19
ENDBRANCH  17  18
ENDBRANCH  16  17
ENDBRANCH  15  16
ENDBRANCH  14  15
ENDBRANCH  13  14
ENDBRANCH  12  13
ENDBRANCH  11  12
ENDBRANCH  10  11
ENDBRANCH   9  10
ENDBRANCH   8   9
ENDBRANCH   7   8
ENDBRANCH   6   7
ENDBRANCH   5   6
ENDBRANCH   4   5
ENDBRANCH   3   4
ENDBRANCH   2   3
TORSDOF 34
ENDMDL
MODEL      205
REMARK 921   NORMALIZED FREE ENERGY PREDICTED BY IDOCK:   -1.05 KCAL/MOL
REMARK 922        TOTAL FREE ENERGY PREDICTED BY IDOCK:   -9.48 KCAL/MOL
REMARK 923 INTER-LIGAND FREE ENERGY PREDICTED BY IDOCK:   -8.80 KCAL/MOL
REMARK 924 INTRA-LIGAND FREE ENERGY PREDICTED BY IDOCK:   -0.67 KCAL/MOL
REMARK 927      BINDING AFFINITY PREDICTED BY RF-SCORE:    0.00 PKD
ROOT
HETATM    1  C   UNL     1      -7.431   5.806  74.563  1.00  0.00    -0.087 C  
HETATM    2  C   UNL     1      -7.967   5.996  73.155  1.00  0.00    -0.108 C  
ENDROOT
BRANCH   2   3
HETATM    3  C   UNL     1      -7.686   7.403  72.649  1.00  0.00    -0.100 C  
BRANCH   3   4
HETATM    4  C   UNL     1      -8.850   8.341  72.958  1.00  0.00    -0.302 C  
BRANCH   4   5
HETATM    5  C   UNL     1     -10.150   7.559  73.089  1.00  0.00    -0.362 C  
BRANCH   5   6
HETATM    6  C   UNL     1     -10.773   7.323  71.720  1.00  0.00    -0.243 C  
BRANCH   6   7
HETATM    7  C   UNL     1     -11.713   8.466  71.367  1.00  0.00    -0.332 C  
BRANCH   7   8
HETATM    8  C   UNL     1     -10.958   9.558  70.626  1.00  0.00    -0.370 C  
BRANCH   8   9
HETATM    9  C   UNL     1      -9.871   8.948  69.757  1.00  0.00    -0.186 C  
BRANCH   9  10
HETATM   10  C   UNL     1     -10.399   8.724  68.352  1.00  0.00    -0.242 C  
BRANCH  10  11
HETATM   11  C   UNL     1     -10.097   7.309  67.896  1.00  0.00    -0.217 C  
BRANCH  11  12
HETATM   12  C   UNL     1      -8.883   6.787  68.641  1.00  0.00    -0.123 C  
BRANCH  12  13
HETATM   13  C   UNL     1      -7.614   7.198  67.924  1.00  0.00    -0.111 C  
BRANCH  13  14
HETATM   14  C   UNL     1      -6.660   7.847  68.909  1.00  0.00    -0.052 C  
BRANCH  14  15
HETATM   15  C   UNL     1      -5.634   8.654  68.146  1.00  0.00    -0.035 C  
BRANCH  15  16
HETATM   16  C   UNL     1      -6.306   9.587  67.153  1.00  0.00    -0.065 C  
BRANCH  16  17
HETATM   17  C   UNL     1      -6.096   9.006  65.767  1.00  0.00    -0.052 C  
BRANCH  17  18
HETATM   18  C   UNL     1      -6.520   9.979  64.684  1.00  0.00    -0.125 C  
BRANCH  18  19
HETATM   19  N   UNL     1      -6.869   9.263  63.362  1.00  0.00    -0.090 N  
HETATM   20  C   UNL     1      -5.699   8.388  62.904  1.00  0.00    -0.074 C  
HETATM   21  C   UNL     1      -8.123   8.403  63.537  1.00  0.00    -0.143 C  
BRANCH  19  22
HETATM   22  C   UNL     1      -7.129  10.390  62.338  1.00  0.00    -0.144 C  
BRANCH  22  23
HETATM   23  C   UNL     1      -8.460  11.078  62.569  1.00  0.00    -0.272 C  
BRANCH  23  24
HETATM   24  C   UNL     1      -8.903  10.966  64.016  1.00  0.00    -0.055 C  
BRANCH  24  25
HETATM   25  C   UNL     1     -10.419  11.061  64.037  1.00  0.00    -0.433 C  
BRANCH  25  26
HETATM   26  C   UNL     1     -10.886  12.397  63.507  1.00  0.00    -0.487 C  
BRANCH  26  27
HETATM   27  C   UNL     1     -11.053  13.364  64.666  1.00  0.00    -0.380 C  
BRANCH  27  28
HETATM   28  C   UNL     1     -11.621  12.629  65.862  1.00  0.00    -0.443 C  
BRANCH  28  29
HETATM   29  C   UNL     1     -12.163  13.621  66.873  1.00  0.00    -0.398 C  
BRANCH  29  30
HETATM   30  C   UNL     1     -11.174  13.771  68.012  1.00  0.00    -0.293 C  
BRANCH  30  31
HETATM   31  C   UNL     1     -11.813  14.504  69.175  1.00  0.00    -0.354 C  
BRANCH  31  32
HETATM   32  C   UNL     1     -10.817  15.468  69.791  1.00  0.00    -0.301 C  
BRANCH  32  33
HETATM   33  C   UNL     1     -10.912  16.824  69.113  1.00  0.00    -0.223 C  
BRANCH  33  34
HETATM   34  C   UNL     1      -9.541  17.482  69.056  1.00  0.00    -0.151 C  
BRANCH  34  35
HETATM   35  C   UNL     1      -9.674  18.992  69.202  1.00  0.00    -0.310 C  
BRANCH  35  36
HETATM   36  C   UNL     1      -8.614  19.707  68.374  1.00  0.00    -0.357 C  
BRANCH  36  37
HETATM   37  C   UNL     1      -9.227  20.281  67.101  1.00  0.00    -0.519 C  
BRANCH  37  38
HETATM   38  C   UNL     1      -8.762  19.506  65.873  1.00  0.00    -0.080 C  
HETATM   39  C   UNL     1      -7.384  19.966  65.430  1.00  0.00    -0.184 C  
ENDBRANCH  37  38
ENDBRANCH  36  37
ENDBRANCH  35  36
ENDBRANCH  34  35
ENDBRANCH  33  34
ENDBRANCH  32  33
ENDBRANCH  31  32
ENDBRANCH  30  31
ENDBRANCH  29  30
ENDBRANCH  28  29
ENDBRANCH  27  28
ENDBRANCH  26  27
ENDBRANCH  25  26
ENDBRANCH  24  25
ENDBRANCH  23  24
ENDBRANCH  22  23
ENDBRANCH  19  22
ENDBRANCH  18  19
ENDBRANCH  17  18
ENDBRANCH  16  17
ENDBRANCH  15  16
ENDBRANCH  14  15
ENDBRANCH  13  14
ENDBRANCH  12  13
ENDBRANCH  11  12
ENDBRANCH  10  11
ENDBRANCH   9  10
ENDBRANCH   8   9
ENDBRANCH   7   8
ENDBRANCH   6   7
ENDBRANCH   5   6
ENDBRANCH   4   5
ENDBRANCH   3   4
ENDBRANCH   2   3
TORSDOF 34
ENDMDL
MODEL      206
REMARK 921   NORMALIZED FREE ENERGY PREDICTED BY IDOCK:   -0.99 KCAL/MOL
REMARK 922        TOTAL FREE ENERGY PREDICTED BY IDOCK:   -9.30 KCAL/MOL
REMARK 923 INTER-LIGAND FREE ENERGY PREDICTED BY IDOCK:   -6.08 KCAL/MOL
REMARK 924 INTRA-LIGAND FREE ENERGY PREDICTED BY IDOCK:   -3.22 KCAL/MOL
REMARK 927      BINDING AFFINITY PREDICTED BY RF-SCORE:    0.00 PKD
ROOT
HETATM    1  C   UNL     1      -6.721  15.255  67.132  1.00  0.00     0.090 C  
HETATM    2  C   UNL     1      -5.498  15.319  68.030  1.00  0.00    -0.143 C  
ENDROOT
BRANCH   2   3
HETATM    3  C   UNL     1      -5.678  16.361  69.124  1.00  0.00    -0.131 C  
BRANCH   3   4
HETATM    4  C   UNL     1      -5.489  17.773  68.575  1.00  0.00    -0.152 C  
BRANCH   4   5
HETATM    5  C   UNL     1      -6.753  18.600  68.773  1.00  0.00    -0.288 C  
BRANCH   5   6
HETATM    6  C   UNL     1      -6.406  20.072  68.949  1.00  0.00    -0.346 C  
BRANCH   6   7
HETATM    7  C   UNL     1      -7.080  20.904  67.868  1.00  0.00    -0.210 C  
BRANCH   7   8
HETATM    8  C   UNL     1      -6.492  20.571  66.506  1.00  0.00    -0.283 C  
BRANCH   8   9
HETATM    9  C   UNL     1      -7.426  19.648  65.742  1.00  0.00    -0.304 C  
BRANCH   9  10
HETATM   10  C   UNL     1      -8.852  20.158  65.844  1.00  0.00    -0.100 C  
BRANCH  10  11
HETATM   11  C   UNL     1      -9.752  19.088  66.435  1.00  0.00    -0.405 C  
BRANCH  11  12
HETATM   12  C   UNL     1      -9.014  17.763  66.455  1.00  0.00    -0.280 C  
BRANCH  12  13
HETATM   13  C   UNL     1      -9.592  16.860  67.524  1.00  0.00    -0.245 C  
BRANCH  13  14
HETATM   14  C   UNL     1     -11.057  16.595  67.229  1.00  0.00     0.053 C  
BRANCH  14  15
HETATM   15  C   UNL     1     -11.163  15.500  66.193  1.00  0.00    -0.102 C  
BRANCH  15  16
HETATM   16  C   UNL     1     -11.725  14.227  66.802  1.00  0.00    -0.424 C  
BRANCH  16  17
HETATM   17  C   UNL     1     -10.982  13.976  68.101  1.00  0.00    -0.268 C  
BRANCH  17  18
HETATM   18  C   UNL     1     -11.354  12.636  68.707  1.00  0.00    -0.289 C  
BRANCH  18  19
HETATM   19  N   UNL     1     -10.238  11.585  68.526  1.00  0.00    -0.207 N  
HETATM   20  C   UNL     1     -10.409  10.445  69.534  1.00  0.00    -0.237 C  
HETATM   21  C   UNL     1     -10.260  11.026  67.101  1.00  0.00    -0.206 C  
BRANCH  19  22
HETATM   22  C   UNL     1      -8.916  12.339  68.787  1.00  0.00     0.140 C  
BRANCH  22  23
HETATM   23  C   UNL     1      -7.703  11.449  68.602  1.00  0.00    -0.137 C  
BRANCH  23  24
HETATM   24  C   UNL     1      -7.101  11.040  69.933  1.00  0.00     0.008 C  
BRANCH  24  25
HETATM   25  C   UNL     1      -5.892  10.170  69.640  1.00  0.00    -0.042 C  
BRANCH  25  26
HETATM   26  C   UNL     1      -5.980   8.852  70.374  1.00  0.00    -0.035 C  
BRANCH  26  27
HETATM   27  C   UNL     1      -7.439   8.457  70.518  1.00  0.00    -0.065 C  
BRANCH  27  28
HETATM   28  C   UNL     1      -7.686   7.152  69.789  1.00  0.00    -0.108 C  
BRANCH  28  29
HETATM   29  C   UNL     1      -6.366   6.506  69.417  1.00  0.00    -0.035 C  
BRANCH  29  30
HETATM   30  C   UNL     1      -6.375   5.053  69.852  1.00  0.00    -0.030 C  
BRANCH  30  31
HETATM   31  C   UNL     1      -5.945   4.931  71.300  1.00  0.00    -0.017 C  
BRANCH  31  32
HETATM   32  C   UNL     1      -6.219   3.527  71.805  1.00  0.00    -0.014 C  
BRANCH  32  33
HETATM   33  C   UNL     1      -6.651   3.568  73.261  1.00  0.00    -0.030 C  
BRANCH  33  34
HETATM   34  C   UNL     1      -7.033   4.986  73.658  1.00  0.00    -0.080 C  
BRANCH  34  35
HETATM   35  C   UNL     1      -8.494   5.040  74.081  1.00  0.00    -0.109 C  
BRANCH  35  36
HETATM   36  C   UNL     1      -9.310   5.865  73.094  1.00  0.00    -0.139 C  
BRANCH  36  37
HETATM   37  C   UNL     1     -10.785   5.854  73.479  1.00  0.00    -0.284 C  
BRANCH  37  38
HETATM   38  C   UNL     1     -11.672   6.007  72.249  1.00  0.00    -0.338 C  
HETATM   39  C   UNL     1     -11.286   7.240  71.451  1.00  0.00    -0.282 C  
ENDBRANCH  37  38
ENDBRANCH  36  37
ENDBRANCH  35  36
ENDBRANCH  34  35
ENDBRANCH  33  34
ENDBRANCH  32  33
ENDBRANCH  31  32
ENDBRANCH  30  31
ENDBRANCH  29  30
ENDBRANCH  28  29
ENDBRANCH  27  28
ENDBRANCH  26  27
ENDBRANCH  25  26
ENDBRANCH  24  25
ENDBRANCH  23  24
ENDBRANCH  22  23
ENDBRANCH  19  22
ENDBRANCH  18  19
ENDBRANCH  17  18
ENDBRANCH  16  17
ENDBRANCH  15  16
ENDBRANCH  14  15
ENDBRANCH  13  14
ENDBRANCH  12  13
ENDBRANCH  11  12
ENDBRANCH  10  11
ENDBRANCH   9  10
ENDBRANCH   8   9
ENDBRANCH   7   8
ENDBRANCH   6   7
ENDBRANCH   5   6
ENDBRANCH   4   5
ENDBRANCH   3   4
ENDBRANCH   2   3
TORSDOF 34
ENDMDL
MODEL      207
REMARK 921   NORMALIZED FREE ENERGY PREDICTED BY IDOCK:   -0.99 KCAL/MOL
REMARK 922        TOTAL FREE ENERGY PREDICTED BY IDOCK:   -9.27 KCAL/MOL
REMARK 923 INTER-LIGAND FREE ENERGY PREDICTED BY IDOCK:   -6.57 KCAL/MOL
REMARK 924 INTRA-LIGAND FREE ENERGY PREDICTED BY IDOCK:   -2.71 KCAL/MOL
REMARK 927      BINDING AFFINITY PREDICTED BY RF-SCORE:    0.00 PKD
ROOT
HETATM    1  C   UNL     1     -12.104  12.255  69.615  1.00  0.00    -0.277 C  
HETATM    2  C   UNL     1     -11.748  13.529  70.361  1.00  0.00    -0.201 C  
ENDROOT
BRANCH   2   3
HETATM    3  C   UNL     1     -10.988  14.494  69.462  1.00  0.00    -0.253 C  
BRANCH   3   4
HETATM    4  C   UNL     1     -10.681  13.858  68.109  1.00  0.00    -0.260 C  
BRANCH   4   5
HETATM    5  C   UNL     1     -11.148  14.759  66.973  1.00  0.00    -0.333 C  
BRANCH   5   6
HETATM    6  C   UNL     1     -10.859  16.219  67.295  1.00  0.00    -0.216 C  
BRANCH   6   7
HETATM    7  C   UNL     1     -10.228  16.907  66.093  1.00  0.00    -0.352 C  
BRANCH   7   8
HETATM    8  C   UNL     1      -9.290  18.011  66.552  1.00  0.00    -0.294 C  
BRANCH   8   9
HETATM    9  C   UNL     1      -7.876  17.473  66.691  1.00  0.00    -0.285 C  
BRANCH   9  10
HETATM   10  C   UNL     1      -7.712  16.795  68.039  1.00  0.00    -0.174 C  
BRANCH  10  11
HETATM   11  C   UNL     1      -6.249  16.773  68.442  1.00  0.00    -0.134 C  
BRANCH  11  12
HETATM   12  C   UNL     1      -5.782  15.336  68.565  1.00  0.00    -0.095 C  
BRANCH  12  13
HETATM   13  C   UNL     1      -6.611  14.438  67.671  1.00  0.00    -0.172 C  
BRANCH  13  14
HETATM   14  C   UNL     1      -6.399  12.989  68.067  1.00  0.00    -0.115 C  
BRANCH  14  15
HETATM   15  C   UNL     1      -7.237  12.682  69.287  1.00  0.00     0.162 C  
BRANCH  15  16
HETATM   16  C   UNL     1      -6.839  11.349  69.900  1.00  0.00     0.038 C  
BRANCH  16  17
HETATM   17  C   UNL     1      -7.331  10.255  68.971  1.00  0.00    -0.092 C  
BRANCH  17  18
HETATM   18  C   UNL     1      -8.794  10.440  68.616  1.00  0.00    -0.142 C  
BRANCH  18  19
HETATM   19  N   UNL     1      -9.203   9.609  67.382  1.00  0.00    -0.130 N  
HETATM   20  C   UNL     1      -9.816   8.274  67.816  1.00  0.00    -0.170 C  
HETATM   21  C   UNL     1     -10.205  10.386  66.524  1.00  0.00    -0.229 C  
BRANCH  19  22
HETATM   22  C   UNL     1      -7.895   9.368  66.596  1.00  0.00    -0.104 C  
BRANCH  22  23
HETATM   23  C   UNL     1      -8.142   8.669  65.274  1.00  0.00    -0.136 C  
BRANCH  23  24
HETATM   24  C   UNL     1      -8.771   7.302  65.473  1.00  0.00    -0.047 C  
BRANCH  24  25
HETATM   25  C   UNL     1      -8.014   6.319  64.598  1.00  0.00    -0.120 C  
BRANCH  25  26
HETATM   26  C   UNL     1      -6.678   5.967  65.209  1.00  0.00    -0.044 C  
BRANCH  26  27
HETATM   27  C   UNL     1      -6.669   4.494  65.577  1.00  0.00    -0.052 C  
BRANCH  27  28
HETATM   28  C   UNL     1      -8.084   3.956  65.555  1.00  0.00    -0.101 C  
BRANCH  28  29
HETATM   29  C   UNL     1      -8.607   3.806  66.970  1.00  0.00    -0.110 C  
BRANCH  29  30
HETATM   30  C   UNL     1      -7.443   3.600  67.919  1.00  0.00    -0.062 C  
BRANCH  30  31
HETATM   31  C   UNL     1      -7.424   4.684  68.978  1.00  0.00    -0.056 C  
BRANCH  31  32
HETATM   32  C   UNL     1      -8.809   4.853  69.571  1.00  0.00    -0.120 C  
BRANCH  32  33
HETATM   33  C   UNL     1      -8.730   4.882  71.088  1.00  0.00    -0.143 C  
BRANCH  33  34
HETATM   34  C   UNL     1     -10.085   4.547  71.694  1.00  0.00    -0.249 C  
BRANCH  34  35
HETATM   35  C   UNL     1     -10.232   5.209  73.057  1.00  0.00    -0.217 C  
BRANCH  35  36
HETATM   36  C   UNL     1     -10.816   6.609  72.914  1.00  0.00    -0.293 C  
BRANCH  36  37
HETATM   37  C   UNL     1     -11.524   6.758  71.572  1.00  0.00    -0.329 C  
BRANCH  37  38
HETATM   38  C   UNL     1     -11.185   8.093  70.920  1.00  0.00    -0.286 C  
HETATM   39  C   UNL     1     -10.455   9.003  71.893  1.00  0.00    -0.373 C  
ENDBRANCH  37  38
ENDBRANCH  36  37
ENDBRANCH  35  36
ENDBRANCH  34  35
ENDBRANCH  33  34
ENDBRANCH  32  33
ENDBRANCH  31  32
ENDBRANCH  30  31
ENDBRANCH  29  30
ENDBRANCH  28  29
ENDBRANCH  27  28
ENDBRANCH  26  27
ENDBRANCH  25  26
ENDBRANCH  24  25
ENDBRANCH  23  24
ENDBRANCH  22  23
ENDBRANCH  19  22
ENDBRANCH  18  19
ENDBRANCH  17  18
ENDBRANCH  16  17
ENDBRANCH  15  16
ENDBRANCH  14  15
ENDBRANCH  13  14
ENDBRANCH  12  13
ENDBRANCH  11  12
ENDBRANCH  10  11
ENDBRANCH   9  10
ENDBRANCH   8   9
ENDBRANCH   7   8
ENDBRANCH   6   7
ENDBRANCH   5   6
ENDBRANCH   4   5
ENDBRANCH   3   4
ENDBRANCH   2   3
TORSDOF 34
ENDMDL
MODEL      208
REMARK 921   NORMALIZED FREE ENERGY PREDICTED BY IDOCK:   -0.67 KCAL/MOL
REMARK 922        TOTAL FREE ENERGY PREDICTED BY IDOCK:   -8.32 KCAL/MOL
REMARK 923 INTER-LIGAND FREE ENERGY PREDICTED BY IDOCK:   -6.46 KCAL/MOL
REMARK 924 INTRA-LIGAND FREE ENERGY PREDICTED BY IDOCK:   -1.86 KCAL/MOL
REMARK 927      BINDING AFFINITY PREDICTED BY RF-SCORE:    0.00 PKD
ROOT
HETATM    1  C   UNL     1      -8.720  15.107  66.097  1.00  0.00     0.014 C  
HETATM    2  C   UNL     1      -9.586  15.386  67.313  1.00  0.00    -0.213 C  
ENDROOT
BRANCH   2   3
HETATM    3  C   UNL     1     -10.767  14.429  67.374  1.00  0.00    -0.280 C  
BRANCH   3   4
HETATM    4  C   UNL     1     -11.447  14.307  66.013  1.00  0.00    -0.347 C  
BRANCH   4   5
HETATM    5  C   UNL     1     -11.747  12.849  65.690  1.00  0.00    -0.430 C  
BRANCH   5   6
HETATM    6  C   UNL     1     -11.982  12.669  64.197  1.00  0.00    -0.501 C  
BRANCH   6   7
HETATM    7  C   UNL     1     -10.800  11.951  63.562  1.00  0.00    -0.502 C  
BRANCH   7   8
HETATM    8  C   UNL     1     -10.583  10.603  64.232  1.00  0.00    -0.082 C  
BRANCH   8   9
HETATM    9  C   UNL     1      -9.114  10.416  64.572  1.00  0.00    -0.263 C  
BRANCH   9  10
HETATM   10  C   UNL     1      -8.758  11.240  65.795  1.00  0.00    -0.111 C  
BRANCH  10  11
HETATM   11  C   UNL     1      -7.762  10.492  66.662  1.00  0.00    -0.123 C  
BRANCH  11  12
HETATM   12  C   UNL     1      -8.277  10.434  68.086  1.00  0.00    -0.116 C  
BRANCH  12  13
HETATM   13  C   UNL     1      -9.530  11.274  68.224  1.00  0.00    -0.190 C  
BRANCH  13  14
HETATM   14  C   UNL     1     -10.754  10.397  68.033  1.00  0.00    -0.292 C  
BRANCH  14  15
HETATM   15  C   UNL     1     -11.897  10.960  68.846  1.00  0.00    -0.340 C  
BRANCH  15  16
HETATM   16  C   UNL     1     -11.553  10.982  70.326  1.00  0.00    -0.414 C  
BRANCH  16  17
HETATM   17  C   UNL     1     -10.874   9.667  70.656  1.00  0.00    -0.386 C  
BRANCH  17  18
HETATM   18  C   UNL     1     -11.858   8.512  70.642  1.00  0.00    -0.096 C  
BRANCH  18  19
HETATM   19  N   UNL     1     -11.907   7.772  71.996  1.00  0.00    -0.293 N  
HETATM   20  C   UNL     1     -13.121   8.229  72.810  1.00  0.00     0.127 C  
HETATM   21  C   UNL     1     -11.970   6.260  71.775  1.00  0.00    -0.256 C  
BRANCH  19  22
HETATM   22  C   UNL     1     -10.598   8.156  72.723  1.00  0.00    -0.316 C  
BRANCH  22  23
HETATM   23  C   UNL     1      -9.395   7.427  72.159  1.00  0.00    -0.164 C  
BRANCH  23  24
HETATM   24  C   UNL     1      -8.115   8.212  72.371  1.00  0.00    -0.198 C  
BRANCH  24  25
HETATM   25  C   UNL     1      -7.349   8.200  71.060  1.00  0.00    -0.058 C  
BRANCH  25  26
HETATM   26  C   UNL     1      -6.888   6.803  70.714  1.00  0.00    -0.059 C  
BRANCH  26  27
HETATM   27  C   UNL     1      -5.516   6.875  70.067  1.00  0.00    -0.019 C  
BRANCH  27  28
HETATM   28  C   UNL     1      -5.403   5.808  68.999  1.00  0.00    -0.004 C  
BRANCH  28  29
HETATM   29  C   UNL     1      -5.154   6.448  67.647  1.00  0.00    -0.004 C  
BRANCH  29  30
HETATM   30  C   UNL     1      -5.490   5.457  66.550  1.00  0.00    -0.013 C  
BRANCH  30  31
HETATM   31  C   UNL     1      -5.940   6.185  65.299  1.00  0.00    -0.026 C  
BRANCH  31  32
HETATM   32  C   UNL     1      -7.022   7.190  65.645  1.00  0.00    -0.060 C  
BRANCH  32  33
HETATM   33  C   UNL     1      -8.219   6.482  66.257  1.00  0.00    -0.119 C  
BRANCH  33  34
HETATM   34  C   UNL     1      -9.475   7.323  66.083  1.00  0.00    -0.064 C  
BRANCH  34  35
HETATM   35  C   UNL     1     -10.662   6.643  66.751  1.00  0.00    -0.329 C  
BRANCH  35  36
HETATM   36  C   UNL     1     -10.758   5.186  66.321  1.00  0.00    -0.272 C  
BRANCH  36  37
HETATM   37  C   UNL     1      -9.488   4.758  65.592  1.00  0.00    -0.173 C  
BRANCH  37  38
HETATM   38  C   UNL     1      -8.839   3.563  66.281  1.00  0.00    -0.131 C  
HETATM   39  C   UNL     1      -9.890   2.633  66.862  1.00  0.00     0.642 C  
ENDBRANCH  37  38
ENDBRANCH  36  37
ENDBRANCH  35  36
ENDBRANCH  34  35
ENDBRANCH  33  34
ENDBRANCH  32  33
ENDBRANCH  31  32
ENDBRANCH  30  31
ENDBRANCH  29  30
ENDBRANCH  28  29
ENDBRANCH  27  28
ENDBRANCH  26  27
ENDBRANCH  25  26
ENDBRANCH  24  25
ENDBRANCH  23  24
ENDBRANCH  22  23
ENDBRANCH  19  22
ENDBRANCH  18  19
ENDBRANCH  17  18
ENDBRANCH  16  17
ENDBRANCH  15  16
ENDBRANCH  14  15
ENDBRANCH  13  14
ENDBRANCH  12  13
ENDBRANCH  11  12
ENDBRANCH  10  11
ENDBRANCH   9  10
ENDBRANCH   8   9
ENDBRANCH   7   8
ENDBRANCH   6   7
ENDBRANCH   5   6
ENDBRANCH   4   5
ENDBRANCH   3   4
ENDBRANCH   2   3
TORSDOF 34
ENDMDL
MODEL      209
REMARK 921   NORMALIZED FREE ENERGY PREDICTED BY IDOCK:   -0.60 KCAL/MOL
REMARK 922        TOTAL FREE ENERGY PREDICTED BY IDOCK:   -8.12 KCAL/MOL
REMARK 923 INTER-LIGAND FREE ENERGY PREDICTED BY IDOCK:   -7.37 KCAL/MOL
REMARK 924 INTRA-LIGAND FREE ENERGY PREDICTED BY IDOCK:   -0.75 KCAL/MOL
REMARK 927      BINDING AFFINITY PREDICTED BY RF-SCORE:    0.00 PKD
ROOT
HETATM    1  C   UNL     1      -7.005   8.875  69.029  1.00  0.00    -0.064 C  
HETATM    2  C   UNL     1      -6.952  10.263  68.414  1.00  0.00    -0.069 C  
ENDROOT
BRANCH   2   3
HETATM    3  C   UNL     1      -7.156  11.337  69.472  1.00  0.00    -0.058 C  
BRANCH   3   4
HETATM    4  C   UNL     1      -6.575  12.673  69.017  1.00  0.00    -0.100 C  
BRANCH   4   5
HETATM    5  C   UNL     1      -6.954  12.959  67.569  1.00  0.00    -0.151 C  
BRANCH   5   6
HETATM    6  C   UNL     1      -7.192  14.449  67.363  1.00  0.00    -0.148 C  
BRANCH   6   7
HETATM    7  C   UNL     1      -6.859  15.215  68.636  1.00  0.00    -0.105 C  
BRANCH   7   8
HETATM    8  C   UNL     1      -8.130  15.519  69.413  1.00  0.00    -0.241 C  
BRANCH   8   9
HETATM    9  C   UNL     1      -9.286  15.758  68.456  1.00  0.00    -0.198 C  
BRANCH   9  10
HETATM   10  C   UNL     1     -10.277  16.725  69.076  1.00  0.00    -0.310 C  
BRANCH  10  11
HETATM   11  C   UNL     1     -11.459  15.968  69.654  1.00  0.00    -0.326 C  
BRANCH  11  12
HETATM   12  C   UNL     1     -11.065  15.360  70.986  1.00  0.00    -0.377 C  
BRANCH  12  13
HETATM   13  C   UNL     1     -11.927  15.928  72.094  1.00  0.00    -0.612 C  
BRANCH  13  14
HETATM   14  C   UNL     1     -13.389  15.661  71.790  1.00  0.00    -0.541 C  
BRANCH  14  15
HETATM   15  C   UNL     1     -13.540  14.241  71.293  1.00  0.00    -0.355 C  
BRANCH  15  16
HETATM   16  C   UNL     1     -13.510  13.254  72.448  1.00  0.00    -0.670 C  
BRANCH  16  17
HETATM   17  C   UNL     1     -13.477  11.858  71.855  1.00  0.00    -0.289 C  
BRANCH  17  18
HETATM   18  C   UNL     1     -12.070  11.455  71.455  1.00  0.00     0.151 C  
BRANCH  18  19
HETATM   19  N   UNL     1     -12.058  10.536  70.215  1.00  0.00    -0.303 N  
HETATM   20  C   UNL     1     -12.351  11.345  68.948  1.00  0.00     0.109 C  
HETATM   21  C   UNL     1     -10.703   9.838  70.083  1.00  0.00    -0.289 C  
BRANCH  19  22
HETATM   22  C   UNL     1     -13.176   9.499  70.460  1.00  0.00     0.295 C  
BRANCH  22  23
HETATM   23  C   UNL     1     -13.123   8.920  71.860  1.00  0.00    -0.436 C  
BRANCH  23  24
HETATM   24  C   UNL     1     -12.475   7.548  71.873  1.00  0.00    -0.335 C  
BRANCH  24  25
HETATM   25  C   UNL     1     -11.497   7.516  73.033  1.00  0.00    -0.247 C  
BRANCH  25  26
HETATM   26  C   UNL     1     -10.800   6.177  73.118  1.00  0.00    -0.279 C  
BRANCH  26  27
HETATM   27  C   UNL     1      -9.926   5.990  71.891  1.00  0.00    -0.195 C  
BRANCH  27  28
HETATM   28  C   UNL     1     -10.139   4.603  71.322  1.00  0.00    -0.245 C  
BRANCH  28  29
HETATM   29  C   UNL     1      -9.055   4.281  70.312  1.00  0.00    -0.166 C  
BRANCH  29  30
HETATM   30  C   UNL     1      -8.276   5.541  69.990  1.00  0.00    -0.104 C  
BRANCH  30  31
HETATM   31  C   UNL     1      -6.819   5.376  70.375  1.00  0.00    -0.052 C  
BRANCH  31  32
HETATM   32  C   UNL     1      -6.140   4.403  69.429  1.00  0.00    -0.026 C  
BRANCH  32  33
HETATM   33  C   UNL     1      -7.149   3.841  68.441  1.00  0.00    -0.051 C  
BRANCH  33  34
HETATM   34  C   UNL     1      -6.500   3.643  67.080  1.00  0.00    -0.037 C  
BRANCH  34  35
HETATM   35  C   UNL     1      -7.493   3.021  66.108  1.00  0.00    -0.072 C  
BRANCH  35  36
HETATM   36  C   UNL     1      -8.857   3.686  66.234  1.00  0.00    -0.128 C  
BRANCH  36  37
HETATM   37  C   UNL     1      -8.952   4.891  65.304  1.00  0.00    -0.152 C  
BRANCH  37  38
HETATM   38  C   UNL     1      -7.715   5.773  65.424  1.00  0.00    -0.091 C  
HETATM   39  C   UNL     1      -7.611   6.727  64.246  1.00  0.00    -0.105 C  
ENDBRANCH  37  38
ENDBRANCH  36  37
ENDBRANCH  35  36
ENDBRANCH  34  35
ENDBRANCH  33  34
ENDBRANCH  32  33
ENDBRANCH  31  32
ENDBRANCH  30  31
ENDBRANCH  29  30
ENDBRANCH  28  29
ENDBRANCH  27  28
ENDBRANCH  26  27
ENDBRANCH  25  26
ENDBRANCH  24  25
ENDBRANCH  23  24
ENDBRANCH  22  23
ENDBRANCH  19  22
ENDBRANCH  18  19
ENDBRANCH  17  18
ENDBRANCH  16  17
ENDBRANCH  15  16
ENDBRANCH  14  15
ENDBRANCH  13  14
ENDBRANCH  12  13
ENDBRANCH  11  12
ENDBRANCH  10  11
ENDBRANCH   9  10
ENDBRANCH   8   9
ENDBRANCH   7   8
ENDBRANCH   6   7
ENDBRANCH   5   6
ENDBRANCH   4   5
ENDBRANCH   3   4
ENDBRANCH   2   3
TORSDOF 34
ENDMDL
MODEL      210
REMARK 921   NORMALIZED FREE ENERGY PREDICTED BY IDOCK:   -0.59 KCAL/MOL
REMARK 922        TOTAL FREE ENERGY PREDICTED BY IDOCK:   -8.08 KCAL/MOL
REMARK 923 INTER-LIGAND FREE ENERGY PREDICTED BY IDOCK:   -4.44 KCAL/MOL
REMARK 924 INTRA-LIGAND FREE ENERGY PREDICTED BY IDOCK:   -3.64 KCAL/MOL
REMARK 927      BINDING AFFINITY PREDICTED BY RF-SCORE:    0.00 PKD
ROOT
HETATM    1  C   UNL     1     -11.348   7.672  70.198  1.00  0.00    -0.147 C  
HETATM    2  C   UNL     1     -10.566   8.954  70.421  1.00  0.00    -0.252 C  
ENDROOT
BRANCH   2   3
HETATM    3  C   UNL     1     -11.499  10.117  70.724  1.00  0.00    -0.442 C  
BRANCH   3   4
HETATM    4  C   UNL     1     -12.693   9.660  71.557  1.00  0.00    -0.480 C  
BRANCH   4   5
HETATM    5  C   UNL     1     -13.552  10.851  71.964  1.00  0.00    -0.152 C  
BRANCH   5   6
HETATM    6  C   UNL     1     -13.099  12.110  71.239  1.00  0.00    -0.210 C  
BRANCH   6   7
HETATM    7  C   UNL     1     -13.296  13.328  72.129  1.00  0.00    -0.618 C  
BRANCH   7   8
HETATM    8  C   UNL     1     -13.961  14.449  71.345  1.00  0.00    -0.395 C  
BRANCH   8   9
HETATM    9  C   UNL     1     -12.940  15.515  70.985  1.00  0.00    -0.550 C  
BRANCH   9  10
HETATM   10  C   UNL     1     -11.537  14.953  71.122  1.00  0.00    -0.347 C  
BRANCH  10  11
HETATM   11  C   UNL     1     -10.950  14.665  69.752  1.00  0.00    -0.232 C  
BRANCH  11  12
HETATM   12  C   UNL     1      -9.610  15.362  69.622  1.00  0.00    -0.233 C  
BRANCH  12  13
HETATM   13  C   UNL     1      -8.498  14.340  69.508  1.00  0.00     0.492 C  
BRANCH  13  14
HETATM   14  C   UNL     1      -7.160  15.015  69.744  1.00  0.00    -0.170 C  
BRANCH  14  15
HETATM   15  C   UNL     1      -6.152  13.976  70.182  1.00  0.00    -0.154 C  
BRANCH  15  16
HETATM   16  C   UNL     1      -5.132  13.713  69.087  1.00  0.00    -0.077 C  
BRANCH  16  17
HETATM   17  C   UNL     1      -5.234  12.246  68.712  1.00  0.00    -0.054 C  
BRANCH  17  18
HETATM   18  C   UNL     1      -5.215  12.052  67.207  1.00  0.00    -0.113 C  
BRANCH  18  19
HETATM   19  N   UNL     1      -6.480  11.327  66.699  1.00  0.00    -0.130 N  
HETATM   20  C   UNL     1      -6.373  11.058  65.195  1.00  0.00     0.359 C  
HETATM   21  C   UNL     1      -6.677  10.009  67.450  1.00  0.00    -0.073 C  
BRANCH  19  22
HETATM   22  C   UNL     1      -7.652  12.292  66.989  1.00  0.00    -0.071 C  
BRANCH  22  23
HETATM   23  C   UNL     1      -8.992  11.693  66.612  1.00  0.00    -0.189 C  
BRANCH  23  24
HETATM   24  C   UNL     1     -10.134  12.375  67.343  1.00  0.00    -0.205 C  
BRANCH  24  25
HETATM   25  C   UNL     1     -11.335  12.375  66.414  1.00  0.00    -0.392 C  
BRANCH  25  26
HETATM   26  C   UNL     1     -10.936  12.775  65.012  1.00  0.00    -0.319 C  
BRANCH  26  27
HETATM   27  C   UNL     1     -10.972  14.288  64.894  1.00  0.00    -0.413 C  
BRANCH  27  28
HETATM   28  C   UNL     1     -12.391  14.779  65.086  1.00  0.00    -0.158 C  
BRANCH  28  29
HETATM   29  C   UNL     1     -12.429  15.861  66.147  1.00  0.00     2.092 C  
BRANCH  29  30
HETATM   30  C   UNL     1     -11.021  16.140  66.635  1.00  0.00    -0.055 C  
BRANCH  30  31
HETATM   31  C   UNL     1     -10.494  17.423  66.024  1.00  0.00    -0.278 C  
BRANCH  31  32
HETATM   32  C   UNL     1      -9.040  17.248  65.626  1.00  0.00     0.414 C  
BRANCH  32  33
HETATM   33  C   UNL     1      -8.148  18.104  66.508  1.00  0.00    -0.295 C  
BRANCH  33  34
HETATM   34  C   UNL     1      -7.217  17.224  67.329  1.00  0.00    -0.191 C  
BRANCH  34  35
HETATM   35  C   UNL     1      -6.175  18.077  68.039  1.00  0.00    -0.175 C  
BRANCH  35  36
HETATM   36  C   UNL     1      -6.027  19.428  67.352  1.00  0.00    -0.196 C  
BRANCH  36  37
HETATM   37  C   UNL     1      -6.094  20.558  68.374  1.00  0.00    -0.354 C  
BRANCH  37  38
HETATM   38  C   UNL     1      -6.671  20.065  69.696  1.00  0.00    -0.294 C  
HETATM   39  C   UNL     1      -8.188  20.006  69.639  1.00  0.00     0.619 C  
ENDBRANCH  37  38
ENDBRANCH  36  37
ENDBRANCH  35  36
ENDBRANCH  34  35
ENDBRANCH  33  34
ENDBRANCH  32  33
ENDBRANCH  31  32
ENDBRANCH  30  31
ENDBRANCH  29  30
ENDBRANCH  28  29
ENDBRANCH  27  28
ENDBRANCH  26  27
ENDBRANCH  25  26
ENDBRANCH  24  25
ENDBRANCH  23  24
ENDBRANCH  22  23
ENDBRANCH  19  22
ENDBRANCH  18  19
ENDBRANCH  17  18
ENDBRANCH  16  17
ENDBRANCH  15  16
ENDBRANCH  14  15
ENDBRANCH  13  14
ENDBRANCH  12  13
ENDBRANCH  11  12
ENDBRANCH  10  11
ENDBRANCH   9  10
ENDBRANCH   8   9
ENDBRANCH   7   8
ENDBRANCH   6   7
ENDBRANCH   5   6
ENDBRANCH   4   5
ENDBRANCH   3   4
ENDBRANCH   2   3
TORSDOF 34
ENDMDL
MODEL      211
REMARK 921   NORMALIZED FREE ENERGY PREDICTED BY IDOCK:   -0.57 KCAL/MOL
REMARK 922        TOTAL FREE ENERGY PREDICTED BY IDOCK:   -8.02 KCAL/MOL
REMARK 923 INTER-LIGAND FREE ENERGY PREDICTED BY IDOCK:   -7.55 KCAL/MOL
REMARK 924 INTRA-LIGAND FREE ENERGY PREDICTED BY IDOCK:   -0.46 KCAL/MOL
REMARK 927      BINDING AFFINITY PREDICTED BY RF-SCORE:    0.00 PKD
ROOT
HETATM    1  C   UNL     1      -7.336   5.831  74.564  1.00  0.00    -0.087 C  
HETATM    2  C   UNL     1      -7.595   6.166  73.106  1.00  0.00    -0.097 C  
ENDROOT
BRANCH   2   3
HETATM    3  C   UNL     1      -7.180   7.595  72.791  1.00  0.00    -0.087 C  
BRANCH   3   4
HETATM    4  C   UNL     1      -8.345   8.561  72.986  1.00  0.00    -0.102 C  
BRANCH   4   5
HETATM    5  C   UNL     1      -9.663   7.803  73.082  1.00  0.00    -0.347 C  
BRANCH   5   6
HETATM    6  C   UNL     1     -10.227   7.534  71.694  1.00  0.00    -0.209 C  
BRANCH   6   7
HETATM    7  C   UNL     1     -11.198   8.638  71.300  1.00  0.00    -0.338 C  
BRANCH   7   8
HETATM    8  C   UNL     1     -10.457   9.759  70.589  1.00  0.00    -0.358 C  
BRANCH   8   9
HETATM    9  C   UNL     1      -9.178   9.228  69.962  1.00  0.00    -0.231 C  
BRANCH   9  10
HETATM   10  C   UNL     1      -9.485   8.602  68.615  1.00  0.00    -0.144 C  
BRANCH  10  11
HETATM   11  C   UNL     1      -8.563   7.424  68.360  1.00  0.00    -0.124 C  
BRANCH  11  12
HETATM   12  C   UNL     1      -7.194   7.721  68.942  1.00  0.00    -0.081 C  
BRANCH  12  13
HETATM   13  C   UNL     1      -6.418   8.631  68.014  1.00  0.00    -0.057 C  
BRANCH  13  14
HETATM   14  C   UNL     1      -5.822   9.779  68.808  1.00  0.00    -0.038 C  
BRANCH  14  15
HETATM   15  C   UNL     1      -5.586  10.950  67.882  1.00  0.00    -0.039 C  
BRANCH  15  16
HETATM   16  C   UNL     1      -6.869  11.352  67.174  1.00  0.00    -0.124 C  
BRANCH  16  17
HETATM   17  C   UNL     1      -6.904  10.621  65.845  1.00  0.00    -0.115 C  
BRANCH  17  18
HETATM   18  C   UNL     1      -7.872  11.272  64.875  1.00  0.00     0.769 C  
BRANCH  18  19
HETATM   19  N   UNL     1      -8.335  10.298  63.772  1.00  0.00    -0.164 N  
HETATM   20  C   UNL     1      -7.141   9.840  62.928  1.00  0.00    -0.115 C  
HETATM   21  C   UNL     1      -9.029   9.082  64.391  1.00  0.00     0.016 C  
BRANCH  19  22
HETATM   22  C   UNL     1      -9.329  11.101  62.903  1.00  0.00    -0.364 C  
BRANCH  22  23
HETATM   23  C   UNL     1     -10.422  11.745  63.732  1.00  0.00    -0.466 C  
BRANCH  23  24
HETATM   24  C   UNL     1      -9.987  11.947  65.172  1.00  0.00    -0.276 C  
BRANCH  24  25
HETATM   25  C   UNL     1     -11.193  11.683  66.056  1.00  0.00    -0.299 C  
BRANCH  25  26
HETATM   26  C   UNL     1     -12.394  12.470  65.584  1.00  0.00    -0.296 C  
BRANCH  26  27
HETATM   27  C   UNL     1     -12.295  13.893  66.106  1.00  0.00    -0.504 C  
BRANCH  27  28
HETATM   28  C   UNL     1     -11.582  13.895  67.442  1.00  0.00    -0.398 C  
BRANCH  28  29
HETATM   29  C   UNL     1     -11.825  15.208  68.159  1.00  0.00    -0.252 C  
BRANCH  29  30
HETATM   30  C   UNL     1     -10.715  16.183  67.818  1.00  0.00    -0.325 C  
BRANCH  30  31
HETATM   31  C   UNL     1     -10.437  16.168  66.328  1.00  0.00    -0.321 C  
BRANCH  31  32
HETATM   32  C   UNL     1      -8.941  16.107  66.080  1.00  0.00    -0.372 C  
BRANCH  32  33
HETATM   33  C   UNL     1      -8.327  14.955  66.857  1.00  0.00    -0.212 C  
BRANCH  33  34
HETATM   34  C   UNL     1      -7.053  15.407  67.552  1.00  0.00    -0.221 C  
BRANCH  34  35
HETATM   35  C   UNL     1      -7.386  16.105  68.864  1.00  0.00    -0.186 C  
BRANCH  35  36
HETATM   36  C   UNL     1      -6.299  17.105  69.232  1.00  0.00    -0.231 C  
BRANCH  36  37
HETATM   37  C   UNL     1      -6.255  18.244  68.218  1.00  0.00    -0.185 C  
BRANCH  37  38
HETATM   38  C   UNL     1      -7.647  18.817  67.979  1.00  0.00    -0.283 C  
HETATM   39  C   UNL     1      -7.663  19.711  66.751  1.00  0.00    -0.288 C  
ENDBRANCH  37  38
ENDBRANCH  36  37
ENDBRANCH  35  36
ENDBRANCH  34  35
ENDBRANCH  33  34
ENDBRANCH  32  33
ENDBRANCH  31  32
ENDBRANCH  30  31
ENDBRANCH  29  30
ENDBRANCH  28  29
ENDBRANCH  27  28
ENDBRANCH  26  27
ENDBRANCH  25  26
ENDBRANCH  24  25
ENDBRANCH  23  24
ENDBRANCH  22  23
ENDBRANCH  19  22
ENDBRANCH  18  19
ENDBRANCH  17  18
ENDBRANCH  16  17
ENDBRANCH  15  16
ENDBRANCH  14  15
ENDBRANCH  13  14
ENDBRANCH  12  13
ENDBRANCH  11  12
ENDBRANCH  10  11
ENDBRANCH   9  10
ENDBRANCH   8   9
ENDBRANCH   7   8
ENDBRANCH   6   7
ENDBRANCH   5   6
ENDBRANCH   4   5
ENDBRANCH   3   4
ENDBRANCH   2   3
TORSDOF 34
ENDMDL
MODEL      212
REMARK 921   NORMALIZED FREE ENERGY PREDICTED BY IDOCK:   -0.43 KCAL/MOL
REMARK 922        TOTAL FREE ENERGY PREDICTED BY IDOCK:   -7.61 KCAL/MOL
REMARK 923 INTER-LIGAND FREE ENERGY PREDICTED BY IDOCK:   -4.58 KCAL/MOL
REMARK 924 INTRA-LIGAND FREE ENERGY PREDICTED BY IDOCK:   -3.03 KCAL/MOL
REMARK 927      BINDING AFFINITY PREDICTED BY RF-SCORE:    0.00 PKD
ROOT
HETATM    1  C   UNL     1      -5.686  11.997  65.804  1.00  0.00     1.864 C  
HETATM    2  C   UNL     1      -6.438  11.661  67.079  1.00  0.00    -0.148 C  
ENDROOT
BRANCH   2   3
HETATM    3  C   UNL     1      -7.926  11.500  66.810  1.00  0.00    -0.152 C  
BRANCH   3   4
HETATM    4  C   UNL     1      -8.337  10.031  66.858  1.00  0.00    -0.125 C  
BRANCH   4   5
HETATM    5  C   UNL     1      -7.305   9.160  66.154  1.00  0.00    -0.095 C  
BRANCH   5   6
HETATM    6  C   UNL     1      -7.841   8.670  64.816  1.00  0.00    -0.123 C  
BRANCH   6   7
HETATM    7  C   UNL     1      -8.700   7.430  65.017  1.00  0.00     0.187 C  
BRANCH   7   8
HETATM    8  C   UNL     1      -7.933   6.383  65.807  1.00  0.00    -0.117 C  
BRANCH   8   9
HETATM    9  C   UNL     1      -8.435   6.336  67.241  1.00  0.00    -0.108 C  
BRANCH   9  10
HETATM   10  C   UNL     1      -9.937   6.125  67.256  1.00  0.00    -0.174 C  
BRANCH  10  11
HETATM   11  C   UNL     1     -10.650   7.437  67.526  1.00  0.00    -0.340 C  
BRANCH  11  12
HETATM   12  C   UNL     1     -10.530   7.782  68.997  1.00  0.00    -0.215 C  
BRANCH  12  13
HETATM   13  C   UNL     1     -11.756   7.305  69.747  1.00  0.00     0.135 C  
BRANCH  13  14
HETATM   14  C   UNL     1     -11.411   7.103  71.211  1.00  0.00    -0.314 C  
BRANCH  14  15
HETATM   15  C   UNL     1     -10.282   8.036  71.587  1.00  0.00    -0.256 C  
BRANCH  15  16
HETATM   16  C   UNL     1      -9.890   7.857  73.044  1.00  0.00    -0.355 C  
BRANCH  16  17
HETATM   17  C   UNL     1      -8.377   7.762  73.101  1.00  0.00    -0.207 C  
BRANCH  17  18
HETATM   18  C   UNL     1      -7.729   8.454  71.916  1.00  0.00    -0.121 C  
BRANCH  18  19
HETATM   19  N   UNL     1      -6.310   8.963  72.245  1.00  0.00    -0.047 N  
HETATM   20  C   UNL     1      -6.055   8.897  73.753  1.00  0.00    -0.030 C  
HETATM   21  C   UNL     1      -5.261   8.132  71.503  1.00  0.00    -0.033 C  
BRANCH  19  22
HETATM   22  C   UNL     1      -6.276  10.430  71.759  1.00  0.00     0.861 C  
BRANCH  22  23
HETATM   23  C   UNL     1      -6.018  10.533  70.269  1.00  0.00    -0.104 C  
BRANCH  23  24
HETATM   24  C   UNL     1      -5.344  11.844  69.908  1.00  0.00    -0.087 C  
BRANCH  24  25
HETATM   25  C   UNL     1      -5.139  12.622  71.196  1.00  0.00    -0.156 C  
BRANCH  25  26
HETATM   26  C   UNL     1      -5.931  13.909  71.184  1.00  0.00    -0.137 C  
BRANCH  26  27
HETATM   27  C   UNL     1      -6.273  14.272  69.750  1.00  0.00    -0.139 C  
BRANCH  27  28
HETATM   28  C   UNL     1      -6.524  15.762  69.650  1.00  0.00    -0.181 C  
BRANCH  28  29
HETATM   29  C   UNL     1      -7.446  16.058  68.483  1.00  0.00    -0.156 C  
BRANCH  29  30
HETATM   30  C   UNL     1      -7.799  14.763  67.778  1.00  0.00    -0.163 C  
BRANCH  30  31
HETATM   31  C   UNL     1      -8.862  15.007  66.725  1.00  0.00    -0.299 C  
BRANCH  31  32
HETATM   32  C   UNL     1     -10.219  15.161  67.385  1.00  0.00    -0.235 C  
BRANCH  32  33
HETATM   33  C   UNL     1     -10.894  13.806  67.520  1.00  0.00    -0.274 C  
BRANCH  33  34
HETATM   34  C   UNL     1     -11.997  13.868  68.566  1.00  0.00    -0.394 C  
BRANCH  34  35
HETATM   35  C   UNL     1     -12.086  15.268  69.157  1.00  0.00    -0.266 C  
BRANCH  35  36
HETATM   36  C   UNL     1     -11.109  15.425  70.315  1.00  0.00    -0.331 C  
BRANCH  36  37
HETATM   37  C   UNL     1     -11.756  14.981  71.623  1.00  0.00    -0.439 C  
BRANCH  37  38
HETATM   38  C   UNL     1     -12.262  16.179  72.418  1.00  0.00    -0.592 C  
HETATM   39  C   UNL     1     -12.907  15.736  73.720  1.00  0.00    -0.710 C  
ENDBRANCH  37  38
ENDBRANCH  36  37
ENDBRANCH  35  36
ENDBRANCH  34  35
ENDBRANCH  33  34
ENDBRANCH  32  33
ENDBRANCH  31  32
ENDBRANCH  30  31
ENDBRANCH  29  30
ENDBRANCH  28  29
ENDBRANCH  27  28
ENDBRANCH  26  27
ENDBRANCH  25  26
ENDBRANCH  24  25
ENDBRANCH  23  24
ENDBRANCH  22  23
ENDBRANCH  19  22
ENDBRANCH  18  19
ENDBRANCH  17  18
ENDBRANCH  16  17
ENDBRANCH  15  16
ENDBRANCH  14  15
ENDBRANCH  13  14
ENDBRANCH  12  13
ENDBRANCH  11  12
ENDBRANCH  10  11
ENDBRANCH   9  10
ENDBRANCH   8   9
ENDBRANCH   7   8
ENDBRANCH   6   7
ENDBRANCH   5   6
ENDBRANCH   4   5
ENDBRANCH   3   4
ENDBRANCH   2   3
TORSDOF 34
ENDMDL
MODEL      213
REMARK 921   NORMALIZED FREE ENERGY PREDICTED BY IDOCK:   -0.38 KCAL/MOL
REMARK 922        TOTAL FREE ENERGY PREDICTED BY IDOCK:   -7.48 KCAL/MOL
REMARK 923 INTER-LIGAND FREE ENERGY PREDICTED BY IDOCK:   -7.32 KCAL/MOL
REMARK 924 INTRA-LIGAND FREE ENERGY PREDICTED BY IDOCK:   -0.16 KCAL/MOL
REMARK 927      BINDING AFFINITY PREDICTED BY RF-SCORE:    0.00 PKD
ROOT
HETATM    1  C   UNL     1      -9.302   5.217  65.895  1.00  0.00    -0.165 C  
HETATM    2  C   UNL     1      -9.265   6.513  66.687  1.00  0.00    -0.172 C  
ENDROOT
BRANCH   2   3
HETATM    3  C   UNL     1      -9.029   7.705  65.772  1.00  0.00    -0.095 C  
BRANCH   3   4
HETATM    4  C   UNL     1      -7.610   8.244  65.927  1.00  0.00    -0.082 C  
BRANCH   4   5
HETATM    5  C   UNL     1      -7.575   9.385  66.936  1.00  0.00    -0.091 C  
BRANCH   5   6
HETATM    6  C   UNL     1      -7.306   8.852  68.336  1.00  0.00    -0.082 C  
BRANCH   6   7
HETATM    7  C   UNL     1      -6.231   7.775  68.291  1.00  0.00    -0.045 C  
BRANCH   7   8
HETATM    8  C   UNL     1      -5.166   8.051  69.340  1.00  0.00    -0.026 C  
BRANCH   8   9
HETATM    9  C   UNL     1      -5.753   7.909  70.734  1.00  0.00    -0.030 C  
BRANCH   9  10
HETATM   10  C   UNL     1      -6.447   6.566  70.868  1.00  0.00    -0.049 C  
BRANCH  10  11
HETATM   11  C   UNL     1      -5.423   5.459  71.027  1.00  0.00    -0.009 C  
BRANCH  11  12
HETATM   12  C   UNL     1      -5.949   4.422  72.001  1.00  0.00    -0.013 C  
BRANCH  12  13
HETATM   13  C   UNL     1      -6.565   5.101  73.206  1.00  0.00    -0.071 C  
BRANCH  13  14
HETATM   14  C   UNL     1      -8.046   5.322  72.963  1.00  0.00    -0.105 C  
BRANCH  14  15
HETATM   15  C   UNL     1      -8.803   5.046  74.243  1.00  0.00    -0.112 C  
BRANCH  15  16
HETATM   16  C   UNL     1      -9.872   6.100  74.481  1.00  0.00    -0.319 C  
BRANCH  16  17
HETATM   17  C   UNL     1      -9.582   7.262  73.550  1.00  0.00    -0.293 C  
BRANCH  17  18
HETATM   18  C   UNL     1     -10.859   7.891  73.026  1.00  0.00    -0.342 C  
BRANCH  18  19
HETATM   19  N   UNL     1     -11.379   7.183  71.757  1.00  0.00    -0.246 N  
HETATM   20  C   UNL     1     -11.467   5.671  71.987  1.00  0.00    -0.133 C  
HETATM   21  C   UNL     1     -12.754   7.730  71.367  1.00  0.00    -0.308 C  
BRANCH  19  22
HETATM   22  C   UNL     1     -10.342   7.498  70.656  1.00  0.00    -0.208 C  
BRANCH  22  23
HETATM   23  C   UNL     1      -9.520   8.730  70.980  1.00  0.00    -0.287 C  
BRANCH  23  24
HETATM   24  C   UNL     1     -10.232  10.003  70.560  1.00  0.00    -0.160 C  
BRANCH  24  25
HETATM   25  C   UNL     1     -10.463   9.924  69.061  1.00  0.00    -0.227 C  
BRANCH  25  26
HETATM   26  C   UNL     1     -11.754  10.608  68.675  1.00  0.00    -0.228 C  
BRANCH  26  27
HETATM   27  C   UNL     1     -12.322  11.325  69.887  1.00  0.00    -0.301 C  
BRANCH  27  28
HETATM   28  C   UNL     1     -11.899  12.779  69.861  1.00  0.00    -0.371 C  
BRANCH  28  29
HETATM   29  C   UNL     1     -11.945  13.310  68.441  1.00  0.00    -0.336 C  
BRANCH  29  30
HETATM   30  C   UNL     1     -11.995  14.825  68.470  1.00  0.00    -0.284 C  
BRANCH  30  31
HETATM   31  C   UNL     1     -11.441  15.348  69.780  1.00  0.00    -0.338 C  
BRANCH  31  32
HETATM   32  C   UNL     1     -10.106  16.030  69.542  1.00  0.00    -0.266 C  
BRANCH  32  33
HETATM   33  C   UNL     1      -9.085  15.022  69.043  1.00  0.00    -0.205 C  
BRANCH  33  34
HETATM   34  C   UNL     1      -8.777  15.267  67.574  1.00  0.00    -0.189 C  
BRANCH  34  35
HETATM   35  C   UNL     1      -7.284  15.117  67.315  1.00  0.00    -0.197 C  
BRANCH  35  36
HETATM   36  C   UNL     1      -6.477  15.772  68.429  1.00  0.00    -0.113 C  
BRANCH  36  37
HETATM   37  C   UNL     1      -7.265  16.918  69.056  1.00  0.00    -0.232 C  
BRANCH  37  38
HETATM   38  C   UNL     1      -6.334  18.035  69.514  1.00  0.00    -0.215 C  
HETATM   39  C   UNL     1      -6.792  19.380  68.976  1.00  0.00    -0.377 C  
ENDBRANCH  37  38
ENDBRANCH  36  37
ENDBRANCH  35  36
ENDBRANCH  34  35
ENDBRANCH  33  34
ENDBRANCH  32  33
ENDBRANCH  31  32
ENDBRANCH  30  31
ENDBRANCH  29  30
ENDBRANCH  28  29
ENDBRANCH  27  28
ENDBRANCH  26  27
ENDBRANCH  25  26
ENDBRANCH  24  25
ENDBRANCH  23  24
ENDBRANCH  22  23
ENDBRANCH  19  22
ENDBRANCH  18  19
ENDBRANCH  17  18
ENDBRANCH  16  17
ENDBRANCH  15  16
ENDBRANCH  14  15
ENDBRANCH  13  14
ENDBRANCH  12  13
ENDBRANCH  11  12
ENDBRANCH  10  11
ENDBRANCH   9  10
ENDBRANCH   8   9
ENDBRANCH   7   8
ENDBRANCH   6   7
ENDBRANCH   5   6
ENDBRANCH   4   5
ENDBRANCH   3   4
ENDBRANCH   2   3
TORSDOF 34
ENDMDL
MODEL      214
REMARK 921   NORMALIZED FREE ENERGY PREDICTED BY IDOCK:   -0.31 KCAL/MOL
REMARK 922        TOTAL FREE ENERGY PREDICTED BY IDOCK:   -7.24 KCAL/MOL
REMARK 923 INTER-LIGAND FREE ENERGY PREDICTED BY IDOCK:   -7.57 KCAL/MOL
REMARK 924 INTRA-LIGAND FREE ENERGY PREDICTED BY IDOCK:    0.33 KCAL/MOL
REMARK 927      BINDING AFFINITY PREDICTED BY RF-SCORE:    0.00 PKD
ROOT
HETATM    1  C   UNL     1      -5.926   7.540  69.440  1.00  0.00    -0.030 C  
HETATM    2  C   UNL     1      -6.448   7.098  70.795  1.00  0.00    -0.043 C  
ENDROOT
BRANCH   2   3
HETATM    3  C   UNL     1      -6.303   8.209  71.825  1.00  0.00    -0.047 C  
BRANCH   3   4
HETATM    4  C   UNL     1      -5.200   9.186  71.428  1.00  0.00    -0.042 C  
BRANCH   4   5
HETATM    5  C   UNL     1      -5.775  10.574  71.178  1.00  0.00     0.004 C  
BRANCH   5   6
HETATM    6  C   UNL     1      -5.753  10.902  69.692  1.00  0.00    -0.046 C  
BRANCH   6   7
HETATM    7  C   UNL     1      -6.948  10.268  68.996  1.00  0.00    -0.064 C  
BRANCH   7   8
HETATM    8  C   UNL     1      -8.128  10.184  69.951  1.00  0.00    -0.139 C  
BRANCH   8   9
HETATM    9  C   UNL     1      -9.082   9.087  69.511  1.00  0.00    -0.151 C  
BRANCH   9  10
HETATM   10  C   UNL     1      -9.888   8.597  70.700  1.00  0.00    -0.220 C  
BRANCH  10  11
HETATM   11  C   UNL     1     -10.683   9.740  71.303  1.00  0.00    -0.204 C  
BRANCH  11  12
HETATM   12  C   UNL     1     -12.162   9.413  71.242  1.00  0.00    -0.425 C  
BRANCH  12  13
HETATM   13  C   UNL     1     -12.960  10.660  70.920  1.00  0.00    -0.429 C  
BRANCH  13  14
HETATM   14  C   UNL     1     -12.060  11.680  70.246  1.00  0.00    -0.443 C  
BRANCH  14  15
HETATM   15  C   UNL     1     -11.304  11.007  69.123  1.00  0.00    -0.348 C  
BRANCH  15  16
HETATM   16  C   UNL     1     -11.988  11.245  67.788  1.00  0.00    -0.014 C  
BRANCH  16  17
HETATM   17  C   UNL     1     -12.227  12.737  67.657  1.00  0.00    -0.000 C  
BRANCH  17  18
HETATM   18  C   UNL     1     -12.245  13.175  66.204  1.00  0.00    -0.385 C  
BRANCH  18  19
HETATM   19  N   UNL     1     -10.840  13.559  65.695  1.00  0.00    -0.284 N  
HETATM   20  C   UNL     1     -10.525  12.822  64.390  1.00  0.00    -0.386 C  
HETATM   21  C   UNL     1     -10.749  15.071  65.473  1.00  0.00    -0.359 C  
BRANCH  19  22
HETATM   22  C   UNL     1      -9.864  13.119  66.808  1.00  0.00    -0.251 C  
BRANCH  22  23
HETATM   23  C   UNL     1      -8.422  13.437  66.464  1.00  0.00     0.288 C  
BRANCH  23  24
HETATM   24  C   UNL     1      -7.607  13.750  67.705  1.00  0.00    -0.189 C  
BRANCH  24  25
HETATM   25  C   UNL     1      -6.794  14.999  67.413  1.00  0.00    -0.144 C  
BRANCH  25  26
HETATM   26  C   UNL     1      -6.766  15.920  68.611  1.00  0.00    -0.119 C  
BRANCH  26  27
HETATM   27  C   UNL     1      -7.958  16.859  68.548  1.00  0.00    -0.242 C  
BRANCH  27  28
HETATM   28  C   UNL     1      -8.450  16.959  67.119  1.00  0.00    -0.218 C  
BRANCH  28  29
HETATM   29  C   UNL     1      -8.285  18.378  66.610  1.00  0.00    -0.283 C  
BRANCH  29  30
HETATM   30  C   UNL     1      -9.200  19.303  67.388  1.00  0.00    -0.356 C  
BRANCH  30  31
HETATM   31  C   UNL     1      -8.709  19.458  68.813  1.00  0.00    -0.377 C  
BRANCH  31  32
HETATM   32  C   UNL     1      -7.629  20.521  68.877  1.00  0.00     0.436 C  
BRANCH  32  33
HETATM   33  C   UNL     1      -6.290  19.888  69.214  1.00  0.00    -0.365 C  
BRANCH  33  34
HETATM   34  C   UNL     1      -5.208  20.416  68.285  1.00  0.00    -0.246 C  
BRANCH  34  35
HETATM   35  C   UNL     1      -5.835  21.157  67.112  1.00  0.00    -0.370 C  
BRANCH  35  36
HETATM   36  C   UNL     1      -5.184  20.737  65.801  1.00  0.00    -0.227 C  
BRANCH  36  37
HETATM   37  C   UNL     1      -6.244  20.312  64.790  1.00  0.00    -0.324 C  
BRANCH  37  38
HETATM   38  C   UNL     1      -5.676  20.302  63.375  1.00  0.00    -0.298 C  
HETATM   39  C   UNL     1      -6.470  21.222  62.464  1.00  0.00    -0.227 C  
ENDBRANCH  37  38
ENDBRANCH  36  37
ENDBRANCH  35  36
ENDBRANCH  34  35
ENDBRANCH  33  34
ENDBRANCH  32  33
ENDBRANCH  31  32
ENDBRANCH  30  31
ENDBRANCH  29  30
ENDBRANCH  28  29
ENDBRANCH  27  28
ENDBRANCH  26  27
ENDBRANCH  25  26
ENDBRANCH  24  25
ENDBRANCH  23  24
ENDBRANCH  22  23
ENDBRANCH  19  22
ENDBRANCH  18  19
ENDBRANCH  17  18
ENDBRANCH  16  17
ENDBRANCH  15  16
ENDBRANCH  14  15
ENDBRANCH  13  14
ENDBRANCH  12  13
ENDBRANCH  11  12
ENDBRANCH  10  11
ENDBRANCH   9  10
ENDBRANCH   8   9
ENDBRANCH   7   8
ENDBRANCH   6   7
ENDBRANCH   5   6
ENDBRANCH   4   5
ENDBRANCH   3   4
ENDBRANCH   2   3
TORSDOF 34
ENDMDL
MODEL      215
REMARK 921   NORMALIZED FREE ENERGY PREDICTED BY IDOCK:   -0.08 KCAL/MOL
REMARK 922        TOTAL FREE ENERGY PREDICTED BY IDOCK:   -6.56 KCAL/MOL
REMARK 923 INTER-LIGAND FREE ENERGY PREDICTED BY IDOCK:   -6.27 KCAL/MOL
REMARK 924 INTRA-LIGAND FREE ENERGY PREDICTED BY IDOCK:   -0.29 KCAL/MOL
REMARK 927      BINDING AFFINITY PREDICTED BY RF-SCORE:    0.00 PKD
ROOT
HETATM    1  C   UNL     1      -9.006  19.434  67.817  1.00  0.00    -0.365 C  
HETATM    2  C   UNL     1      -9.905  18.383  67.192  1.00  0.00    -0.329 C  
ENDROOT
BRANCH   2   3
HETATM    3  C   UNL     1     -10.805  17.742  68.238  1.00  0.00    -0.155 C  
BRANCH   3   4
HETATM    4  C   UNL     1     -10.134  16.525  68.869  1.00  0.00    -0.266 C  
BRANCH   4   5
HETATM    5  C   UNL     1      -8.958  16.058  68.020  1.00  0.00    -0.187 C  
BRANCH   5   6
HETATM    6  C   UNL     1      -8.137  15.019  68.769  1.00  0.00    -0.166 C  
BRANCH   6   7
HETATM    7  C   UNL     1      -7.359  14.156  67.786  1.00  0.00    -0.177 C  
BRANCH   7   8
HETATM    8  C   UNL     1      -8.090  12.845  67.546  1.00  0.00    -0.181 C  
BRANCH   8   9
HETATM    9  C   UNL     1      -9.163  13.029  66.486  1.00  0.00    -0.187 C  
BRANCH   9  10
HETATM   10  C   UNL     1     -10.518  12.650  67.053  1.00  0.00    -0.244 C  
BRANCH  10  11
HETATM   11  C   UNL     1     -11.072  11.437  66.328  1.00  0.00    -0.281 C  
BRANCH  11  12
HETATM   12  C   UNL     1     -10.326  10.197  66.779  1.00  0.00    -0.285 C  
BRANCH  12  13
HETATM   13  C   UNL     1     -10.970   9.624  68.024  1.00  0.00    -0.197 C  
BRANCH  13  14
HETATM   14  C   UNL     1     -10.783   8.118  68.048  1.00  0.00    -0.108 C  
BRANCH  14  15
HETATM   15  C   UNL     1     -10.006   7.697  66.821  1.00  0.00    -0.317 C  
BRANCH  15  16
HETATM   16  C   UNL     1      -8.806   6.848  67.203  1.00  0.00    -0.120 C  
BRANCH  16  17
HETATM   17  C   UNL     1      -9.286   5.416  67.344  1.00  0.00    -0.112 C  
BRANCH  17  18
HETATM   18  C   UNL     1      -8.236   4.426  66.875  1.00  0.00    -0.102 C  
BRANCH  18  19
HETATM   19  N   UNL     1      -8.360   3.064  67.589  1.00  0.00    -0.080 N  
HETATM   20  C   UNL     1      -9.281   2.129  66.800  1.00  0.00    -0.009 C  
HETATM   21  C   UNL     1      -6.981   2.419  67.751  1.00  0.00    -0.047 C  
BRANCH  19  22
HETATM   22  C   UNL     1      -8.972   3.378  68.972  1.00  0.00    -0.127 C  
BRANCH  22  23
HETATM   23  C   UNL     1      -7.923   3.428  70.065  1.00  0.00    -0.053 C  
BRANCH  23  24
HETATM   24  C   UNL     1      -6.723   2.563  69.727  1.00  0.00    -0.033 C  
BRANCH  24  25
HETATM   25  C   UNL     1      -5.484   3.287  70.223  1.00  0.00    -0.012 C  
BRANCH  25  26
HETATM   26  C   UNL     1      -5.797   4.726  70.564  1.00  0.00    -0.017 C  
BRANCH  26  27
HETATM   27  C   UNL     1      -5.261   5.039  71.950  1.00  0.00    -0.005 C  
BRANCH  27  28
HETATM   28  C   UNL     1      -6.413   5.355  72.881  1.00  0.00    -0.064 C  
BRANCH  28  29
HETATM   29  C   UNL     1      -5.985   6.383  73.909  1.00  0.00    -0.063 C  
BRANCH  29  30
HETATM   30  C   UNL     1      -6.736   7.679  73.671  1.00  0.00    -0.094 C  
BRANCH  30  31
HETATM   31  C   UNL     1      -6.880   7.942  72.185  1.00  0.00    -0.065 C  
BRANCH  31  32
HETATM   32  C   UNL     1      -8.159   8.712  71.917  1.00  0.00    -0.149 C  
BRANCH  32  33
HETATM   33  C   UNL     1      -9.069   7.915  70.998  1.00  0.00    -0.155 C  
BRANCH  33  34
HETATM   34  C   UNL     1      -9.307   6.525  71.568  1.00  0.00    -0.149 C  
BRANCH  34  35
HETATM   35  C   UNL     1     -10.655   5.989  71.104  1.00  0.00    -0.303 C  
BRANCH  35  36
HETATM   36  C   UNL     1     -11.699   6.137  72.203  1.00  0.00    -0.361 C  
BRANCH  36  37
HETATM   37  C   UNL     1     -11.744   4.883  73.070  1.00  0.00    -0.217 C  
BRANCH  37  38
HETATM   38  C   UNL     1     -10.523   4.004  72.824  1.00  0.00    -0.234 C  
HETATM   39  C   UNL     1     -10.821   2.552  73.158  1.00  0.00    -0.250 C  
ENDBRANCH  37  38
ENDBRANCH  36  37
ENDBRANCH  35  36
ENDBRANCH  34  35
ENDBRANCH  33  34
ENDBRANCH  32  33
ENDBRANCH  31  32
ENDBRANCH  30  31
ENDBRANCH  29  30
ENDBRANCH  28  29
ENDBRANCH  27  28
ENDBRANCH  26  27
ENDBRANCH  25  26
ENDBRANCH  24  25
ENDBRANCH  23  24
ENDBRANCH  22  23
ENDBRANCH  19  22
ENDBRANCH  18  19
ENDBRANCH  17  18
ENDBRANCH  16  17
ENDBRANCH  15  16
ENDBRANCH  14  15
ENDBRANCH  13  14
ENDBRANCH  12  13
ENDBRANCH  11  12
ENDBRANCH  10  11
ENDBRANCH   9  10
ENDBRANCH   8   9
ENDBRANCH   7   8
ENDBRANCH   6   7
ENDBRANCH   5   6
ENDBRANCH   4   5
ENDBRANCH   3   4
ENDBRANCH   2   3
TORSDOF 34
ENDMDL
MODEL      216
REMARK 921   NORMALIZED FREE ENERGY PREDICTED BY IDOCK:    0.06 KCAL/MOL
REMARK 922        TOTAL FREE ENERGY PREDICTED BY IDOCK:   -6.15 KCAL/MOL
REMARK 923 INTER-LIGAND FREE ENERGY PREDICTED BY IDOCK:   -4.05 KCAL/MOL
REMARK 924 INTRA-LIGAND FREE ENERGY PREDICTED BY IDOCK:   -2.10 KCAL/MOL
REMARK 927      BINDING AFFINITY PREDICTED BY RF-SCORE:    0.00 PKD
ROOT
HETATM    1  C   UNL     1      -8.220  15.106  65.661  1.00  0.00     2.475 C  
HETATM    2  C   UNL     1      -8.787  15.834  66.867  1.00  0.00    -0.273 C  
ENDROOT
BRANCH   2   3
HETATM    3  C   UNL     1     -10.224  15.413  67.133  1.00  0.00    -0.251 C  
BRANCH   3   4
HETATM    4  C   UNL     1     -11.077  15.540  65.873  1.00  0.00    -0.205 C  
BRANCH   4   5
HETATM    5  C   UNL     1     -11.917  14.287  65.664  1.00  0.00    -0.390 C  
BRANCH   5   6
HETATM    6  C   UNL     1     -12.385  14.193  64.218  1.00  0.00    -0.398 C  
BRANCH   6   7
HETATM    7  C   UNL     1     -11.618  13.100  63.487  1.00  0.00    -0.392 C  
BRANCH   7   8
HETATM    8  C   UNL     1     -11.785  11.771  64.206  1.00  0.00    -0.333 C  
BRANCH   8   9
HETATM    9  C   UNL     1     -10.427  11.203  64.580  1.00  0.00    -0.400 C  
BRANCH   9  10
HETATM   10  C   UNL     1      -9.943  11.832  65.873  1.00  0.00    -0.266 C  
BRANCH  10  11
HETATM   11  C   UNL     1      -9.024  10.876  66.612  1.00  0.00    -0.173 C  
BRANCH  11  12
HETATM   12  C   UNL     1      -9.357  10.899  68.091  1.00  0.00    -0.165 C  
BRANCH  12  13
HETATM   13  C   UNL     1     -10.169  12.133  68.425  1.00  0.00    -0.212 C  
BRANCH  13  14
HETATM   14  C   UNL     1     -11.648  11.800  68.364  1.00  0.00    -0.380 C  
BRANCH  14  15
HETATM   15  C   UNL     1     -12.334  12.368  69.586  1.00  0.00    -0.040 C  
BRANCH  15  16
HETATM   16  C   UNL     1     -11.789  11.737  70.857  1.00  0.00     0.092 C  
BRANCH  16  17
HETATM   17  C   UNL     1     -11.876  10.232  70.693  1.00  0.00    -0.439 C  
BRANCH  17  18
HETATM   18  C   UNL     1     -13.305   9.738  70.820  1.00  0.00    -0.080 C  
BRANCH  18  19
HETATM   19  N   UNL     1     -13.471   8.728  71.975  1.00  0.00    -0.389 N  
HETATM   20  C   UNL     1     -14.046   9.422  73.213  1.00  0.00     1.180 C  
HETATM   21  C   UNL     1     -14.388   7.579  71.550  1.00  0.00    -0.458 C  
BRANCH  19  22
HETATM   22  C   UNL     1     -12.049   8.200  72.268  1.00  0.00    -0.364 C  
BRANCH  22  23
HETATM   23  C   UNL     1     -11.655   7.068  71.341  1.00  0.00    -0.329 C  
BRANCH  23  24
HETATM   24  C   UNL     1     -10.155   7.025  71.116  1.00  0.00    -0.197 C  
BRANCH  24  25
HETATM   25  C   UNL     1      -9.922   6.674  69.657  1.00  0.00    -0.191 C  
BRANCH  25  26
HETATM   26  C   UNL     1     -10.259   5.226  69.387  1.00  0.00    -0.321 C  
BRANCH  26  27
HETATM   27  C   UNL     1      -9.942   4.401  70.621  1.00  0.00    -0.254 C  
BRANCH  27  28
HETATM   28  C   UNL     1      -9.513   3.009  70.205  1.00  0.00    -0.206 C  
BRANCH  28  29
HETATM   29  C   UNL     1      -8.071   2.766  70.605  1.00  0.00    -0.058 C  
BRANCH  29  30
HETATM   30  C   UNL     1      -7.453   1.745  69.670  1.00  0.00    -0.042 C  
BRANCH  30  31
HETATM   31  C   UNL     1      -6.008   2.099  69.379  1.00  0.00    -0.024 C  
BRANCH  31  32
HETATM   32  C   UNL     1      -5.828   3.605  69.408  1.00  0.00    -0.022 C  
BRANCH  32  33
HETATM   33  C   UNL     1      -6.971   4.285  68.674  1.00  0.00    -0.051 C  
BRANCH  33  34
HETATM   34  C   UNL     1      -6.520   5.630  68.126  1.00  0.00    -0.043 C  
BRANCH  34  35
HETATM   35  C   UNL     1      -7.571   6.194  67.179  1.00  0.00    -0.092 C  
BRANCH  35  36
HETATM   36  C   UNL     1      -8.398   5.072  66.566  1.00  0.00    -0.107 C  
BRANCH  36  37
HETATM   37  C   UNL     1      -7.990   4.838  65.115  1.00  0.00    -0.097 C  
BRANCH  37  38
HETATM   38  C   UNL     1      -7.293   3.492  64.953  1.00  0.00    -0.072 C  
HETATM   39  C   UNL     1      -7.760   2.508  66.012  1.00  0.00    -0.080 C  
ENDBRANCH  37  38
ENDBRANCH  36  37
ENDBRANCH  35  36
ENDBRANCH  34  35
ENDBRANCH  33  34
ENDBRANCH  32  33
ENDBRANCH  31  32
ENDBRANCH  30  31
ENDBRANCH  29  30
ENDBRANCH  28  29
ENDBRANCH  27  28
ENDBRANCH  26  27
ENDBRANCH  25  26
ENDBRANCH  24  25
ENDBRANCH  23  24
ENDBRANCH  22  23
ENDBRANCH  19  22
ENDBRANCH  18  19
ENDBRANCH  17  18
ENDBRANCH  16  17
ENDBRANCH  15  16
ENDBRANCH  14  15
ENDBRANCH  13  14
ENDBRANCH  12  13
ENDBRANCH  11  12
ENDBRANCH  10  11
ENDBRANCH   9  10
ENDBRANCH   8   9
ENDBRANCH   7   8
ENDBRANCH   6   7
ENDBRANCH   5   6
ENDBRANCH   4   5
ENDBRANCH   3   4
ENDBRANCH   2   3
TORSDOF 34
ENDMDL
MODEL      217
REMARK 921   NORMALIZED FREE ENERGY PREDICTED BY IDOCK:    0.29 KCAL/MOL
REMARK 922        TOTAL FREE ENERGY PREDICTED BY IDOCK:   -5.47 KCAL/MOL
REMARK 923 INTER-LIGAND FREE ENERGY PREDICTED BY IDOCK:   -6.42 KCAL/MOL
REMARK 924 INTRA-LIGAND FREE ENERGY PREDICTED BY IDOCK:    0.95 KCAL/MOL
REMARK 927      BINDING AFFINITY PREDICTED BY RF-SCORE:    0.00 PKD
ROOT
HETATM    1  C   UNL     1      -8.929  18.217  67.903  1.00  0.00    -0.285 C  
HETATM    2  C   UNL     1      -7.878  17.290  67.319  1.00  0.00    -0.211 C  
ENDROOT
BRANCH   2   3
HETATM    3  C   UNL     1      -8.224  16.905  65.888  1.00  0.00     0.013 C  
BRANCH   3   4
HETATM    4  C   UNL     1      -9.669  16.427  65.782  1.00  0.00    -0.271 C  
BRANCH   4   5
HETATM    5  C   UNL     1      -9.896  15.200  66.656  1.00  0.00    -0.265 C  
BRANCH   5   6
HETATM    6  C   UNL     1     -11.370  14.820  66.673  1.00  0.00    -0.347 C  
BRANCH   6   7
HETATM    7  C   UNL     1     -11.558  13.479  67.367  1.00  0.00    -0.392 C  
BRANCH   7   8
HETATM    8  C   UNL     1     -11.791  12.383  66.339  1.00  0.00    -0.421 C  
BRANCH   8   9
HETATM    9  C   UNL     1     -10.484  12.021  65.654  1.00  0.00    -0.293 C  
BRANCH   9  10
HETATM   10  C   UNL     1     -10.531  12.440  64.197  1.00  0.00    -0.415 C  
BRANCH  10  11
HETATM   11  C   UNL     1     -10.242  11.252  63.298  1.00  0.00    -0.417 C  
BRANCH  11  12
HETATM   12  C   UNL     1      -8.752  10.968  63.301  1.00  0.00    -0.057 C  
BRANCH  12  13
HETATM   13  C   UNL     1      -8.454   9.730  62.481  1.00  0.00    -0.179 C  
BRANCH  13  14
HETATM   14  C   UNL     1      -6.953   9.559  62.345  1.00  0.00    -0.099 C  
BRANCH  14  15
HETATM   15  C   UNL     1      -6.367   9.231  63.700  1.00  0.00    -0.091 C  
BRANCH  15  16
HETATM   16  C   UNL     1      -5.134  10.074  63.978  1.00  0.00    -0.084 C  
BRANCH  16  17
HETATM   17  C   UNL     1      -5.226  10.556  65.414  1.00  0.00    -0.114 C  
BRANCH  17  18
HETATM   18  C   UNL     1      -5.246   9.397  66.392  1.00  0.00    -0.043 C  
BRANCH  18  19
HETATM   19  N   UNL     1      -6.653   9.154  66.978  1.00  0.00    -0.064 N  
HETATM   20  C   UNL     1      -6.562   8.839  68.474  1.00  0.00    -0.059 C  
HETATM   21  C   UNL     1      -7.541  10.381  66.758  1.00  0.00    -0.110 C  
BRANCH  19  22
HETATM   22  C   UNL     1      -7.216   7.939  66.207  1.00  0.00    -0.074 C  
BRANCH  22  23
HETATM   23  C   UNL     1      -8.699   8.076  65.926  1.00  0.00    -0.184 C  
BRANCH  23  24
HETATM   24  C   UNL     1      -9.410   8.834  67.031  1.00  0.00    -0.200 C  
BRANCH  24  25
HETATM   25  C   UNL     1     -10.669   8.060  67.380  1.00  0.00    -0.260 C  
BRANCH  25  26
HETATM   26  C   UNL     1     -10.890   8.030  68.874  1.00  0.00    -0.001 C  
BRANCH  26  27
HETATM   27  C   UNL     1     -10.112   9.163  69.518  1.00  0.00    -0.202 C  
BRANCH  27  28
HETATM   28  C   UNL     1      -9.984   8.910  71.006  1.00  0.00    -0.324 C  
BRANCH  28  29
HETATM   29  C   UNL     1     -11.354   8.909  71.654  1.00  0.00    -0.407 C  
BRANCH  29  30
HETATM   30  C   UNL     1     -11.885  10.328  71.715  1.00  0.00     0.052 C  
BRANCH  30  31
HETATM   31  C   UNL     1     -11.850  10.966  70.341  1.00  0.00    -0.449 C  
BRANCH  31  32
HETATM   32  C   UNL     1     -13.073  11.842  70.146  1.00  0.00     0.708 C  
BRANCH  32  33
HETATM   33  C   UNL     1     -13.727  12.136  71.485  1.00  0.00     0.537 C  
BRANCH  33  34
HETATM   34  C   UNL     1     -12.716  12.747  72.443  1.00  0.00     0.172 C  
BRANCH  34  35
HETATM   35  C   UNL     1     -13.275  14.021  73.060  1.00  0.00    -0.354 C  
BRANCH  35  36
HETATM   36  C   UNL     1     -12.607  15.249  72.456  1.00  0.00    -0.446 C  
BRANCH  36  37
HETATM   37  C   UNL     1     -12.384  15.054  70.960  1.00  0.00    -0.394 C  
BRANCH  37  38
HETATM   38  C   UNL     1     -10.897  15.027  70.628  1.00  0.00    -0.134 C  
HETATM   39  C   UNL     1     -10.503  16.237  69.798  1.00  0.00    -0.260 C  
ENDBRANCH  37  38
ENDBRANCH  36  37
ENDBRANCH  35  36
ENDBRANCH  34  35
ENDBRANCH  33  34
ENDBRANCH  32  33
ENDBRANCH  31  32
ENDBRANCH  30  31
ENDBRANCH  29  30
ENDBRANCH  28  29
ENDBRANCH  27  28
ENDBRANCH  26  27
ENDBRANCH  25  26
ENDBRANCH  24  25
ENDBRANCH  23  24
ENDBRANCH  22  23
ENDBRANCH  19  22
ENDBRANCH  18  19
ENDBRANCH  17  18
ENDBRANCH  16  17
ENDBRANCH  15  16
ENDBRANCH  14  15
ENDBRANCH  13  14
ENDBRANCH  12  13
ENDBRANCH  11  12
ENDBRANCH  10  11
ENDBRANCH   9  10
ENDBRANCH   8   9
ENDBRANCH   7   8
ENDBRANCH   6   7
ENDBRANCH   5   6
ENDBRANCH   4   5
ENDBRANCH   3   4
ENDBRANCH   2   3
TORSDOF 34
ENDMDL
MODEL      218
REMARK 921   NORMALIZED FREE ENERGY PREDICTED BY IDOCK:    0.37 KCAL/MOL
REMARK 922        TOTAL FREE ENERGY PREDICTED BY IDOCK:   -5.23 KCAL/MOL
REMARK 923 INTER-LIGAND FREE ENERGY PREDICTED BY IDOCK:   -6.91 KCAL/MOL
REMARK 924 INTRA-LIGAND FREE ENERGY PREDICTED BY IDOCK:    1.69 KCAL/MOL
REMARK 927      BINDING AFFINITY PREDICTED BY RF-SCORE:    0.00 PKD
ROOT
HETATM    1  C   UNL     1      -9.582  18.833  67.105  1.00  0.00    -0.328 C  
HETATM    2  C   UNL     1     -10.701  18.196  67.909  1.00  0.00    -0.331 C  
ENDROOT
BRANCH   2   3
HETATM    3  C   UNL     1     -10.165  17.553  69.179  1.00  0.00    -0.256 C  
BRANCH   3   4
HETATM    4  C   UNL     1     -10.441  16.052  69.193  1.00  0.00    -0.251 C  
BRANCH   4   5
HETATM    5  C   UNL     1     -11.863  15.772  69.661  1.00  0.00    -0.352 C  
BRANCH   5   6
HETATM    6  C   UNL     1     -12.211  14.303  69.462  1.00  0.00    -0.341 C  
BRANCH   6   7
HETATM    7  C   UNL     1     -10.979  13.526  69.023  1.00  0.00    -0.264 C  
BRANCH   7   8
HETATM    8  C   UNL     1     -10.696  13.780  67.551  1.00  0.00    -0.262 C  
BRANCH   8   9
HETATM    9  C   UNL     1     -11.999  13.946  66.787  1.00  0.00    -0.472 C  
BRANCH   9  10
HETATM   10  C   UNL     1     -12.401  12.625  66.159  1.00  0.00    -0.101 C  
BRANCH  10  11
HETATM   11  C   UNL     1     -12.395  12.738  64.646  1.00  0.00    -0.524 C  
BRANCH  11  12
HETATM   12  C   UNL     1     -11.029  12.345  64.117  1.00  0.00    -0.416 C  
BRANCH  12  13
HETATM   13  C   UNL     1     -10.659  10.960  64.602  1.00  0.00    -0.332 C  
BRANCH  13  14
HETATM   14  C   UNL     1      -9.442  11.045  65.504  1.00  0.00    -0.250 C  
BRANCH  14  15
HETATM   15  C   UNL     1      -8.871   9.658  65.698  1.00  0.00    -0.189 C  
BRANCH  15  16
HETATM   16  C   UNL     1      -9.226   8.756  64.528  1.00  0.00     0.381 C  
BRANCH  16  17
HETATM   17  C   UNL     1      -8.675   9.401  63.270  1.00  0.00    -0.220 C  
BRANCH  17  18
HETATM   18  C   UNL     1      -7.638   8.520  62.599  1.00  0.00    -0.113 C  
BRANCH  18  19
HETATM   19  N   UNL     1      -6.218   8.772  63.147  1.00  0.00    -0.089 N  
HETATM   20  C   UNL     1      -5.702  10.138  62.685  1.00  0.00    -0.114 C  
HETATM   21  C   UNL     1      -6.217   8.706  64.676  1.00  0.00    -0.066 C  
BRANCH  19  22
HETATM   22  C   UNL     1      -5.343   7.642  62.559  1.00  0.00    -0.047 C  
BRANCH  22  23
HETATM   23  C   UNL     1      -5.204   6.471  63.512  1.00  0.00    -0.026 C  
BRANCH  23  24
HETATM   24  C   UNL     1      -5.160   6.930  64.958  1.00  0.00    -0.027 C  
BRANCH  24  25
HETATM   25  C   UNL     1      -5.141   5.687  65.830  1.00  0.00    -0.009 C  
BRANCH  25  26
HETATM   26  C   UNL     1      -5.282   6.048  67.291  1.00  0.00    -0.005 C  
BRANCH  26  27
HETATM   27  C   UNL     1      -5.260   4.779  68.124  1.00  0.00    -0.010 C  
BRANCH  27  28
HETATM   28  C   UNL     1      -6.277   3.797  67.580  1.00  0.00    -0.036 C  
BRANCH  28  29
HETATM   29  C   UNL     1      -7.630   4.039  68.219  1.00  0.00    -0.066 C  
BRANCH  29  30
HETATM   30  C   UNL     1      -8.399   5.058  67.401  1.00  0.00    -0.106 C  
BRANCH  30  31
HETATM   31  C   UNL     1      -9.885   4.766  67.454  1.00  0.00    -0.214 C  
BRANCH  31  32
HETATM   32  C   UNL     1     -10.659   5.896  66.802  1.00  0.00    -0.368 C  
BRANCH  32  33
HETATM   33  C   UNL     1     -10.893   7.016  67.801  1.00  0.00    -0.276 C  
BRANCH  33  34
HETATM   34  C   UNL     1     -11.618   6.486  69.029  1.00  0.00    -0.039 C  
BRANCH  34  35
HETATM   35  C   UNL     1     -10.709   6.550  70.248  1.00  0.00    -0.307 C  
BRANCH  35  36
HETATM   36  C   UNL     1      -9.746   7.725  70.138  1.00  0.00    -0.183 C  
BRANCH  36  37
HETATM   37  C   UNL     1      -8.344   7.236  69.791  1.00  0.00    -0.135 C  
BRANCH  37  38
HETATM   38  C   UNL     1      -7.818   7.928  68.538  1.00  0.00    -0.119 C  
HETATM   39  C   UNL     1      -6.701   8.899  68.882  1.00  0.00    -0.053 C  
ENDBRANCH  37  38
ENDBRANCH  36  37
ENDBRANCH  35  36
ENDBRANCH  34  35
ENDBRANCH  33  34
ENDBRANCH  32  33
ENDBRANCH  31  32
ENDBRANCH  30  31
ENDBRANCH  29  30
ENDBRANCH  28  29
ENDBRANCH  27  28
ENDBRANCH  26  27
ENDBRANCH  25  26
ENDBRANCH  24  25
ENDBRANCH  23  24
ENDBRANCH  22  23
ENDBRANCH  19  22
ENDBRANCH  18  19
ENDBRANCH  17  18
ENDBRANCH  16  17
ENDBRANCH  15  16
ENDBRANCH  14  15
ENDBRANCH  13  14
ENDBRANCH  12  13
ENDBRANCH  11  12
ENDBRANCH  10  11
ENDBRANCH   9  10
ENDBRANCH   8   9
ENDBRANCH   7   8
ENDBRANCH   6   7
ENDBRANCH   5   6
ENDBRANCH   4   5
ENDBRANCH   3   4
ENDBRANCH   2   3
TORSDOF 34
ENDMDL
MODEL      219
REMARK 921   NORMALIZED FREE ENERGY PREDICTED BY IDOCK:    0.38 KCAL/MOL
REMARK 922        TOTAL FREE ENERGY PREDICTED BY IDOCK:   -5.19 KCAL/MOL
REMARK 923 INTER-LIGAND FREE ENERGY PREDICTED BY IDOCK:   -5.61 KCAL/MOL
REMARK 924 INTRA-LIGAND FREE ENERGY PREDICTED BY IDOCK:    0.42 KCAL/MOL
REMARK 927      BINDING AFFINITY PREDICTED BY RF-SCORE:    0.00 PKD
ROOT
HETATM    1  C   UNL     1     -11.190   8.669  73.101  1.00  0.00     0.967 C  
HETATM    2  C   UNL     1     -10.166   7.590  73.407  1.00  0.00    -0.399 C  
ENDROOT
BRANCH   2   3
HETATM    3  C   UNL     1     -10.742   6.204  73.158  1.00  0.00    -0.283 C  
BRANCH   3   4
HETATM    4  C   UNL     1     -11.987   6.277  72.278  1.00  0.00    -0.296 C  
BRANCH   4   5
HETATM    5  C   UNL     1     -11.713   7.098  71.025  1.00  0.00    -0.358 C  
BRANCH   5   6
HETATM    6  C   UNL     1     -11.400   6.188  69.846  1.00  0.00    -0.454 C  
BRANCH   6   7
HETATM    7  C   UNL     1     -10.962   7.014  68.646  1.00  0.00    -0.144 C  
BRANCH   7   8
HETATM    8  C   UNL     1      -9.529   7.487  68.829  1.00  0.00    -0.148 C  
BRANCH   8   9
HETATM    9  C   UNL     1      -8.602   6.297  69.008  1.00  0.00    -0.123 C  
BRANCH   9  10
HETATM   10  C   UNL     1      -9.059   5.150  68.127  1.00  0.00    -0.125 C  
BRANCH  10  11
HETATM   11  C   UNL     1      -9.453   3.957  68.978  1.00  0.00    -0.240 C  
BRANCH  11  12
HETATM   12  C   UNL     1      -8.314   2.956  69.000  1.00  0.00    -0.085 C  
BRANCH  12  13
HETATM   13  C   UNL     1      -8.753   1.652  68.367  1.00  0.00    -0.105 C  
BRANCH  13  14
HETATM   14  C   UNL     1      -8.183   1.550  66.964  1.00  0.00    -0.075 C  
BRANCH  14  15
HETATM   15  C   UNL     1      -7.258   2.721  66.720  1.00  0.00    -0.061 C  
BRANCH  15  16
HETATM   16  C   UNL     1      -5.805   2.308  66.875  1.00  0.00    -0.019 C  
BRANCH  16  17
HETATM   17  C   UNL     1      -5.401   1.572  65.611  1.00  0.00    -0.005 C  
BRANCH  17  18
HETATM   18  C   UNL     1      -6.406   1.788  64.495  1.00  0.00    -0.018 C  
BRANCH  18  19
HETATM   19  N   UNL     1      -6.085   3.045  63.658  1.00  0.00    -0.017 N  
HETATM   20  C   UNL     1      -5.451   4.125  64.539  1.00  0.00    -0.013 C  
HETATM   21  C   UNL     1      -5.140   2.692  62.508  1.00  0.00    -0.004 C  
BRANCH  19  22
HETATM   22  C   UNL     1      -7.445   3.531  63.108  1.00  0.00    -0.054 C  
BRANCH  22  23
HETATM   23  C   UNL     1      -8.432   3.843  64.215  1.00  0.00    -0.096 C  
BRANCH  23  24
HETATM   24  C   UNL     1      -8.930   5.274  64.134  1.00  0.00     0.129 C  
BRANCH  24  25
HETATM   25  C   UNL     1      -7.783   6.180  64.546  1.00  0.00    -0.105 C  
BRANCH  25  26
HETATM   26  C   UNL     1      -8.240   7.617  64.656  1.00  0.00    -0.067 C  
BRANCH  26  27
HETATM   27  C   UNL     1      -7.573   8.263  65.857  1.00  0.00    -0.082 C  
BRANCH  27  28
HETATM   28  C   UNL     1      -7.633   9.770  65.720  1.00  0.00    -0.108 C  
BRANCH  28  29
HETATM   29  C   UNL     1      -7.645  10.417  67.091  1.00  0.00    -0.096 C  
BRANCH  29  30
HETATM   30  C   UNL     1      -8.684  11.521  67.120  1.00  0.00    -0.160 C  
BRANCH  30  31
HETATM   31  C   UNL     1     -10.027  10.973  67.559  1.00  0.00    -0.199 C  
BRANCH  31  32
HETATM   32  C   UNL     1      -9.989  10.632  69.037  1.00  0.00    -0.226 C  
BRANCH  32  33
HETATM   33  C   UNL     1     -11.401  10.535  69.589  1.00  0.00    -0.345 C  
BRANCH  33  34
HETATM   34  C   UNL     1     -11.692  11.716  70.503  1.00  0.00    -0.196 C  
BRANCH  34  35
HETATM   35  C   UNL     1     -12.633  11.296  71.623  1.00  0.00    -0.357 C  
BRANCH  35  36
HETATM   36  C   UNL     1     -13.519  12.461  72.045  1.00  0.00    -0.460 C  
BRANCH  36  37
HETATM   37  C   UNL     1     -12.668  13.647  72.488  1.00  0.00    -0.180 C  
BRANCH  37  38
HETATM   38  C   UNL     1     -13.530  14.732  73.122  1.00  0.00    -0.350 C  
HETATM   39  C   UNL     1     -14.381  15.432  72.076  1.00  0.00    -0.653 C  
ENDBRANCH  37  38
ENDBRANCH  36  37
ENDBRANCH  35  36
ENDBRANCH  34  35
ENDBRANCH  33  34
ENDBRANCH  32  33
ENDBRANCH  31  32
ENDBRANCH  30  31
ENDBRANCH  29  30
ENDBRANCH  28  29
ENDBRANCH  27  28
ENDBRANCH  26  27
ENDBRANCH  25  26
ENDBRANCH  24  25
ENDBRANCH  23  24
ENDBRANCH  22  23
ENDBRANCH  19  22
ENDBRANCH  18  19
ENDBRANCH  17  18
ENDBRANCH  16  17
ENDBRANCH  15  16
ENDBRANCH  14  15
ENDBRANCH  13  14
ENDBRANCH  12  13
ENDBRANCH  11  12
ENDBRANCH  10  11
ENDBRANCH   9  10
ENDBRANCH   8   9
ENDBRANCH   7   8
ENDBRANCH   6   7
ENDBRANCH   5   6
ENDBRANCH   4   5
ENDBRANCH   3   4
ENDBRANCH   2   3
TORSDOF 34
ENDMDL
MODEL      220
REMARK 921   NORMALIZED FREE ENERGY PREDICTED BY IDOCK:    0.44 KCAL/MOL
REMARK 922        TOTAL FREE ENERGY PREDICTED BY IDOCK:   -5.02 KCAL/MOL
REMARK 923 INTER-LIGAND FREE ENERGY PREDICTED BY IDOCK:   -6.09 KCAL/MOL
REMARK 924 INTRA-LIGAND FREE ENERGY PREDICTED BY IDOCK:    1.07 KCAL/MOL
REMARK 927      BINDING AFFINITY PREDICTED BY RF-SCORE:    0.00 PKD
ROOT
HETATM    1  C   UNL     1     -10.846   8.425  73.200  1.00  0.00     0.387 C  
HETATM    2  C   UNL     1      -9.762   7.404  73.493  1.00  0.00    -0.338 C  
ENDROOT
BRANCH   2   3
HETATM    3  C   UNL     1     -10.262   5.989  73.244  1.00  0.00    -0.218 C  
BRANCH   3   4
HETATM    4  C   UNL     1     -11.573   5.999  72.463  1.00  0.00    -0.315 C  
BRANCH   4   5
HETATM    5  C   UNL     1     -11.457   6.884  71.228  1.00  0.00    -0.337 C  
BRANCH   5   6
HETATM    6  C   UNL     1     -11.176   6.042  69.992  1.00  0.00    -0.425 C  
BRANCH   6   7
HETATM    7  C   UNL     1     -11.007   6.938  68.773  1.00  0.00    -0.210 C  
BRANCH   7   8
HETATM    8  C   UNL     1      -9.646   7.616  68.805  1.00  0.00    -0.153 C  
BRANCH   8   9
HETATM    9  C   UNL     1      -8.544   6.575  68.903  1.00  0.00    -0.125 C  
BRANCH   9  10
HETATM   10  C   UNL     1      -8.952   5.318  68.156  1.00  0.00    -0.115 C  
BRANCH  10  11
HETATM   11  C   UNL     1      -9.060   4.148  69.116  1.00  0.00    -0.191 C  
BRANCH  11  12
HETATM   12  C   UNL     1      -7.804   3.303  69.024  1.00  0.00    -0.054 C  
BRANCH  12  13
HETATM   13  C   UNL     1      -8.157   1.884  68.634  1.00  0.00    -0.065 C  
BRANCH  13  14
HETATM   14  C   UNL     1      -7.801   1.653  67.176  1.00  0.00    -0.065 C  
BRANCH  14  15
HETATM   15  C   UNL     1      -6.997   2.830  66.672  1.00  0.00    -0.049 C  
BRANCH  15  16
HETATM   16  C   UNL     1      -5.508   2.528  66.711  1.00  0.00    -0.017 C  
BRANCH  16  17
HETATM   17  C   UNL     1      -5.222   1.500  65.632  1.00  0.00    -0.005 C  
BRANCH  17  18
HETATM   18  C   UNL     1      -6.302   1.494  64.567  1.00  0.00    -0.018 C  
BRANCH  18  19
HETATM   19  N   UNL     1      -5.995   2.481  63.421  1.00  0.00    -0.010 N  
HETATM   20  C   UNL     1      -5.269   3.716  63.961  1.00  0.00    -0.009 C  
HETATM   21  C   UNL     1      -5.140   1.803  62.348  1.00  0.00     0.000 C  
BRANCH  19  22
HETATM   22  C   UNL     1      -7.370   2.879  62.840  1.00  0.00    -0.052 C  
BRANCH  22  23
HETATM   23  C   UNL     1      -8.270   3.512  63.882  1.00  0.00    -0.090 C  
BRANCH  23  24
HETATM   24  C   UNL     1      -8.869   4.815  63.386  1.00  0.00    -0.109 C  
BRANCH  24  25
HETATM   25  C   UNL     1      -7.719   5.722  62.984  1.00  0.00    -0.090 C  
BRANCH  25  26
HETATM   26  C   UNL     1      -8.230   7.050  62.473  1.00  0.00    -0.037 C  
BRANCH  26  27
HETATM   27  C   UNL     1      -7.646   8.168  63.318  1.00  0.00    -0.132 C  
BRANCH  27  28
HETATM   28  C   UNL     1      -8.020   9.507  62.716  1.00  0.00    -0.126 C  
BRANCH  28  29
HETATM   29  C   UNL     1      -8.392  10.485  63.813  1.00  0.00    -0.101 C  
BRANCH  29  30
HETATM   30  C   UNL     1      -9.740  10.104  64.393  1.00  0.00    -0.345 C  
BRANCH  30  31
HETATM   31  C   UNL     1     -10.029  10.917  65.640  1.00  0.00    -0.305 C  
BRANCH  31  32
HETATM   32  C   UNL     1     -10.055  12.395  65.300  1.00  0.00    -0.285 C  
BRANCH  32  33
HETATM   33  C   UNL     1      -9.070  13.152  66.174  1.00  0.00     0.094 C  
BRANCH  33  34
HETATM   34  C   UNL     1      -9.746  13.609  67.457  1.00  0.00    -0.227 C  
BRANCH  34  35
HETATM   35  C   UNL     1     -11.045  12.845  67.670  1.00  0.00    -0.297 C  
BRANCH  35  36
HETATM   36  C   UNL     1     -11.092  12.243  69.068  1.00  0.00    -0.289 C  
BRANCH  36  37
HETATM   37  C   UNL     1     -12.015  11.028  69.096  1.00  0.00    -0.394 C  
BRANCH  37  38
HETATM   38  C   UNL     1     -11.977  10.344  70.457  1.00  0.00    -0.427 C  
HETATM   39  C   UNL     1     -12.885  11.052  71.447  1.00  0.00    -0.548 C  
ENDBRANCH  37  38
ENDBRANCH  36  37
ENDBRANCH  35  36
ENDBRANCH  34  35
ENDBRANCH  33  34
ENDBRANCH  32  33
ENDBRANCH  31  32
ENDBRANCH  30  31
ENDBRANCH  29  30
ENDBRANCH  28  29
ENDBRANCH  27  28
ENDBRANCH  26  27
ENDBRANCH  25  26
ENDBRANCH  24  25
ENDBRANCH  23  24
ENDBRANCH  22  23
ENDBRANCH  19  22
ENDBRANCH  18  19
ENDBRANCH  17  18
ENDBRANCH  16  17
ENDBRANCH  15  16
ENDBRANCH  14  15
ENDBRANCH  13  14
ENDBRANCH  12  13
ENDBRANCH  11  12
ENDBRANCH  10  11
ENDBRANCH   9  10
ENDBRANCH   8   9
ENDBRANCH   7   8
ENDBRANCH   6   7
ENDBRANCH   5   6
ENDBRANCH   4   5
ENDBRANCH   3   4
ENDBRANCH   2   3
TORSDOF 34
ENDMDL
MODEL      221
REMARK 921   NORMALIZED FREE ENERGY PREDICTED BY IDOCK:    0.49 KCAL/MOL
REMARK 922        TOTAL FREE ENERGY PREDICTED BY IDOCK:   -4.86 KCAL/MOL
REMARK 923 INTER-LIGAND FREE ENERGY PREDICTED BY IDOCK:   -6.19 KCAL/MOL
REMARK 924 INTRA-LIGAND FREE ENERGY PREDICTED BY IDOCK:    1.33 KCAL/MOL
REMARK 927      BINDING AFFINITY PREDICTED BY RF-SCORE:    0.00 PKD
ROOT
HETATM    1  C   UNL     1     -10.847   8.429  73.203  1.00  0.00     0.387 C  
HETATM    2  C   UNL     1      -9.754   7.417  73.495  1.00  0.00    -0.338 C  
ENDROOT
BRANCH   2   3
HETATM    3  C   UNL     1     -10.244   5.998  73.249  1.00  0.00    -0.218 C  
BRANCH   3   4
HETATM    4  C   UNL     1     -11.561   5.997  72.477  1.00  0.00    -0.315 C  
BRANCH   4   5
HETATM    5  C   UNL     1     -11.461   6.886  71.243  1.00  0.00    -0.337 C  
BRANCH   5   6
HETATM    6  C   UNL     1     -11.183   6.049  70.003  1.00  0.00    -0.425 C  
BRANCH   6   7
HETATM    7  C   UNL     1     -11.033   6.949  68.785  1.00  0.00    -0.210 C  
BRANCH   7   8
HETATM    8  C   UNL     1      -9.678   7.637  68.804  1.00  0.00    -0.153 C  
BRANCH   8   9
HETATM    9  C   UNL     1      -8.567   6.605  68.896  1.00  0.00    -0.126 C  
BRANCH   9  10
HETATM   10  C   UNL     1      -8.974   5.341  68.163  1.00  0.00    -0.115 C  
BRANCH  10  11
HETATM   11  C   UNL     1      -9.065   4.177  69.133  1.00  0.00    -0.191 C  
BRANCH  11  12
HETATM   12  C   UNL     1      -7.805   3.339  69.033  1.00  0.00    -0.054 C  
BRANCH  12  13
HETATM   13  C   UNL     1      -8.155   1.911  68.668  1.00  0.00    -0.065 C  
BRANCH  13  14
HETATM   14  C   UNL     1      -7.822   1.663  67.209  1.00  0.00    -0.060 C  
BRANCH  14  15
HETATM   15  C   UNL     1      -7.037   2.838  66.673  1.00  0.00    -0.053 C  
BRANCH  15  16
HETATM   16  C   UNL     1      -5.545   2.550  66.694  1.00  0.00    -0.021 C  
BRANCH  16  17
HETATM   17  C   UNL     1      -5.266   1.511  65.625  1.00  0.00    -0.005 C  
BRANCH  17  18
HETATM   18  C   UNL     1      -6.366   1.475  64.580  1.00  0.00    -0.018 C  
BRANCH  18  19
HETATM   19  N   UNL     1      -6.098   2.455  63.419  1.00  0.00    -0.010 N  
HETATM   20  C   UNL     1      -5.436   3.734  63.941  1.00  0.00    -0.013 C  
HETATM   21  C   UNL     1      -5.204   1.800  62.364  1.00  0.00     0.000 C  
BRANCH  19  22
HETATM   22  C   UNL     1      -7.487   2.776  62.822  1.00  0.00    -0.053 C  
BRANCH  22  23
HETATM   23  C   UNL     1      -8.423   3.385  63.847  1.00  0.00    -0.090 C  
BRANCH  23  24
HETATM   24  C   UNL     1      -9.031   4.682  63.348  1.00  0.00    -0.110 C  
BRANCH  24  25
HETATM   25  C   UNL     1      -7.889   5.591  62.931  1.00  0.00    -0.091 C  
BRANCH  25  26
HETATM   26  C   UNL     1      -8.394   6.973  62.586  1.00  0.00     0.059 C  
BRANCH  26  27
HETATM   27  C   UNL     1      -7.781   7.982  63.541  1.00  0.00    -0.140 C  
BRANCH  27  28
HETATM   28  C   UNL     1      -8.633   9.234  63.572  1.00  0.00    -0.201 C  
BRANCH  28  29
HETATM   29  C   UNL     1      -8.749   9.750  64.993  1.00  0.00    -0.198 C  
BRANCH  29  30
HETATM   30  C   UNL     1      -9.987  10.617  65.115  1.00  0.00    -0.366 C  
BRANCH  30  31
HETATM   31  C   UNL     1     -10.307  10.882  66.573  1.00  0.00    -0.299 C  
BRANCH  31  32
HETATM   32  C   UNL     1     -10.030  12.335  66.908  1.00  0.00    -0.223 C  
BRANCH  32  33
HETATM   33  C   UNL     1     -10.222  13.204  65.676  1.00  0.00    -0.294 C  
BRANCH  33  34
HETATM   34  C   UNL     1     -11.438  14.101  65.849  1.00  0.00    -0.338 C  
BRANCH  34  35
HETATM   35  C   UNL     1     -11.071  15.337  66.658  1.00  0.00    -0.276 C  
BRANCH  35  36
HETATM   36  C   UNL     1     -10.542  16.438  65.749  1.00  0.00    -0.327 C  
BRANCH  36  37
HETATM   37  C   UNL     1      -9.487  17.268  66.473  1.00  0.00    -0.286 C  
BRANCH  37  38
HETATM   38  C   UNL     1     -10.137  18.316  67.369  1.00  0.00    -0.364 C  
HETATM   39  C   UNL     1     -11.016  19.255  66.560  1.00  0.00    -0.252 C  
ENDBRANCH  37  38
ENDBRANCH  36  37
ENDBRANCH  35  36
ENDBRANCH  34  35
ENDBRANCH  33  34
ENDBRANCH  32  33
ENDBRANCH  31  32
ENDBRANCH  30  31
ENDBRANCH  29  30
ENDBRANCH  28  29
ENDBRANCH  27  28
ENDBRANCH  26  27
ENDBRANCH  25  26
ENDBRANCH  24  25
ENDBRANCH  23  24
ENDBRANCH  22  23
ENDBRANCH  19  22
ENDBRANCH  18  19
ENDBRANCH  17  18
ENDBRANCH  16  17
ENDBRANCH  15  16
ENDBRANCH  14  15
ENDBRANCH  13  14
ENDBRANCH  12  13
ENDBRANCH  11  12
ENDBRANCH  10  11
ENDBRANCH   9  10
ENDBRANCH   8   9
ENDBRANCH   7   8
ENDBRANCH   6   7
ENDBRANCH   5   6
ENDBRANCH   4   5
ENDBRANCH   3   4
ENDBRANCH   2   3
TORSDOF 34
ENDMDL
MODEL      222
REMARK 921   NORMALIZED FREE ENERGY PREDICTED BY IDOCK:    0.65 KCAL/MOL
REMARK 922        TOTAL FREE ENERGY PREDICTED BY IDOCK:   -4.38 KCAL/MOL
REMARK 923 INTER-LIGAND FREE ENERGY PREDICTED BY IDOCK:   -3.90 KCAL/MOL
REMARK 924 INTRA-LIGAND FREE ENERGY PREDICTED BY IDOCK:   -0.48 KCAL/MOL
REMARK 927      BINDING AFFINITY PREDICTED BY RF-SCORE:    0.00 PKD
ROOT
HETATM    1  C   UNL     1      -9.218   1.831  70.957  1.00  0.00    -0.169 C  
HETATM    2  C   UNL     1      -8.977   1.592  69.477  1.00  0.00    -0.139 C  
ENDROOT
BRANCH   2   3
HETATM    3  C   UNL     1      -9.184   2.870  68.677  1.00  0.00    -0.233 C  
BRANCH   3   4
HETATM    4  C   UNL     1      -7.933   3.744  68.705  1.00  0.00    -0.068 C  
BRANCH   4   5
HETATM    5  C   UNL     1      -7.421   3.995  67.292  1.00  0.00    -0.072 C  
BRANCH   5   6
HETATM    6  C   UNL     1      -8.289   5.027  66.585  1.00  0.00    -0.107 C  
BRANCH   6   7
HETATM    7  C   UNL     1      -8.858   4.442  65.300  1.00  0.00    -0.135 C  
BRANCH   7   8
HETATM    8  C   UNL     1      -8.717   5.440  64.162  1.00  0.00     0.030 C  
BRANCH   8   9
HETATM    9  C   UNL     1      -7.420   6.219  64.305  1.00  0.00    -0.086 C  
BRANCH   9  10
HETATM   10  C   UNL     1      -7.716   7.706  64.370  1.00  0.00    -0.127 C  
BRANCH  10  11
HETATM   11  C   UNL     1      -7.834   8.280  62.970  1.00  0.00    -0.148 C  
BRANCH  11  12
HETATM   12  C   UNL     1      -8.816   9.435  62.980  1.00  0.00    -0.209 C  
BRANCH  12  13
HETATM   13  C   UNL     1      -8.980   9.970  64.388  1.00  0.00    -0.265 C  
BRANCH  13  14
HETATM   14  C   UNL     1     -10.322  10.666  64.515  1.00  0.00    -0.352 C  
BRANCH  14  15
HETATM   15  C   UNL     1     -10.430  11.286  65.889  1.00  0.00    -0.314 C  
BRANCH  15  16
HETATM   16  C   UNL     1      -9.802  12.669  65.913  1.00  0.00    -0.251 C  
BRANCH  16  17
HETATM   17  C   UNL     1      -8.614  12.615  66.855  1.00  0.00    -0.151 C  
BRANCH  17  18
HETATM   18  C   UNL     1      -8.071  11.205  66.989  1.00  0.00    -0.148 C  
BRANCH  18  19
HETATM   19  N   UNL     1      -6.614  11.188  67.498  1.00  0.00    -0.066 N  
HETATM   20  C   UNL     1      -6.226   9.781  67.960  1.00  0.00    -0.055 C  
HETATM   21  C   UNL     1      -5.660  11.654  66.396  1.00  0.00     0.013 C  
BRANCH  19  22
HETATM   22  C   UNL     1      -6.582  12.172  68.689  1.00  0.00    -0.077 C  
BRANCH  22  23
HETATM   23  C   UNL     1      -6.452  11.456  70.018  1.00  0.00    -0.094 C  
BRANCH  23  24
HETATM   24  C   UNL     1      -5.189  11.868  70.753  1.00  0.00    -0.140 C  
BRANCH  24  25
HETATM   25  C   UNL     1      -5.407  11.585  72.229  1.00  0.00     0.555 C  
BRANCH  25  26
HETATM   26  C   UNL     1      -5.611  10.108  72.474  1.00  0.00     0.400 C  
BRANCH  26  27
HETATM   27  C   UNL     1      -6.219   9.475  71.235  1.00  0.00    -0.042 C  
BRANCH  27  28
HETATM   28  C   UNL     1      -7.274   8.469  71.645  1.00  0.00    -0.110 C  
BRANCH  28  29
HETATM   29  C   UNL     1      -8.609   9.162  71.834  1.00  0.00     0.297 C  
BRANCH  29  30
HETATM   30  C   UNL     1      -9.050   9.775  70.519  1.00  0.00    -0.069 C  
BRANCH  30  31
HETATM   31  C   UNL     1      -9.978   8.832  69.779  1.00  0.00    -0.193 C  
BRANCH  31  32
HETATM   32  C   UNL     1      -9.906   7.447  70.394  1.00  0.00    -0.183 C  
BRANCH  32  33
HETATM   33  C   UNL     1     -11.182   7.148  71.163  1.00  0.00    -0.291 C  
BRANCH  33  34
HETATM   34  C   UNL     1     -11.450   5.651  71.178  1.00  0.00     0.100 C  
BRANCH  34  35
HETATM   35  C   UNL     1     -11.521   5.141  72.610  1.00  0.00    -0.221 C  
BRANCH  35  36
HETATM   36  C   UNL     1     -10.125   5.027  73.209  1.00  0.00    -0.190 C  
BRANCH  36  37
HETATM   37  C   UNL     1     -10.018   5.866  74.479  1.00  0.00    -0.301 C  
BRANCH  37  38
HETATM   38  C   UNL     1      -8.702   6.633  74.518  1.00  0.00    -0.188 C  
HETATM   39  C   UNL     1      -7.724   6.088  73.491  1.00  0.00    -0.100 C  
ENDBRANCH  37  38
ENDBRANCH  36  37
ENDBRANCH  35  36
ENDBRANCH  34  35
ENDBRANCH  33  34
ENDBRANCH  32  33
ENDBRANCH  31  32
ENDBRANCH  30  31
ENDBRANCH  29  30
ENDBRANCH  28  29
ENDBRANCH  27  28
ENDBRANCH  26  27
ENDBRANCH  25  26
ENDBRANCH  24  25
ENDBRANCH  23  24
ENDBRANCH  22  23
ENDBRANCH  19  22
ENDBRANCH  18  19
ENDBRANCH  17  18
ENDBRANCH  16  17
ENDBRANCH  15  16
ENDBRANCH  14  15
ENDBRANCH  13  14
ENDBRANCH  12  13
ENDBRANCH  11  12
ENDBRANCH  10  11
ENDBRANCH   9  10
ENDBRANCH   8   9
ENDBRANCH   7   8
ENDBRANCH   6   7
ENDBRANCH   5   6
ENDBRANCH   4   5
ENDBRANCH   3   4
ENDBRANCH   2   3
TORSDOF 34
ENDMDL
MODEL      223
REMARK 921   NORMALIZED FREE ENERGY PREDICTED BY IDOCK:    0.65 KCAL/MOL
REMARK 922        TOTAL FREE ENERGY PREDICTED BY IDOCK:   -4.38 KCAL/MOL
REMARK 923 INTER-LIGAND FREE ENERGY PREDICTED BY IDOCK:   -6.83 KCAL/MOL
REMARK 924 INTRA-LIGAND FREE ENERGY PREDICTED BY IDOCK:    2.45 KCAL/MOL
REMARK 927      BINDING AFFINITY PREDICTED BY RF-SCORE:    0.00 PKD
ROOT
HETATM    1  C   UNL     1      -9.589  18.822  67.124  1.00  0.00    -0.328 C  
HETATM    2  C   UNL     1     -10.733  18.194  67.901  1.00  0.00    -0.331 C  
ENDROOT
BRANCH   2   3
HETATM    3  C   UNL     1     -10.232  17.548  69.184  1.00  0.00    -0.256 C  
BRANCH   3   4
HETATM    4  C   UNL     1     -10.555  16.057  69.212  1.00  0.00    -0.265 C  
BRANCH   4   5
HETATM    5  C   UNL     1     -11.994  15.826  69.654  1.00  0.00    -0.332 C  
BRANCH   5   6
HETATM    6  C   UNL     1     -12.380  14.364  69.477  1.00  0.00    -0.263 C  
BRANCH   6   7
HETATM    7  C   UNL     1     -11.150  13.534  69.140  1.00  0.00    -0.271 C  
BRANCH   7   8
HETATM    8  C   UNL     1     -10.694  13.823  67.719  1.00  0.00    -0.254 C  
BRANCH   8   9
HETATM    9  C   UNL     1     -11.887  14.169  66.845  1.00  0.00    -0.458 C  
BRANCH   9  10
HETATM   10  C   UNL     1     -12.327  12.945  66.063  1.00  0.00    -0.330 C  
BRANCH  10  11
HETATM   11  C   UNL     1     -12.048  13.138  64.584  1.00  0.00    -0.462 C  
BRANCH  11  12
HETATM   12  C   UNL     1     -10.684  12.565  64.250  1.00  0.00    -0.399 C  
BRANCH  12  13
HETATM   13  C   UNL     1     -10.570  11.148  64.771  1.00  0.00    -0.371 C  
BRANCH  13  14
HETATM   14  C   UNL     1      -9.546  11.097  65.890  1.00  0.00    -0.250 C  
BRANCH  14  15
HETATM   15  C   UNL     1      -9.142   9.660  66.126  1.00  0.00    -0.201 C  
BRANCH  15  16
HETATM   16  C   UNL     1      -9.256   8.846  64.848  1.00  0.00     0.031 C  
BRANCH  16  17
HETATM   17  C   UNL     1      -8.478   9.576  63.771  1.00  0.00    -0.198 C  
BRANCH  17  18
HETATM   18  C   UNL     1      -7.363   8.715  63.207  1.00  0.00    -0.101 C  
BRANCH  18  19
HETATM   19  N   UNL     1      -6.092   8.762  64.082  1.00  0.00    -0.071 N  
HETATM   20  C   UNL     1      -5.432  10.141  63.992  1.00  0.00    -0.123 C  
HETATM   21  C   UNL     1      -6.437   8.445  65.539  1.00  0.00    -0.049 C  
BRANCH  19  22
HETATM   22  C   UNL     1      -5.154   7.679  63.503  1.00  0.00    -0.037 C  
BRANCH  22  23
HETATM   23  C   UNL     1      -5.316   6.346  64.206  1.00  0.00    -0.022 C  
BRANCH  23  24
HETATM   24  C   UNL     1      -5.614   6.525  65.683  1.00  0.00    -0.021 C  
BRANCH  24  25
HETATM   25  C   UNL     1      -5.470   5.167  66.346  1.00  0.00    -0.013 C  
BRANCH  25  26
HETATM   26  C   UNL     1      -6.103   5.163  67.718  1.00  0.00    -0.023 C  
BRANCH  26  27
HETATM   27  C   UNL     1      -5.927   3.792  68.347  1.00  0.00    -0.027 C  
BRANCH  27  28
HETATM   28  C   UNL     1      -5.728   2.757  67.259  1.00  0.00    -0.022 C  
BRANCH  28  29
HETATM   29  C   UNL     1      -7.006   2.588  66.461  1.00  0.00    -0.048 C  
BRANCH  29  30
HETATM   30  C   UNL     1      -6.670   2.482  64.987  1.00  0.00    -0.039 C  
BRANCH  30  31
HETATM   31  C   UNL     1      -7.621   1.526  64.294  1.00  0.00    -0.059 C  
BRANCH  31  32
HETATM   32  C   UNL     1      -7.576   1.746  62.794  1.00  0.00    -0.046 C  
BRANCH  32  33
HETATM   33  C   UNL     1      -8.520   2.870  62.400  1.00  0.00    -0.074 C  
BRANCH  33  34
HETATM   34  C   UNL     1      -9.958   2.374  62.397  1.00  0.00    -0.088 C  
BRANCH  34  35
HETATM   35  C   UNL     1     -10.802   3.199  63.357  1.00  0.00    -0.209 C  
BRANCH  35  36
HETATM   36  C   UNL     1      -9.933   4.189  64.122  1.00  0.00    -0.125 C  
BRANCH  36  37
HETATM   37  C   UNL     1     -10.473   4.393  65.534  1.00  0.00    -0.228 C  
BRANCH  37  38
HETATM   38  C   UNL     1      -9.878   5.644  66.171  1.00  0.00    -0.114 C  
HETATM   39  C   UNL     1     -10.627   6.018  67.439  1.00  0.00    -0.355 C  
ENDBRANCH  37  38
ENDBRANCH  36  37
ENDBRANCH  35  36
ENDBRANCH  34  35
ENDBRANCH  33  34
ENDBRANCH  32  33
ENDBRANCH  31  32
ENDBRANCH  30  31
ENDBRANCH  29  30
ENDBRANCH  28  29
ENDBRANCH  27  28
ENDBRANCH  26  27
ENDBRANCH  25  26
ENDBRANCH  24  25
ENDBRANCH  23  24
ENDBRANCH  22  23
ENDBRANCH  19  22
ENDBRANCH  18  19
ENDBRANCH  17  18
ENDBRANCH  16  17
ENDBRANCH  15  16
ENDBRANCH  14  15
ENDBRANCH  13  14
ENDBRANCH  12  13
ENDBRANCH  11  12
ENDBRANCH  10  11
ENDBRANCH   9  10
ENDBRANCH   8   9
ENDBRANCH   7   8
ENDBRANCH   6   7
ENDBRANCH   5   6
ENDBRANCH   4   5
ENDBRANCH   3   4
ENDBRANCH   2   3
TORSDOF 34
ENDMDL
MODEL      224
REMARK 921   NORMALIZED FREE ENERGY PREDICTED BY IDOCK:    1.13 KCAL/MOL
REMARK 922        TOTAL FREE ENERGY PREDICTED BY IDOCK:   -2.95 KCAL/MOL
REMARK 923 INTER-LIGAND FREE ENERGY PREDICTED BY IDOCK:   -3.39 KCAL/MOL
REMARK 924 INTRA-LIGAND FREE ENERGY PREDICTED BY IDOCK:    0.44 KCAL/MOL
REMARK 927      BINDING AFFINITY PREDICTED BY RF-SCORE:    0.00 PKD
ROOT
HETATM    1  C   UNL     1      -8.152  15.089  65.584  1.00  0.00     3.071 C  
HETATM    2  C   UNL     1      -8.718  15.827  66.784  1.00  0.00    -0.305 C  
ENDROOT
BRANCH   2   3
HETATM    3  C   UNL     1     -10.165  15.431  67.037  1.00  0.00    -0.262 C  
BRANCH   3   4
HETATM    4  C   UNL     1     -11.004  15.579  65.770  1.00  0.00    -0.285 C  
BRANCH   4   5
HETATM    5  C   UNL     1     -11.845  14.332  65.533  1.00  0.00    -0.363 C  
BRANCH   5   6
HETATM    6  C   UNL     1     -12.292  14.256  64.080  1.00  0.00    -0.361 C  
BRANCH   6   7
HETATM    7  C   UNL     1     -11.508  13.179  63.345  1.00  0.00    -0.199 C  
BRANCH   7   8
HETATM    8  C   UNL     1     -11.666  11.841  64.049  1.00  0.00    -0.421 C  
BRANCH   8   9
HETATM    9  C   UNL     1     -10.310  11.319  64.492  1.00  0.00    -0.381 C  
BRANCH   9  10
HETATM   10  C   UNL     1      -9.919  11.953  65.814  1.00  0.00    -0.264 C  
BRANCH  10  11
HETATM   11  C   UNL     1      -8.973  11.042  66.575  1.00  0.00    -0.181 C  
BRANCH  11  12
HETATM   12  C   UNL     1      -9.353  11.033  68.042  1.00  0.00    -0.163 C  
BRANCH  12  13
HETATM   13  C   UNL     1     -10.249  12.212  68.358  1.00  0.00    -0.212 C  
BRANCH  13  14
HETATM   14  C   UNL     1     -11.703  11.782  68.280  1.00  0.00    -0.377 C  
BRANCH  14  15
HETATM   15  C   UNL     1     -12.431  12.276  69.510  1.00  0.00     0.174 C  
BRANCH  15  16
HETATM   16  C   UNL     1     -11.817  11.699  70.774  1.00  0.00    -0.119 C  
BRANCH  16  17
HETATM   17  C   UNL     1     -11.741  10.194  70.599  1.00  0.00    -0.425 C  
BRANCH  17  18
HETATM   18  C   UNL     1     -13.106   9.546  70.739  1.00  0.00    -0.000 C  
BRANCH  18  19
HETATM   19  N   UNL     1     -13.140   8.502  71.875  1.00  0.00    -0.346 N  
HETATM   20  C   UNL     1     -13.733   9.115  73.147  1.00  0.00     0.550 C  
HETATM   21  C   UNL     1     -13.965   7.283  71.453  1.00  0.00    -0.304 C  
BRANCH  19  22
HETATM   22  C   UNL     1     -11.667   8.099  72.110  1.00  0.00    -0.359 C  
BRANCH  22  23
HETATM   23  C   UNL     1     -11.204   7.031  71.139  1.00  0.00    -0.304 C  
BRANCH  23  24
HETATM   24  C   UNL     1      -9.707   7.104  70.901  1.00  0.00    -0.170 C  
BRANCH  24  25
HETATM   25  C   UNL     1      -9.463   6.803  69.432  1.00  0.00    -0.147 C  
BRANCH  25  26
HETATM   26  C   UNL     1      -9.738   5.349  69.124  1.00  0.00    -0.217 C  
BRANCH  26  27
HETATM   27  C   UNL     1      -9.436   4.512  70.354  1.00  0.00    -0.252 C  
BRANCH  27  28
HETATM   28  C   UNL     1      -8.946   3.143  69.929  1.00  0.00    -0.171 C  
BRANCH  28  29
HETATM   29  C   UNL     1      -8.000   2.581  70.973  1.00  0.00    -0.054 C  
BRANCH  29  30
HETATM   30  C   UNL     1      -7.026   1.628  70.310  1.00  0.00    -0.033 C  
BRANCH  30  31
HETATM   31  C   UNL     1      -5.642   1.783  70.910  1.00  0.00    -0.012 C  
BRANCH  31  32
HETATM   32  C   UNL     1      -5.461   3.194  71.435  1.00  0.00    -0.008 C  
BRANCH  32  33
HETATM   33  C   UNL     1      -6.099   4.194  70.486  1.00  0.00    -0.018 C  
BRANCH  33  34
HETATM   34  C   UNL     1      -5.411   5.546  70.603  1.00  0.00    -0.009 C  
BRANCH  34  35
HETATM   35  C   UNL     1      -5.607   6.118  72.000  1.00  0.00    -0.031 C  
BRANCH  35  36
HETATM   36  C   UNL     1      -6.252   5.087  72.918  1.00  0.00    -0.038 C  
BRANCH  36  37
HETATM   37  C   UNL     1      -7.764   5.279  72.958  1.00  0.00    -0.098 C  
BRANCH  37  38
HETATM   38  C   UNL     1      -8.243   5.549  74.380  1.00  0.00    -0.103 C  
HETATM   39  C   UNL     1      -9.732   5.279  74.512  1.00  0.00    -0.193 C  
ENDBRANCH  37  38
ENDBRANCH  36  37
ENDBRANCH  35  36
ENDBRANCH  34  35
ENDBRANCH  33  34
ENDBRANCH  32  33
ENDBRANCH  31  32
ENDBRANCH  30  31
ENDBRANCH  29  30
ENDBRANCH  28  29
ENDBRANCH  27  28
ENDBRANCH  26  27
ENDBRANCH  25  26
ENDBRANCH  24  25
ENDBRANCH  23  24
ENDBRANCH  22  23
ENDBRANCH  19  22
ENDBRANCH  18  19
ENDBRANCH  17  18
ENDBRANCH  16  17
ENDBRANCH  15  16
ENDBRANCH  14  15
ENDBRANCH  13  14
ENDBRANCH  12  13
ENDBRANCH  11  12
ENDBRANCH  10  11
ENDBRANCH   9  10
ENDBRANCH   8   9
ENDBRANCH   7   8
ENDBRANCH   6   7
ENDBRANCH   5   6
ENDBRANCH   4   5
ENDBRANCH   3   4
ENDBRANCH   2   3
TORSDOF 34
ENDMDL
MODEL      225
REMARK 921   NORMALIZED FREE ENERGY PREDICTED BY IDOCK:    1.27 KCAL/MOL
REMARK 922        TOTAL FREE ENERGY PREDICTED BY IDOCK:   -2.53 KCAL/MOL
REMARK 923 INTER-LIGAND FREE ENERGY PREDICTED BY IDOCK:   -4.82 KCAL/MOL
REMARK 924 INTRA-LIGAND FREE ENERGY PREDICTED BY IDOCK:    2.29 KCAL/MOL
REMARK 927      BINDING AFFINITY PREDICTED BY RF-SCORE:    0.00 PKD
ROOT
HETATM    1  C   UNL     1     -10.148   7.478  73.994  1.00  0.00     0.015 C  
HETATM    2  C   UNL     1      -9.039   6.441  74.032  1.00  0.00    -0.158 C  
ENDROOT
BRANCH   2   3
HETATM    3  C   UNL     1      -9.535   5.092  73.533  1.00  0.00    -0.136 C  
BRANCH   3   4
HETATM    4  C   UNL     1     -11.046   5.108  73.317  1.00  0.00    -0.392 C  
BRANCH   4   5
HETATM    5  C   UNL     1     -11.491   6.442  72.732  1.00  0.00    -0.174 C  
BRANCH   5   6
HETATM    6  C   UNL     1     -11.814   6.295  71.251  1.00  0.00    -0.247 C  
BRANCH   6   7
HETATM    7  C   UNL     1     -12.301   7.622  70.686  1.00  0.00     0.038 C  
BRANCH   7   8
HETATM    8  C   UNL     1     -11.133   8.581  70.516  1.00  0.00    -0.265 C  
BRANCH   8   9
HETATM    9  C   UNL     1     -10.028   7.923  69.708  1.00  0.00    -0.186 C  
BRANCH   9  10
HETATM   10  C   UNL     1     -10.631   7.028  68.641  1.00  0.00    -0.238 C  
BRANCH  10  11
HETATM   11  C   UNL     1     -10.593   5.578  69.088  1.00  0.00    -0.300 C  
BRANCH  11  12
HETATM   12  C   UNL     1      -9.379   4.897  68.487  1.00  0.00    -0.175 C  
BRANCH  12  13
HETATM   13  C   UNL     1      -9.812   3.772  67.570  1.00  0.00    -0.026 C  
BRANCH  13  14
HETATM   14  C   UNL     1      -9.239   3.996  66.183  1.00  0.00    -0.155 C  
BRANCH  14  15
HETATM   15  C   UNL     1      -8.175   5.068  66.255  1.00  0.00    -0.108 C  
BRANCH  15  16
HETATM   16  C   UNL     1      -6.834   4.479  66.658  1.00  0.00    -0.052 C  
BRANCH  16  17
HETATM   17  C   UNL     1      -6.403   3.531  65.556  1.00  0.00    -0.032 C  
BRANCH  17  18
HETATM   18  C   UNL     1      -7.037   3.894  64.226  1.00  0.00    -0.050 C  
BRANCH  18  19
HETATM   19  N   UNL     1      -6.269   5.021  63.504  1.00  0.00    -0.022 N  
HETATM   20  C   UNL     1      -5.676   6.001  64.522  1.00  0.00    -0.021 C  
HETATM   21  C   UNL     1      -5.153   4.435  62.636  1.00  0.00    -0.005 C  
BRANCH  19  22
HETATM   22  C   UNL     1      -7.318   5.735  62.622  1.00  0.00    -0.053 C  
BRANCH  22  23
HETATM   23  C   UNL     1      -8.534   6.169  63.416  1.00  0.00     0.184 C  
BRANCH  23  24
HETATM   24  C   UNL     1      -8.821   7.648  63.235  1.00  0.00     0.860 C  
BRANCH  24  25
HETATM   25  C   UNL     1      -7.548   8.404  63.571  1.00  0.00    -0.133 C  
BRANCH  25  26
HETATM   26  C   UNL     1      -7.736   9.892  63.385  1.00  0.00    -0.145 C  
BRANCH  26  27
HETATM   27  C   UNL     1      -8.373  10.475  64.634  1.00  0.00    -0.114 C  
BRANCH  27  28
HETATM   28  C   UNL     1      -9.570  11.319  64.247  1.00  0.00    -0.257 C  
BRANCH  28  29
HETATM   29  C   UNL     1     -10.689  11.127  65.252  1.00  0.00    -0.271 C  
BRANCH  29  30
HETATM   30  C   UNL     1     -11.485  12.412  65.373  1.00  0.00    -0.402 C  
BRANCH  30  31
HETATM   31  C   UNL     1     -12.158  12.491  66.729  1.00  0.00    -0.180 C  
BRANCH  31  32
HETATM   32  C   UNL     1     -11.445  11.588  67.716  1.00  0.00    -0.357 C  
BRANCH  32  33
HETATM   33  C   UNL     1     -10.702  12.420  68.747  1.00  0.00    -0.242 C  
BRANCH  33  34
HETATM   34  C   UNL     1      -9.229  12.043  68.768  1.00  0.00     0.059 C  
BRANCH  34  35
HETATM   35  C   UNL     1      -8.505  12.679  67.589  1.00  0.00    -0.173 C  
BRANCH  35  36
HETATM   36  C   UNL     1      -8.665  14.194  67.614  1.00  0.00    -0.187 C  
BRANCH  36  37
HETATM   37  C   UNL     1      -8.914  14.728  66.207  1.00  0.00    -0.153 C  
BRANCH  37  38
HETATM   38  C   UNL     1      -9.970  15.827  66.219  1.00  0.00    -0.315 C  
HETATM   39  C   UNL     1      -9.471  17.052  66.965  1.00  0.00    -0.256 C  
ENDBRANCH  37  38
ENDBRANCH  36  37
ENDBRANCH  35  36
ENDBRANCH  34  35
ENDBRANCH  33  34
ENDBRANCH  32  33
ENDBRANCH  31  32
ENDBRANCH  30  31
ENDBRANCH  29  30
ENDBRANCH  28  29
ENDBRANCH  27  28
ENDBRANCH  26  27
ENDBRANCH  25  26
ENDBRANCH  24  25
ENDBRANCH  23  24
ENDBRANCH  22  23
ENDBRANCH  19  22
ENDBRANCH  18  19
ENDBRANCH  17  18
ENDBRANCH  16  17
ENDBRANCH  15  16
ENDBRANCH  14  15
ENDBRANCH  13  14
ENDBRANCH  12  13
ENDBRANCH  11  12
ENDBRANCH  10  11
ENDBRANCH   9  10
ENDBRANCH   8   9
ENDBRANCH   7   8
ENDBRANCH   6   7
ENDBRANCH   5   6
ENDBRANCH   4   5
ENDBRANCH   3   4
ENDBRANCH   2   3
TORSDOF 34
ENDMDL
MODEL      226
REMARK 921   NORMALIZED FREE ENERGY PREDICTED BY IDOCK:    1.51 KCAL/MOL
REMARK 922        TOTAL FREE ENERGY PREDICTED BY IDOCK:   -1.81 KCAL/MOL
REMARK 923 INTER-LIGAND FREE ENERGY PREDICTED BY IDOCK:   -2.21 KCAL/MOL
REMARK 924 INTRA-LIGAND FREE ENERGY PREDICTED BY IDOCK:    0.40 KCAL/MOL
REMARK 927      BINDING AFFINITY PREDICTED BY RF-SCORE:    0.00 PKD
ROOT
HETATM    1  C   UNL     1      -6.246   8.686  69.417  1.00  0.00    -0.041 C  
HETATM    2  C   UNL     1      -6.123  10.028  68.716  1.00  0.00    -0.040 C  
ENDROOT
BRANCH   2   3
HETATM    3  C   UNL     1      -6.457  11.171  69.662  1.00  0.00    -0.128 C  
BRANCH   3   4
HETATM    4  C   UNL     1      -5.727  12.449  69.259  1.00  0.00    -0.079 C  
BRANCH   4   5
HETATM    5  C   UNL     1      -5.334  12.403  67.788  1.00  0.00    -0.095 C  
BRANCH   5   6
HETATM    6  C   UNL     1      -5.231  13.811  67.218  1.00  0.00     0.513 C  
BRANCH   6   7
HETATM    7  C   UNL     1      -5.168  14.831  68.345  1.00  0.00    -0.111 C  
BRANCH   7   8
HETATM    8  C   UNL     1      -6.570  15.261  68.743  1.00  0.00    -0.102 C  
BRANCH   8   9
HETATM    9  C   UNL     1      -7.418  15.495  67.504  1.00  0.00    -0.209 C  
BRANCH   9  10
HETATM   10  C   UNL     1      -8.391  16.633  67.752  1.00  0.00    -0.184 C  
BRANCH  10  11
HETATM   11  C   UNL     1      -9.753  16.085  68.140  1.00  0.00    -0.217 C  
BRANCH  11  12
HETATM   12  C   UNL     1      -9.751  15.727  69.614  1.00  0.00    -0.248 C  
BRANCH  12  13
HETATM   13  C   UNL     1     -10.849  16.479  70.335  1.00  0.00    -0.086 C  
BRANCH  13  14
HETATM   14  C   UNL     1     -12.158  16.309  69.588  1.00  0.00     0.221 C  
BRANCH  14  15
HETATM   15  C   UNL     1     -12.285  14.873  69.131  1.00  0.00    -0.194 C  
BRANCH  15  16
HETATM   16  C   UNL     1     -12.806  13.990  70.252  1.00  0.00    -0.165 C  
BRANCH  16  17
HETATM   17  C   UNL     1     -12.563  12.549  69.848  1.00  0.00     0.171 C  
BRANCH  17  18
HETATM   18  C   UNL     1     -11.104  12.162  70.005  1.00  0.00     0.386 C  
BRANCH  18  19
HETATM   19  N   UNL     1     -10.655  11.140  68.939  1.00  0.00    -0.199 N  
HETATM   20  C   UNL     1     -10.242  11.859  67.651  1.00  0.00    -0.201 C  
HETATM   21  C   UNL     1      -9.487  10.303  69.464  1.00  0.00    -0.185 C  
BRANCH  19  22
HETATM   22  C   UNL     1     -11.887  10.244  68.682  1.00  0.00     0.242 C  
BRANCH  22  23
HETATM   23  C   UNL     1     -12.834  10.220  69.866  1.00  0.00     0.201 C  
BRANCH  23  24
HETATM   24  C   UNL     1     -12.788   8.889  70.591  1.00  0.00     0.360 C  
BRANCH  24  25
HETATM   25  C   UNL     1     -12.925   9.173  72.077  1.00  0.00    -0.496 C  
BRANCH  25  26
HETATM   26  C   UNL     1     -12.512   7.974  72.899  1.00  0.00     0.185 C  
BRANCH  26  27
HETATM   27  C   UNL     1     -11.016   7.759  72.754  1.00  0.00    -0.447 C  
BRANCH  27  28
HETATM   28  C   UNL     1     -10.740   6.306  72.431  1.00  0.00    -0.257 C  
BRANCH  28  29
HETATM   29  C   UNL     1      -9.249   6.077  72.289  1.00  0.00    -0.146 C  
BRANCH  29  30
HETATM   30  C   UNL     1      -8.552   7.408  72.080  1.00  0.00    -0.129 C  
BRANCH  30  31
HETATM   31  C   UNL     1      -7.592   7.687  73.219  1.00  0.00    -0.129 C  
BRANCH  31  32
HETATM   32  C   UNL     1      -6.337   6.851  73.055  1.00  0.00    -0.061 C  
BRANCH  32  33
HETATM   33  C   UNL     1      -6.630   5.623  72.210  1.00  0.00    -0.062 C  
BRANCH  33  34
HETATM   34  C   UNL     1      -5.560   5.448  71.144  1.00  0.00    -0.009 C  
BRANCH  34  35
HETATM   35  C   UNL     1      -5.801   4.167  70.358  1.00  0.00    -0.014 C  
BRANCH  35  36
HETATM   36  C   UNL     1      -7.256   4.073  69.918  1.00  0.00    -0.042 C  
BRANCH  36  37
HETATM   37  C   UNL     1      -7.368   3.307  68.603  1.00  0.00    -0.049 C  
BRANCH  37  38
HETATM   38  C   UNL     1      -7.412   4.263  67.417  1.00  0.00    -0.073 C  
HETATM   39  C   UNL     1      -7.890   3.551  66.163  1.00  0.00    -0.089 C  
ENDBRANCH  37  38
ENDBRANCH  36  37
ENDBRANCH  35  36
ENDBRANCH  34  35
ENDBRANCH  33  34
ENDBRANCH  32  33
ENDBRANCH  31  32
ENDBRANCH  30  31
ENDBRANCH  29  30
ENDBRANCH  28  29
ENDBRANCH  27  28
ENDBRANCH  26  27
ENDBRANCH  25  26
ENDBRANCH  24  25
ENDBRANCH  23  24
ENDBRANCH  22  23
ENDBRANCH  19  22
ENDBRANCH  18  19
ENDBRANCH  17  18
ENDBRANCH  16  17
ENDBRANCH  15  16
ENDBRANCH  14  15
ENDBRANCH  13  14
ENDBRANCH  12  13
ENDBRANCH  11  12
ENDBRANCH  10  11
ENDBRANCH   9  10
ENDBRANCH   8   9
ENDBRANCH   7   8
ENDBRANCH   6   7
ENDBRANCH   5   6
ENDBRANCH   4   5
ENDBRANCH   3   4
ENDBRANCH   2   3
TORSDOF 34
ENDMDL
MODEL      227
REMARK 921   NORMALIZED FREE ENERGY PREDICTED BY IDOCK:    1.92 KCAL/MOL
REMARK 922        TOTAL FREE ENERGY PREDICTED BY IDOCK:   -0.59 KCAL/MOL
REMARK 923 INTER-LIGAND FREE ENERGY PREDICTED BY IDOCK:   -1.20 KCAL/MOL
REMARK 924 INTRA-LIGAND FREE ENERGY PREDICTED BY IDOCK:    0.62 KCAL/MOL
REMARK 927      BINDING AFFINITY PREDICTED BY RF-SCORE:    0.00 PKD
ROOT
HETATM    1  C   UNL     1     -13.393  14.631  69.263  1.00  0.00     2.052 C  
HETATM    2  C   UNL     1     -12.888  15.994  69.702  1.00  0.00     0.911 C  
ENDROOT
BRANCH   2   3
HETATM    3  C   UNL     1     -11.689  16.425  68.871  1.00  0.00    -0.059 C  
BRANCH   3   4
HETATM    4  C   UNL     1     -10.673  15.293  68.744  1.00  0.00    -0.241 C  
BRANCH   4   5
HETATM    5  C   UNL     1     -10.270  14.775  70.118  1.00  0.00     0.217 C  
BRANCH   5   6
HETATM    6  C   UNL     1     -11.352  15.083  71.144  1.00  0.00    -0.315 C  
BRANCH   6   7
HETATM    7  C   UNL     1     -10.823  16.053  72.190  1.00  0.00     1.076 C  
BRANCH   7   8
HETATM    8  C   UNL     1     -11.974  16.812  72.832  1.00  0.00    -0.177 C  
BRANCH   8   9
HETATM    9  C   UNL     1     -13.206  15.925  72.913  1.00  0.00    -0.619 C  
BRANCH   9  10
HETATM   10  C   UNL     1     -12.969  14.803  73.906  1.00  0.00     0.134 C  
BRANCH  10  11
HETATM   11  C   UNL     1     -12.505  13.552  73.185  1.00  0.00     1.064 C  
BRANCH  11  12
HETATM   12  C   UNL     1     -13.635  13.015  72.329  1.00  0.00    -0.643 C  
BRANCH  12  13
HETATM   13  C   UNL     1     -13.263  11.661  71.761  1.00  0.00    -0.438 C  
BRANCH  13  14
HETATM   14  C   UNL     1     -12.639  11.838  70.389  1.00  0.00    -0.186 C  
BRANCH  14  15
HETATM   15  C   UNL     1     -11.544  10.812  70.207  1.00  0.00    -0.427 C  
BRANCH  15  16
HETATM   16  C   UNL     1     -11.746  10.022  68.926  1.00  0.00     0.135 C  
BRANCH  16  17
HETATM   17  C   UNL     1     -10.387   9.853  68.274  1.00  0.00    -0.232 C  
BRANCH  17  18
HETATM   18  C   UNL     1      -9.288  10.492  69.101  1.00  0.00    -0.187 C  
BRANCH  18  19
HETATM   19  N   UNL     1      -8.136  11.027  68.224  1.00  0.00    -0.121 N  
HETATM   20  C   UNL     1      -8.451  10.813  66.741  1.00  0.00    -0.134 C  
HETATM   21  C   UNL     1      -7.905  12.515  68.497  1.00  0.00    -0.108 C  
BRANCH  19  22
HETATM   22  C   UNL     1      -6.892  10.206  68.632  1.00  0.00    -0.057 C  
BRANCH  22  23
HETATM   23  C   UNL     1      -6.968   9.729  70.069  1.00  0.00    -0.106 C  
BRANCH  23  24
HETATM   24  C   UNL     1      -5.722   8.960  70.468  1.00  0.00    -0.027 C  
BRANCH  24  25
HETATM   25  C   UNL     1      -5.516   9.168  71.958  1.00  0.00    -0.072 C  
BRANCH  25  26
HETATM   26  C   UNL     1      -5.827   7.906  72.730  1.00  0.00    -0.046 C  
BRANCH  26  27
HETATM   27  C   UNL     1      -6.457   8.277  74.061  1.00  0.00    -0.144 C  
BRANCH  27  28
HETATM   28  C   UNL     1      -7.966   8.228  73.939  1.00  0.00    -0.256 C  
BRANCH  28  29
HETATM   29  C   UNL     1      -8.428   6.796  73.760  1.00  0.00    -0.145 C  
BRANCH  29  30
HETATM   30  C   UNL     1      -9.055   6.636  72.388  1.00  0.00    -0.139 C  
BRANCH  30  31
HETATM   31  C   UNL     1     -10.546   6.898  72.454  1.00  0.00    -0.240 C  
BRANCH  31  32
HETATM   32  C   UNL     1     -11.036   7.439  71.124  1.00  0.00    -0.271 C  
BRANCH  32  33
HETATM   33  C   UNL     1     -11.777   6.356  70.358  1.00  0.00    -0.389 C  
BRANCH  33  34
HETATM   34  C   UNL     1     -11.059   6.048  69.053  1.00  0.00    -0.377 C  
BRANCH  34  35
HETATM   35  C   UNL     1      -9.670   6.671  69.055  1.00  0.00    -0.142 C  
BRANCH  35  36
HETATM   36  C   UNL     1      -8.851   6.163  67.876  1.00  0.00    -0.111 C  
BRANCH  36  37
HETATM   37  C   UNL     1      -8.956   7.126  66.698  1.00  0.00    -0.164 C  
BRANCH  37  38
HETATM   38  C   UNL     1      -7.627   7.233  65.960  1.00  0.00    -0.089 C  
HETATM   39  C   UNL     1      -7.846   7.402  64.466  1.00  0.00    -0.129 C  
ENDBRANCH  37  38
ENDBRANCH  36  37
ENDBRANCH  35  36
ENDBRANCH  34  35
ENDBRANCH  33  34
ENDBRANCH  32  33
ENDBRANCH  31  32
ENDBRANCH  30  31
ENDBRANCH  29  30
ENDBRANCH  28  29
ENDBRANCH  27  28
ENDBRANCH  26  27
ENDBRANCH  25  26
ENDBRANCH  24  25
ENDBRANCH  23  24
ENDBRANCH  22  23
ENDBRANCH  19  22
ENDBRANCH  18  19
ENDBRANCH  17  18
ENDBRANCH  16  17
ENDBRANCH  15  16
ENDBRANCH  14  15
ENDBRANCH  13  14
ENDBRANCH  12  13
ENDBRANCH  11  12
ENDBRANCH  10  11
ENDBRANCH   9  10
ENDBRANCH   8   9
ENDBRANCH   7   8
ENDBRANCH   6   7
ENDBRANCH   5   6
ENDBRANCH   4   5
ENDBRANCH   3   4
ENDBRANCH   2   3
TORSDOF 34
ENDMDL
MODEL      228
REMARK 921   NORMALIZED FREE ENERGY PREDICTED BY IDOCK:    1.98 KCAL/MOL
REMARK 922        TOTAL FREE ENERGY PREDICTED BY IDOCK:   -0.42 KCAL/MOL
REMARK 923 INTER-LIGAND FREE ENERGY PREDICTED BY IDOCK:   -4.65 KCAL/MOL
REMARK 924 INTRA-LIGAND FREE ENERGY PREDICTED BY IDOCK:    4.23 KCAL/MOL
REMARK 927      BINDING AFFINITY PREDICTED BY RF-SCORE:    0.00 PKD
ROOT
HETATM    1  C   UNL     1     -10.157   7.493  73.995  1.00  0.00     0.015 C  
HETATM    2  C   UNL     1      -9.110   6.393  73.982  1.00  0.00    -0.158 C  
ENDROOT
BRANCH   2   3
HETATM    3  C   UNL     1      -9.688   5.095  73.439  1.00  0.00    -0.157 C  
BRANCH   3   4
HETATM    4  C   UNL     1     -11.199   5.201  73.256  1.00  0.00    -0.389 C  
BRANCH   4   5
HETATM    5  C   UNL     1     -11.585   6.588  72.757  1.00  0.00    -0.113 C  
BRANCH   5   6
HETATM    6  C   UNL     1     -11.999   6.533  71.293  1.00  0.00    -0.364 C  
BRANCH   6   7
HETATM    7  C   UNL     1     -12.516   7.892  70.843  1.00  0.00    -0.053 C  
BRANCH   7   8
HETATM    8  C   UNL     1     -11.355   8.844  70.607  1.00  0.00    -0.299 C  
BRANCH   8   9
HETATM    9  C   UNL     1     -10.306   8.185  69.729  1.00  0.00    -0.216 C  
BRANCH   9  10
HETATM   10  C   UNL     1     -10.980   7.319  68.681  1.00  0.00    -0.033 C  
BRANCH  10  11
HETATM   11  C   UNL     1     -10.981   5.867  69.120  1.00  0.00    -0.382 C  
BRANCH  11  12
HETATM   12  C   UNL     1      -9.843   5.132  68.437  1.00  0.00    -0.211 C  
BRANCH  12  13
HETATM   13  C   UNL     1     -10.390   4.041  67.541  1.00  0.00     0.620 C  
BRANCH  13  14
HETATM   14  C   UNL     1      -9.666   4.067  66.207  1.00  0.00    -0.201 C  
BRANCH  14  15
HETATM   15  C   UNL     1      -8.620   5.159  66.233  1.00  0.00    -0.114 C  
BRANCH  15  16
HETATM   16  C   UNL     1      -7.346   4.676  66.905  1.00  0.00    -0.081 C  
BRANCH  16  17
HETATM   17  C   UNL     1      -6.790   3.542  66.066  1.00  0.00    -0.060 C  
BRANCH  17  18
HETATM   18  C   UNL     1      -7.223   3.655  64.616  1.00  0.00    -0.066 C  
BRANCH  18  19
HETATM   19  N   UNL     1      -6.334   4.631  63.817  1.00  0.00    -0.025 N  
HETATM   20  C   UNL     1      -5.838   5.763  64.721  1.00  0.00    -0.024 C  
HETATM   21  C   UNL     1      -5.141   3.890  63.210  1.00  0.00    -0.005 C  
BRANCH  19  22
HETATM   22  C   UNL     1      -7.242   5.195  62.701  1.00  0.00    -0.038 C  
BRANCH  22  23
HETATM   23  C   UNL     1      -8.454   5.915  63.259  1.00  0.00     0.087 C  
BRANCH  23  24
HETATM   24  C   UNL     1      -8.564   7.328  62.716  1.00  0.00     0.327 C  
BRANCH  24  25
HETATM   25  C   UNL     1      -7.224   8.007  62.938  1.00  0.00    -0.091 C  
BRANCH  25  26
HETATM   26  C   UNL     1      -7.215   9.396  62.343  1.00  0.00    -0.101 C  
BRANCH  26  27
HETATM   27  C   UNL     1      -7.802  10.374  63.345  1.00  0.00    -0.093 C  
BRANCH  27  28
HETATM   28  C   UNL     1      -8.872  11.209  62.673  1.00  0.00    -0.315 C  
BRANCH  28  29
HETATM   29  C   UNL     1     -10.007  11.478  63.642  1.00  0.00    -0.409 C  
BRANCH  29  30
HETATM   30  C   UNL     1     -10.563  12.867  63.394  1.00  0.00     0.174 C  
BRANCH  30  31
HETATM   31  C   UNL     1     -12.044  12.909  63.712  1.00  0.00    -0.583 C  
BRANCH  31  32
HETATM   32  C   UNL     1     -12.279  12.470  65.145  1.00  0.00    -0.509 C  
BRANCH  32  33
HETATM   33  C   UNL     1     -12.421  13.682  66.049  1.00  0.00    -0.477 C  
BRANCH  33  34
HETATM   34  C   UNL     1     -11.595  13.498  67.313  1.00  0.00    -0.398 C  
BRANCH  34  35
HETATM   35  C   UNL     1     -12.506  13.352  68.523  1.00  0.00     0.332 C  
BRANCH  35  36
HETATM   36  C   UNL     1     -12.246  12.031  69.235  1.00  0.00    -0.135 C  
BRANCH  36  37
HETATM   37  C   UNL     1     -11.604  12.275  70.597  1.00  0.00     0.419 C  
BRANCH  37  38
HETATM   38  C   UNL     1     -12.404  13.291  71.404  1.00  0.00    -0.172 C  
HETATM   39  C   UNL     1     -13.276  12.598  72.437  1.00  0.00    -0.348 C  
ENDBRANCH  37  38
ENDBRANCH  36  37
ENDBRANCH  35  36
ENDBRANCH  34  35
ENDBRANCH  33  34
ENDBRANCH  32  33
ENDBRANCH  31  32
ENDBRANCH  30  31
ENDBRANCH  29  30
ENDBRANCH  28  29
ENDBRANCH  27  28
ENDBRANCH  26  27
ENDBRANCH  25  26
ENDBRANCH  24  25
ENDBRANCH  23  24
ENDBRANCH  22  23
ENDBRANCH  19  22
ENDBRANCH  18  19
ENDBRANCH  17  18
ENDBRANCH  16  17
ENDBRANCH  15  16
ENDBRANCH  14  15
ENDBRANCH  13  14
ENDBRANCH  12  13
ENDBRANCH  11  12
ENDBRANCH  10  11
ENDBRANCH   9  10
ENDBRANCH   8   9
ENDBRANCH   7   8
ENDBRANCH   6   7
ENDBRANCH   5   6
ENDBRANCH   4   5
ENDBRANCH   3   4
ENDBRANCH   2   3
TORSDOF 34
ENDMDL
MODEL      229
REMARK 921   NORMALIZED FREE ENERGY PREDICTED BY IDOCK:    2.01 KCAL/MOL
REMARK 922        TOTAL FREE ENERGY PREDICTED BY IDOCK:   -0.33 KCAL/MOL
REMARK 923 INTER-LIGAND FREE ENERGY PREDICTED BY IDOCK:   -1.36 KCAL/MOL
REMARK 924 INTRA-LIGAND FREE ENERGY PREDICTED BY IDOCK:    1.03 KCAL/MOL
REMARK 927      BINDING AFFINITY PREDICTED BY RF-SCORE:    0.00 PKD
ROOT
HETATM    1  C   UNL     1     -13.360  14.616  69.236  1.00  0.00     2.052 C  
HETATM    2  C   UNL     1     -12.821  15.967  69.672  1.00  0.00     0.656 C  
ENDROOT
BRANCH   2   3
HETATM    3  C   UNL     1     -11.618  16.371  68.833  1.00  0.00    -0.147 C  
BRANCH   3   4
HETATM    4  C   UNL     1     -10.628  15.217  68.700  1.00  0.00    -0.234 C  
BRANCH   4   5
HETATM    5  C   UNL     1     -10.229  14.689  70.072  1.00  0.00     0.254 C  
BRANCH   5   6
HETATM    6  C   UNL     1     -11.317  14.985  71.095  1.00  0.00    -0.315 C  
BRANCH   6   7
HETATM    7  C   UNL     1     -10.791  15.939  72.158  1.00  0.00     0.890 C  
BRANCH   7   8
HETATM    8  C   UNL     1     -11.943  16.695  72.801  1.00  0.00    -0.340 C  
BRANCH   8   9
HETATM    9  C   UNL     1     -13.177  15.812  72.869  1.00  0.00    -0.640 C  
BRANCH   9  10
HETATM   10  C   UNL     1     -12.963  14.702  73.881  1.00  0.00     0.341 C  
BRANCH  10  11
HETATM   11  C   UNL     1     -12.494  13.438  73.185  1.00  0.00     1.398 C  
BRANCH  11  12
HETATM   12  C   UNL     1     -13.613  12.897  72.316  1.00  0.00    -0.611 C  
BRANCH  12  13
HETATM   13  C   UNL     1     -13.257  11.517  71.805  1.00  0.00    -0.456 C  
BRANCH  13  14
HETATM   14  C   UNL     1     -12.569  11.635  70.458  1.00  0.00    -0.264 C  
BRANCH  14  15
HETATM   15  C   UNL     1     -11.486  10.584  70.361  1.00  0.00    -0.427 C  
BRANCH  15  16
HETATM   16  C   UNL     1     -11.647   9.753  69.100  1.00  0.00     0.150 C  
BRANCH  16  17
HETATM   17  C   UNL     1     -10.260   9.511  68.533  1.00  0.00    -0.223 C  
BRANCH  17  18
HETATM   18  C   UNL     1      -9.195  10.233  69.336  1.00  0.00    -0.189 C  
BRANCH  18  19
HETATM   19  N   UNL     1      -8.006  10.678  68.459  1.00  0.00    -0.115 N  
HETATM   20  C   UNL     1      -8.267  10.331  66.990  1.00  0.00    -0.122 C  
HETATM   21  C   UNL     1      -7.771  12.183  68.603  1.00  0.00    -0.089 C  
BRANCH  19  22
HETATM   22  C   UNL     1      -6.787   9.890  68.988  1.00  0.00    -0.054 C  
BRANCH  22  23
HETATM   23  C   UNL     1      -6.924   9.541  70.456  1.00  0.00    -0.124 C  
BRANCH  23  24
HETATM   24  C   UNL     1      -5.737   8.737  70.953  1.00  0.00    -0.034 C  
BRANCH  24  25
HETATM   25  C   UNL     1      -5.525   9.090  72.415  1.00  0.00    -0.068 C  
BRANCH  25  26
HETATM   26  C   UNL     1      -5.857   7.918  73.309  1.00  0.00    -0.055 C  
BRANCH  26  27
HETATM   27  C   UNL     1      -6.548   8.425  74.562  1.00  0.00    -0.167 C  
BRANCH  27  28
HETATM   28  C   UNL     1      -8.044   8.229  74.432  1.00  0.00    -0.259 C  
BRANCH  28  29
HETATM   29  C   UNL     1      -8.366   6.754  74.290  1.00  0.00    -0.160 C  
BRANCH  29  30
HETATM   30  C   UNL     1      -8.919   6.489  72.903  1.00  0.00    -0.135 C  
BRANCH  30  31
HETATM   31  C   UNL     1     -10.102   7.395  72.624  1.00  0.00    -0.255 C  
BRANCH  31  32
HETATM   32  C   UNL     1     -10.288   7.557  71.127  1.00  0.00    -0.208 C  
BRANCH  32  33
HETATM   33  C   UNL     1     -11.516   6.792  70.665  1.00  0.00    -0.403 C  
BRANCH  33  34
HETATM   34  C   UNL     1     -11.114   5.670  69.720  1.00  0.00    -0.170 C  
BRANCH  34  35
HETATM   35  C   UNL     1      -9.608   5.448  69.775  1.00  0.00    -0.225 C  
BRANCH  35  36
HETATM   36  C   UNL     1      -9.265   4.006  69.426  1.00  0.00    -0.216 C  
BRANCH  36  37
HETATM   37  C   UNL     1      -8.765   3.263  70.661  1.00  0.00    -0.129 C  
BRANCH  37  38
HETATM   38  C   UNL     1      -9.882   2.438  71.291  1.00  0.00    -0.136 C  
HETATM   39  C   UNL     1      -9.511   2.007  72.699  1.00  0.00    -0.132 C  
ENDBRANCH  37  38
ENDBRANCH  36  37
ENDBRANCH  35  36
ENDBRANCH  34  35
ENDBRANCH  33  34
ENDBRANCH  32  33
ENDBRANCH  31  32
ENDBRANCH  30  31
ENDBRANCH  29  30
ENDBRANCH  28  29
ENDBRANCH  27  28
ENDBRANCH  26  27
ENDBRANCH  25  26
ENDBRANCH  24  25
ENDBRANCH  23  24
ENDBRANCH  22  23
ENDBRANCH  19  22
ENDBRANCH  18  19
ENDBRANCH  17  18
ENDBRANCH  16  17
ENDBRANCH  15  16
ENDBRANCH  14  15
ENDBRANCH  13  14
ENDBRANCH  12  13
ENDBRANCH  11  12
ENDBRANCH  10  11
ENDBRANCH   9  10
ENDBRANCH   8   9
ENDBRANCH   7   8
ENDBRANCH   6   7
ENDBRANCH   5   6
ENDBRANCH   4   5
ENDBRANCH   3   4
ENDBRANCH   2   3
TORSDOF 34
ENDMDL
MODEL      230
REMARK 921   NORMALIZED FREE ENERGY PREDICTED BY IDOCK:    2.05 KCAL/MOL
REMARK 922        TOTAL FREE ENERGY PREDICTED BY IDOCK:   -0.22 KCAL/MOL
REMARK 923 INTER-LIGAND FREE ENERGY PREDICTED BY IDOCK:   -4.22 KCAL/MOL
REMARK 924 INTRA-LIGAND FREE ENERGY PREDICTED BY IDOCK:    4.01 KCAL/MOL
REMARK 927      BINDING AFFINITY PREDICTED BY RF-SCORE:    0.00 PKD
ROOT
HETATM    1  C   UNL     1      -9.303   2.526  70.502  1.00  0.00    -0.209 C  
HETATM    2  C   UNL     1      -9.050   2.279  69.026  1.00  0.00    -0.186 C  
ENDROOT
BRANCH   2   3
HETATM    3  C   UNL     1      -9.283   3.544  68.213  1.00  0.00    -0.225 C  
BRANCH   3   4
HETATM    4  C   UNL     1      -8.053   4.448  68.238  1.00  0.00    -0.082 C  
BRANCH   4   5
HETATM    5  C   UNL     1      -7.536   4.692  66.826  1.00  0.00    -0.086 C  
BRANCH   5   6
HETATM    6  C   UNL     1      -8.481   5.608  66.062  1.00  0.00    -0.132 C  
BRANCH   6   7
HETATM    7  C   UNL     1      -8.946   4.931  64.780  1.00  0.00    -0.125 C  
BRANCH   7   8
HETATM    8  C   UNL     1      -8.900   5.914  63.621  1.00  0.00     0.460 C  
BRANCH   8   9
HETATM    9  C   UNL     1      -7.787   6.926  63.835  1.00  0.00    -0.107 C  
BRANCH   9  10
HETATM   10  C   UNL     1      -8.357   8.332  63.810  1.00  0.00    -0.027 C  
BRANCH  10  11
HETATM   11  C   UNL     1      -8.363   8.872  62.391  1.00  0.00    -0.194 C  
BRANCH  11  12
HETATM   12  C   UNL     1      -9.199  10.135  62.336  1.00  0.00    -0.320 C  
BRANCH  12  13
HETATM   13  C   UNL     1      -9.460  10.651  63.735  1.00  0.00    -0.331 C  
BRANCH  13  14
HETATM   14  C   UNL     1     -10.652  11.590  63.718  1.00  0.00    -0.465 C  
BRANCH  14  15
HETATM   15  C   UNL     1     -10.862  12.149  65.107  1.00  0.00    -0.343 C  
BRANCH  15  16
HETATM   16  C   UNL     1      -9.802  13.183  65.443  1.00  0.00    -0.123 C  
BRANCH  16  17
HETATM   17  C   UNL     1      -8.833  12.544  66.420  1.00  0.00    -0.018 C  
BRANCH  17  18
HETATM   18  C   UNL     1      -8.920  11.029  66.381  1.00  0.00    -0.181 C  
BRANCH  18  19
HETATM   19  N   UNL     1      -7.653  10.359  66.954  1.00  0.00    -0.104 N  
HETATM   20  C   UNL     1      -7.931   8.891  67.290  1.00  0.00    -0.097 C  
HETATM   21  C   UNL     1      -6.501  10.453  65.951  1.00  0.00    -0.123 C  
BRANCH  19  22
HETATM   22  C   UNL     1      -7.314  11.149  68.238  1.00  0.00    -0.090 C  
BRANCH  22  23
HETATM   23  C   UNL     1      -7.500  10.314  69.489  1.00  0.00    -0.142 C  
BRANCH  23  24
HETATM   24  C   UNL     1      -6.175  10.019  70.167  1.00  0.00    -0.077 C  
BRANCH  24  25
HETATM   25  C   UNL     1      -6.472   9.206  71.415  1.00  0.00    -0.067 C  
BRANCH  25  26
HETATM   26  C   UNL     1      -7.551   8.181  71.152  1.00  0.00    -0.082 C  
BRANCH  26  27
HETATM   27  C   UNL     1      -8.352   8.601  69.932  1.00  0.00    -0.123 C  
BRANCH  27  28
HETATM   28  C   UNL     1      -9.823   8.658  70.286  1.00  0.00    -0.195 C  
BRANCH  28  29
HETATM   29  C   UNL     1     -10.154   9.992  70.926  1.00  0.00     0.245 C  
BRANCH  29  30
HETATM   30  C   UNL     1     -10.358  11.034  69.844  1.00  0.00     0.250 C  
BRANCH  30  31
HETATM   31  C   UNL     1     -11.783  10.992  69.329  1.00  0.00    -0.397 C  
BRANCH  31  32
HETATM   32  C   UNL     1     -12.392   9.630  69.601  1.00  0.00     0.718 C  
BRANCH  32  33
HETATM   33  C   UNL     1     -13.217   9.669  70.877  1.00  0.00    -0.214 C  
BRANCH  33  34
HETATM   34  C   UNL     1     -14.236   8.540  70.881  1.00  0.00     0.118 C  
BRANCH  34  35
HETATM   35  C   UNL     1     -13.942   7.568  72.014  1.00  0.00    -0.294 C  
BRANCH  35  36
HETATM   36  C   UNL     1     -12.747   6.688  71.671  1.00  0.00    -0.280 C  
BRANCH  36  37
HETATM   37  C   UNL     1     -11.617   6.907  72.672  1.00  0.00    -0.181 C  
BRANCH  37  38
HETATM   38  C   UNL     1     -10.362   6.151  72.253  1.00  0.00    -0.221 C  
HETATM   39  C   UNL     1      -9.793   5.355  73.416  1.00  0.00    -0.173 C  
ENDBRANCH  37  38
ENDBRANCH  36  37
ENDBRANCH  35  36
ENDBRANCH  34  35
ENDBRANCH  33  34
ENDBRANCH  32  33
ENDBRANCH  31  32
ENDBRANCH  30  31
ENDBRANCH  29  30
ENDBRANCH  28  29
ENDBRANCH  27  28
ENDBRANCH  26  27
ENDBRANCH  25  26
ENDBRANCH  24  25
ENDBRANCH  23  24
ENDBRANCH  22  23
ENDBRANCH  19  22
ENDBRANCH  18  19
ENDBRANCH  17  18
ENDBRANCH  16  17
ENDBRANCH  15  16
ENDBRANCH  14  15
ENDBRANCH  13  14
ENDBRANCH  12  13
ENDBRANCH  11  12
ENDBRANCH  10  11
ENDBRANCH   9  10
ENDBRANCH   8   9
ENDBRANCH   7   8
ENDBRANCH   6   7
ENDBRANCH   5   6
ENDBRANCH   4   5
ENDBRANCH   3   4
ENDBRANCH   2   3
TORSDOF 34
ENDMDL
MODEL      231
REMARK 921   NORMALIZED FREE ENERGY PREDICTED BY IDOCK:    2.20 KCAL/MOL
REMARK 922        TOTAL FREE ENERGY PREDICTED BY IDOCK:    0.25 KCAL/MOL
REMARK 923 INTER-LIGAND FREE ENERGY PREDICTED BY IDOCK:   -0.80 KCAL/MOL
REMARK 924 INTRA-LIGAND FREE ENERGY PREDICTED BY IDOCK:    1.05 KCAL/MOL
REMARK 927      BINDING AFFINITY PREDICTED BY RF-SCORE:    0.00 PKD
ROOT
HETATM    1  C   UNL     1      -9.218   1.831  70.957  1.00  0.00    -0.169 C  
HETATM    2  C   UNL     1      -8.968   1.583  69.480  1.00  0.00    -0.132 C  
ENDROOT
BRANCH   2   3
HETATM    3  C   UNL     1      -9.166   2.856  68.672  1.00  0.00    -0.233 C  
BRANCH   3   4
HETATM    4  C   UNL     1      -7.913   3.727  68.702  1.00  0.00    -0.068 C  
BRANCH   4   5
HETATM    5  C   UNL     1      -7.392   3.970  67.291  1.00  0.00    -0.068 C  
BRANCH   5   6
HETATM    6  C   UNL     1      -8.253   5.000  66.573  1.00  0.00    -0.108 C  
BRANCH   6   7
HETATM    7  C   UNL     1      -8.816   4.409  65.288  1.00  0.00    -0.135 C  
BRANCH   7   8
HETATM    8  C   UNL     1      -8.666   5.400  64.145  1.00  0.00     0.030 C  
BRANCH   8   9
HETATM    9  C   UNL     1      -7.367   6.175  64.290  1.00  0.00    -0.070 C  
BRANCH   9  10
HETATM   10  C   UNL     1      -7.658   7.663  64.345  1.00  0.00    -0.107 C  
BRANCH  10  11
HETATM   11  C   UNL     1      -7.767   8.230  62.942  1.00  0.00    -0.132 C  
BRANCH  11  12
HETATM   12  C   UNL     1      -8.745   9.389  62.941  1.00  0.00    -0.228 C  
BRANCH  12  13
HETATM   13  C   UNL     1      -8.913   9.932  64.344  1.00  0.00    -0.275 C  
BRANCH  13  14
HETATM   14  C   UNL     1     -10.253  10.634  64.461  1.00  0.00    -0.399 C  
BRANCH  14  15
HETATM   15  C   UNL     1     -10.365  11.263  65.832  1.00  0.00    -0.304 C  
BRANCH  15  16
HETATM   16  C   UNL     1      -9.731  12.643  65.850  1.00  0.00    -0.212 C  
BRANCH  16  17
HETATM   17  C   UNL     1      -8.548  12.591  66.797  1.00  0.00    -0.109 C  
BRANCH  17  18
HETATM   18  C   UNL     1      -8.011  11.179  66.941  1.00  0.00    -0.151 C  
BRANCH  18  19
HETATM   19  N   UNL     1      -6.556  11.160  67.456  1.00  0.00    -0.066 N  
HETATM   20  C   UNL     1      -6.175   9.754  67.928  1.00  0.00    -0.052 C  
HETATM   21  C   UNL     1      -5.596  11.616  66.355  1.00  0.00     0.013 C  
BRANCH  19  22
HETATM   22  C   UNL     1      -6.525  12.150  68.641  1.00  0.00    -0.072 C  
BRANCH  22  23
HETATM   23  C   UNL     1      -6.402  11.442  69.975  1.00  0.00    -0.132 C  
BRANCH  23  24
HETATM   24  C   UNL     1      -5.140  11.853  70.712  1.00  0.00    -0.128 C  
BRANCH  24  25
HETATM   25  C   UNL     1      -5.365  11.580  72.189  1.00  0.00     0.478 C  
BRANCH  25  26
HETATM   26  C   UNL     1      -5.574  10.105  72.442  1.00  0.00     0.365 C  
BRANCH  26  27
HETATM   27  C   UNL     1      -6.179   9.466  71.204  1.00  0.00    -0.077 C  
BRANCH  27  28
HETATM   28  C   UNL     1      -7.239   8.466  71.616  1.00  0.00    -0.099 C  
BRANCH  28  29
HETATM   29  C   UNL     1      -8.599   8.912  71.114  1.00  0.00    -0.263 C  
BRANCH  29  30
HETATM   30  C   UNL     1      -8.585   8.964  69.599  1.00  0.00    -0.131 C  
BRANCH  30  31
HETATM   31  C   UNL     1      -9.123   7.672  69.019  1.00  0.00    -0.144 C  
BRANCH  31  32
HETATM   32  C   UNL     1      -9.180   6.605  70.096  1.00  0.00    -0.155 C  
BRANCH  32  33
HETATM   33  C   UNL     1     -10.218   6.971  71.144  1.00  0.00    -0.208 C  
BRANCH  33  34
HETATM   34  C   UNL     1     -11.090   5.768  71.466  1.00  0.00    -0.281 C  
BRANCH  34  35
HETATM   35  C   UNL     1     -12.385   5.826  70.668  1.00  0.00     1.838 C  
BRANCH  35  36
HETATM   36  C   UNL     1     -13.343   6.844  71.272  1.00  0.00    -0.205 C  
BRANCH  36  37
HETATM   37  C   UNL     1     -13.727   7.897  70.238  1.00  0.00     1.849 C  
BRANCH  37  38
HETATM   38  C   UNL     1     -13.709   9.294  70.847  1.00  0.00     0.054 C  
HETATM   39  C   UNL     1     -13.671   9.225  72.364  1.00  0.00    -0.517 C  
ENDBRANCH  37  38
ENDBRANCH  36  37
ENDBRANCH  35  36
ENDBRANCH  34  35
ENDBRANCH  33  34
ENDBRANCH  32  33
ENDBRANCH  31  32
ENDBRANCH  30  31
ENDBRANCH  29  30
ENDBRANCH  28  29
ENDBRANCH  27  28
ENDBRANCH  26  27
ENDBRANCH  25  26
ENDBRANCH  24  25
ENDBRANCH  23  24
ENDBRANCH  22  23
ENDBRANCH  19  22
ENDBRANCH  18  19
ENDBRANCH  17  18
ENDBRANCH  16  17
ENDBRANCH  15  16
ENDBRANCH  14  15
ENDBRANCH  13  14
ENDBRANCH  12  13
ENDBRANCH  11  12
ENDBRANCH  10  11
ENDBRANCH   9  10
ENDBRANCH   8   9
ENDBRANCH   7   8
ENDBRANCH   6   7
ENDBRANCH   5   6
ENDBRANCH   4   5
ENDBRANCH   3   4
ENDBRANCH   2   3
TORSDOF 34
ENDMDL
MODEL      232
REMARK 921   NORMALIZED FREE ENERGY PREDICTED BY IDOCK:    2.75 KCAL/MOL
REMARK 922        TOTAL FREE ENERGY PREDICTED BY IDOCK:    1.89 KCAL/MOL
REMARK 923 INTER-LIGAND FREE ENERGY PREDICTED BY IDOCK:   -4.85 KCAL/MOL
REMARK 924 INTRA-LIGAND FREE ENERGY PREDICTED BY IDOCK:    6.73 KCAL/MOL
REMARK 927      BINDING AFFINITY PREDICTED BY RF-SCORE:    0.00 PKD
ROOT
HETATM    1  C   UNL     1      -8.723  17.141  66.199  1.00  0.00    -0.223 C  
HETATM    2  C   UNL     1     -10.002  17.032  67.010  1.00  0.00    -0.288 C  
ENDROOT
BRANCH   2   3
HETATM    3  C   UNL     1      -9.697  16.771  68.478  1.00  0.00    -0.248 C  
BRANCH   3   4
HETATM    4  C   UNL     1     -10.538  15.617  69.017  1.00  0.00    -0.234 C  
BRANCH   4   5
HETATM    5  C   UNL     1     -11.914  16.110  69.448  1.00  0.00    -0.074 C  
BRANCH   5   6
HETATM    6  C   UNL     1     -12.798  14.940  69.856  1.00  0.00    -0.035 C  
BRANCH   6   7
HETATM    7  C   UNL     1     -11.957  13.683  70.029  1.00  0.00    -0.413 C  
BRANCH   7   8
HETATM    8  C   UNL     1     -11.161  13.405  68.764  1.00  0.00    -0.315 C  
BRANCH   8   9
HETATM    9  C   UNL     1     -11.883  13.973  67.554  1.00  0.00    -0.442 C  
BRANCH   9  10
HETATM   10  C   UNL     1     -12.508  12.849  66.751  1.00  0.00     0.239 C  
BRANCH  10  11
HETATM   11  C   UNL     1     -11.906  12.799  65.359  1.00  0.00    -0.456 C  
BRANCH  11  12
HETATM   12  C   UNL     1     -10.605  12.021  65.400  1.00  0.00    -0.319 C  
BRANCH  12  13
HETATM   13  C   UNL     1     -10.804  10.710  66.133  1.00  0.00    -0.069 C  
BRANCH  13  14
HETATM   14  C   UNL     1     -10.103  10.768  67.477  1.00  0.00    -0.218 C  
BRANCH  14  15
HETATM   15  C   UNL     1      -9.753   9.364  67.914  1.00  0.00    -0.177 C  
BRANCH  15  16
HETATM   16  C   UNL     1      -9.492   8.470  66.713  1.00  0.00    -0.253 C  
BRANCH  16  17
HETATM   17  C   UNL     1      -8.659   9.264  65.726  1.00  0.00    -0.169 C  
BRANCH  17  18
HETATM   18  C   UNL     1      -7.302   8.624  65.498  1.00  0.00    -0.084 C  
BRANCH  18  19
HETATM   19  N   UNL     1      -6.320   8.917  66.652  1.00  0.00    -0.061 N  
HETATM   20  C   UNL     1      -5.808  10.358  66.566  1.00  0.00    -0.068 C  
HETATM   21  C   UNL     1      -7.001   8.688  68.003  1.00  0.00    -0.075 C  
BRANCH  19  22
HETATM   22  C   UNL     1      -5.154   7.921  66.463  1.00  0.00    -0.024 C  
BRANCH  22  23
HETATM   23  C   UNL     1      -5.347   6.652  67.269  1.00  0.00    -0.009 C  
BRANCH  23  24
HETATM   24  C   UNL     1      -6.012   6.934  68.603  1.00  0.00    -0.026 C  
BRANCH  24  25
HETATM   25  C   UNL     1      -6.116   5.615  69.349  1.00  0.00    -0.024 C  
BRANCH  25  26
HETATM   26  C   UNL     1      -7.367   5.568  70.196  1.00  0.00    -0.069 C  
BRANCH  26  27
HETATM   27  C   UNL     1      -7.565   4.156  70.717  1.00  0.00    -0.048 C  
BRANCH  27  28
HETATM   28  C   UNL     1      -6.761   3.187  69.876  1.00  0.00    -0.034 C  
BRANCH  28  29
HETATM   29  C   UNL     1      -7.184   3.282  68.424  1.00  0.00    -0.050 C  
BRANCH  29  30
HETATM   30  C   UNL     1      -6.136   2.623  67.549  1.00  0.00    -0.027 C  
BRANCH  30  31
HETATM   31  C   UNL     1      -6.791   1.913  66.381  1.00  0.00    -0.042 C  
BRANCH  31  32
HETATM   32  C   UNL     1      -5.736   1.470  65.385  1.00  0.00    -0.013 C  
BRANCH  32  33
HETATM   33  C   UNL     1      -5.850   2.280  64.105  1.00  0.00    -0.013 C  
BRANCH  33  34
HETATM   34  C   UNL     1      -6.795   1.594  63.130  1.00  0.00    -0.022 C  
BRANCH  34  35
HETATM   35  C   UNL     1      -7.952   2.519  62.777  1.00  0.00    -0.068 C  
BRANCH  35  36
HETATM   36  C   UNL     1      -7.640   3.951  63.191  1.00  0.00    -0.058 C  
BRANCH  36  37
HETATM   37  C   UNL     1      -8.910   4.796  63.191  1.00  0.00    -0.117 C  
BRANCH  37  38
HETATM   38  C   UNL     1     -10.152   3.915  63.115  1.00  0.00    -0.166 C  
HETATM   39  C   UNL     1     -10.962   4.006  64.397  1.00  0.00    -0.053 C  
ENDBRANCH  37  38
ENDBRANCH  36  37
ENDBRANCH  35  36
ENDBRANCH  34  35
ENDBRANCH  33  34
ENDBRANCH  32  33
ENDBRANCH  31  32
ENDBRANCH  30  31
ENDBRANCH  29  30
ENDBRANCH  28  29
ENDBRANCH  27  28
ENDBRANCH  26  27
ENDBRANCH  25  26
ENDBRANCH  24  25
ENDBRANCH  23  24
ENDBRANCH  22  23
ENDBRANCH  19  22
ENDBRANCH  18  19
ENDBRANCH  17  18
ENDBRANCH  16  17
ENDBRANCH  15  16
ENDBRANCH  14  15
ENDBRANCH  13  14
ENDBRANCH  12  13
ENDBRANCH  11  12
ENDBRANCH  10  11
ENDBRANCH   9  10
ENDBRANCH   8   9
ENDBRANCH   7   8
ENDBRANCH   6   7
ENDBRANCH   5   6
ENDBRANCH   4   5
ENDBRANCH   3   4
ENDBRANCH   2   3
TORSDOF 34
ENDMDL
MODEL      233
REMARK 921   NORMALIZED FREE ENERGY PREDICTED BY IDOCK:    3.12 KCAL/MOL
REMARK 922        TOTAL FREE ENERGY PREDICTED BY IDOCK:    3.00 KCAL/MOL
REMARK 923 INTER-LIGAND FREE ENERGY PREDICTED BY IDOCK:   -2.38 KCAL/MOL
REMARK 924 INTRA-LIGAND FREE ENERGY PREDICTED BY IDOCK:    5.37 KCAL/MOL
REMARK 927      BINDING AFFINITY PREDICTED BY RF-SCORE:    0.00 PKD
ROOT
HETATM    1  C   UNL     1      -8.925   5.540  66.579  1.00  0.00    -0.123 C  
HETATM    2  C   UNL     1      -8.809   6.972  67.068  1.00  0.00    -0.124 C  
ENDROOT
BRANCH   2   3
HETATM    3  C   UNL     1      -8.635   7.935  65.902  1.00  0.00    -0.171 C  
BRANCH   3   4
HETATM    4  C   UNL     1      -7.281   8.636  65.967  1.00  0.00    -0.084 C  
BRANCH   4   5
HETATM    5  C   UNL     1      -7.267   9.679  67.078  1.00  0.00    -0.087 C  
BRANCH   5   6
HETATM    6  C   UNL     1      -7.230   9.006  68.442  1.00  0.00    -0.077 C  
BRANCH   6   7
HETATM    7  C   UNL     1      -6.022   8.085  68.541  1.00  0.00    -0.040 C  
BRANCH   7   8
HETATM    8  C   UNL     1      -5.334   8.262  69.885  1.00  0.00    -0.023 C  
BRANCH   8   9
HETATM    9  C   UNL     1      -6.121   7.554  70.974  1.00  0.00    -0.035 C  
BRANCH   9  10
HETATM   10  C   UNL     1      -6.502   6.160  70.514  1.00  0.00    -0.043 C  
BRANCH  10  11
HETATM   11  C   UNL     1      -5.272   5.410  70.036  1.00  0.00    -0.004 C  
BRANCH  11  12
HETATM   12  C   UNL     1      -5.139   4.113  70.811  1.00  0.00     0.000 C  
BRANCH  12  13
HETATM   13  C   UNL     1      -5.576   4.316  72.247  1.00  0.00    -0.007 C  
BRANCH  13  14
HETATM   14  C   UNL     1      -7.005   4.824  72.277  1.00  0.00    -0.062 C  
BRANCH  14  15
HETATM   15  C   UNL     1      -7.640   4.437  73.593  1.00  0.00    -0.078 C  
BRANCH  15  16
HETATM   16  C   UNL     1      -8.645   5.485  74.041  1.00  0.00    -0.114 C  
BRANCH  16  17
HETATM   17  C   UNL     1      -8.687   6.563  72.975  1.00  0.00    -0.130 C  
BRANCH  17  18
HETATM   18  C   UNL     1     -10.110   6.875  72.552  1.00  0.00    -0.172 C  
BRANCH  18  19
HETATM   19  N   UNL     1     -10.973   5.602  72.426  1.00  0.00    -0.247 N  
HETATM   20  C   UNL     1     -10.667   4.634  73.573  1.00  0.00    -0.265 C  
HETATM   21  C   UNL     1     -12.460   5.963  72.434  1.00  0.00     0.193 C  
BRANCH  19  22
HETATM   22  C   UNL     1     -10.580   4.970  71.072  1.00  0.00    -0.076 C  
BRANCH  22  23
HETATM   23  C   UNL     1      -9.729   5.901  70.232  1.00  0.00    -0.212 C  
BRANCH  23  24
HETATM   24  C   UNL     1     -10.367   7.271  70.095  1.00  0.00    -0.221 C  
BRANCH  24  25
HETATM   25  C   UNL     1     -11.739   7.076  69.474  1.00  0.00     0.096 C  
BRANCH  25  26
HETATM   26  C   UNL     1     -12.673   8.200  69.859  1.00  0.00     1.969 C  
BRANCH  26  27
HETATM   27  C   UNL     1     -11.973   9.116  70.847  1.00  0.00    -0.299 C  
BRANCH  27  28
HETATM   28  C   UNL     1     -11.059  10.065  70.100  1.00  0.00    -0.371 C  
BRANCH  28  29
HETATM   29  C   UNL     1     -11.742  10.563  68.842  1.00  0.00    -0.217 C  
BRANCH  29  30
HETATM   30  C   UNL     1     -12.332  11.936  69.098  1.00  0.00     0.030 C  
BRANCH  30  31
HETATM   31  C   UNL     1     -12.024  12.390  70.511  1.00  0.00    -0.284 C  
BRANCH  31  32
HETATM   32  C   UNL     1     -11.449  13.794  70.490  1.00  0.00     0.053 C  
BRANCH  32  33
HETATM   33  C   UNL     1     -10.201  13.837  69.625  1.00  0.00     0.593 C  
BRANCH  33  34
HETATM   34  C   UNL     1     -10.565  14.197  68.192  1.00  0.00    -0.249 C  
BRANCH  34  35
HETATM   35  C   UNL     1      -9.804  13.310  67.216  1.00  0.00    -0.233 C  
BRANCH  35  36
HETATM   36  C   UNL     1     -10.769  12.571  66.298  1.00  0.00    -0.288 C  
BRANCH  36  37
HETATM   37  C   UNL     1     -11.953  13.463  65.938  1.00  0.00    -0.452 C  
BRANCH  37  38
HETATM   38  C   UNL     1     -12.547  13.066  64.591  1.00  0.00    -0.425 C  
HETATM   39  C   UNL     1     -12.249  11.611  64.274  1.00  0.00    -0.097 C  
ENDBRANCH  37  38
ENDBRANCH  36  37
ENDBRANCH  35  36
ENDBRANCH  34  35
ENDBRANCH  33  34
ENDBRANCH  32  33
ENDBRANCH  31  32
ENDBRANCH  30  31
ENDBRANCH  29  30
ENDBRANCH  28  29
ENDBRANCH  27  28
ENDBRANCH  26  27
ENDBRANCH  25  26
ENDBRANCH  24  25
ENDBRANCH  23  24
ENDBRANCH  22  23
ENDBRANCH  19  22
ENDBRANCH  18  19
ENDBRANCH  17  18
ENDBRANCH  16  17
ENDBRANCH  15  16
ENDBRANCH  14  15
ENDBRANCH  13  14
ENDBRANCH  12  13
ENDBRANCH  11  12
ENDBRANCH  10  11
ENDBRANCH   9  10
ENDBRANCH   8   9
ENDBRANCH   7   8
ENDBRANCH   6   7
ENDBRANCH   5   6
ENDBRANCH   4   5
ENDBRANCH   3   4
ENDBRANCH   2   3
TORSDOF 34
ENDMDL
MODEL      234
REMARK 921   NORMALIZED FREE ENERGY PREDICTED BY IDOCK:    3.44 KCAL/MOL
REMARK 922        TOTAL FREE ENERGY PREDICTED BY IDOCK:    3.95 KCAL/MOL
REMARK 923 INTER-LIGAND FREE ENERGY PREDICTED BY IDOCK:   -5.00 KCAL/MOL
REMARK 924 INTRA-LIGAND FREE ENERGY PREDICTED BY IDOCK:    8.95 KCAL/MOL
REMARK 927      BINDING AFFINITY PREDICTED BY RF-SCORE:    0.00 PKD
ROOT
HETATM    1  C   UNL     1      -9.436   6.022  72.832  1.00  0.00    -0.151 C  
HETATM    2  C   UNL     1      -8.483   4.875  72.547  1.00  0.00    -0.120 C  
ENDROOT
BRANCH   2   3
HETATM    3  C   UNL     1      -9.203   3.723  71.862  1.00  0.00    -0.180 C  
BRANCH   3   4
HETATM    4  C   UNL     1     -10.717   3.868  71.990  1.00  0.00     0.228 C  
BRANCH   4   5
HETATM    5  C   UNL     1     -11.121   5.336  71.958  1.00  0.00    -0.151 C  
BRANCH   5   6
HETATM    6  C   UNL     1     -11.615   5.724  70.571  1.00  0.00     0.246 C  
BRANCH   6   7
HETATM    7  C   UNL     1     -12.251   7.106  70.607  1.00  0.00    -0.245 C  
BRANCH   7   8
HETATM    8  C   UNL     1     -11.176   8.180  70.579  1.00  0.00    -0.249 C  
BRANCH   8   9
HETATM    9  C   UNL     1     -10.172   7.890  69.476  1.00  0.00    -0.208 C  
BRANCH   9  10
HETATM   10  C   UNL     1     -10.874   7.238  68.299  1.00  0.00    -0.114 C  
BRANCH  10  11
HETATM   11  C   UNL     1     -10.943   5.735  68.495  1.00  0.00    -0.174 C  
BRANCH  11  12
HETATM   12  C   UNL     1      -9.823   5.073  67.716  1.00  0.00    -0.199 C  
BRANCH  12  13
HETATM   13  C   UNL     1     -10.389   4.307  66.538  1.00  0.00     0.076 C  
BRANCH  13  14
HETATM   14  C   UNL     1      -9.570   4.606  65.296  1.00  0.00    -0.161 C  
BRANCH  14  15
HETATM   15  C   UNL     1      -8.570   5.694  65.613  1.00  0.00    -0.150 C  
BRANCH  15  16
HETATM   16  C   UNL     1      -7.352   5.125  66.320  1.00  0.00    -0.082 C  
BRANCH  16  17
HETATM   17  C   UNL     1      -6.707   4.122  65.383  1.00  0.00    -0.052 C  
BRANCH  17  18
HETATM   18  C   UNL     1      -7.107   4.369  63.940  1.00  0.00    -0.046 C  
BRANCH  18  19
HETATM   19  N   UNL     1      -6.289   5.507  63.295  1.00  0.00    -0.021 N  
HETATM   20  C   UNL     1      -5.750   6.454  64.372  1.00  0.00    -0.022 C  
HETATM   21  C   UNL     1      -5.128   4.933  62.480  1.00  0.00    -0.009 C  
BRANCH  19  22
HETATM   22  C   UNL     1      -7.278   6.253  62.372  1.00  0.00    -0.045 C  
BRANCH  22  23
HETATM   23  C   UNL     1      -8.353   6.982  63.154  1.00  0.00     0.174 C  
BRANCH  23  24
HETATM   24  C   UNL     1      -8.377   8.463  62.824  1.00  0.00    -0.134 C  
BRANCH  24  25
HETATM   25  C   UNL     1      -7.041   9.047  63.248  1.00  0.00    -0.088 C  
BRANCH  25  26
HETATM   26  C   UNL     1      -6.791  10.375  62.571  1.00  0.00    -0.143 C  
BRANCH  26  27
HETATM   27  C   UNL     1      -8.085  11.169  62.533  1.00  0.00    -0.091 C  
BRANCH  27  28
HETATM   28  C   UNL     1      -9.264  10.219  62.566  1.00  0.00    -0.321 C  
BRANCH  28  29
HETATM   29  C   UNL     1     -10.258  10.659  63.623  1.00  0.00    -0.236 C  
BRANCH  29  30
HETATM   30  C   UNL     1     -10.821  12.017  63.253  1.00  0.00    -0.400 C  
BRANCH  30  31
HETATM   31  C   UNL     1     -11.810  12.484  64.302  1.00  0.00    -0.468 C  
BRANCH  31  32
HETATM   32  C   UNL     1     -11.345  12.054  65.681  1.00  0.00    -0.381 C  
BRANCH  32  33
HETATM   33  C   UNL     1     -10.471  13.132  66.298  1.00  0.00    -0.291 C  
BRANCH  33  34
HETATM   34  C   UNL     1      -9.950  12.677  67.653  1.00  0.00    -0.216 C  
BRANCH  34  35
HETATM   35  C   UNL     1      -8.439  12.491  67.602  1.00  0.00    -0.171 C  
BRANCH  35  36
HETATM   36  C   UNL     1      -8.065  11.399  66.608  1.00  0.00    -0.155 C  
BRANCH  36  37
HETATM   37  C   UNL     1      -8.321  10.020  67.208  1.00  0.00    -0.121 C  
BRANCH  37  38
HETATM   38  C   UNL     1      -7.286   9.689  68.277  1.00  0.00    -0.079 C  
HETATM   39  C   UNL     1      -5.931   9.401  67.652  1.00  0.00    -0.052 C  
ENDBRANCH  37  38
ENDBRANCH  36  37
ENDBRANCH  35  36
ENDBRANCH  34  35
ENDBRANCH  33  34
ENDBRANCH  32  33
ENDBRANCH  31  32
ENDBRANCH  30  31
ENDBRANCH  29  30
ENDBRANCH  28  29
ENDBRANCH  27  28
ENDBRANCH  26  27
ENDBRANCH  25  26
ENDBRANCH  24  25
ENDBRANCH  23  24
ENDBRANCH  22  23
ENDBRANCH  19  22
ENDBRANCH  18  19
ENDBRANCH  17  18
ENDBRANCH  16  17
ENDBRANCH  15  16
ENDBRANCH  14  15
ENDBRANCH  13  14
ENDBRANCH  12  13
ENDBRANCH  11  12
ENDBRANCH  10  11
ENDBRANCH   9  10
ENDBRANCH   8   9
ENDBRANCH   7   8
ENDBRANCH   6   7
ENDBRANCH   5   6
ENDBRANCH   4   5
ENDBRANCH   3   4
ENDBRANCH   2   3
TORSDOF 34
ENDMDL
MODEL      235
REMARK 921   NORMALIZED FREE ENERGY PREDICTED BY IDOCK:    3.49 KCAL/MOL
REMARK 922        TOTAL FREE ENERGY PREDICTED BY IDOCK:    4.10 KCAL/MOL
REMARK 923 INTER-LIGAND FREE ENERGY PREDICTED BY IDOCK:   -2.82 KCAL/MOL
REMARK 924 INTRA-LIGAND FREE ENERGY PREDICTED BY IDOCK:    6.92 KCAL/MOL
REMARK 927      BINDING AFFINITY PREDICTED BY RF-SCORE:    0.00 PKD
ROOT
HETATM    1  C   UNL     1     -11.533   8.676  67.324  1.00  0.00     1.725 C  
HETATM    2  C   UNL     1     -11.410   9.838  68.294  1.00  0.00     0.034 C  
ENDROOT
BRANCH   2   3
HETATM    3  C   UNL     1     -10.934   9.362  69.658  1.00  0.00    -0.216 C  
BRANCH   3   4
HETATM    4  C   UNL     1     -12.091   8.795  70.477  1.00  0.00     0.094 C  
BRANCH   4   5
HETATM    5  C   UNL     1     -12.129   7.276  70.375  1.00  0.00    -0.067 C  
BRANCH   5   6
HETATM    6  C   UNL     1     -10.742   6.690  70.597  1.00  0.00    -0.286 C  
BRANCH   6   7
HETATM    7  C   UNL     1     -10.580   5.406  69.796  1.00  0.00    -0.347 C  
BRANCH   7   8
HETATM    8  C   UNL     1     -10.279   5.729  68.341  1.00  0.00    -0.242 C  
BRANCH   8   9
HETATM    9  C   UNL     1      -8.778   5.815  68.122  1.00  0.00    -0.107 C  
BRANCH   9  10
HETATM   10  C   UNL     1      -8.072   4.783  68.981  1.00  0.00    -0.078 C  
BRANCH  10  11
HETATM   11  C   UNL     1      -7.621   5.409  70.289  1.00  0.00    -0.076 C  
BRANCH  11  12
HETATM   12  C   UNL     1      -8.474   6.627  70.585  1.00  0.00    -0.138 C  
BRANCH  12  13
HETATM   13  C   UNL     1      -7.624   7.723  71.193  1.00  0.00    -0.079 C  
BRANCH  13  14
HETATM   14  C   UNL     1      -6.440   8.010  70.289  1.00  0.00    -0.037 C  
BRANCH  14  15
HETATM   15  C   UNL     1      -6.492   7.084  69.095  1.00  0.00    -0.040 C  
BRANCH  15  16
HETATM   16  C   UNL     1      -5.144   6.427  68.857  1.00  0.00    -0.004 C  
BRANCH  16  17
HETATM   17  C   UNL     1      -5.303   5.466  67.694  1.00  0.00    -0.011 C  
BRANCH  17  18
HETATM   18  C   UNL     1      -6.467   5.857  66.802  1.00  0.00    -0.050 C  
BRANCH  18  19
HETATM   19  N   UNL     1      -6.449   5.102  65.456  1.00  0.00    -0.035 N  
HETATM   20  C   UNL     1      -5.484   5.779  64.478  1.00  0.00    -0.017 C  
HETATM   21  C   UNL     1      -6.035   3.644  65.669  1.00  0.00    -0.023 C  
BRANCH  19  22
HETATM   22  C   UNL     1      -7.896   5.179  64.921  1.00  0.00    -0.093 C  
BRANCH  22  23
HETATM   23  C   UNL     1      -8.510   6.550  65.124  1.00  0.00    -0.052 C  
BRANCH  23  24
HETATM   24  C   UNL     1      -7.655   7.642  64.507  1.00  0.00    -0.112 C  
BRANCH  24  25
HETATM   25  C   UNL     1      -8.456   8.931  64.556  1.00  0.00    -0.178 C  
BRANCH  25  26
HETATM   26  C   UNL     1      -7.602  10.082  65.034  1.00  0.00    -0.139 C  
BRANCH  26  27
HETATM   27  C   UNL     1      -6.779   9.633  66.228  1.00  0.00    -0.076 C  
BRANCH  27  28
HETATM   28  C   UNL     1      -5.590  10.554  66.401  1.00  0.00    -0.069 C  
BRANCH  28  29
HETATM   29  C   UNL     1      -5.582  11.139  67.799  1.00  0.00    -0.043 C  
BRANCH  29  30
HETATM   30  C   UNL     1      -5.664  12.650  67.715  1.00  0.00    -0.122 C  
BRANCH  30  31
HETATM   31  C   UNL     1      -6.281  13.219  68.977  1.00  0.00    -0.093 C  
BRANCH  31  32
HETATM   32  C   UNL     1      -7.753  13.508  68.750  1.00  0.00    -0.044 C  
BRANCH  32  33
HETATM   33  C   UNL     1      -7.930  14.391  67.526  1.00  0.00    -0.208 C  
BRANCH  33  34
HETATM   34  C   UNL     1      -9.203  15.214  67.649  1.00  0.00    -0.181 C  
BRANCH  34  35
HETATM   35  C   UNL     1     -10.070  14.679  68.780  1.00  0.00    -0.235 C  
BRANCH  35  36
HETATM   36  C   UNL     1     -10.453  15.798  69.740  1.00  0.00    -0.318 C  
BRANCH  36  37
HETATM   37  C   UNL     1     -11.342  15.263  70.858  1.00  0.00    -0.380 C  
BRANCH  37  38
HETATM   38  C   UNL     1     -12.730  14.917  70.333  1.00  0.00    -0.370 C  
HETATM   39  C   UNL     1     -13.237  13.624  70.949  1.00  0.00    -0.111 C  
ENDBRANCH  37  38
ENDBRANCH  36  37
ENDBRANCH  35  36
ENDBRANCH  34  35
ENDBRANCH  33  34
ENDBRANCH  32  33
ENDBRANCH  31  32
ENDBRANCH  30  31
ENDBRANCH  29  30
ENDBRANCH  28  29
ENDBRANCH  27  28
ENDBRANCH  26  27
ENDBRANCH  25  26
ENDBRANCH  24  25
ENDBRANCH  23  24
ENDBRANCH  22  23
ENDBRANCH  19  22
ENDBRANCH  18  19
ENDBRANCH  17  18
ENDBRANCH  16  17
ENDBRANCH  15  16
ENDBRANCH  14  15
ENDBRANCH  13  14
ENDBRANCH  12  13
ENDBRANCH  11  12
ENDBRANCH  10  11
ENDBRANCH   9  10
ENDBRANCH   8   9
ENDBRANCH   7   8
ENDBRANCH   6   7
ENDBRANCH   5   6
ENDBRANCH   4   5
ENDBRANCH   3   4
ENDBRANCH   2   3
TORSDOF 34
ENDMDL
MODEL      236
REMARK 921   NORMALIZED FREE ENERGY PREDICTED BY IDOCK:    3.60 KCAL/MOL
REMARK 922        TOTAL FREE ENERGY PREDICTED BY IDOCK:    4.42 KCAL/MOL
REMARK 923 INTER-LIGAND FREE ENERGY PREDICTED BY IDOCK:   -3.85 KCAL/MOL
REMARK 924 INTRA-LIGAND FREE ENERGY PREDICTED BY IDOCK:    8.27 KCAL/MOL
REMARK 927      BINDING AFFINITY PREDICTED BY RF-SCORE:    0.00 PKD
ROOT
HETATM    1  C   UNL     1      -9.435   6.023  72.832  1.00  0.00    -0.151 C  
HETATM    2  C   UNL     1      -8.467   4.885  72.558  1.00  0.00    -0.120 C  
ENDROOT
BRANCH   2   3
HETATM    3  C   UNL     1      -9.174   3.716  71.889  1.00  0.00    -0.176 C  
BRANCH   3   4
HETATM    4  C   UNL     1     -10.690   3.846  72.014  1.00  0.00     0.228 C  
BRANCH   4   5
HETATM    5  C   UNL     1     -11.111   5.308  71.957  1.00  0.00    -0.151 C  
BRANCH   5   6
HETATM    6  C   UNL     1     -11.609   5.668  70.564  1.00  0.00     0.496 C  
BRANCH   6   7
HETATM    7  C   UNL     1     -12.261   7.043  70.577  1.00  0.00    -0.222 C  
BRANCH   7   8
HETATM    8  C   UNL     1     -11.198   8.128  70.530  1.00  0.00    -0.249 C  
BRANCH   8   9
HETATM    9  C   UNL     1     -10.192   7.830  69.431  1.00  0.00    -0.208 C  
BRANCH   9  10
HETATM   10  C   UNL     1     -10.886   7.147  68.267  1.00  0.00    -0.156 C  
BRANCH  10  11
HETATM   11  C   UNL     1     -10.934   5.647  68.491  1.00  0.00    -0.053 C  
BRANCH  11  12
HETATM   12  C   UNL     1      -9.807   4.987  67.720  1.00  0.00    -0.199 C  
BRANCH  12  13
HETATM   13  C   UNL     1     -10.364   4.187  66.561  1.00  0.00     0.225 C  
BRANCH  13  14
HETATM   14  C   UNL     1      -9.555   4.473  65.310  1.00  0.00    -0.179 C  
BRANCH  14  15
HETATM   15  C   UNL     1      -8.573   5.586  65.599  1.00  0.00    -0.148 C  
BRANCH  15  16
HETATM   16  C   UNL     1      -7.344   5.055  66.317  1.00  0.00    -0.082 C  
BRANCH  16  17
HETATM   17  C   UNL     1      -6.686   4.039  65.403  1.00  0.00    -0.052 C  
BRANCH  17  18
HETATM   18  C   UNL     1      -7.095   4.240  63.956  1.00  0.00    -0.046 C  
BRANCH  18  19
HETATM   19  N   UNL     1      -6.296   5.373  63.278  1.00  0.00    -0.021 N  
HETATM   20  C   UNL     1      -5.772   6.359  64.326  1.00  0.00    -0.022 C  
HETATM   21  C   UNL     1      -5.127   4.796  62.478  1.00  0.00    -0.009 C  
BRANCH  19  22
HETATM   22  C   UNL     1      -7.298   6.076  62.335  1.00  0.00    -0.053 C  
BRANCH  22  23
HETATM   23  C   UNL     1      -8.383   6.811  63.097  1.00  0.00     0.168 C  
BRANCH  23  24
HETATM   24  C   UNL     1      -8.434   8.280  62.720  1.00  0.00    -0.046 C  
BRANCH  24  25
HETATM   25  C   UNL     1      -7.107   8.901  63.119  1.00  0.00    -0.089 C  
BRANCH  25  26
HETATM   26  C   UNL     1      -6.881  10.208  62.396  1.00  0.00    -0.131 C  
BRANCH  26  27
HETATM   27  C   UNL     1      -7.717  11.293  63.052  1.00  0.00     0.590 C  
BRANCH  27  28
HETATM   28  C   UNL     1      -8.933  10.671  63.706  1.00  0.00    -0.208 C  
BRANCH  28  29
HETATM   29  C   UNL     1      -9.064  11.163  65.134  1.00  0.00    -0.161 C  
BRANCH  29  30
HETATM   30  C   UNL     1     -10.167  12.200  65.212  1.00  0.00    -0.304 C  
BRANCH  30  31
HETATM   31  C   UNL     1     -10.310  12.716  66.629  1.00  0.00    -0.249 C  
BRANCH  31  32
HETATM   32  C   UNL     1      -9.073  13.501  67.022  1.00  0.00    -0.248 C  
BRANCH  32  33
HETATM   33  C   UNL     1      -9.158  14.919  66.483  1.00  0.00    -0.309 C  
BRANCH  33  34
HETATM   34  C   UNL     1      -7.817  15.622  66.633  1.00  0.00    -0.134 C  
BRANCH  34  35
HETATM   35  C   UNL     1      -8.019  17.128  66.730  1.00  0.00    -0.271 C  
BRANCH  35  36
HETATM   36  C   UNL     1      -8.569  17.509  68.098  1.00  0.00    -0.258 C  
BRANCH  36  37
HETATM   37  C   UNL     1      -9.977  18.083  67.967  1.00  0.00    -0.346 C  
BRANCH  37  38
HETATM   38  C   UNL     1      -9.943  19.481  67.362  1.00  0.00    -0.498 C  
HETATM   39  C   UNL     1      -9.252  20.461  68.295  1.00  0.00    -0.009 C  
ENDBRANCH  37  38
ENDBRANCH  36  37
ENDBRANCH  35  36
ENDBRANCH  34  35
ENDBRANCH  33  34
ENDBRANCH  32  33
ENDBRANCH  31  32
ENDBRANCH  30  31
ENDBRANCH  29  30
ENDBRANCH  28  29
ENDBRANCH  27  28
ENDBRANCH  26  27
ENDBRANCH  25  26
ENDBRANCH  24  25
ENDBRANCH  23  24
ENDBRANCH  22  23
ENDBRANCH  19  22
ENDBRANCH  18  19
ENDBRANCH  17  18
ENDBRANCH  16  17
ENDBRANCH  15  16
ENDBRANCH  14  15
ENDBRANCH  13  14
ENDBRANCH  12  13
ENDBRANCH  11  12
ENDBRANCH  10  11
ENDBRANCH   9  10
ENDBRANCH   8   9
ENDBRANCH   7   8
ENDBRANCH   6   7
ENDBRANCH   5   6
ENDBRANCH   4   5
ENDBRANCH   3   4
ENDBRANCH   2   3
TORSDOF 34
ENDMDL
MODEL      237
REMARK 921   NORMALIZED FREE ENERGY PREDICTED BY IDOCK:    3.77 KCAL/MOL
REMARK 922        TOTAL FREE ENERGY PREDICTED BY IDOCK:    4.93 KCAL/MOL
REMARK 923 INTER-LIGAND FREE ENERGY PREDICTED BY IDOCK:    2.58 KCAL/MOL
REMARK 924 INTRA-LIGAND FREE ENERGY PREDICTED BY IDOCK:    2.35 KCAL/MOL
REMARK 927      BINDING AFFINITY PREDICTED BY RF-SCORE:    0.00 PKD
ROOT
HETATM    1  C   UNL     1      -5.712  12.895  65.482  1.00  0.00     6.473 C  
HETATM    2  C   UNL     1      -5.990  12.623  66.949  1.00  0.00     0.438 C  
ENDROOT
BRANCH   2   3
HETATM    3  C   UNL     1      -7.348  11.962  67.134  1.00  0.00    -0.142 C  
BRANCH   3   4
HETATM    4  C   UNL     1      -7.248  10.447  66.972  1.00  0.00    -0.093 C  
BRANCH   4   5
HETATM    5  C   UNL     1      -5.897  10.057  66.384  1.00  0.00    -0.060 C  
BRANCH   5   6
HETATM    6  C   UNL     1      -5.837  10.408  64.904  1.00  0.00    -0.130 C  
BRANCH   6   7
HETATM    7  C   UNL     1      -6.272   9.216  64.064  1.00  0.00    -0.083 C  
BRANCH   7   8
HETATM    8  C   UNL     1      -5.515   7.968  64.491  1.00  0.00    -0.040 C  
BRANCH   8   9
HETATM    9  C   UNL     1      -6.299   7.218  65.555  1.00  0.00    -0.038 C  
BRANCH   9  10
HETATM   10  C   UNL     1      -7.781   7.270  65.237  1.00  0.00    -0.114 C  
BRANCH  10  11
HETATM   11  C   UNL     1      -8.389   8.553  65.773  1.00  0.00    -0.144 C  
BRANCH  11  12
HETATM   12  C   UNL     1      -8.995   8.292  67.138  1.00  0.00    -0.154 C  
BRANCH  12  13
HETATM   13  C   UNL     1     -10.423   7.808  66.992  1.00  0.00    -0.419 C  
BRANCH  13  14
HETATM   14  C   UNL     1     -10.798   6.959  68.192  1.00  0.00    -0.258 C  
BRANCH  14  15
HETATM   15  C   UNL     1     -10.124   7.518  69.425  1.00  0.00    -0.190 C  
BRANCH  15  16
HETATM   16  C   UNL     1     -10.162   6.517  70.567  1.00  0.00    -0.224 C  
BRANCH  16  17
HETATM   17  C   UNL     1      -8.738   6.319  71.048  1.00  0.00    -0.136 C  
BRANCH  17  18
HETATM   18  C   UNL     1      -7.768   7.221  70.309  1.00  0.00    -0.094 C  
BRANCH  18  19
HETATM   19  N   UNL     1      -6.691   7.810  71.245  1.00  0.00    -0.044 N  
HETATM   20  C   UNL     1      -7.008   7.468  72.704  1.00  0.00    -0.070 C  
HETATM   21  C   UNL     1      -5.309   7.270  70.873  1.00  0.00    -0.027 C  
BRANCH  19  22
HETATM   22  C   UNL     1      -6.748   9.338  71.028  1.00  0.00    -0.093 C  
BRANCH  22  23
HETATM   23  C   UNL     1      -6.051   9.761  69.750  1.00  0.00    -0.043 C  
BRANCH  23  24
HETATM   24  C   UNL     1      -5.218  11.013  69.955  1.00  0.00    -0.045 C  
BRANCH  24  25
HETATM   25  C   UNL     1      -5.188  11.302  71.445  1.00  0.00    -0.020 C  
BRANCH  25  26
HETATM   26  C   UNL     1      -5.935  12.576  71.766  1.00  0.00     1.392 C  
BRANCH  26  27
HETATM   27  C   UNL     1      -5.934  13.477  70.544  1.00  0.00    -0.133 C  
BRANCH  27  28
HETATM   28  C   UNL     1      -5.973  14.926  70.981  1.00  0.00     0.045 C  
BRANCH  28  29
HETATM   29  C   UNL     1      -6.577  15.784  69.887  1.00  0.00    -0.099 C  
BRANCH  29  30
HETATM   30  C   UNL     1      -7.169  14.892  68.814  1.00  0.00    -0.123 C  
BRANCH  30  31
HETATM   31  C   UNL     1      -8.468  15.477  68.296  1.00  0.00    -0.156 C  
BRANCH  31  32
HETATM   32  C   UNL     1      -9.500  15.512  69.407  1.00  0.00    -0.278 C  
BRANCH  32  33
HETATM   33  C   UNL     1     -10.895  15.659  68.822  1.00  0.00    -0.262 C  
BRANCH  33  34
HETATM   34  C   UNL     1     -11.729  14.424  69.130  1.00  0.00    -0.354 C  
BRANCH  34  35
HETATM   35  C   UNL     1     -10.841  13.189  69.187  1.00  0.00    -0.139 C  
BRANCH  35  36
HETATM   36  C   UNL     1     -11.419  12.072  68.327  1.00  0.00    -0.361 C  
BRANCH  36  37
HETATM   37  C   UNL     1     -12.260  11.124  69.176  1.00  0.00    -0.244 C  
BRANCH  37  38
HETATM   38  C   UNL     1     -12.381  11.635  70.607  1.00  0.00    -0.437 C  
HETATM   39  C   UNL     1     -13.041  10.598  71.500  1.00  0.00    -0.527 C  
ENDBRANCH  37  38
ENDBRANCH  36  37
ENDBRANCH  35  36
ENDBRANCH  34  35
ENDBRANCH  33  34
ENDBRANCH  32  33
ENDBRANCH  31  32
ENDBRANCH  30  31
ENDBRANCH  29  30
ENDBRANCH  28  29
ENDBRANCH  27  28
ENDBRANCH  26  27
ENDBRANCH  25  26
ENDBRANCH  24  25
ENDBRANCH  23  24
ENDBRANCH  22  23
ENDBRANCH  19  22
ENDBRANCH  18  19
ENDBRANCH  17  18
ENDBRANCH  16  17
ENDBRANCH  15  16
ENDBRANCH  14  15
ENDBRANCH  13  14
ENDBRANCH  12  13
ENDBRANCH  11  12
ENDBRANCH  10  11
ENDBRANCH   9  10
ENDBRANCH   8   9
ENDBRANCH   7   8
ENDBRANCH   6   7
ENDBRANCH   5   6
ENDBRANCH   4   5
ENDBRANCH   3   4
ENDBRANCH   2   3
TORSDOF 34
ENDMDL
MODEL      238
REMARK 921   NORMALIZED FREE ENERGY PREDICTED BY IDOCK:    3.79 KCAL/MOL
REMARK 922        TOTAL FREE ENERGY PREDICTED BY IDOCK:    5.00 KCAL/MOL
REMARK 923 INTER-LIGAND FREE ENERGY PREDICTED BY IDOCK:   -3.28 KCAL/MOL
REMARK 924 INTRA-LIGAND FREE ENERGY PREDICTED BY IDOCK:    8.29 KCAL/MOL
REMARK 927      BINDING AFFINITY PREDICTED BY RF-SCORE:    0.00 PKD
ROOT
HETATM    1  C   UNL     1      -5.650   8.225  69.545  1.00  0.00    -0.030 C  
HETATM    2  C   UNL     1      -6.352   7.702  70.786  1.00  0.00    -0.038 C  
ENDROOT
BRANCH   2   3
HETATM    3  C   UNL     1      -6.273   8.709  71.923  1.00  0.00    -0.071 C  
BRANCH   3   4
HETATM    4  C   UNL     1      -5.139   9.705  71.698  1.00  0.00    -0.071 C  
BRANCH   4   5
HETATM    5  C   UNL     1      -5.693  11.075  71.328  1.00  0.00     0.168 C  
BRANCH   5   6
HETATM    6  C   UNL     1      -5.873  11.190  69.821  1.00  0.00    -0.079 C  
BRANCH   6   7
HETATM    7  C   UNL     1      -7.008  10.289  69.357  1.00  0.00    -0.083 C  
BRANCH   7   8
HETATM    8  C   UNL     1      -8.277  10.600  70.134  1.00  0.00     0.736 C  
BRANCH   8   9
HETATM    9  C   UNL     1      -9.216   9.406  70.106  1.00  0.00    -0.268 C  
BRANCH   9  10
HETATM   10  C   UNL     1     -10.247   9.534  71.212  1.00  0.00    -0.245 C  
BRANCH  10  11
HETATM   11  C   UNL     1     -11.191  10.685  70.919  1.00  0.00     0.080 C  
BRANCH  11  12
HETATM   12  C   UNL     1     -12.617  10.170  70.881  1.00  0.00    -0.454 C  
BRANCH  12  13
HETATM   13  C   UNL     1     -13.296  10.608  69.600  1.00  0.00     1.235 C  
BRANCH  13  14
HETATM   14  C   UNL     1     -12.294  11.320  68.710  1.00  0.00     0.113 C  
BRANCH  14  15
HETATM   15  C   UNL     1     -10.915  10.756  68.967  1.00  0.00    -0.289 C  
BRANCH  15  16
HETATM   16  C   UNL     1     -10.577   9.667  67.963  1.00  0.00    -0.292 C  
BRANCH  16  17
HETATM   17  C   UNL     1     -11.148  10.089  66.622  1.00  0.00     0.191 C  
BRANCH  17  18
HETATM   18  C   UNL     1     -10.162   9.847  65.495  1.00  0.00    -0.124 C  
BRANCH  18  19
HETATM   19  N   UNL     1      -9.213  11.046  65.283  1.00  0.00    -0.208 N  
HETATM   20  C   UNL     1      -7.849  10.565  64.779  1.00  0.00    -0.022 C  
HETATM   21  C   UNL     1      -9.817  12.034  64.284  1.00  0.00    -0.169 C  
BRANCH  19  22
HETATM   22  C   UNL     1      -9.068  11.706  66.672  1.00  0.00    -0.194 C  
BRANCH  22  23
HETATM   23  C   UNL     1      -8.041  12.821  66.672  1.00  0.00     0.231 C  
BRANCH  23  24
HETATM   24  C   UNL     1      -7.825  13.382  68.065  1.00  0.00    -0.148 C  
BRANCH  24  25
HETATM   25  C   UNL     1      -7.626  14.881  67.927  1.00  0.00    -0.146 C  
BRANCH  25  26
HETATM   26  C   UNL     1      -8.660  15.642  68.725  1.00  0.00    -0.193 C  
BRANCH  26  27
HETATM   27  C   UNL     1      -9.773  16.095  67.798  1.00  0.00    -0.229 C  
BRANCH  27  28
HETATM   28  C   UNL     1      -9.275  16.095  66.368  1.00  0.00    -0.334 C  
BRANCH  28  29
HETATM   29  C   UNL     1      -9.168  17.516  65.853  1.00  0.00     0.056 C  
BRANCH  29  30
HETATM   30  C   UNL     1     -10.543  18.155  65.846  1.00  0.00    -0.247 C  
BRANCH  30  31
HETATM   31  C   UNL     1     -10.984  18.476  67.260  1.00  0.00    -0.184 C  
BRANCH  31  32
HETATM   32  C   UNL     1     -10.395  19.803  67.699  1.00  0.00    -0.579 C  
BRANCH  32  33
HETATM   33  C   UNL     1      -9.593  19.625  68.977  1.00  0.00    -0.378 C  
BRANCH  33  34
HETATM   34  C   UNL     1      -8.171  20.128  68.781  1.00  0.00     0.145 C  
BRANCH  34  35
HETATM   35  C   UNL     1      -7.867  20.289  67.298  1.00  0.00    -0.362 C  
BRANCH  35  36
HETATM   36  C   UNL     1      -6.403  19.977  67.013  1.00  0.00    -0.213 C  
BRANCH  36  37
HETATM   37  C   UNL     1      -6.121  18.493  67.230  1.00  0.00    -0.172 C  
BRANCH  37  38
HETATM   38  C   UNL     1      -5.181  18.283  68.411  1.00  0.00    -0.167 C  
HETATM   39  C   UNL     1      -5.943  17.803  69.634  1.00  0.00    -0.252 C  
ENDBRANCH  37  38
ENDBRANCH  36  37
ENDBRANCH  35  36
ENDBRANCH  34  35
ENDBRANCH  33  34
ENDBRANCH  32  33
ENDBRANCH  31  32
ENDBRANCH  30  31
ENDBRANCH  29  30
ENDBRANCH  28  29
ENDBRANCH  27  28
ENDBRANCH  26  27
ENDBRANCH  25  26
ENDBRANCH  24  25
ENDBRANCH  23  24
ENDBRANCH  22  23
ENDBRANCH  19  22
ENDBRANCH  18  19
ENDBRANCH  17  18
ENDBRANCH  16  17
ENDBRANCH  15  16
ENDBRANCH  14  15
ENDBRANCH  13  14
ENDBRANCH  12  13
ENDBRANCH  11  12
ENDBRANCH  10  11
ENDBRANCH   9  10
ENDBRANCH   8   9
ENDBRANCH   7   8
ENDBRANCH   6   7
ENDBRANCH   5   6
ENDBRANCH   4   5
ENDBRANCH   3   4
ENDBRANCH   2   3
TORSDOF 34
ENDMDL
MODEL      239
REMARK 921   NORMALIZED FREE ENERGY PREDICTED BY IDOCK:    3.90 KCAL/MOL
REMARK 922        TOTAL FREE ENERGY PREDICTED BY IDOCK:    5.34 KCAL/MOL
REMARK 923 INTER-LIGAND FREE ENERGY PREDICTED BY IDOCK:   -4.21 KCAL/MOL
REMARK 924 INTRA-LIGAND FREE ENERGY PREDICTED BY IDOCK:    9.55 KCAL/MOL
REMARK 927      BINDING AFFINITY PREDICTED BY RF-SCORE:    0.00 PKD
ROOT
HETATM    1  C   UNL     1      -5.658   8.238  69.548  1.00  0.00    -0.030 C  
HETATM    2  C   UNL     1      -6.351   7.701  70.788  1.00  0.00    -0.038 C  
ENDROOT
BRANCH   2   3
HETATM    3  C   UNL     1      -6.282   8.704  71.930  1.00  0.00    -0.071 C  
BRANCH   3   4
HETATM    4  C   UNL     1      -5.178   9.731  71.693  1.00  0.00    -0.076 C  
BRANCH   4   5
HETATM    5  C   UNL     1      -5.773  11.091  71.348  1.00  0.00     0.248 C  
BRANCH   5   6
HETATM    6  C   UNL     1      -6.004  11.208  69.848  1.00  0.00    -0.108 C  
BRANCH   6   7
HETATM    7  C   UNL     1      -7.118  10.266  69.413  1.00  0.00    -0.094 C  
BRANCH   7   8
HETATM    8  C   UNL     1      -8.370  10.516  70.239  1.00  0.00     0.827 C  
BRANCH   8   9
HETATM    9  C   UNL     1      -9.252   9.279  70.243  1.00  0.00    -0.273 C  
BRANCH   9  10
HETATM   10  C   UNL     1     -10.243   9.356  71.389  1.00  0.00    -0.297 C  
BRANCH  10  11
HETATM   11  C   UNL     1     -11.266  10.446  71.128  1.00  0.00     0.041 C  
BRANCH  11  12
HETATM   12  C   UNL     1     -12.656   9.841  71.118  1.00  0.00    -0.438 C  
BRANCH  12  13
HETATM   13  C   UNL     1     -13.383  10.225  69.846  1.00  0.00     0.807 C  
BRANCH  13  14
HETATM   14  C   UNL     1     -12.462  11.042  68.960  1.00  0.00     0.212 C  
BRANCH  14  15
HETATM   15  C   UNL     1     -11.028  10.659  69.249  1.00  0.00    -0.294 C  
BRANCH  15  16
HETATM   16  C   UNL     1     -10.535   9.614  68.263  1.00  0.00    -0.259 C  
BRANCH  16  17
HETATM   17  C   UNL     1     -11.138   9.942  66.910  1.00  0.00     0.099 C  
BRANCH  17  18
HETATM   18  C   UNL     1     -10.102   9.871  65.804  1.00  0.00    -0.247 C  
BRANCH  18  19
HETATM   19  N   UNL     1      -9.370  11.214  65.606  1.00  0.00    -0.214 N  
HETATM   20  C   UNL     1      -7.926  10.974  65.156  1.00  0.00     0.250 C  
HETATM   21  C   UNL     1     -10.100  12.071  64.570  1.00  0.00    -0.265 C  
BRANCH  19  22
HETATM   22  C   UNL     1      -9.393  11.904  66.988  1.00  0.00    -0.188 C  
BRANCH  22  23
HETATM   23  C   UNL     1      -8.623  13.210  66.989  1.00  0.00    -0.168 C  
BRANCH  23  24
HETATM   24  C   UNL     1      -8.568  13.825  68.375  1.00  0.00    -0.156 C  
BRANCH  24  25
HETATM   25  C   UNL     1      -8.700  15.329  68.212  1.00  0.00    -0.165 C  
BRANCH  25  26
HETATM   26  C   UNL     1      -7.966  15.809  66.982  1.00  0.00    -0.272 C  
BRANCH  26  27
HETATM   27  C   UNL     1      -6.613  16.364  67.392  1.00  0.00    -0.204 C  
BRANCH  27  28
HETATM   28  C   UNL     1      -6.639  16.730  68.861  1.00  0.00    -0.189 C  
BRANCH  28  29
HETATM   29  C   UNL     1      -6.556  18.235  69.025  1.00  0.00    -0.263 C  
BRANCH  29  30
HETATM   30  C   UNL     1      -5.227  18.729  68.487  1.00  0.00    -0.189 C  
BRANCH  30  31
HETATM   31  C   UNL     1      -5.212  18.666  66.973  1.00  0.00    -0.135 C  
BRANCH  31  32
HETATM   32  C   UNL     1      -5.891  19.894  66.397  1.00  0.00    -0.179 C  
BRANCH  32  33
HETATM   33  C   UNL     1      -7.018  19.482  65.464  1.00  0.00    -0.299 C  
BRANCH  33  34
HETATM   34  C   UNL     1      -8.329  20.107  65.913  1.00  0.00    -0.118 C  
BRANCH  34  35
HETATM   35  C   UNL     1      -8.232  20.553  67.365  1.00  0.00    -0.344 C  
BRANCH  35  36
HETATM   36  C   UNL     1      -9.548  20.307  68.092  1.00  0.00    -0.318 C  
BRANCH  36  37
HETATM   37  C   UNL     1      -9.802  18.811  68.244  1.00  0.00    -0.418 C  
BRANCH  37  38
HETATM   38  C   UNL     1     -11.004  18.373  67.416  1.00  0.00    -0.163 C  
HETATM   39  C   UNL     1     -10.562  17.660  66.150  1.00  0.00    -0.220 C  
ENDBRANCH  37  38
ENDBRANCH  36  37
ENDBRANCH  35  36
ENDBRANCH  34  35
ENDBRANCH  33  34
ENDBRANCH  32  33
ENDBRANCH  31  32
ENDBRANCH  30  31
ENDBRANCH  29  30
ENDBRANCH  28  29
ENDBRANCH  27  28
ENDBRANCH  26  27
ENDBRANCH  25  26
ENDBRANCH  24  25
ENDBRANCH  23  24
ENDBRANCH  22  23
ENDBRANCH  19  22
ENDBRANCH  18  19
ENDBRANCH  17  18
ENDBRANCH  16  17
ENDBRANCH  15  16
ENDBRANCH  14  15
ENDBRANCH  13  14
ENDBRANCH  12  13
ENDBRANCH  11  12
ENDBRANCH  10  11
ENDBRANCH   9  10
ENDBRANCH   8   9
ENDBRANCH   7   8
ENDBRANCH   6   7
ENDBRANCH   5   6
ENDBRANCH   4   5
ENDBRANCH   3   4
ENDBRANCH   2   3
TORSDOF 34
ENDMDL
MODEL      240
REMARK 921   NORMALIZED FREE ENERGY PREDICTED BY IDOCK:    4.12 KCAL/MOL
REMARK 922        TOTAL FREE ENERGY PREDICTED BY IDOCK:    5.97 KCAL/MOL
REMARK 923 INTER-LIGAND FREE ENERGY PREDICTED BY IDOCK:   -3.82 KCAL/MOL
REMARK 924 INTRA-LIGAND FREE ENERGY PREDICTED BY IDOCK:    9.80 KCAL/MOL
REMARK 927      BINDING AFFINITY PREDICTED BY RF-SCORE:    0.00 PKD
ROOT
HETATM    1  C   UNL     1      -8.690   6.199  67.386  1.00  0.00    -0.104 C  
HETATM    2  C   UNL     1      -8.585   7.605  67.950  1.00  0.00    -0.122 C  
ENDROOT
BRANCH   2   3
HETATM    3  C   UNL     1      -8.347   8.621  66.843  1.00  0.00    -0.108 C  
BRANCH   3   4
HETATM    4  C   UNL     1      -6.919   9.157  66.886  1.00  0.00    -0.081 C  
BRANCH   4   5
HETATM    5  C   UNL     1      -6.713  10.040  68.111  1.00  0.00    -0.059 C  
BRANCH   5   6
HETATM    6  C   UNL     1      -6.775   9.210  69.385  1.00  0.00    -0.048 C  
BRANCH   6   7
HETATM    7  C   UNL     1      -5.733   8.102  69.342  1.00  0.00    -0.030 C  
BRANCH   7   8
HETATM    8  C   UNL     1      -5.125   7.899  70.720  1.00  0.00    -0.023 C  
BRANCH   8   9
HETATM    9  C   UNL     1      -6.081   7.116  71.605  1.00  0.00    -0.037 C  
BRANCH   9  10
HETATM   10  C   UNL     1      -6.618   5.916  70.848  1.00  0.00    -0.045 C  
BRANCH  10  11
HETATM   11  C   UNL     1      -5.474   5.053  70.350  1.00  0.00    -0.008 C  
BRANCH  11  12
HETATM   12  C   UNL     1      -5.283   3.877  71.288  1.00  0.00     0.000 C  
BRANCH  12  13
HETATM   13  C   UNL     1      -5.650   4.273  72.703  1.00  0.00    -0.004 C  
BRANCH  13  14
HETATM   14  C   UNL     1      -7.066   4.818  72.728  1.00  0.00    -0.078 C  
BRANCH  14  15
HETATM   15  C   UNL     1      -7.647   4.624  74.110  1.00  0.00    -0.085 C  
BRANCH  15  16
HETATM   16  C   UNL     1      -8.622   5.737  74.452  1.00  0.00    -0.114 C  
BRANCH  16  17
HETATM   17  C   UNL     1      -8.683   6.673  73.260  1.00  0.00    -0.135 C  
BRANCH  17  18
HETATM   18  C   UNL     1     -10.113   6.935  72.828  1.00  0.00    -0.177 C  
BRANCH  18  19
HETATM   19  N   UNL     1     -10.979   5.658  72.874  1.00  0.00    -0.263 N  
HETATM   20  C   UNL     1     -10.644   4.831  74.119  1.00  0.00    -0.296 C  
HETATM   21  C   UNL     1     -12.465   6.022  72.876  1.00  0.00     0.655 C  
BRANCH  19  22
HETATM   22  C   UNL     1     -10.619   4.871  71.594  1.00  0.00    -0.073 C  
BRANCH  22  23
HETATM   23  C   UNL     1      -9.751   5.678  70.650  1.00  0.00    -0.232 C  
BRANCH  23  24
HETATM   24  C   UNL     1     -10.305   7.075  70.438  1.00  0.00    -0.219 C  
BRANCH  24  25
HETATM   25  C   UNL     1     -11.715   6.930  69.895  1.00  0.00    -0.199 C  
BRANCH  25  26
HETATM   26  C   UNL     1     -12.573   8.109  70.291  1.00  0.00     0.892 C  
BRANCH  26  27
HETATM   27  C   UNL     1     -11.805   8.980  71.269  1.00  0.00    -0.379 C  
BRANCH  27  28
HETATM   28  C   UNL     1     -10.828   9.854  70.511  1.00  0.00    -0.391 C  
BRANCH  28  29
HETATM   29  C   UNL     1     -10.878   9.530  69.031  1.00  0.00    -0.184 C  
BRANCH  29  30
HETATM   30  C   UNL     1     -11.732  10.560  68.317  1.00  0.00    -0.051 C  
BRANCH  30  31
HETATM   31  C   UNL     1     -12.235  11.602  69.297  1.00  0.00    -0.228 C  
BRANCH  31  32
HETATM   32  C   UNL     1     -11.927  12.993  68.776  1.00  0.00    -0.302 C  
BRANCH  32  33
HETATM   33  C   UNL     1     -10.435  13.145  68.533  1.00  0.00    -0.262 C  
BRANCH  33  34
HETATM   34  C   UNL     1     -10.098  14.593  68.212  1.00  0.00    -0.228 C  
BRANCH  34  35
HETATM   35  C   UNL     1      -9.834  15.371  69.493  1.00  0.00    -0.262 C  
BRANCH  35  36
HETATM   36  C   UNL     1      -8.446  15.996  69.466  1.00  0.00    -0.024 C  
BRANCH  36  37
HETATM   37  C   UNL     1      -8.098  16.466  68.058  1.00  0.00    -0.159 C  
BRANCH  37  38
HETATM   38  C   UNL     1      -8.719  17.828  67.767  1.00  0.00    -0.241 C  
HETATM   39  C   UNL     1      -8.973  18.595  69.054  1.00  0.00    -0.116 C  
ENDBRANCH  37  38
ENDBRANCH  36  37
ENDBRANCH  35  36
ENDBRANCH  34  35
ENDBRANCH  33  34
ENDBRANCH  32  33
ENDBRANCH  31  32
ENDBRANCH  30  31
ENDBRANCH  29  30
ENDBRANCH  28  29
ENDBRANCH  27  28
ENDBRANCH  26  27
ENDBRANCH  25  26
ENDBRANCH  24  25
ENDBRANCH  23  24
ENDBRANCH  22  23
ENDBRANCH  19  22
ENDBRANCH  18  19
ENDBRANCH  17  18
ENDBRANCH  16  17
ENDBRANCH  15  16
ENDBRANCH  14  15
ENDBRANCH  13  14
ENDBRANCH  12  13
ENDBRANCH  11  12
ENDBRANCH  10  11
ENDBRANCH   9  10
ENDBRANCH   8   9
ENDBRANCH   7   8
ENDBRANCH   6   7
ENDBRANCH   5   6
ENDBRANCH   4   5
ENDBRANCH   3   4
ENDBRANCH   2   3
TORSDOF 34
ENDMDL
MODEL      241
REMARK 921   NORMALIZED FREE ENERGY PREDICTED BY IDOCK:    4.88 KCAL/MOL
REMARK 922        TOTAL FREE ENERGY PREDICTED BY IDOCK:    8.25 KCAL/MOL
REMARK 923 INTER-LIGAND FREE ENERGY PREDICTED BY IDOCK:    0.31 KCAL/MOL
REMARK 924 INTRA-LIGAND FREE ENERGY PREDICTED BY IDOCK:    7.94 KCAL/MOL
REMARK 927      BINDING AFFINITY PREDICTED BY RF-SCORE:    0.00 PKD
ROOT
HETATM    1  C   UNL     1      -9.355  19.284  67.808  1.00  0.00    -0.376 C  
HETATM    2  C   UNL     1     -10.405  18.648  66.914  1.00  0.00    -0.444 C  
ENDROOT
BRANCH   2   3
HETATM    3  C   UNL     1     -11.514  18.013  67.740  1.00  0.00     0.864 C  
BRANCH   3   4
HETATM    4  C   UNL     1     -11.016  16.764  68.461  1.00  0.00    -0.312 C  
BRANCH   4   5
HETATM    5  C   UNL     1      -9.539  16.528  68.172  1.00  0.00    -0.226 C  
BRANCH   5   6
HETATM    6  C   UNL     1      -8.959  15.514  69.148  1.00  0.00    -0.256 C  
BRANCH   6   7
HETATM    7  C   UNL     1      -7.535  15.156  68.747  1.00  0.00    -0.132 C  
BRANCH   7   8
HETATM    8  C   UNL     1      -7.511  13.812  68.037  1.00  0.00    -0.139 C  
BRANCH   8   9
HETATM    9  C   UNL     1      -7.803  13.995  66.558  1.00  0.00     1.049 C  
BRANCH   9  10
HETATM   10  C   UNL     1      -9.176  13.441  66.230  1.00  0.00    -0.068 C  
BRANCH  10  11
HETATM   11  C   UNL     1      -9.050  12.099  65.533  1.00  0.00     0.204 C  
BRANCH  11  12
HETATM   12  C   UNL     1      -8.722  11.029  66.556  1.00  0.00    -0.169 C  
BRANCH  12  13
HETATM   13  C   UNL     1      -9.994  10.491  67.176  1.00  0.00    -0.234 C  
BRANCH  13  14
HETATM   14  C   UNL     1      -9.842   9.004  67.441  1.00  0.00    -0.244 C  
BRANCH  14  15
HETATM   15  C   UNL     1      -8.529   8.530  66.863  1.00  0.00    -0.113 C  
BRANCH  15  16
HETATM   16  C   UNL     1      -7.671   7.870  67.929  1.00  0.00    -0.125 C  
BRANCH  16  17
HETATM   17  C   UNL     1      -8.032   6.397  67.958  1.00  0.00    -0.109 C  
BRANCH  17  18
HETATM   18  C   UNL     1      -6.834   5.535  68.308  1.00  0.00    -0.060 C  
BRANCH  18  19
HETATM   19  N   UNL     1      -7.250   4.138  68.816  1.00  0.00    -0.054 N  
HETATM   20  C   UNL     1      -7.398   3.166  67.642  1.00  0.00    -0.054 C  
HETATM   21  C   UNL     1      -6.215   3.602  69.807  1.00  0.00    -0.028 C  
BRANCH  19  22
HETATM   22  C   UNL     1      -8.611   4.344  69.517  1.00  0.00    -0.076 C  
BRANCH  22  23
HETATM   23  C   UNL     1      -8.578   3.908  70.969  1.00  0.00    -0.109 C  
BRANCH  23  24
HETATM   24  C   UNL     1      -7.452   2.926  71.232  1.00  0.00    -0.036 C  
BRANCH  24  25
HETATM   25  C   UNL     1      -6.295   3.708  71.830  1.00  0.00    -0.014 C  
BRANCH  25  26
HETATM   26  C   UNL     1      -6.517   5.196  71.690  1.00  0.00    -0.032 C  
BRANCH  26  27
HETATM   27  C   UNL     1      -6.969   5.763  73.024  1.00  0.00    -0.080 C  
BRANCH  27  28
HETATM   28  C   UNL     1      -8.473   5.936  73.019  1.00  0.00    -0.117 C  
BRANCH  28  29
HETATM   29  C   UNL     1      -8.951   6.376  74.388  1.00  0.00    -0.172 C  
BRANCH  29  30
HETATM   30  C   UNL     1      -9.652   7.716  74.271  1.00  0.00     0.245 C  
BRANCH  30  31
HETATM   31  C   UNL     1      -9.001   8.562  73.195  1.00  0.00    -0.091 C  
BRANCH  31  32
HETATM   32  C   UNL     1     -10.060   9.343  72.440  1.00  0.00     1.292 C  
BRANCH  32  33
HETATM   33  C   UNL     1     -10.402   8.640  71.138  1.00  0.00    -0.294 C  
BRANCH  33  34
HETATM   34  C   UNL     1     -10.408   7.132  71.339  1.00  0.00    -0.210 C  
BRANCH  34  35
HETATM   35  C   UNL     1     -11.269   6.461  70.278  1.00  0.00    -0.445 C  
BRANCH  35  36
HETATM   36  C   UNL     1     -12.517   5.853  70.904  1.00  0.00     1.375 C  
BRANCH  36  37
HETATM   37  C   UNL     1     -13.533   6.942  71.237  1.00  0.00    -0.177 C  
BRANCH  37  38
HETATM   38  C   UNL     1     -13.145   8.266  70.590  1.00  0.00     0.584 C  
HETATM   39  C   UNL     1     -13.684   9.440  71.390  1.00  0.00    -0.309 C  
ENDBRANCH  37  38
ENDBRANCH  36  37
ENDBRANCH  35  36
ENDBRANCH  34  35
ENDBRANCH  33  34
ENDBRANCH  32  33
ENDBRANCH  31  32
ENDBRANCH  30  31
ENDBRANCH  29  30
ENDBRANCH  28  29
ENDBRANCH  27  28
ENDBRANCH  26  27
ENDBRANCH  25  26
ENDBRANCH  24  25
ENDBRANCH  23  24
ENDBRANCH  22  23
ENDBRANCH  19  22
ENDBRANCH  18  19
ENDBRANCH  17  18
ENDBRANCH  16  17
ENDBRANCH  15  16
ENDBRANCH  14  15
ENDBRANCH  13  14
ENDBRANCH  12  13
ENDBRANCH  11  12
ENDBRANCH  10  11
ENDBRANCH   9  10
ENDBRANCH   8   9
ENDBRANCH   7   8
ENDBRANCH   6   7
ENDBRANCH   5   6
ENDBRANCH   4   5
ENDBRANCH   3   4
ENDBRANCH   2   3
TORSDOF 34
ENDMDL
MODEL      242
REMARK 921   NORMALIZED FREE ENERGY PREDICTED BY IDOCK:    5.07 KCAL/MOL
REMARK 922        TOTAL FREE ENERGY PREDICTED BY IDOCK:    8.83 KCAL/MOL
REMARK 923 INTER-LIGAND FREE ENERGY PREDICTED BY IDOCK:   -2.73 KCAL/MOL
REMARK 924 INTRA-LIGAND FREE ENERGY PREDICTED BY IDOCK:   11.56 KCAL/MOL
REMARK 927      BINDING AFFINITY PREDICTED BY RF-SCORE:    0.00 PKD
ROOT
HETATM    1  C   UNL     1      -7.781  16.392  65.338  1.00  0.00     2.773 C  
HETATM    2  C   UNL     1      -9.026  16.488  66.201  1.00  0.00    -0.344 C  
ENDROOT
BRANCH   2   3
HETATM    3  C   UNL     1      -8.681  16.352  67.676  1.00  0.00    -0.188 C  
BRANCH   3   4
HETATM    4  C   UNL     1      -9.717  15.503  68.408  1.00  0.00    -0.203 C  
BRANCH   4   5
HETATM    5  C   UNL     1     -10.876  16.367  68.890  1.00  0.00    -0.334 C  
BRANCH   5   6
HETATM    6  C   UNL     1     -11.883  15.526  69.664  1.00  0.00    -0.384 C  
BRANCH   6   7
HETATM    7  C   UNL     1     -11.267  14.188  70.045  1.00  0.00    -0.118 C  
BRANCH   7   8
HETATM    8  C   UNL     1     -10.695  13.503  68.813  1.00  0.00    -0.261 C  
BRANCH   8   9
HETATM    9  C   UNL     1     -11.394  14.006  67.561  1.00  0.00    -0.343 C  
BRANCH   9  10
HETATM   10  C   UNL     1     -12.359  12.953  67.051  1.00  0.00     0.056 C  
BRANCH  10  11
HETATM   11  C   UNL     1     -11.890  12.415  65.711  1.00  0.00    -0.467 C  
BRANCH  11  12
HETATM   12  C   UNL     1     -10.716  11.480  65.927  1.00  0.00    -0.325 C  
BRANCH  12  13
HETATM   13  C   UNL     1     -10.883  10.722  67.227  1.00  0.00    -0.344 C  
BRANCH  13  14
HETATM   14  C   UNL     1      -9.970  11.316  68.284  1.00  0.00    -0.201 C  
BRANCH  14  15
HETATM   15  C   UNL     1      -9.590  10.237  69.272  1.00  0.00    -0.239 C  
BRANCH  15  16
HETATM   16  C   UNL     1      -9.671   8.861  68.633  1.00  0.00    -0.169 C  
BRANCH  16  17
HETATM   17  C   UNL     1      -9.166   8.989  67.209  1.00  0.00    -0.159 C  
BRANCH  17  18
HETATM   18  C   UNL     1      -7.928   8.143  66.977  1.00  0.00    -0.104 C  
BRANCH  18  19
HETATM   19  N   UNL     1      -6.678   8.745  67.654  1.00  0.00    -0.065 N  
HETATM   20  C   UNL     1      -6.156   9.937  66.848  1.00  0.00    -0.063 C  
HETATM   21  C   UNL     1      -7.006   9.187  69.082  1.00  0.00    -0.058 C  
BRANCH  19  22
HETATM   22  C   UNL     1      -5.631   7.608  67.669  1.00  0.00    -0.035 C  
BRANCH  22  23
HETATM   23  C   UNL     1      -5.644   6.836  68.974  1.00  0.00    -0.017 C  
BRANCH  23  24
HETATM   24  C   UNL     1      -5.958   7.737  70.154  1.00  0.00    -0.023 C  
BRANCH  24  25
HETATM   25  C   UNL     1      -5.941   6.875  71.404  1.00  0.00    -0.037 C  
BRANCH  25  26
HETATM   26  C   UNL     1      -6.941   7.375  72.421  1.00  0.00    -0.063 C  
BRANCH  26  27
HETATM   27  C   UNL     1      -7.166   6.301  73.470  1.00  0.00    -0.083 C  
BRANCH  27  28
HETATM   28  C   UNL     1      -6.526   5.006  73.017  1.00  0.00    -0.059 C  
BRANCH  28  29
HETATM   29  C   UNL     1      -6.892   4.721  71.573  1.00  0.00    -0.043 C  
BRANCH  29  30
HETATM   30  C   UNL     1      -7.626   3.397  71.490  1.00  0.00    -0.052 C  
BRANCH  30  31
HETATM   31  C   UNL     1      -8.799   3.501  70.536  1.00  0.00    -0.142 C  
BRANCH  31  32
HETATM   32  C   UNL     1      -9.511   2.164  70.443  1.00  0.00    -0.164 C  
BRANCH  32  33
HETATM   33  C   UNL     1      -9.190   1.490  69.119  1.00  0.00    -0.176 C  
BRANCH  33  34
HETATM   34  C   UNL     1      -9.720   2.323  67.962  1.00  0.00     0.115 C  
BRANCH  34  35
HETATM   35  C   UNL     1      -8.588   2.687  67.012  1.00  0.00    -0.119 C  
BRANCH  35  36
HETATM   36  C   UNL     1      -9.125   2.950  65.611  1.00  0.00    -0.140 C  
BRANCH  36  37
HETATM   37  C   UNL     1      -7.998   2.880  64.585  1.00  0.00    -0.078 C  
BRANCH  37  38
HETATM   38  C   UNL     1      -7.434   1.468  64.489  1.00  0.00    -0.054 C  
HETATM   39  C   UNL     1      -5.924   1.473  64.655  1.00  0.00    -0.013 C  
ENDBRANCH  37  38
ENDBRANCH  36  37
ENDBRANCH  35  36
ENDBRANCH  34  35
ENDBRANCH  33  34
ENDBRANCH  32  33
ENDBRANCH  31  32
ENDBRANCH  30  31
ENDBRANCH  29  30
ENDBRANCH  28  29
ENDBRANCH  27  28
ENDBRANCH  26  27
ENDBRANCH  25  26
ENDBRANCH  24  25
ENDBRANCH  23  24
ENDBRANCH  22  23
ENDBRANCH  19  22
ENDBRANCH  18  19
ENDBRANCH  17  18
ENDBRANCH  16  17
ENDBRANCH  15  16
ENDBRANCH  14  15
ENDBRANCH  13  14
ENDBRANCH  12  13
ENDBRANCH  11  12
ENDBRANCH  10  11
ENDBRANCH   9  10
ENDBRANCH   8   9
ENDBRANCH   7   8
ENDBRANCH   6   7
ENDBRANCH   5   6
ENDBRANCH   4   5
ENDBRANCH   3   4
ENDBRANCH   2   3
TORSDOF 34
ENDMDL
MODEL      243
REMARK 921   NORMALIZED FREE ENERGY PREDICTED BY IDOCK:    6.79 KCAL/MOL
REMARK 922        TOTAL FREE ENERGY PREDICTED BY IDOCK:   13.97 KCAL/MOL
REMARK 923 INTER-LIGAND FREE ENERGY PREDICTED BY IDOCK:    3.14 KCAL/MOL
REMARK 924 INTRA-LIGAND FREE ENERGY PREDICTED BY IDOCK:   10.83 KCAL/MOL
REMARK 927      BINDING AFFINITY PREDICTED BY RF-SCORE:    0.00 PKD
ROOT
HETATM    1  C   UNL     1     -11.501   8.011  66.490  1.00  0.00     2.945 C  
HETATM    2  C   UNL     1     -11.369   9.148  67.487  1.00  0.00     0.824 C  
ENDROOT
BRANCH   2   3
HETATM    3  C   UNL     1     -10.991   8.625  68.865  1.00  0.00     0.083 C  
BRANCH   3   4
HETATM    4  C   UNL     1     -12.160   7.886  69.512  1.00  0.00     1.421 C  
BRANCH   4   5
HETATM    5  C   UNL     1     -12.070   6.391  69.234  1.00  0.00     1.076 C  
BRANCH   5   6
HETATM    6  C   UNL     1     -10.656   5.885  69.480  1.00  0.00    -0.378 C  
BRANCH   6   7
HETATM    7  C   UNL     1     -10.352   4.710  68.563  1.00  0.00     0.124 C  
BRANCH   7   8
HETATM    8  C   UNL     1      -9.989   5.208  67.173  1.00  0.00    -0.221 C  
BRANCH   8   9
HETATM    9  C   UNL     1      -8.486   5.392  67.057  1.00  0.00    -0.106 C  
BRANCH   9  10
HETATM   10  C   UNL     1      -7.771   4.302  67.834  1.00  0.00    -0.079 C  
BRANCH  10  11
HETATM   11  C   UNL     1      -7.471   4.773  69.245  1.00  0.00    -0.053 C  
BRANCH  11  12
HETATM   12  C   UNL     1      -8.454   5.860  69.634  1.00  0.00    -0.117 C  
BRANCH  12  13
HETATM   13  C   UNL     1      -7.737   6.978  70.361  1.00  0.00    -0.096 C  
BRANCH  13  14
HETATM   14  C   UNL     1      -6.564   7.458  69.527  1.00  0.00    -0.037 C  
BRANCH  14  15
HETATM   15  C   UNL     1      -6.518   6.669  68.238  1.00  0.00    -0.049 C  
BRANCH  15  16
HETATM   16  C   UNL     1      -5.125   6.116  67.989  1.00  0.00    -0.004 C  
BRANCH  16  17
HETATM   17  C   UNL     1      -5.199   5.230  66.760  1.00  0.00    -0.008 C  
BRANCH  17  18
HETATM   18  C   UNL     1      -6.373   5.601  65.873  1.00  0.00    -0.039 C  
BRANCH  18  19
HETATM   19  N   UNL     1      -6.309   4.903  64.499  1.00  0.00    -0.033 N  
HETATM   20  C   UNL     1      -5.343   5.643  63.568  1.00  0.00    -0.013 C  
HETATM   21  C   UNL     1      -5.861   3.448  64.660  1.00  0.00    -0.018 C  
BRANCH  19  22
HETATM   22  C   UNL     1      -7.747   4.964  63.937  1.00  0.00    -0.077 C  
BRANCH  22  23
HETATM   23  C   UNL     1      -8.388   6.320  64.154  1.00  0.00     0.073 C  
BRANCH  23  24
HETATM   24  C   UNL     1      -7.546   7.437  63.567  1.00  0.00    -0.121 C  
BRANCH  24  25
HETATM   25  C   UNL     1      -8.424   8.672  63.477  1.00  0.00    -0.072 C  
BRANCH  25  26
HETATM   26  C   UNL     1      -7.684   9.901  63.952  1.00  0.00    -0.140 C  
BRANCH  26  27
HETATM   27  C   UNL     1      -6.945   9.573  65.237  1.00  0.00    -0.091 C  
BRANCH  27  28
HETATM   28  C   UNL     1      -5.801  10.547  65.429  1.00  0.00    -0.134 C  
BRANCH  28  29
HETATM   29  C   UNL     1      -5.924  11.236  66.774  1.00  0.00    -0.132 C  
BRANCH  29  30
HETATM   30  C   UNL     1      -5.188  12.561  66.731  1.00  0.00     0.445 C  
BRANCH  30  31
HETATM   31  C   UNL     1      -5.429  13.343  68.007  1.00  0.00    -0.113 C  
BRANCH  31  32
HETATM   32  C   UNL     1      -6.493  14.399  67.774  1.00  0.00    -0.181 C  
BRANCH  32  33
HETATM   33  C   UNL     1      -7.411  14.494  68.980  1.00  0.00    -0.131 C  
BRANCH  33  34
HETATM   34  C   UNL     1      -8.066  15.866  69.038  1.00  0.00    -0.229 C  
BRANCH  34  35
HETATM   35  C   UNL     1      -8.065  16.509  67.658  1.00  0.00    -0.177 C  
BRANCH  35  36
HETATM   36  C   UNL     1      -7.922  18.022  67.771  1.00  0.00    -0.235 C  
BRANCH  36  37
HETATM   37  C   UNL     1      -8.511  18.707  66.542  1.00  0.00    -0.302 C  
BRANCH  37  38
HETATM   38  C   UNL     1      -9.827  18.057  66.132  1.00  0.00    -0.255 C  
HETATM   39  C   UNL     1     -10.802  18.022  67.296  1.00  0.00    -0.214 C  
ENDBRANCH  37  38
ENDBRANCH  36  37
ENDBRANCH  35  36
ENDBRANCH  34  35
ENDBRANCH  33  34
ENDBRANCH  32  33
ENDBRANCH  31  32
ENDBRANCH  30  31
ENDBRANCH  29  30
ENDBRANCH  28  29
ENDBRANCH  27  28
ENDBRANCH  26  27
ENDBRANCH  25  26
ENDBRANCH  24  25
ENDBRANCH  23  24
ENDBRANCH  22  23
ENDBRANCH  19  22
ENDBRANCH  18  19
ENDBRANCH  17  18
ENDBRANCH  16  17
ENDBRANCH  15  16
ENDBRANCH  14  15
ENDBRANCH  13  14
ENDBRANCH  12  13
ENDBRANCH  11  12
ENDBRANCH  10  11
ENDBRANCH   9  10
ENDBRANCH   8   9
ENDBRANCH   7   8
ENDBRANCH   6   7
ENDBRANCH   5   6
ENDBRANCH   4   5
ENDBRANCH   3   4
ENDBRANCH   2   3
TORSDOF 34
ENDMDL
MODEL      244
REMARK 921   NORMALIZED FREE ENERGY PREDICTED BY IDOCK:    7.08 KCAL/MOL
REMARK 922        TOTAL FREE ENERGY PREDICTED BY IDOCK:   14.81 KCAL/MOL
REMARK 923 INTER-LIGAND FREE ENERGY PREDICTED BY IDOCK:    4.36 KCAL/MOL
REMARK 924 INTRA-LIGAND FREE ENERGY PREDICTED BY IDOCK:   10.45 KCAL/MOL
REMARK 927      BINDING AFFINITY PREDICTED BY RF-SCORE:    0.00 PKD
ROOT
HETATM    1  C   UNL     1     -11.495   8.010  66.496  1.00  0.00     2.945 C  
HETATM    2  C   UNL     1     -11.361   9.127  67.515  1.00  0.00     0.824 C  
ENDROOT
BRANCH   2   3
HETATM    3  C   UNL     1     -10.961   8.580  68.877  1.00  0.00     0.106 C  
BRANCH   3   4
HETATM    4  C   UNL     1     -12.108   7.799  69.513  1.00  0.00     1.333 C  
BRANCH   4   5
HETATM    5  C   UNL     1     -11.991   6.314  69.195  1.00  0.00     0.999 C  
BRANCH   5   6
HETATM    6  C   UNL     1     -10.564   5.832  69.414  1.00  0.00    -0.383 C  
BRANCH   6   7
HETATM    7  C   UNL     1     -10.235   4.706  68.444  1.00  0.00     0.003 C  
BRANCH   7   8
HETATM    8  C   UNL     1      -9.900   5.274  67.074  1.00  0.00    -0.187 C  
BRANCH   8   9
HETATM    9  C   UNL     1      -8.404   5.511  66.956  1.00  0.00    -0.107 C  
BRANCH   9  10
HETATM   10  C   UNL     1      -7.648   4.396  67.652  1.00  0.00    -0.077 C  
BRANCH  10  11
HETATM   11  C   UNL     1      -7.352   4.779  69.091  1.00  0.00    -0.053 C  
BRANCH  11  12
HETATM   12  C   UNL     1      -8.383   5.783  69.567  1.00  0.00    -0.112 C  
BRANCH  12  13
HETATM   13  C   UNL     1      -7.716   6.872  70.380  1.00  0.00    -0.100 C  
BRANCH  13  14
HETATM   14  C   UNL     1      -6.596   7.498  69.570  1.00  0.00    -0.036 C  
BRANCH  14  15
HETATM   15  C   UNL     1      -6.544   6.843  68.209  1.00  0.00    -0.058 C  
BRANCH  15  16
HETATM   16  C   UNL     1      -5.125   6.425  67.860  1.00  0.00    -0.004 C  
BRANCH  16  17
HETATM   17  C   UNL     1      -5.180   5.680  66.540  1.00  0.00    -0.005 C  
BRANCH  17  18
HETATM   18  C   UNL     1      -6.425   6.036  65.748  1.00  0.00    -0.043 C  
BRANCH  18  19
HETATM   19  N   UNL     1      -6.348   5.540  64.289  1.00  0.00    -0.022 N  
HETATM   20  C   UNL     1      -5.531   6.515  63.436  1.00  0.00    -0.026 C  
HETATM   21  C   UNL     1      -5.719   4.147  64.232  1.00  0.00    -0.014 C  
BRANCH  19  22
HETATM   22  C   UNL     1      -7.811   5.491  63.794  1.00  0.00    -0.103 C  
BRANCH  22  23
HETATM   23  C   UNL     1      -8.613   6.690  64.257  1.00  0.00     0.362 C  
BRANCH  23  24
HETATM   24  C   UNL     1      -7.957   7.995  63.845  1.00  0.00    -0.128 C  
BRANCH  24  25
HETATM   25  C   UNL     1      -8.989   9.097  64.011  1.00  0.00    -0.028 C  
BRANCH  25  26
HETATM   26  C   UNL     1      -8.383  10.311  64.677  1.00  0.00    -0.169 C  
BRANCH  26  27
HETATM   27  C   UNL     1      -7.517   9.862  65.840  1.00  0.00    -0.108 C  
BRANCH  27  28
HETATM   28  C   UNL     1      -6.515  10.947  66.175  1.00  0.00    -0.114 C  
BRANCH  28  29
HETATM   29  C   UNL     1      -6.621  11.320  67.641  1.00  0.00    -0.072 C  
BRANCH  29  30
HETATM   30  C   UNL     1      -6.952  12.795  67.763  1.00  0.00    -0.131 C  
BRANCH  30  31
HETATM   31  C   UNL     1      -7.646  13.074  69.081  1.00  0.00     0.254 C  
BRANCH  31  32
HETATM   32  C   UNL     1      -9.145  13.165  68.868  1.00  0.00     0.293 C  
BRANCH  32  33
HETATM   33  C   UNL     1      -9.810  11.854  69.250  1.00  0.00     0.401 C  
BRANCH  33  34
HETATM   34  C   UNL     1     -11.089  11.659  68.451  1.00  0.00    -0.285 C  
BRANCH  34  35
HETATM   35  C   UNL     1     -11.122  12.614  67.266  1.00  0.00    -0.320 C  
BRANCH  35  36
HETATM   36  C   UNL     1     -11.383  11.856  65.971  1.00  0.00    -0.375 C  
BRANCH  36  37
HETATM   37  C   UNL     1     -11.440  12.819  64.790  1.00  0.00    -0.356 C  
BRANCH  37  38
HETATM   38  C   UNL     1     -12.108  12.167  63.585  1.00  0.00    -0.648 C  
HETATM   39  C   UNL     1     -13.620  12.181  63.727  1.00  0.00     0.907 C  
ENDBRANCH  37  38
ENDBRANCH  36  37
ENDBRANCH  35  36
ENDBRANCH  34  35
ENDBRANCH  33  34
ENDBRANCH  32  33
ENDBRANCH  31  32
ENDBRANCH  30  31
ENDBRANCH  29  30
ENDBRANCH  28  29
ENDBRANCH  27  28
ENDBRANCH  26  27
ENDBRANCH  25  26
ENDBRANCH  24  25
ENDBRANCH  23  24
ENDBRANCH  22  23
ENDBRANCH  19  22
ENDBRANCH  18  19
ENDBRANCH  17  18
ENDBRANCH  16  17
ENDBRANCH  15  16
ENDBRANCH  14  15
ENDBRANCH  13  14
ENDBRANCH  12  13
ENDBRANCH  11  12
ENDBRANCH  10  11
ENDBRANCH   9  10
ENDBRANCH   8   9
ENDBRANCH   7   8
ENDBRANCH   6   7
ENDBRANCH   5   6
ENDBRANCH   4   5
ENDBRANCH   3   4
ENDBRANCH   2   3
TORSDOF 34
ENDMDL
MODEL      245
REMARK 921   NORMALIZED FREE ENERGY PREDICTED BY IDOCK:   10.48 KCAL/MOL
REMARK 922        TOTAL FREE ENERGY PREDICTED BY IDOCK:   24.98 KCAL/MOL
REMARK 923 INTER-LIGAND FREE ENERGY PREDICTED BY IDOCK:    1.62 KCAL/MOL
REMARK 924 INTRA-LIGAND FREE ENERGY PREDICTED BY IDOCK:   23.36 KCAL/MOL
REMARK 927      BINDING AFFINITY PREDICTED BY RF-SCORE:    0.00 PKD
ROOT
HETATM    1  C   UNL     1      -6.611   5.996  67.673  1.00  0.00    -0.056 C  
HETATM    2  C   UNL     1      -6.755   7.363  68.319  1.00  0.00    -0.054 C  
ENDROOT
BRANCH   2   3
HETATM    3  C   UNL     1      -6.406   8.471  67.337  1.00  0.00    -0.057 C  
BRANCH   3   4
HETATM    4  C   UNL     1      -5.151   9.219  67.776  1.00  0.00    -0.033 C  
BRANCH   4   5
HETATM    5  C   UNL     1      -5.434  10.069  69.008  1.00  0.00    -0.035 C  
BRANCH   5   6
HETATM    6  C   UNL     1      -6.054   9.223  70.111  1.00  0.00    -0.036 C  
BRANCH   6   7
HETATM    7  C   UNL     1      -5.131   8.066  70.467  1.00  0.00    -0.023 C  
BRANCH   7   8
HETATM    8  C   UNL     1      -5.316   7.676  71.924  1.00  0.00    -0.035 C  
BRANCH   8   9
HETATM    9  C   UNL     1      -6.572   6.837  72.088  1.00  0.00    -0.058 C  
BRANCH   9  10
HETATM   10  C   UNL     1      -6.585   5.722  71.059  1.00  0.00    -0.045 C  
BRANCH  10  11
HETATM   11  C   UNL     1      -5.352   4.851  71.211  1.00  0.00    -0.004 C  
BRANCH  11  12
HETATM   12  C   UNL     1      -5.409   4.124  72.541  1.00  0.00     0.000 C  
BRANCH  12  13
HETATM   13  C   UNL     1      -6.180   4.947  73.553  1.00  0.00    -0.046 C  
BRANCH  13  14
HETATM   14  C   UNL     1      -7.488   5.412  72.941  1.00  0.00    -0.096 C  
BRANCH  14  15
HETATM   15  C   UNL     1      -8.463   5.742  74.049  1.00  0.00    -0.117 C  
BRANCH  15  16
HETATM   16  C   UNL     1      -9.492   6.757  73.582  1.00  0.00    -0.204 C  
BRANCH  16  17
HETATM   17  C   UNL     1      -9.241   7.019  72.110  1.00  0.00    -0.142 C  
BRANCH  17  18
HETATM   18  C   UNL     1     -10.479   6.750  71.275  1.00  0.00    -0.213 C  
BRANCH  18  19
HETATM   19  N   UNL     1     -11.257   5.513  71.770  1.00  0.00    -0.158 N  
HETATM   20  C   UNL     1     -11.356   5.520  73.298  1.00  0.00    -0.153 C  
HETATM   21  C   UNL     1     -12.660   5.487  71.159  1.00  0.00     2.680 C  
BRANCH  19  22
HETATM   22  C   UNL     1     -10.439   4.293  71.291  1.00  0.00     0.202 C  
BRANCH  22  23
HETATM   23  C   UNL     1      -9.252   4.698  70.441  1.00  0.00    -0.187 C  
BRANCH  23  24
HETATM   24  C   UNL     1      -9.582   5.877  69.544  1.00  0.00    -0.174 C  
BRANCH  24  25
HETATM   25  C   UNL     1     -10.090   5.321  68.226  1.00  0.00    -0.219 C  
BRANCH  25  26
HETATM   26  C   UNL     1     -11.278   6.110  67.725  1.00  0.00    -0.131 C  
BRANCH  26  27
HETATM   27  C   UNL     1     -11.898   6.870  68.885  1.00  0.00     0.706 C  
BRANCH  27  28
HETATM   28  C   UNL     1     -10.971   7.988  69.313  1.00  0.00     0.023 C  
BRANCH  28  29
HETATM   29  C   UNL     1      -9.663   7.901  68.551  1.00  0.00    -0.167 C  
BRANCH  29  30
HETATM   30  C   UNL     1      -9.710   8.836  67.359  1.00  0.00    -0.225 C  
BRANCH  30  31
HETATM   31  C   UNL     1     -10.958   9.695  67.408  1.00  0.00    -0.139 C  
BRANCH  31  32
HETATM   32  C   UNL     1     -10.581  11.162  67.322  1.00  0.00    -0.279 C  
BRANCH  32  33
HETATM   33  C   UNL     1      -9.649  11.532  68.463  1.00  0.00    -0.180 C  
BRANCH  33  34
HETATM   34  C   UNL     1      -9.473  13.041  68.532  1.00  0.00    -0.098 C  
BRANCH  34  35
HETATM   35  C   UNL     1     -10.501  13.733  67.648  1.00  0.00    -0.242 C  
BRANCH  35  36
HETATM   36  C   UNL     1     -11.333  14.716  68.460  1.00  0.00    -0.305 C  
BRANCH  36  37
HETATM   37  C   UNL     1     -10.459  15.853  68.980  1.00  0.00    -0.234 C  
BRANCH  37  38
HETATM   38  C   UNL     1     -11.313  17.003  69.503  1.00  0.00     0.577 C  
HETATM   39  C   UNL     1     -10.721  17.584  70.776  1.00  0.00     1.581 C  
ENDBRANCH  37  38
ENDBRANCH  36  37
ENDBRANCH  35  36
ENDBRANCH  34  35
ENDBRANCH  33  34
ENDBRANCH  32  33
ENDBRANCH  31  32
ENDBRANCH  30  31
ENDBRANCH  29  30
ENDBRANCH  28  29
ENDBRANCH  27  28
ENDBRANCH  26  27
ENDBRANCH  25  26
ENDBRANCH  24  25
ENDBRANCH  23  24
ENDBRANCH  22  23
ENDBRANCH  19  22
ENDBRANCH  18  19
ENDBRANCH  17  18
ENDBRANCH  16  17
ENDBRANCH  15  16
ENDBRANCH  14  15
ENDBRANCH  13  14
ENDBRANCH  12  13
ENDBRANCH  11  12
ENDBRANCH  10  11
ENDBRANCH   9  10
ENDBRANCH   8   9
ENDBRANCH   7   8
ENDBRANCH   6   7
ENDBRANCH   5   6
ENDBRANCH   4   5
ENDBRANCH   3   4
ENDBRANCH   2   3
TORSDOF 34
ENDMDL
MODEL      246
REMARK 921   NORMALIZED FREE ENERGY PREDICTED BY IDOCK:   12.81 KCAL/MOL
REMARK 922        TOTAL FREE ENERGY PREDICTED BY IDOCK:   31.95 KCAL/MOL
REMARK 923 INTER-LIGAND FREE ENERGY PREDICTED BY IDOCK:    5.83 KCAL/MOL
REMARK 924 INTRA-LIGAND FREE ENERGY PREDICTED BY IDOCK:   26.12 KCAL/MOL
REMARK 927      BINDING AFFINITY PREDICTED BY RF-SCORE:    0.00 PKD
ROOT
HETATM    1  C   UNL     1     -12.127  10.077  67.720  1.00  0.00     2.590 C  
HETATM    2  C   UNL     1     -11.875  11.532  68.074  1.00  0.00    -0.287 C  
ENDROOT
BRANCH   2   3
HETATM    3  C   UNL     1     -12.542  11.897  69.392  1.00  0.00     0.350 C  
BRANCH   3   4
HETATM    4  C   UNL     1     -11.969  11.076  70.544  1.00  0.00    -0.474 C  
BRANCH   4   5
HETATM    5  C   UNL     1     -12.655  11.437  71.855  1.00  0.00    -0.120 C  
BRANCH   5   6
HETATM    6  C   UNL     1     -13.236  12.843  71.785  1.00  0.00    -0.479 C  
BRANCH   6   7
HETATM    7  C   UNL     1     -12.503  13.763  72.751  1.00  0.00     0.121 C  
BRANCH   7   8
HETATM    8  C   UNL     1     -12.597  15.204  72.277  1.00  0.00    -0.422 C  
BRANCH   8   9
HETATM    9  C   UNL     1     -11.500  15.498  71.267  1.00  0.00    -0.462 C  
BRANCH   9  10
HETATM   10  C   UNL     1     -11.035  14.207  70.621  1.00  0.00     0.595 C  
BRANCH  10  11
HETATM   11  C   UNL     1     -11.325  14.229  69.132  1.00  0.00    -0.312 C  
BRANCH  11  12
HETATM   12  C   UNL     1     -10.112  14.754  68.389  1.00  0.00    -0.225 C  
BRANCH  12  13
HETATM   13  C   UNL     1      -9.592  13.704  67.430  1.00  0.00    -0.226 C  
BRANCH  13  14
HETATM   14  C   UNL     1      -8.161  13.349  67.790  1.00  0.00    -0.172 C  
BRANCH  14  15
HETATM   15  C   UNL     1      -7.871  11.938  67.331  1.00  0.00    -0.158 C  
BRANCH  15  16
HETATM   16  C   UNL     1      -8.150  11.782  65.845  1.00  0.00     0.425 C  
BRANCH  16  17
HETATM   17  C   UNL     1      -7.750  10.373  65.452  1.00  0.00    -0.136 C  
BRANCH  17  18
HETATM   18  C   UNL     1      -8.661   9.813  64.376  1.00  0.00    -0.206 C  
BRANCH  18  19
HETATM   19  N   UNL     1     -10.041  10.506  64.364  1.00  0.00    -0.346 N  
HETATM   20  C   UNL     1     -11.158   9.474  64.544  1.00  0.00     5.342 C  
HETATM   21  C   UNL     1     -10.120  11.556  65.474  1.00  0.00    -0.243 C  
BRANCH  19  22
HETATM   22  C   UNL     1     -10.151  11.179  62.978  1.00  0.00    -0.268 C  
BRANCH  22  23
HETATM   23  C   UNL     1     -11.449  11.945  62.815  1.00  0.00     0.524 C  
BRANCH  23  24
HETATM   24  C   UNL     1     -12.454  11.576  63.891  1.00  0.00    -0.007 C  
BRANCH  24  25
HETATM   25  C   UNL     1     -12.974  12.869  64.492  1.00  0.00    -0.168 C  
BRANCH  25  26
HETATM   26  C   UNL     1     -12.403  14.070  63.774  1.00  0.00    -0.195 C  
BRANCH  26  27
HETATM   27  C   UNL     1     -10.966  14.280  64.217  1.00  0.00    -0.049 C  
BRANCH  27  28
HETATM   28  C   UNL     1     -10.932  15.225  65.400  1.00  0.00    -0.380 C  
BRANCH  28  29
HETATM   29  C   UNL     1      -9.553  15.221  66.031  1.00  0.00    -0.372 C  
BRANCH  29  30
HETATM   30  C   UNL     1      -8.846  16.522  65.707  1.00  0.00     0.034 C  
BRANCH  30  31
HETATM   31  C   UNL     1      -9.694  17.706  66.127  1.00  0.00    -0.228 C  
BRANCH  31  32
HETATM   32  C   UNL     1      -9.921  17.673  67.627  1.00  0.00    -0.323 C  
BRANCH  32  33
HETATM   33  C   UNL     1      -9.591  16.297  68.178  1.00  0.00    -0.219 C  
BRANCH  33  34
HETATM   34  C   UNL     1      -9.284  16.384  69.665  1.00  0.00     0.246 C  
BRANCH  34  35
HETATM   35  C   UNL     1      -8.420  17.603  69.956  1.00  0.00     2.152 C  
BRANCH  35  36
HETATM   36  C   UNL     1      -8.250  18.451  68.702  1.00  0.00    -0.316 C  
BRANCH  36  37
HETATM   37  C   UNL     1      -6.803  18.917  68.565  1.00  0.00    -0.285 C  
BRANCH  37  38
HETATM   38  C   UNL     1      -6.606  20.284  69.209  1.00  0.00    -0.252 C  
HETATM   39  C   UNL     1      -7.216  20.324  70.599  1.00  0.00     0.783 C  
ENDBRANCH  37  38
ENDBRANCH  36  37
ENDBRANCH  35  36
ENDBRANCH  34  35
ENDBRANCH  33  34
ENDBRANCH  32  33
ENDBRANCH  31  32
ENDBRANCH  30  31
ENDBRANCH  29  30
ENDBRANCH  28  29
ENDBRANCH  27  28
ENDBRANCH  26  27
ENDBRANCH  25  26
ENDBRANCH  24  25
ENDBRANCH  23  24
ENDBRANCH  22  23
ENDBRANCH  19  22
ENDBRANCH  18  19
ENDBRANCH  17  18
ENDBRANCH  16  17
ENDBRANCH  15  16
ENDBRANCH  14  15
ENDBRANCH  13  14
ENDBRANCH  12  13
ENDBRANCH  11  12
ENDBRANCH  10  11
ENDBRANCH   9  10
ENDBRANCH   8   9
ENDBRANCH   7   8
ENDBRANCH   6   7
ENDBRANCH   5   6
ENDBRANCH   4   5
ENDBRANCH   3   4
ENDBRANCH   2   3
TORSDOF 34
ENDMDL
MODEL      247
REMARK 921   NORMALIZED FREE ENERGY PREDICTED BY IDOCK:   15.72 KCAL/MOL
REMARK 922        TOTAL FREE ENERGY PREDICTED BY IDOCK:   40.63 KCAL/MOL
REMARK 923 INTER-LIGAND FREE ENERGY PREDICTED BY IDOCK:    2.60 KCAL/MOL
REMARK 924 INTRA-LIGAND FREE ENERGY PREDICTED BY IDOCK:   38.03 KCAL/MOL
REMARK 927      BINDING AFFINITY PREDICTED BY RF-SCORE:    0.00 PKD
ROOT
HETATM    1  C   UNL     1      -8.023  16.960  65.246  1.00  0.00     2.435 C  
HETATM    2  C   UNL     1      -9.162  16.822  66.241  1.00  0.00    -0.313 C  
ENDROOT
BRANCH   2   3
HETATM    3  C   UNL     1      -8.658  16.302  67.579  1.00  0.00    -0.189 C  
BRANCH   3   4
HETATM    4  C   UNL     1      -9.672  15.356  68.217  1.00  0.00    -0.209 C  
BRANCH   4   5
HETATM    5  C   UNL     1     -10.510  16.089  69.257  1.00  0.00    -0.257 C  
BRANCH   5   6
HETATM    6  C   UNL     1     -11.505  15.139  69.908  1.00  0.00    -0.315 C  
BRANCH   6   7
HETATM    7  C   UNL     1     -11.177  13.700  69.537  1.00  0.00    -0.205 C  
BRANCH   7   8
HETATM    8  C   UNL     1     -10.789  13.612  68.070  1.00  0.00    -0.261 C  
BRANCH   8   9
HETATM    9  C   UNL     1     -10.964  14.963  67.398  1.00  0.00    -0.314 C  
BRANCH   9  10
HETATM   10  C   UNL     1     -12.383  15.101  66.879  1.00  0.00     0.636 C  
BRANCH  10  11
HETATM   11  C   UNL     1     -12.470  14.605  65.448  1.00  0.00    -0.163 C  
BRANCH  11  12
HETATM   12  C   UNL     1     -12.057  13.147  65.394  1.00  0.00    -0.478 C  
BRANCH  12  13
HETATM   13  C   UNL     1     -12.219  12.507  66.757  1.00  0.00     0.024 C  
BRANCH  13  14
HETATM   14  C   UNL     1     -10.968  12.743  67.582  1.00  0.00    -0.274 C  
BRANCH  14  15
HETATM   15  C   UNL     1     -10.824  11.628  68.592  1.00  0.00    -0.253 C  
BRANCH  15  16
HETATM   16  C   UNL     1     -11.751  10.471  68.261  1.00  0.00    -0.051 C  
BRANCH  16  17
HETATM   17  C   UNL     1     -12.087  10.563  66.785  1.00  0.00     2.903 C  
BRANCH  17  18
HETATM   18  C   UNL     1     -11.363   9.500  65.979  1.00  0.00     2.402 C  
BRANCH  18  19
HETATM   19  N   UNL     1      -9.888   9.870  65.720  1.00  0.00    -0.272 N  
HETATM   20  C   UNL     1      -9.780  10.844  64.543  1.00  0.00    -0.282 C  
HETATM   21  C   UNL     1      -9.267  10.496  66.971  1.00  0.00    -0.150 C  
BRANCH  19  22
HETATM   22  C   UNL     1      -9.183   8.538  65.379  1.00  0.00     0.026 C  
BRANCH  22  23
HETATM   23  C   UNL     1      -8.346   8.021  66.532  1.00  0.00    -0.121 C  
BRANCH  23  24
HETATM   24  C   UNL     1      -7.788   9.156  67.370  1.00  0.00    -0.099 C  
BRANCH  24  25
HETATM   25  C   UNL     1      -6.796   8.555  68.350  1.00  0.00    -0.065 C  
BRANCH  25  26
HETATM   26  C   UNL     1      -6.773   9.335  69.645  1.00  0.00    -0.047 C  
BRANCH  26  27
HETATM   27  C   UNL     1      -5.868   8.628  70.638  1.00  0.00    -0.032 C  
BRANCH  27  28
HETATM   28  C   UNL     1      -5.488   7.265  70.098  1.00  0.00    -0.023 C  
BRANCH  28  29
HETATM   29  C   UNL     1      -6.735   6.471  69.763  1.00  0.00    -0.050 C  
BRANCH  29  30
HETATM   30  C   UNL     1      -6.668   5.116  70.442  1.00  0.00    -0.040 C  
BRANCH  30  31
HETATM   31  C   UNL     1      -6.727   5.275  71.948  1.00  0.00    -0.056 C  
BRANCH  31  32
HETATM   32  C   UNL     1      -6.655   3.915  72.616  1.00  0.00    -0.032 C  
BRANCH  32  33
HETATM   33  C   UNL     1      -7.984   3.583  73.274  1.00  0.00    -0.071 C  
BRANCH  33  34
HETATM   34  C   UNL     1      -8.202   4.462  74.495  1.00  0.00    -0.090 C  
BRANCH  34  35
HETATM   35  C   UNL     1      -9.476   5.280  74.337  1.00  0.00    -0.141 C  
BRANCH  35  36
HETATM   36  C   UNL     1     -10.439   4.593  73.378  1.00  0.00    -0.266 C  
BRANCH  36  37
HETATM   37  C   UNL     1     -11.554   5.549  72.965  1.00  0.00    -0.233 C  
BRANCH  37  38
HETATM   38  C   UNL     1     -11.160   6.997  73.234  1.00  0.00    -0.217 C  
HETATM   39  C   UNL     1     -10.430   7.593  72.043  1.00  0.00    -0.258 C  
ENDBRANCH  37  38
ENDBRANCH  36  37
ENDBRANCH  35  36
ENDBRANCH  34  35
ENDBRANCH  33  34
ENDBRANCH  32  33
ENDBRANCH  31  32
ENDBRANCH  30  31
ENDBRANCH  29  30
ENDBRANCH  28  29
ENDBRANCH  27  28
ENDBRANCH  26  27
ENDBRANCH  25  26
ENDBRANCH  24  25
ENDBRANCH  23  24
ENDBRANCH  22  23
ENDBRANCH  19  22
ENDBRANCH  18  19
ENDBRANCH  17  18
ENDBRANCH  16  17
ENDBRANCH  15  16
ENDBRANCH  14  15
ENDBRANCH  13  14
ENDBRANCH  12  13
ENDBRANCH  11  12
ENDBRANCH  10  11
ENDBRANCH   9  10
ENDBRANCH   8   9
ENDBRANCH   7   8
ENDBRANCH   6   7
ENDBRANCH   5   6
ENDBRANCH   4   5
ENDBRANCH   3   4
ENDBRANCH   2   3
TORSDOF 34
ENDMDL
MODEL      248
REMARK 921   NORMALIZED FREE ENERGY PREDICTED BY IDOCK:   18.63 KCAL/MOL
REMARK 922        TOTAL FREE ENERGY PREDICTED BY IDOCK:   49.34 KCAL/MOL
REMARK 923 INTER-LIGAND FREE ENERGY PREDICTED BY IDOCK:   22.36 KCAL/MOL
REMARK 924 INTRA-LIGAND FREE ENERGY PREDICTED BY IDOCK:   26.98 KCAL/MOL
REMARK 927      BINDING AFFINITY PREDICTED BY RF-SCORE:    0.00 PKD
ROOT
HETATM    1  C   UNL     1     -12.355  10.058  67.711  1.00  0.00     3.953 C  
HETATM    2  C   UNL     1     -12.222  11.385  68.435  1.00  0.00     0.099 C  
ENDROOT
BRANCH   2   3
HETATM    3  C   UNL     1     -12.517  11.230  69.919  1.00  0.00    -0.220 C  
BRANCH   3   4
HETATM    4  C   UNL     1     -11.440  10.396  70.609  1.00  0.00    -0.438 C  
BRANCH   4   5
HETATM    5  C   UNL     1     -12.057   9.493  71.669  1.00  0.00    -0.474 C  
BRANCH   5   6
HETATM    6  C   UNL     1     -13.407  10.036  72.115  1.00  0.00    -0.469 C  
BRANCH   6   7
HETATM    7  C   UNL     1     -13.330  10.516  73.557  1.00  0.00     5.483 C  
BRANCH   7   8
HETATM    8  C   UNL     1     -14.405  11.558  73.822  1.00  0.00     7.672 C  
BRANCH   8   9
HETATM    9  C   UNL     1     -14.045  12.868  73.143  1.00  0.00     2.069 C  
BRANCH   9  10
HETATM   10  C   UNL     1     -12.985  12.627  72.084  1.00  0.00    -0.333 C  
BRANCH  10  11
HETATM   11  C   UNL     1     -13.539  12.937  70.706  1.00  0.00     0.977 C  
BRANCH  11  12
HETATM   12  C   UNL     1     -13.280  14.394  70.375  1.00  0.00     0.022 C  
BRANCH  12  13
HETATM   13  C   UNL     1     -12.243  14.504  69.278  1.00  0.00    -0.264 C  
BRANCH  13  14
HETATM   14  C   UNL     1     -11.075  15.343  69.765  1.00  0.00    -0.295 C  
BRANCH  14  15
HETATM   15  C   UNL     1      -9.784  14.722  69.279  1.00  0.00    -0.098 C  
BRANCH  15  16
HETATM   16  C   UNL     1      -9.700  14.759  67.763  1.00  0.00    -0.213 C  
BRANCH  16  17
HETATM   17  C   UNL     1      -8.366  14.156  67.365  1.00  0.00    -0.210 C  
BRANCH  17  18
HETATM   18  C   UNL     1      -8.454  13.435  66.033  1.00  0.00     1.193 C  
BRANCH  18  19
HETATM   19  N   UNL     1      -9.898  13.393  65.488  1.00  0.00    -0.194 N  
HETATM   20  C   UNL     1     -10.492  11.992  65.659  1.00  0.00    -0.256 C  
HETATM   21  C   UNL     1     -10.771  14.420  66.213  1.00  0.00    -0.307 C  
BRANCH  19  22
HETATM   22  C   UNL     1      -9.783  13.748  63.989  1.00  0.00     2.118 C  
BRANCH  22  23
HETATM   23  C   UNL     1     -11.137  13.830  63.314  1.00  0.00     1.419 C  
BRANCH  23  24
HETATM   24  C   UNL     1     -12.231  13.233  64.181  1.00  0.00    -0.465 C  
BRANCH  24  25
HETATM   25  C   UNL     1     -13.177  14.358  64.561  1.00  0.00     0.983 C  
BRANCH  25  26
HETATM   26  C   UNL     1     -12.797  15.645  63.865  1.00  0.00     1.171 C  
BRANCH  26  27
HETATM   27  C   UNL     1     -11.347  15.971  64.174  1.00  0.00     0.018 C  
BRANCH  27  28
HETATM   28  C   UNL     1     -11.280  16.907  65.363  1.00  0.00     0.255 C  
BRANCH  28  29
HETATM   29  C   UNL     1      -9.886  16.895  65.958  1.00  0.00    -0.281 C  
BRANCH  29  30
HETATM   30  C   UNL     1      -9.122  18.114  65.480  1.00  0.00     1.021 C  
BRANCH  30  31
HETATM   31  C   UNL     1      -9.925  19.375  65.732  1.00  0.00    -0.183 C  
BRANCH  31  32
HETATM   32  C   UNL     1     -10.585  19.305  67.096  1.00  0.00    -0.575 C  
BRANCH  32  33
HETATM   33  C   UNL     1     -10.886  17.861  67.460  1.00  0.00    -0.239 C  
BRANCH  33  34
HETATM   34  C   UNL     1     -10.593  17.616  68.933  1.00  0.00    -0.139 C  
BRANCH  34  35
HETATM   35  C   UNL     1      -9.343  18.375  69.355  1.00  0.00     0.274 C  
BRANCH  35  36
HETATM   36  C   UNL     1      -8.885  19.316  68.249  1.00  0.00    -0.379 C  
BRANCH  36  37
HETATM   37  C   UNL     1      -7.384  19.177  68.016  1.00  0.00    -0.287 C  
BRANCH  37  38
HETATM   38  C   UNL     1      -6.603  20.154  68.887  1.00  0.00    -0.328 C  
HETATM   39  C   UNL     1      -7.095  20.114  70.324  1.00  0.00     0.280 C  
ENDBRANCH  37  38
ENDBRANCH  36  37
ENDBRANCH  35  36
ENDBRANCH  34  35
ENDBRANCH  33  34
ENDBRANCH  32  33
ENDBRANCH  31  32
ENDBRANCH  30  31
ENDBRANCH  29  30
ENDBRANCH  28  29
ENDBRANCH  27  28
ENDBRANCH  26  27
ENDBRANCH  25  26
ENDBRANCH  24  25
ENDBRANCH  23  24
ENDBRANCH  22  23
ENDBRANCH  19  22
ENDBRANCH  18  19
ENDBRANCH  17  18
ENDBRANCH  16  17
ENDBRANCH  15  16
ENDBRANCH  14  15
ENDBRANCH  13  14
ENDBRANCH  12  13
ENDBRANCH  11  12
ENDBRANCH  10  11
ENDBRANCH   9  10
ENDBRANCH   8   9
ENDBRANCH   7   8
ENDBRANCH   6   7
ENDBRANCH   5   6
ENDBRANCH   4   5
ENDBRANCH   3   4
ENDBRANCH   2   3
TORSDOF 34
ENDMDL
