MODEL        1
REMARK 921   NORMALIZED FREE ENERGY PREDICTED BY IDOCK:   -4.01 KCAL/MOL
REMARK 922        TOTAL FREE ENERGY PREDICTED BY IDOCK:   -6.64 KCAL/MOL
REMARK 923 INTER-LIGAND FREE ENERGY PREDICTED BY IDOCK:   -6.12 KCAL/MOL
REMARK 924 INTRA-LIGAND FREE ENERGY PREDICTED BY IDOCK:   -0.51 KCAL/MOL
REMARK 927      BINDING AFFINITY PREDICTED BY RF-SCORE:    0.00 PKD
ROOT
HETATM    1  C   UNL     1     -12.458  12.116  63.398  1.00  0.00    -0.625 C  
HETATM    2  C   UNL     1     -12.499  12.594  64.847  1.00  0.00    -0.494 C  
ENDROOT
BRANCH   2   3
HETATM    3  N   UNL     1     -11.163  12.907  65.398  1.00  0.00    -0.279 N  
BRANCH   3   4
HETATM    4  C   UNL     1     -10.418  14.060  64.838  1.00  0.00    -0.431 C  
HETATM    5  C   UNL     1     -11.038  15.450  64.948  1.00  0.00    -0.435 C  
ENDBRANCH   3   4
BRANCH   3   6
HETATM    6  C   UNL     1     -10.582  12.074  66.398  1.00  0.00    -0.243 C  
HETATM    7  S   UNL     1     -10.202  10.435  66.187  1.00  0.00    -0.197 S  
BRANCH   6   8
HETATM    8  S   UNL     1     -10.116  12.873  67.932  1.00  0.00    -0.238 SA 
BRANCH   8   9
HETATM    9  S   UNL     1     -11.911  13.576  68.686  1.00  0.00    -0.363 SA 
BRANCH   9  10
HETATM   10  C   UNL     1     -11.529  15.005  69.672  1.00  0.00    -0.294 C  
HETATM   11  S   UNL     1     -10.663  16.346  69.145  1.00  0.00    -0.333 S  
BRANCH  10  12
HETATM   12  N   UNL     1     -12.163  14.955  70.922  1.00  0.00    -0.301 N  
BRANCH  12  13
HETATM   13  C   UNL     1     -11.431  15.303  72.150  1.00  0.00    -0.407 C  
HETATM   14  C   UNL     1     -12.060  16.414  72.977  1.00  0.00    -0.577 C  
ENDBRANCH  12  13
BRANCH  12  15
HETATM   15  C   UNL     1     -13.519  14.397  71.040  1.00  0.00    -0.252 C  
HETATM   16  C   UNL     1     -13.659  13.321  72.103  1.00  0.00    -0.655 C  
ENDBRANCH  12  15
ENDBRANCH  10  12
ENDBRANCH   9  10
ENDBRANCH   8   9
ENDBRANCH   6   8
ENDBRANCH   3   6
ENDBRANCH   2   3
TORSDOF 9
ENDMDL
MODEL        2
REMARK 921   NORMALIZED FREE ENERGY PREDICTED BY IDOCK:   -4.01 KCAL/MOL
REMARK 922        TOTAL FREE ENERGY PREDICTED BY IDOCK:   -6.63 KCAL/MOL
REMARK 923 INTER-LIGAND FREE ENERGY PREDICTED BY IDOCK:   -6.69 KCAL/MOL
REMARK 924 INTRA-LIGAND FREE ENERGY PREDICTED BY IDOCK:    0.06 KCAL/MOL
REMARK 927      BINDING AFFINITY PREDICTED BY RF-SCORE:    0.00 PKD
ROOT
HETATM    1  C   UNL     1     -12.763  16.012  73.864  1.00  0.00    -0.706 C  
HETATM    2  C   UNL     1     -12.089  16.288  72.523  1.00  0.00    -0.525 C  
ENDROOT
BRANCH   2   3
HETATM    3  N   UNL     1     -12.584  15.423  71.430  1.00  0.00    -0.369 N  
BRANCH   3   4
HETATM    4  C   UNL     1     -13.839  14.663  71.641  1.00  0.00    -0.440 C  
HETATM    5  C   UNL     1     -13.770  13.340  72.400  1.00  0.00    -0.678 C  
ENDBRANCH   3   4
BRANCH   3   6
HETATM    6  C   UNL     1     -11.830  15.277  70.228  1.00  0.00    -0.318 C  
HETATM    7  S   UNL     1     -10.692  16.398  69.662  1.00  0.00    -0.315 S  
BRANCH   6   8
HETATM    8  S   UNL     1     -12.029  13.732  69.343  1.00  0.00    -0.340 SA 
BRANCH   8   9
HETATM    9  S   UNL     1     -10.412  13.692  68.052  1.00  0.00    -0.254 SA 
BRANCH   9  10
HETATM   10  C   UNL     1     -10.807  12.526  66.770  1.00  0.00    -0.249 C  
HETATM   11  S   UNL     1     -10.866  10.857  66.960  1.00  0.00    -0.243 S  
BRANCH  10  12
HETATM   12  N   UNL     1     -11.212  13.170  65.592  1.00  0.00    -0.281 N  
BRANCH  12  13
HETATM   13  C   UNL     1     -10.460  14.320  65.068  1.00  0.00    -0.435 C  
HETATM   14  C   UNL     1     -11.311  15.524  64.693  1.00  0.00    -0.363 C  
ENDBRANCH  12  13
BRANCH  12  15
HETATM   15  C   UNL     1     -12.488  12.808  64.955  1.00  0.00    -0.506 C  
HETATM   16  C   UNL     1     -12.353  12.336  63.518  1.00  0.00    -0.670 C  
ENDBRANCH  12  15
ENDBRANCH  10  12
ENDBRANCH   9  10
ENDBRANCH   8   9
ENDBRANCH   6   8
ENDBRANCH   3   6
ENDBRANCH   2   3
TORSDOF 9
ENDMDL
MODEL        3
REMARK 921   NORMALIZED FREE ENERGY PREDICTED BY IDOCK:   -3.98 KCAL/MOL
REMARK 922        TOTAL FREE ENERGY PREDICTED BY IDOCK:   -6.59 KCAL/MOL
REMARK 923 INTER-LIGAND FREE ENERGY PREDICTED BY IDOCK:   -6.21 KCAL/MOL
REMARK 924 INTRA-LIGAND FREE ENERGY PREDICTED BY IDOCK:   -0.37 KCAL/MOL
REMARK 927      BINDING AFFINITY PREDICTED BY RF-SCORE:    0.00 PKD
ROOT
HETATM    1  C   UNL     1     -12.350  12.150  63.509  1.00  0.00    -0.682 C  
HETATM    2  C   UNL     1     -12.300  12.608  64.965  1.00  0.00    -0.497 C  
ENDROOT
BRANCH   2   3
HETATM    3  N   UNL     1     -10.948  13.017  65.403  1.00  0.00    -0.272 N  
BRANCH   3   4
HETATM    4  C   UNL     1      -9.921  11.968  65.610  1.00  0.00    -0.245 C  
HETATM    5  C   UNL     1     -10.364  10.613  66.157  1.00  0.00    -0.291 C  
ENDBRANCH   3   4
BRANCH   3   6
HETATM    6  C   UNL     1     -10.664  14.386  65.683  1.00  0.00    -0.320 C  
HETATM    7  S   UNL     1     -11.149  15.689  64.713  1.00  0.00    -0.329 S  
BRANCH   6   8
HETATM    8  S   UNL     1      -9.849  14.731  67.240  1.00  0.00    -0.232 SA 
BRANCH   8   9
HETATM    9  S   UNL     1     -11.363  15.481  68.435  1.00  0.00    -0.362 SA 
BRANCH   9  10
HETATM   10  C   UNL     1     -11.863  14.164  69.518  1.00  0.00    -0.322 C  
HETATM   11  S   UNL     1     -11.663  12.523  69.210  1.00  0.00    -0.313 S  
BRANCH  10  12
HETATM   12  N   UNL     1     -12.324  14.654  70.749  1.00  0.00    -0.305 N  
BRANCH  12  13
HETATM   13  C   UNL     1     -11.438  15.433  71.627  1.00  0.00    -0.423 C  
HETATM   14  C   UNL     1     -12.144  16.175  72.752  1.00  0.00    -0.653 C  
ENDBRANCH  12  13
BRANCH  12  15
HETATM   15  C   UNL     1     -13.647  14.254  71.253  1.00  0.00    -0.288 C  
HETATM   16  C   UNL     1     -13.610  13.138  72.282  1.00  0.00    -0.677 C  
ENDBRANCH  12  15
ENDBRANCH  10  12
ENDBRANCH   9  10
ENDBRANCH   8   9
ENDBRANCH   6   8
ENDBRANCH   3   6
ENDBRANCH   2   3
TORSDOF 9
ENDMDL
MODEL        4
REMARK 921   NORMALIZED FREE ENERGY PREDICTED BY IDOCK:   -3.89 KCAL/MOL
REMARK 922        TOTAL FREE ENERGY PREDICTED BY IDOCK:   -6.45 KCAL/MOL
REMARK 923 INTER-LIGAND FREE ENERGY PREDICTED BY IDOCK:   -5.85 KCAL/MOL
REMARK 924 INTRA-LIGAND FREE ENERGY PREDICTED BY IDOCK:   -0.60 KCAL/MOL
REMARK 927      BINDING AFFINITY PREDICTED BY RF-SCORE:    0.00 PKD
ROOT
HETATM    1  C   UNL     1     -10.270  19.768  65.990  1.00  0.00    -0.600 C  
HETATM    2  C   UNL     1     -10.799  19.266  67.330  1.00  0.00    -0.446 C  
ENDROOT
BRANCH   2   3
HETATM    3  N   UNL     1      -9.928  18.249  67.960  1.00  0.00    -0.328 N  
BRANCH   3   4
HETATM    4  C   UNL     1      -8.574  18.655  68.407  1.00  0.00    -0.337 C  
HETATM    5  C   UNL     1      -7.461  17.610  68.399  1.00  0.00    -0.253 C  
ENDBRANCH   3   4
BRANCH   3   6
HETATM    6  C   UNL     1     -10.362  16.896  68.069  1.00  0.00    -0.334 C  
HETATM    7  S   UNL     1     -10.901  16.169  69.503  1.00  0.00    -0.352 S  
BRANCH   6   8
HETATM    8  S   UNL     1     -10.454  15.960  66.545  1.00  0.00    -0.297 SA 
BRANCH   8   9
HETATM    9  S   UNL     1      -9.544  14.162  67.014  1.00  0.00    -0.271 SA 
BRANCH   9  10
HETATM   10  C   UNL     1     -10.811  12.916  66.964  1.00  0.00    -0.260 C  
HETATM   11  S   UNL     1     -11.757  12.440  68.270  1.00  0.00    -0.329 S  
BRANCH  10  12
HETATM   12  N   UNL     1     -11.040  12.463  65.656  1.00  0.00    -0.295 N  
BRANCH  12  13
HETATM   13  C   UNL     1      -9.979  11.782  64.901  1.00  0.00    -0.247 C  
HETATM   14  C   UNL     1      -9.976  10.266  65.026  1.00  0.00    -0.393 C  
ENDBRANCH  12  13
BRANCH  12  15
HETATM   15  C   UNL     1     -12.291  12.810  64.965  1.00  0.00    -0.499 C  
HETATM   16  C   UNL     1     -12.159  12.914  63.455  1.00  0.00    -0.610 C  
ENDBRANCH  12  15
ENDBRANCH  10  12
ENDBRANCH   9  10
ENDBRANCH   8   9
ENDBRANCH   6   8
ENDBRANCH   3   6
ENDBRANCH   2   3
TORSDOF 9
ENDMDL
MODEL        5
REMARK 921   NORMALIZED FREE ENERGY PREDICTED BY IDOCK:   -3.88 KCAL/MOL
REMARK 922        TOTAL FREE ENERGY PREDICTED BY IDOCK:   -6.43 KCAL/MOL
REMARK 923 INTER-LIGAND FREE ENERGY PREDICTED BY IDOCK:   -6.15 KCAL/MOL
REMARK 924 INTRA-LIGAND FREE ENERGY PREDICTED BY IDOCK:   -0.28 KCAL/MOL
REMARK 927      BINDING AFFINITY PREDICTED BY RF-SCORE:    0.00 PKD
ROOT
HETATM    1  C   UNL     1     -10.454  19.728  65.968  1.00  0.00    -0.609 C  
HETATM    2  C   UNL     1     -10.754  18.993  67.271  1.00  0.00    -0.470 C  
ENDROOT
BRANCH   2   3
HETATM    3  N   UNL     1      -9.581  18.281  67.825  1.00  0.00    -0.277 N  
BRANCH   3   4
HETATM    4  C   UNL     1      -8.517  19.074  68.484  1.00  0.00    -0.352 C  
HETATM    5  C   UNL     1      -7.165  19.202  67.786  1.00  0.00    -0.266 C  
ENDBRANCH   3   4
BRANCH   3   6
HETATM    6  C   UNL     1      -9.453  16.870  67.665  1.00  0.00    -0.241 C  
HETATM    7  S   UNL     1      -9.135  16.092  66.192  1.00  0.00    -0.338 S  
BRANCH   6   8
HETATM    8  S   UNL     1      -9.510  15.888  69.161  1.00  0.00    -0.270 SA 
BRANCH   8   9
HETATM    9  S   UNL     1     -11.466  16.085  69.807  1.00  0.00    -0.293 SA 
BRANCH   9  10
HETATM   10  C   UNL     1     -12.012  14.466  70.295  1.00  0.00    -0.321 C  
HETATM   11  S   UNL     1     -11.840  13.066  69.380  1.00  0.00    -0.302 S  
BRANCH  10  12
HETATM   12  N   UNL     1     -12.484  14.456  71.616  1.00  0.00    -0.346 N  
BRANCH  12  13
HETATM   13  C   UNL     1     -13.702  13.712  71.972  1.00  0.00    -0.493 C  
HETATM   14  C   UNL     1     -13.502  12.219  72.183  1.00  0.00    -0.431 C  
ENDBRANCH  12  13
BRANCH  12  15
HETATM   15  C   UNL     1     -11.861  15.322  72.629  1.00  0.00    -0.429 C  
HETATM   16  C   UNL     1     -12.826  15.842  73.681  1.00  0.00    -0.716 C  
ENDBRANCH  12  15
ENDBRANCH  10  12
ENDBRANCH   9  10
ENDBRANCH   8   9
ENDBRANCH   6   8
ENDBRANCH   3   6
ENDBRANCH   2   3
TORSDOF 9
ENDMDL
MODEL        6
REMARK 921   NORMALIZED FREE ENERGY PREDICTED BY IDOCK:   -3.81 KCAL/MOL
REMARK 922        TOTAL FREE ENERGY PREDICTED BY IDOCK:   -6.33 KCAL/MOL
REMARK 923 INTER-LIGAND FREE ENERGY PREDICTED BY IDOCK:   -5.83 KCAL/MOL
REMARK 924 INTRA-LIGAND FREE ENERGY PREDICTED BY IDOCK:   -0.51 KCAL/MOL
REMARK 927      BINDING AFFINITY PREDICTED BY RF-SCORE:    0.00 PKD
ROOT
HETATM    1  C   UNL     1     -12.446  12.091  63.455  1.00  0.00    -0.654 C  
HETATM    2  C   UNL     1     -10.940  12.312  63.568  1.00  0.00    -0.459 C  
ENDROOT
BRANCH   2   3
HETATM    3  N   UNL     1     -10.450  12.300  64.964  1.00  0.00    -0.281 N  
BRANCH   3   4
HETATM    4  C   UNL     1      -9.440  11.287  65.352  1.00  0.00    -0.225 C  
HETATM    5  C   UNL     1      -9.851   9.817  65.367  1.00  0.00    -0.365 C  
ENDBRANCH   3   4
BRANCH   3   6
HETATM    6  C   UNL     1     -10.992  13.203  65.926  1.00  0.00    -0.271 C  
HETATM    7  S   UNL     1     -11.528  12.758  67.471  1.00  0.00    -0.357 S  
BRANCH   6   8
HETATM    8  S   UNL     1     -10.974  14.940  65.490  1.00  0.00    -0.369 SA 
BRANCH   8   9
HETATM    9  S   UNL     1      -9.394  15.707  66.585  1.00  0.00    -0.290 SA 
BRANCH   9  10
HETATM   10  C   UNL     1     -10.097  16.771  67.824  1.00  0.00    -0.281 C  
HETATM   11  S   UNL     1     -11.107  16.274  69.072  1.00  0.00    -0.320 S  
BRANCH  10  12
HETATM   12  N   UNL     1      -9.593  18.077  67.730  1.00  0.00    -0.272 N  
BRANCH  12  13
HETATM   13  C   UNL     1     -10.495  19.214  67.493  1.00  0.00    -0.455 C  
HETATM   14  C   UNL     1     -10.648  19.617  66.035  1.00  0.00    -0.584 C  
ENDBRANCH  12  13
BRANCH  12  15
HETATM   15  C   UNL     1      -8.141  18.307  67.703  1.00  0.00    -0.245 C  
HETATM   16  C   UNL     1      -7.660  19.364  68.683  1.00  0.00    -0.398 C  
ENDBRANCH  12  15
ENDBRANCH  10  12
ENDBRANCH   9  10
ENDBRANCH   8   9
ENDBRANCH   6   8
ENDBRANCH   3   6
ENDBRANCH   2   3
TORSDOF 9
ENDMDL
MODEL        7
REMARK 921   NORMALIZED FREE ENERGY PREDICTED BY IDOCK:   -3.81 KCAL/MOL
REMARK 922        TOTAL FREE ENERGY PREDICTED BY IDOCK:   -6.33 KCAL/MOL
REMARK 923 INTER-LIGAND FREE ENERGY PREDICTED BY IDOCK:   -6.02 KCAL/MOL
REMARK 924 INTRA-LIGAND FREE ENERGY PREDICTED BY IDOCK:   -0.31 KCAL/MOL
REMARK 927      BINDING AFFINITY PREDICTED BY RF-SCORE:    0.00 PKD
ROOT
HETATM    1  C   UNL     1     -12.243  12.224  63.492  1.00  0.00    -0.669 C  
HETATM    2  C   UNL     1     -12.661  12.698  64.881  1.00  0.00    -0.450 C  
ENDROOT
BRANCH   2   3
HETATM    3  N   UNL     1     -11.553  13.306  65.650  1.00  0.00    -0.324 N  
BRANCH   3   4
HETATM    4  C   UNL     1     -10.545  14.114  64.922  1.00  0.00    -0.430 C  
HETATM    5  C   UNL     1     -10.706  15.632  64.902  1.00  0.00    -0.406 C  
ENDBRANCH   3   4
BRANCH   3   6
HETATM    6  C   UNL     1     -11.427  13.062  67.048  1.00  0.00    -0.333 C  
HETATM    7  S   UNL     1     -11.791  14.189  68.261  1.00  0.00    -0.340 S  
BRANCH   6   8
HETATM    8  S   UNL     1     -10.971  11.398  67.531  1.00  0.00    -0.278 SA 
BRANCH   8   9
HETATM    9  S   UNL     1     -11.890  11.148  69.368  1.00  0.00    -0.362 SA 
BRANCH   9  10
HETATM   10  C   UNL     1     -10.982   9.885  70.229  1.00  0.00    -0.309 C  
HETATM   11  S   UNL     1      -9.332   9.600  70.077  1.00  0.00    -0.238 S  
BRANCH  10  12
HETATM   12  N   UNL     1     -11.782   9.228  71.176  1.00  0.00    -0.302 N  
BRANCH  12  13
HETATM   13  C   UNL     1     -11.531   7.822  71.524  1.00  0.00    -0.264 C  
HETATM   14  C   UNL     1     -11.641   6.845  70.363  1.00  0.00    -0.385 C  
ENDBRANCH  12  13
BRANCH  12  15
HETATM   15  C   UNL     1     -12.982   9.887  71.712  1.00  0.00    -0.449 C  
HETATM   16  C   UNL     1     -14.110   8.933  72.066  1.00  0.00    -0.477 C  
ENDBRANCH  12  15
ENDBRANCH  10  12
ENDBRANCH   9  10
ENDBRANCH   8   9
ENDBRANCH   6   8
ENDBRANCH   3   6
ENDBRANCH   2   3
TORSDOF 9
ENDMDL
MODEL        8
REMARK 921   NORMALIZED FREE ENERGY PREDICTED BY IDOCK:   -3.81 KCAL/MOL
REMARK 922        TOTAL FREE ENERGY PREDICTED BY IDOCK:   -6.32 KCAL/MOL
REMARK 923 INTER-LIGAND FREE ENERGY PREDICTED BY IDOCK:   -5.85 KCAL/MOL
REMARK 924 INTRA-LIGAND FREE ENERGY PREDICTED BY IDOCK:   -0.47 KCAL/MOL
REMARK 927      BINDING AFFINITY PREDICTED BY RF-SCORE:    0.00 PKD
ROOT
HETATM    1  C   UNL     1     -12.393  12.201  63.536  1.00  0.00    -0.682 C  
HETATM    2  C   UNL     1     -12.333  12.589  65.011  1.00  0.00    -0.453 C  
ENDROOT
BRANCH   2   3
HETATM    3  N   UNL     1     -11.030  12.286  65.643  1.00  0.00    -0.289 N  
BRANCH   3   4
HETATM    4  C   UNL     1     -10.655  10.867  65.852  1.00  0.00    -0.178 C  
HETATM    5  C   UNL     1      -9.668  10.224  64.881  1.00  0.00    -0.385 C  
ENDBRANCH   3   4
BRANCH   3   6
HETATM    6  C   UNL     1     -10.187  13.342  66.099  1.00  0.00    -0.296 C  
HETATM    7  S   UNL     1      -8.958  13.165  67.254  1.00  0.00    -0.224 S  
BRANCH   6   8
HETATM    8  S   UNL     1     -10.380  14.926  65.286  1.00  0.00    -0.396 SA 
BRANCH   8   9
HETATM    9  S   UNL     1      -9.027  16.150  66.263  1.00  0.00    -0.352 SA 
BRANCH   9  10
HETATM   10  C   UNL     1      -9.882  16.853  67.654  1.00  0.00    -0.259 C  
HETATM   11  S   UNL     1     -11.150  16.126  68.484  1.00  0.00    -0.366 S  
BRANCH  10  12
HETATM   12  N   UNL     1      -9.277  18.044  68.084  1.00  0.00    -0.272 N  
BRANCH  12  13
HETATM   13  C   UNL     1      -7.889  18.049  68.568  1.00  0.00    -0.303 C  
HETATM   14  C   UNL     1      -7.389  19.397  69.064  1.00  0.00    -0.395 C  
ENDBRANCH  12  13
BRANCH  12  15
HETATM   15  C   UNL     1     -10.077  19.272  68.213  1.00  0.00    -0.425 C  
HETATM   16  C   UNL     1     -10.442  19.918  66.887  1.00  0.00    -0.577 C  
ENDBRANCH  12  15
ENDBRANCH  10  12
ENDBRANCH   9  10
ENDBRANCH   8   9
ENDBRANCH   6   8
ENDBRANCH   3   6
ENDBRANCH   2   3
TORSDOF 9
ENDMDL
MODEL        9
REMARK 921   NORMALIZED FREE ENERGY PREDICTED BY IDOCK:   -3.80 KCAL/MOL
REMARK 922        TOTAL FREE ENERGY PREDICTED BY IDOCK:   -6.31 KCAL/MOL
REMARK 923 INTER-LIGAND FREE ENERGY PREDICTED BY IDOCK:   -6.01 KCAL/MOL
REMARK 924 INTRA-LIGAND FREE ENERGY PREDICTED BY IDOCK:   -0.31 KCAL/MOL
REMARK 927      BINDING AFFINITY PREDICTED BY RF-SCORE:    0.00 PKD
ROOT
HETATM    1  C   UNL     1     -14.295   8.494  72.020  1.00  0.00    -0.537 C  
HETATM    2  C   UNL     1     -13.232   9.581  71.888  1.00  0.00    -0.439 C  
ENDROOT
BRANCH   2   3
HETATM    3  N   UNL     1     -11.991   9.111  71.234  1.00  0.00    -0.308 N  
BRANCH   3   4
HETATM    4  C   UNL     1     -11.570   7.704  71.440  1.00  0.00    -0.274 C  
HETATM    5  C   UNL     1     -11.708   6.726  70.277  1.00  0.00    -0.397 C  
ENDBRANCH   3   4
BRANCH   3   6
HETATM    6  C   UNL     1     -11.187  10.014  70.479  1.00  0.00    -0.336 C  
HETATM    7  S   UNL     1      -9.618   9.680  69.929  1.00  0.00    -0.240 S  
BRANCH   6   8
HETATM    8  S   UNL     1     -11.962  11.551  69.985  1.00  0.00    -0.354 SA 
BRANCH   8   9
HETATM    9  S   UNL     1     -11.468  11.731  67.983  1.00  0.00    -0.324 SA 
BRANCH   9  10
HETATM   10  C   UNL     1     -11.588  13.457  67.577  1.00  0.00    -0.344 C  
HETATM   11  S   UNL     1     -11.586  14.719  68.688  1.00  0.00    -0.326 S  
BRANCH  10  12
HETATM   12  N   UNL     1     -11.539  13.667  66.191  1.00  0.00    -0.334 N  
BRANCH  12  13
HETATM   13  C   UNL     1     -12.468  12.966  65.292  1.00  0.00    -0.493 C  
HETATM   14  C   UNL     1     -11.830  12.388  64.038  1.00  0.00    -0.521 C  
ENDBRANCH  12  13
BRANCH  12  15
HETATM   15  C   UNL     1     -10.453  14.466  65.604  1.00  0.00    -0.334 C  
HETATM   16  C   UNL     1     -10.884  15.837  65.112  1.00  0.00    -0.444 C  
ENDBRANCH  12  15
ENDBRANCH  10  12
ENDBRANCH   9  10
ENDBRANCH   8   9
ENDBRANCH   6   8
ENDBRANCH   3   6
ENDBRANCH   2   3
TORSDOF 9
ENDMDL
MODEL       10
REMARK 921   NORMALIZED FREE ENERGY PREDICTED BY IDOCK:   -3.77 KCAL/MOL
REMARK 922        TOTAL FREE ENERGY PREDICTED BY IDOCK:   -6.27 KCAL/MOL
REMARK 923 INTER-LIGAND FREE ENERGY PREDICTED BY IDOCK:   -5.88 KCAL/MOL
REMARK 924 INTRA-LIGAND FREE ENERGY PREDICTED BY IDOCK:   -0.39 KCAL/MOL
REMARK 927      BINDING AFFINITY PREDICTED BY RF-SCORE:    0.00 PKD
ROOT
HETATM    1  C   UNL     1      -9.040  10.192  63.843  1.00  0.00    -0.293 C  
HETATM    2  C   UNL     1     -10.057  10.473  64.946  1.00  0.00    -0.333 C  
ENDROOT
BRANCH   2   3
HETATM    3  N   UNL     1     -10.454  11.896  65.028  1.00  0.00    -0.277 N  
BRANCH   3   4
HETATM    4  C   UNL     1     -11.046  12.537  63.830  1.00  0.00    -0.448 C  
HETATM    5  C   UNL     1     -12.408  12.051  63.341  1.00  0.00    -0.635 C  
ENDBRANCH   3   4
BRANCH   3   6
HETATM    6  C   UNL     1     -10.209  12.645  66.216  1.00  0.00    -0.251 C  
HETATM    7  S   UNL     1      -8.761  12.608  67.098  1.00  0.00    -0.198 S  
BRANCH   6   8
HETATM    8  S   UNL     1     -11.490  13.792  66.716  1.00  0.00    -0.367 SA 
BRANCH   8   9
HETATM    9  S   UNL     1     -11.838  13.310  68.699  1.00  0.00    -0.322 SA 
BRANCH   9  10
HETATM   10  C   UNL     1     -11.675  14.815  69.630  1.00  0.00    -0.314 C  
HETATM   11  S   UNL     1     -11.140  16.285  69.014  1.00  0.00    -0.320 S  
BRANCH  10  12
HETATM   12  N   UNL     1     -12.188  14.678  70.928  1.00  0.00    -0.300 N  
BRANCH  12  13
HETATM   13  C   UNL     1     -13.503  14.060  71.155  1.00  0.00    -0.185 C  
HETATM   14  C   UNL     1     -13.512  12.931  72.175  1.00  0.00    -0.619 C  
ENDBRANCH  12  13
BRANCH  12  15
HETATM   15  C   UNL     1     -11.492  15.300  72.065  1.00  0.00    -0.413 C  
HETATM   16  C   UNL     1     -12.376  16.188  72.925  1.00  0.00    -0.607 C  
ENDBRANCH  12  15
ENDBRANCH  10  12
ENDBRANCH   9  10
ENDBRANCH   8   9
ENDBRANCH   6   8
ENDBRANCH   3   6
ENDBRANCH   2   3
TORSDOF 9
ENDMDL
MODEL       11
REMARK 921   NORMALIZED FREE ENERGY PREDICTED BY IDOCK:   -3.76 KCAL/MOL
REMARK 922        TOTAL FREE ENERGY PREDICTED BY IDOCK:   -6.26 KCAL/MOL
REMARK 923 INTER-LIGAND FREE ENERGY PREDICTED BY IDOCK:   -5.76 KCAL/MOL
REMARK 924 INTRA-LIGAND FREE ENERGY PREDICTED BY IDOCK:   -0.49 KCAL/MOL
REMARK 927      BINDING AFFINITY PREDICTED BY RF-SCORE:    0.00 PKD
ROOT
HETATM    1  C   UNL     1      -7.017  19.962  68.165  1.00  0.00    -0.331 C  
HETATM    2  C   UNL     1      -8.139  19.120  68.767  1.00  0.00    -0.349 C  
ENDROOT
BRANCH   2   3
HETATM    3  N   UNL     1      -9.165  18.720  67.780  1.00  0.00    -0.286 N  
BRANCH   3   4
HETATM    4  C   UNL     1     -10.158  19.728  67.341  1.00  0.00    -0.422 C  
HETATM    5  C   UNL     1     -10.538  19.782  65.864  1.00  0.00    -0.557 C  
ENDBRANCH   3   4
BRANCH   3   6
HETATM    6  C   UNL     1      -9.231  17.373  67.316  1.00  0.00    -0.234 C  
HETATM    7  S   UNL     1      -7.981  16.573  66.497  1.00  0.00    -0.314 S  
BRANCH   6   8
HETATM    8  S   UNL     1     -10.701  16.449  67.754  1.00  0.00    -0.307 SA 
BRANCH   8   9
HETATM    9  S   UNL     1     -10.913  15.095  66.203  1.00  0.00    -0.309 SA 
BRANCH   9  10
HETATM   10  C   UNL     1     -11.416  13.554  66.931  1.00  0.00    -0.344 C  
HETATM   11  S   UNL     1     -11.784  13.321  68.555  1.00  0.00    -0.367 S  
BRANCH  10  12
HETATM   12  N   UNL     1     -11.615  12.563  65.959  1.00  0.00    -0.384 N  
BRANCH  12  13
HETATM   13  C   UNL     1     -12.659  12.714  64.934  1.00  0.00    -0.450 C  
HETATM   14  C   UNL     1     -12.176  12.557  63.500  1.00  0.00    -0.652 C  
ENDBRANCH  12  13
BRANCH  12  15
HETATM   15  C   UNL     1     -10.893  11.284  66.050  1.00  0.00    -0.213 C  
HETATM   16  C   UNL     1      -9.407  11.386  65.748  1.00  0.00    -0.247 C  
ENDBRANCH  12  15
ENDBRANCH  10  12
ENDBRANCH   9  10
ENDBRANCH   8   9
ENDBRANCH   6   8
ENDBRANCH   3   6
ENDBRANCH   2   3
TORSDOF 9
ENDMDL
MODEL       12
REMARK 921   NORMALIZED FREE ENERGY PREDICTED BY IDOCK:   -3.76 KCAL/MOL
REMARK 922        TOTAL FREE ENERGY PREDICTED BY IDOCK:   -6.25 KCAL/MOL
REMARK 923 INTER-LIGAND FREE ENERGY PREDICTED BY IDOCK:   -5.75 KCAL/MOL
REMARK 924 INTRA-LIGAND FREE ENERGY PREDICTED BY IDOCK:   -0.49 KCAL/MOL
REMARK 927      BINDING AFFINITY PREDICTED BY RF-SCORE:    0.00 PKD
ROOT
HETATM    1  C   UNL     1     -12.656  11.737  63.382  1.00  0.00    -0.458 C  
HETATM    2  C   UNL     1     -11.270  12.336  63.603  1.00  0.00    -0.466 C  
ENDROOT
BRANCH   2   3
HETATM    3  N   UNL     1     -10.784  12.191  64.992  1.00  0.00    -0.286 N  
BRANCH   3   4
HETATM    4  C   UNL     1      -9.582  11.360  65.240  1.00  0.00    -0.228 C  
HETATM    5  C   UNL     1      -9.730   9.841  65.221  1.00  0.00    -0.371 C  
ENDBRANCH   3   4
BRANCH   3   6
HETATM    6  C   UNL     1     -11.501  12.786  66.072  1.00  0.00    -0.350 C  
HETATM    7  S   UNL     1     -11.505  12.202  67.664  1.00  0.00    -0.337 S  
BRANCH   6   8
HETATM    8  S   UNL     1     -12.344  14.326  65.720  1.00  0.00    -0.368 SA 
BRANCH   8   9
HETATM    9  S   UNL     1     -10.824  15.592  65.110  1.00  0.00    -0.437 SA 
BRANCH   9  10
HETATM   10  C   UNL     1      -9.770  15.846  66.519  1.00  0.00    -0.266 C  
HETATM   11  S   UNL     1      -8.487  14.854  66.964  1.00  0.00    -0.218 S  
BRANCH  10  12
HETATM   12  N   UNL     1     -10.040  17.067  67.153  1.00  0.00    -0.285 N  
BRANCH  12  13
HETATM   13  C   UNL     1      -9.738  18.343  66.487  1.00  0.00    -0.348 C  
HETATM   14  C   UNL     1     -10.614  19.511  66.913  1.00  0.00    -0.602 C  
ENDBRANCH  12  13
BRANCH  12  15
HETATM   15  C   UNL     1     -10.476  17.088  68.558  1.00  0.00    -0.373 C  
HETATM   16  C   UNL     1     -11.489  16.012  68.911  1.00  0.00    -0.362 C  
ENDBRANCH  12  15
ENDBRANCH  10  12
ENDBRANCH   9  10
ENDBRANCH   8   9
ENDBRANCH   6   8
ENDBRANCH   3   6
ENDBRANCH   2   3
TORSDOF 9
ENDMDL
MODEL       13
REMARK 921   NORMALIZED FREE ENERGY PREDICTED BY IDOCK:   -3.73 KCAL/MOL
REMARK 922        TOTAL FREE ENERGY PREDICTED BY IDOCK:   -6.21 KCAL/MOL
REMARK 923 INTER-LIGAND FREE ENERGY PREDICTED BY IDOCK:   -5.83 KCAL/MOL
REMARK 924 INTRA-LIGAND FREE ENERGY PREDICTED BY IDOCK:   -0.38 KCAL/MOL
REMARK 927      BINDING AFFINITY PREDICTED BY RF-SCORE:    0.00 PKD
ROOT
HETATM    1  C   UNL     1     -14.406   7.947  71.597  1.00  0.00    -0.595 C  
HETATM    2  C   UNL     1     -13.600   8.944  72.426  1.00  0.00    -0.447 C  
ENDROOT
BRANCH   2   3
HETATM    3  N   UNL     1     -12.375   9.416  71.745  1.00  0.00    -0.374 N  
BRANCH   3   4
HETATM    4  C   UNL     1     -11.138   8.608  71.870  1.00  0.00    -0.346 C  
HETATM    5  C   UNL     1     -11.050   7.581  72.996  1.00  0.00    -0.413 C  
ENDBRANCH   3   4
BRANCH   3   6
HETATM    6  C   UNL     1     -12.373  10.656  71.041  1.00  0.00    -0.403 C  
HETATM    7  S   UNL     1     -12.981  12.115  71.656  1.00  0.00    -0.215 S  
BRANCH   6   8
HETATM    8  S   UNL     1     -11.552  10.671  69.450  1.00  0.00    -0.271 SA 
BRANCH   8   9
HETATM    9  S   UNL     1     -11.763  12.626  68.804  1.00  0.00    -0.319 SA 
BRANCH   9  10
HETATM   10  C   UNL     1     -11.299  12.652  67.088  1.00  0.00    -0.319 C  
HETATM   11  S   UNL     1     -10.599  11.374  66.251  1.00  0.00    -0.264 S  
BRANCH  10  12
HETATM   12  N   UNL     1     -11.720  13.832  66.457  1.00  0.00    -0.364 N  
BRANCH  12  13
HETATM   13  C   UNL     1     -12.725  13.793  65.385  1.00  0.00    -0.472 C  
HETATM   14  C   UNL     1     -12.165  13.926  63.977  1.00  0.00    -0.413 C  
ENDBRANCH  12  13
BRANCH  12  15
HETATM   15  C   UNL     1     -11.041  15.105  66.746  1.00  0.00    -0.307 C  
HETATM   16  C   UNL     1      -9.568  15.123  66.375  1.00  0.00    -0.309 C  
ENDBRANCH  12  15
ENDBRANCH  10  12
ENDBRANCH   9  10
ENDBRANCH   8   9
ENDBRANCH   6   8
ENDBRANCH   3   6
ENDBRANCH   2   3
TORSDOF 9
ENDMDL
MODEL       14
REMARK 921   NORMALIZED FREE ENERGY PREDICTED BY IDOCK:   -3.73 KCAL/MOL
REMARK 922        TOTAL FREE ENERGY PREDICTED BY IDOCK:   -6.20 KCAL/MOL
REMARK 923 INTER-LIGAND FREE ENERGY PREDICTED BY IDOCK:   -5.67 KCAL/MOL
REMARK 924 INTRA-LIGAND FREE ENERGY PREDICTED BY IDOCK:   -0.53 KCAL/MOL
REMARK 927      BINDING AFFINITY PREDICTED BY RF-SCORE:    0.00 PKD
ROOT
HETATM    1  C   UNL     1     -10.618  19.717  66.952  1.00  0.00    -0.603 C  
HETATM    2  C   UNL     1     -10.392  18.691  68.060  1.00  0.00    -0.377 C  
ENDROOT
BRANCH   2   3
HETATM    3  N   UNL     1      -9.104  17.974  67.940  1.00  0.00    -0.263 N  
BRANCH   3   4
HETATM    4  C   UNL     1      -7.861  18.769  67.793  1.00  0.00    -0.242 C  
HETATM    5  C   UNL     1      -7.263  19.423  69.036  1.00  0.00    -0.397 C  
ENDBRANCH   3   4
BRANCH   3   6
HETATM    6  C   UNL     1      -9.073  16.550  67.901  1.00  0.00    -0.206 C  
HETATM    7  S   UNL     1      -9.338  15.542  69.239  1.00  0.00    -0.273 S  
BRANCH   6   8
HETATM    8  S   UNL     1      -8.862  15.799  66.288  1.00  0.00    -0.311 SA 
BRANCH   8   9
HETATM    9  S   UNL     1     -10.768  15.169  65.785  1.00  0.00    -0.370 SA 
BRANCH   9  10
HETATM   10  C   UNL     1     -10.887  13.461  66.263  1.00  0.00    -0.289 C  
HETATM   11  S   UNL     1     -11.713  12.885  67.610  1.00  0.00    -0.359 S  
BRANCH  10  12
HETATM   12  N   UNL     1     -10.327  12.613  65.297  1.00  0.00    -0.286 N  
BRANCH  12  13
HETATM   13  C   UNL     1     -10.744  12.697  63.890  1.00  0.00    -0.431 C  
HETATM   14  C   UNL     1     -12.217  12.407  63.641  1.00  0.00    -0.653 C  
ENDBRANCH  12  13
BRANCH  12  15
HETATM   15  C   UNL     1      -9.434  11.517  65.707  1.00  0.00    -0.234 C  
HETATM   16  C   UNL     1      -9.937  10.133  65.333  1.00  0.00    -0.377 C  
ENDBRANCH  12  15
ENDBRANCH  10  12
ENDBRANCH   9  10
ENDBRANCH   8   9
ENDBRANCH   6   8
ENDBRANCH   3   6
ENDBRANCH   2   3
TORSDOF 9
ENDMDL
MODEL       15
REMARK 921   NORMALIZED FREE ENERGY PREDICTED BY IDOCK:   -3.73 KCAL/MOL
REMARK 922        TOTAL FREE ENERGY PREDICTED BY IDOCK:   -6.20 KCAL/MOL
REMARK 923 INTER-LIGAND FREE ENERGY PREDICTED BY IDOCK:   -5.72 KCAL/MOL
REMARK 924 INTRA-LIGAND FREE ENERGY PREDICTED BY IDOCK:   -0.48 KCAL/MOL
REMARK 927      BINDING AFFINITY PREDICTED BY RF-SCORE:    0.00 PKD
ROOT
HETATM    1  C   UNL     1     -12.301  12.221  63.420  1.00  0.00    -0.624 C  
HETATM    2  C   UNL     1     -10.851  12.469  63.829  1.00  0.00    -0.446 C  
ENDROOT
BRANCH   2   3
HETATM    3  N   UNL     1     -10.708  12.919  65.231  1.00  0.00    -0.289 N  
BRANCH   3   4
HETATM    4  C   UNL     1     -11.022  11.963  66.318  1.00  0.00    -0.302 C  
HETATM    5  C   UNL     1     -11.939  12.422  67.449  1.00  0.00    -0.246 C  
ENDBRANCH   3   4
BRANCH   3   6
HETATM    6  C   UNL     1     -10.339  14.265  65.521  1.00  0.00    -0.355 C  
HETATM    7  S   UNL     1     -11.110  15.635  64.884  1.00  0.00    -0.345 S  
BRANCH   6   8
HETATM    8  S   UNL     1      -9.051  14.495  66.744  1.00  0.00    -0.247 SA 
BRANCH   8   9
HETATM    9  S   UNL     1      -8.367  16.415  66.386  1.00  0.00    -0.331 SA 
BRANCH   9  10
HETATM   10  C   UNL     1      -9.255  17.491  67.487  1.00  0.00    -0.242 C  
HETATM   11  S   UNL     1     -10.438  17.003  68.579  1.00  0.00    -0.386 S  
BRANCH  10  12
HETATM   12  N   UNL     1      -8.753  18.800  67.449  1.00  0.00    -0.272 N  
BRANCH  12  13
HETATM   13  C   UNL     1      -8.102  19.390  68.628  1.00  0.00    -0.366 C  
HETATM   14  C   UNL     1      -6.672  18.928  68.867  1.00  0.00    -0.312 C  
ENDBRANCH  12  13
BRANCH  12  15
HETATM   15  C   UNL     1      -9.018  19.657  66.283  1.00  0.00    -0.375 C  
HETATM   16  C   UNL     1     -10.480  19.718  65.875  1.00  0.00    -0.587 C  
ENDBRANCH  12  15
ENDBRANCH  10  12
ENDBRANCH   9  10
ENDBRANCH   8   9
ENDBRANCH   6   8
ENDBRANCH   3   6
ENDBRANCH   2   3
TORSDOF 9
ENDMDL
MODEL       16
REMARK 921   NORMALIZED FREE ENERGY PREDICTED BY IDOCK:   -3.72 KCAL/MOL
REMARK 922        TOTAL FREE ENERGY PREDICTED BY IDOCK:   -6.19 KCAL/MOL
REMARK 923 INTER-LIGAND FREE ENERGY PREDICTED BY IDOCK:   -5.64 KCAL/MOL
REMARK 924 INTRA-LIGAND FREE ENERGY PREDICTED BY IDOCK:   -0.55 KCAL/MOL
REMARK 927      BINDING AFFINITY PREDICTED BY RF-SCORE:    0.00 PKD
ROOT
HETATM    1  C   UNL     1      -9.975   9.714  65.776  1.00  0.00    -0.342 C  
HETATM    2  C   UNL     1      -9.201  11.007  65.533  1.00  0.00    -0.213 C  
ENDROOT
BRANCH   2   3
HETATM    3  N   UNL     1     -10.072  12.163  65.227  1.00  0.00    -0.264 N  
BRANCH   3   4
HETATM    4  C   UNL     1     -10.492  12.381  63.822  1.00  0.00    -0.443 C  
HETATM    5  C   UNL     1     -11.984  12.363  63.497  1.00  0.00    -0.627 C  
ENDBRANCH   3   4
BRANCH   3   6
HETATM    6  C   UNL     1     -10.440  13.080  66.255  1.00  0.00    -0.276 C  
HETATM    7  S   UNL     1     -11.864  12.981  67.170  1.00  0.00    -0.345 S  
BRANCH   6   8
HETATM    8  S   UNL     1      -9.237  14.339  66.671  1.00  0.00    -0.226 SA 
BRANCH   8   9
HETATM    9  S   UNL     1     -10.247  16.115  66.342  1.00  0.00    -0.319 SA 
BRANCH   9  10
HETATM   10  C   UNL     1     -10.340  16.951  67.908  1.00  0.00    -0.332 C  
HETATM   11  S   UNL     1     -10.806  16.244  69.360  1.00  0.00    -0.343 S  
BRANCH  10  12
HETATM   12  N   UNL     1      -9.835  18.257  67.828  1.00  0.00    -0.306 N  
BRANCH  12  13
HETATM   13  C   UNL     1      -8.621  18.640  68.565  1.00  0.00    -0.340 C  
HETATM   14  C   UNL     1      -7.355  17.918  68.130  1.00  0.00    -0.241 C  
ENDBRANCH  12  13
BRANCH  12  15
HETATM   15  C   UNL     1     -10.605  19.304  67.138  1.00  0.00    -0.472 C  
HETATM   16  C   UNL     1      -9.806  20.087  66.110  1.00  0.00    -0.553 C  
ENDBRANCH  12  15
ENDBRANCH  10  12
ENDBRANCH   9  10
ENDBRANCH   8   9
ENDBRANCH   6   8
ENDBRANCH   3   6
ENDBRANCH   2   3
TORSDOF 9
ENDMDL
MODEL       17
REMARK 921   NORMALIZED FREE ENERGY PREDICTED BY IDOCK:   -3.72 KCAL/MOL
REMARK 922        TOTAL FREE ENERGY PREDICTED BY IDOCK:   -6.19 KCAL/MOL
REMARK 923 INTER-LIGAND FREE ENERGY PREDICTED BY IDOCK:   -5.65 KCAL/MOL
REMARK 924 INTRA-LIGAND FREE ENERGY PREDICTED BY IDOCK:   -0.54 KCAL/MOL
REMARK 927      BINDING AFFINITY PREDICTED BY RF-SCORE:    0.00 PKD
ROOT
HETATM    1  C   UNL     1     -12.037  11.990  63.572  1.00  0.00    -0.628 C  
HETATM    2  C   UNL     1     -12.513  12.638  64.869  1.00  0.00    -0.494 C  
ENDROOT
BRANCH   2   3
HETATM    3  N   UNL     1     -11.406  13.012  65.777  1.00  0.00    -0.294 N  
BRANCH   3   4
HETATM    4  C   UNL     1     -11.076  12.107  66.903  1.00  0.00    -0.297 C  
HETATM    5  C   UNL     1     -11.690  12.393  68.271  1.00  0.00    -0.398 C  
ENDBRANCH   3   4
BRANCH   3   6
HETATM    6  C   UNL     1     -10.721  14.251  65.605  1.00  0.00    -0.316 C  
HETATM    7  S   UNL     1     -11.326  15.575  64.737  1.00  0.00    -0.284 S  
BRANCH   6   8
HETATM    8  S   UNL     1      -9.172  14.435  66.484  1.00  0.00    -0.205 SA 
BRANCH   8   9
HETATM    9  S   UNL     1      -8.758  16.458  66.335  1.00  0.00    -0.342 SA 
BRANCH   9  10
HETATM   10  C   UNL     1      -8.573  17.068  67.994  1.00  0.00    -0.217 C  
HETATM   11  S   UNL     1      -7.132  17.108  68.860  1.00  0.00    -0.240 S  
BRANCH  10  12
HETATM   12  N   UNL     1      -9.757  17.656  68.464  1.00  0.00    -0.313 N  
BRANCH  12  13
HETATM   13  C   UNL     1      -9.821  19.100  68.736  1.00  0.00    -0.439 C  
HETATM   14  C   UNL     1     -10.286  19.952  67.565  1.00  0.00    -0.562 C  
ENDBRANCH  12  13
BRANCH  12  15
HETATM   15  C   UNL     1     -10.899  16.812  68.847  1.00  0.00    -0.301 C  
HETATM   16  C   UNL     1     -10.606  15.848  69.984  1.00  0.00    -0.320 C  
ENDBRANCH  12  15
ENDBRANCH  10  12
ENDBRANCH   9  10
ENDBRANCH   8   9
ENDBRANCH   6   8
ENDBRANCH   3   6
ENDBRANCH   2   3
TORSDOF 9
ENDMDL
MODEL       18
REMARK 921   NORMALIZED FREE ENERGY PREDICTED BY IDOCK:   -3.72 KCAL/MOL
REMARK 922        TOTAL FREE ENERGY PREDICTED BY IDOCK:   -6.19 KCAL/MOL
REMARK 923 INTER-LIGAND FREE ENERGY PREDICTED BY IDOCK:   -5.80 KCAL/MOL
REMARK 924 INTRA-LIGAND FREE ENERGY PREDICTED BY IDOCK:   -0.39 KCAL/MOL
REMARK 927      BINDING AFFINITY PREDICTED BY RF-SCORE:    0.00 PKD
ROOT
HETATM    1  C   UNL     1     -12.156  12.816  63.360  1.00  0.00    -0.619 C  
HETATM    2  C   UNL     1     -12.512  12.567  64.823  1.00  0.00    -0.457 C  
ENDROOT
BRANCH   2   3
HETATM    3  N   UNL     1     -11.356  12.147  65.644  1.00  0.00    -0.340 N  
BRANCH   3   4
HETATM    4  C   UNL     1     -10.096  11.777  64.957  1.00  0.00    -0.263 C  
HETATM    5  C   UNL     1      -9.893  10.321  64.542  1.00  0.00    -0.384 C  
ENDBRANCH   3   4
BRANCH   3   6
HETATM    6  C   UNL     1     -11.478  12.040  67.060  1.00  0.00    -0.338 C  
HETATM    7  S   UNL     1     -11.150  10.636  67.953  1.00  0.00    -0.309 S  
BRANCH   6   8
HETATM    8  S   UNL     1     -11.887  13.544  67.943  1.00  0.00    -0.346 SA 
BRANCH   8   9
HETATM    9  S   UNL     1     -10.689  14.979  67.054  1.00  0.00    -0.309 SA 
BRANCH   9  10
HETATM   10  C   UNL     1     -10.489  16.288  68.240  1.00  0.00    -0.284 C  
HETATM   11  S   UNL     1     -10.939  16.210  69.858  1.00  0.00    -0.363 S  
BRANCH  10  12
HETATM   12  N   UNL     1      -9.771  17.367  67.703  1.00  0.00    -0.264 N  
BRANCH  12  13
HETATM   13  C   UNL     1     -10.465  18.452  66.993  1.00  0.00    -0.399 C  
HETATM   14  C   UNL     1     -10.197  19.846  67.538  1.00  0.00    -0.562 C  
ENDBRANCH  12  13
BRANCH  12  15
HETATM   15  C   UNL     1      -8.300  17.345  67.700  1.00  0.00    -0.211 C  
HETATM   16  C   UNL     1      -7.682  17.281  66.313  1.00  0.00    -0.353 C  
ENDBRANCH  12  15
ENDBRANCH  10  12
ENDBRANCH   9  10
ENDBRANCH   8   9
ENDBRANCH   6   8
ENDBRANCH   3   6
ENDBRANCH   2   3
TORSDOF 9
ENDMDL
MODEL       19
REMARK 921   NORMALIZED FREE ENERGY PREDICTED BY IDOCK:   -3.71 KCAL/MOL
REMARK 922        TOTAL FREE ENERGY PREDICTED BY IDOCK:   -6.18 KCAL/MOL
REMARK 923 INTER-LIGAND FREE ENERGY PREDICTED BY IDOCK:   -5.59 KCAL/MOL
REMARK 924 INTRA-LIGAND FREE ENERGY PREDICTED BY IDOCK:   -0.59 KCAL/MOL
REMARK 927      BINDING AFFINITY PREDICTED BY RF-SCORE:    0.00 PKD
ROOT
HETATM    1  C   UNL     1     -11.953  13.101  63.908  1.00  0.00    -0.550 C  
HETATM    2  C   UNL     1     -12.513  14.022  64.990  1.00  0.00    -0.425 C  
ENDROOT
BRANCH   2   3
HETATM    3  N   UNL     1     -11.781  13.930  66.272  1.00  0.00    -0.365 N  
BRANCH   3   4
HETATM    4  C   UNL     1     -11.814  12.649  67.016  1.00  0.00    -0.345 C  
HETATM    5  C   UNL     1     -10.503  11.894  67.225  1.00  0.00    -0.248 C  
ENDBRANCH   3   4
BRANCH   3   6
HETATM    6  C   UNL     1     -11.118  15.073  66.807  1.00  0.00    -0.326 C  
HETATM    7  S   UNL     1     -11.177  15.549  68.433  1.00  0.00    -0.356 S  
BRANCH   6   8
HETATM    8  S   UNL     1     -10.053  15.977  65.685  1.00  0.00    -0.318 SA 
BRANCH   8   9
HETATM    9  S   UNL     1      -8.256  16.101  66.704  1.00  0.00    -0.300 SA 
BRANCH   9  10
HETATM   10  C   UNL     1      -7.623  17.739  66.430  1.00  0.00    -0.278 C  
HETATM   11  S   UNL     1      -6.269  18.116  65.507  1.00  0.00    -0.168 S  
BRANCH  10  12
HETATM   12  N   UNL     1      -8.475  18.719  66.962  1.00  0.00    -0.274 N  
BRANCH  12  13
HETATM   13  C   UNL     1      -9.093  19.730  66.091  1.00  0.00    -0.343 C  
HETATM   14  C   UNL     1     -10.614  19.704  66.060  1.00  0.00    -0.584 C  
ENDBRANCH  12  13
BRANCH  12  15
HETATM   15  C   UNL     1      -8.631  18.848  68.419  1.00  0.00    -0.346 C  
HETATM   16  C   UNL     1      -7.403  19.390  69.130  1.00  0.00    -0.364 C  
ENDBRANCH  12  15
ENDBRANCH  10  12
ENDBRANCH   9  10
ENDBRANCH   8   9
ENDBRANCH   6   8
ENDBRANCH   3   6
ENDBRANCH   2   3
TORSDOF 9
ENDMDL
MODEL       20
REMARK 921   NORMALIZED FREE ENERGY PREDICTED BY IDOCK:   -3.71 KCAL/MOL
REMARK 922        TOTAL FREE ENERGY PREDICTED BY IDOCK:   -6.18 KCAL/MOL
REMARK 923 INTER-LIGAND FREE ENERGY PREDICTED BY IDOCK:   -5.79 KCAL/MOL
REMARK 924 INTRA-LIGAND FREE ENERGY PREDICTED BY IDOCK:   -0.39 KCAL/MOL
REMARK 927      BINDING AFFINITY PREDICTED BY RF-SCORE:    0.00 PKD
ROOT
HETATM    1  C   UNL     1     -10.821   6.325  71.548  1.00  0.00    -0.303 C  
HETATM    2  C   UNL     1     -11.617   7.198  70.582  1.00  0.00    -0.314 C  
ENDROOT
BRANCH   2   3
HETATM    3  N   UNL     1     -11.771   8.594  71.047  1.00  0.00    -0.283 N  
BRANCH   3   4
HETATM    4  C   UNL     1     -12.809   8.892  72.063  1.00  0.00    -0.397 C  
HETATM    5  C   UNL     1     -14.222   8.361  71.838  1.00  0.00    -0.541 C  
ENDBRANCH   3   4
BRANCH   3   6
HETATM    6  C   UNL     1     -10.982   9.635  70.477  1.00  0.00    -0.313 C  
HETATM    7  S   UNL     1      -9.320   9.521  70.158  1.00  0.00    -0.254 S  
BRANCH   6   8
HETATM    8  S   UNL     1     -11.857  11.108  69.956  1.00  0.00    -0.389 SA 
BRANCH   8   9
HETATM    9  S   UNL     1     -11.386  11.277  67.947  1.00  0.00    -0.294 SA 
BRANCH   9  10
HETATM   10  C   UNL     1     -11.668  12.973  67.495  1.00  0.00    -0.370 C  
HETATM   11  S   UNL     1     -11.834  14.252  68.573  1.00  0.00    -0.330 S  
BRANCH  10  12
HETATM   12  N   UNL     1     -11.594  13.156  66.106  1.00  0.00    -0.338 N  
BRANCH  12  13
HETATM   13  C   UNL     1     -11.785  14.489  65.514  1.00  0.00    -0.343 C  
HETATM   14  C   UNL     1     -10.505  15.187  65.082  1.00  0.00    -0.437 C  
ENDBRANCH  12  13
BRANCH  12  15
HETATM   15  C   UNL     1     -11.487  11.993  65.213  1.00  0.00    -0.302 C  
HETATM   16  C   UNL     1     -12.126  12.195  63.849  1.00  0.00    -0.584 C  
ENDBRANCH  12  15
ENDBRANCH  10  12
ENDBRANCH   9  10
ENDBRANCH   8   9
ENDBRANCH   6   8
ENDBRANCH   3   6
ENDBRANCH   2   3
TORSDOF 9
ENDMDL
MODEL       21
REMARK 921   NORMALIZED FREE ENERGY PREDICTED BY IDOCK:   -3.70 KCAL/MOL
REMARK 922        TOTAL FREE ENERGY PREDICTED BY IDOCK:   -6.17 KCAL/MOL
REMARK 923 INTER-LIGAND FREE ENERGY PREDICTED BY IDOCK:   -5.69 KCAL/MOL
REMARK 924 INTRA-LIGAND FREE ENERGY PREDICTED BY IDOCK:   -0.48 KCAL/MOL
REMARK 927      BINDING AFFINITY PREDICTED BY RF-SCORE:    0.00 PKD
ROOT
HETATM    1  C   UNL     1     -10.657  19.871  65.724  1.00  0.00    -0.490 C  
HETATM    2  C   UNL     1     -10.587  19.593  67.223  1.00  0.00    -0.472 C  
ENDROOT
BRANCH   2   3
HETATM    3  N   UNL     1      -9.369  18.856  67.625  1.00  0.00    -0.293 N  
BRANCH   3   4
HETATM    4  C   UNL     1      -8.099  19.607  67.766  1.00  0.00    -0.301 C  
HETATM    5  C   UNL     1      -7.235  19.352  68.998  1.00  0.00    -0.397 C  
ENDBRANCH   3   4
BRANCH   3   6
HETATM    6  C   UNL     1      -9.409  17.442  67.806  1.00  0.00    -0.255 C  
HETATM    7  S   UNL     1     -10.312  16.649  69.002  1.00  0.00    -0.335 S  
BRANCH   6   8
HETATM    8  S   UNL     1      -8.537  16.456  66.592  1.00  0.00    -0.291 SA 
BRANCH   8   9
HETATM    9  S   UNL     1     -10.049  15.466  65.582  1.00  0.00    -0.385 SA 
BRANCH   9  10
HETATM   10  C   UNL     1     -10.157  13.838  66.287  1.00  0.00    -0.300 C  
HETATM   11  S   UNL     1      -8.848  12.882  66.730  1.00  0.00    -0.090 S  
BRANCH  10  12
HETATM   12  N   UNL     1     -11.485  13.486  66.572  1.00  0.00    -0.326 N  
BRANCH  12  13
HETATM   13  C   UNL     1     -12.515  13.528  65.523  1.00  0.00    -0.491 C  
HETATM   14  C   UNL     1     -12.457  12.383  64.524  1.00  0.00    -0.519 C  
ENDBRANCH  12  13
BRANCH  12  15
HETATM   15  C   UNL     1     -11.898  13.228  67.960  1.00  0.00    -0.355 C  
HETATM   16  C   UNL     1     -11.783  11.773  68.383  1.00  0.00    -0.389 C  
ENDBRANCH  12  15
ENDBRANCH  10  12
ENDBRANCH   9  10
ENDBRANCH   8   9
ENDBRANCH   6   8
ENDBRANCH   3   6
ENDBRANCH   2   3
TORSDOF 9
ENDMDL
MODEL       22
REMARK 921   NORMALIZED FREE ENERGY PREDICTED BY IDOCK:   -3.70 KCAL/MOL
REMARK 922        TOTAL FREE ENERGY PREDICTED BY IDOCK:   -6.16 KCAL/MOL
REMARK 923 INTER-LIGAND FREE ENERGY PREDICTED BY IDOCK:   -5.74 KCAL/MOL
REMARK 924 INTRA-LIGAND FREE ENERGY PREDICTED BY IDOCK:   -0.42 KCAL/MOL
REMARK 927      BINDING AFFINITY PREDICTED BY RF-SCORE:    0.00 PKD
ROOT
HETATM    1  C   UNL     1      -9.537  10.402  63.119  1.00  0.00    -0.346 C  
HETATM    2  C   UNL     1      -9.849  10.782  64.564  1.00  0.00    -0.310 C  
ENDROOT
BRANCH   2   3
HETATM    3  N   UNL     1     -10.504  12.102  64.693  1.00  0.00    -0.286 N  
BRANCH   3   4
HETATM    4  C   UNL     1     -11.384  12.568  63.594  1.00  0.00    -0.485 C  
HETATM    5  C   UNL     1     -12.773  11.949  63.461  1.00  0.00    -0.530 C  
ENDBRANCH   3   4
BRANCH   3   6
HETATM    6  C   UNL     1     -10.238  12.932  65.821  1.00  0.00    -0.288 C  
HETATM    7  S   UNL     1      -8.951  12.706  66.902  1.00  0.00    -0.194 S  
BRANCH   6   8
HETATM    8  S   UNL     1     -11.277  14.378  66.013  1.00  0.00    -0.338 SA 
BRANCH   8   9
HETATM    9  S   UNL     1      -9.931  15.949  66.069  1.00  0.00    -0.360 SA 
BRANCH   9  10
HETATM   10  C   UNL     1     -10.204  16.805  67.602  1.00  0.00    -0.289 C  
HETATM   11  S   UNL     1     -10.735  16.095  69.030  1.00  0.00    -0.311 S  
BRANCH  10  12
HETATM   12  N   UNL     1      -9.784  18.141  67.530  1.00  0.00    -0.296 N  
BRANCH  12  13
HETATM   13  C   UNL     1     -10.745  19.217  67.242  1.00  0.00    -0.488 C  
HETATM   14  C   UNL     1     -10.532  19.925  65.913  1.00  0.00    -0.567 C  
ENDBRANCH  12  13
BRANCH  12  15
HETATM   15  C   UNL     1      -8.350  18.467  67.580  1.00  0.00    -0.257 C  
HETATM   16  C   UNL     1      -7.950  19.338  68.759  1.00  0.00    -0.392 C  
ENDBRANCH  12  15
ENDBRANCH  10  12
ENDBRANCH   9  10
ENDBRANCH   8   9
ENDBRANCH   6   8
ENDBRANCH   3   6
ENDBRANCH   2   3
TORSDOF 9
ENDMDL
MODEL       23
REMARK 921   NORMALIZED FREE ENERGY PREDICTED BY IDOCK:   -3.68 KCAL/MOL
REMARK 922        TOTAL FREE ENERGY PREDICTED BY IDOCK:   -6.13 KCAL/MOL
REMARK 923 INTER-LIGAND FREE ENERGY PREDICTED BY IDOCK:   -5.89 KCAL/MOL
REMARK 924 INTRA-LIGAND FREE ENERGY PREDICTED BY IDOCK:   -0.24 KCAL/MOL
REMARK 927      BINDING AFFINITY PREDICTED BY RF-SCORE:    0.00 PKD
ROOT
HETATM    1  C   UNL     1     -12.415  12.025  63.453  1.00  0.00    -0.625 C  
HETATM    2  C   UNL     1     -10.973  12.451  63.716  1.00  0.00    -0.447 C  
ENDROOT
BRANCH   2   3
HETATM    3  N   UNL     1     -10.324  11.678  64.798  1.00  0.00    -0.267 N  
BRANCH   3   4
HETATM    4  C   UNL     1      -9.195  10.782  64.450  1.00  0.00    -0.221 C  
HETATM    5  C   UNL     1      -9.205  10.094  63.087  1.00  0.00    -0.316 C  
ENDBRANCH   3   4
BRANCH   3   6
HETATM    6  C   UNL     1     -10.820  11.749  66.132  1.00  0.00    -0.291 C  
HETATM    7  S   UNL     1     -10.901  10.436  67.202  1.00  0.00    -0.193 S  
BRANCH   6   8
HETATM    8  S   UNL     1     -11.265  13.376  66.734  1.00  0.00    -0.320 SA 
BRANCH   8   9
HETATM    9  S   UNL     1     -10.805  13.298  68.751  1.00  0.00    -0.219 SA 
BRANCH   9  10
HETATM   10  C   UNL     1     -11.461  14.778  69.485  1.00  0.00    -0.298 C  
HETATM   11  S   UNL     1     -11.225  16.338  68.903  1.00  0.00    -0.311 S  
BRANCH  10  12
HETATM   12  N   UNL     1     -12.333  14.488  70.544  1.00  0.00    -0.316 N  
BRANCH  12  13
HETATM   13  C   UNL     1     -12.933  15.568  71.341  1.00  0.00    -0.483 C  
HETATM   14  C   UNL     1     -12.054  16.102  72.461  1.00  0.00    -0.644 C  
ENDBRANCH  12  13
BRANCH  12  15
HETATM   15  C   UNL     1     -12.531  13.096  70.976  1.00  0.00    -0.318 C  
HETATM   16  C   UNL     1     -13.440  12.942  72.184  1.00  0.00    -0.619 C  
ENDBRANCH  12  15
ENDBRANCH  10  12
ENDBRANCH   9  10
ENDBRANCH   8   9
ENDBRANCH   6   8
ENDBRANCH   3   6
ENDBRANCH   2   3
TORSDOF 9
ENDMDL
MODEL       24
REMARK 921   NORMALIZED FREE ENERGY PREDICTED BY IDOCK:   -3.67 KCAL/MOL
REMARK 922        TOTAL FREE ENERGY PREDICTED BY IDOCK:   -6.12 KCAL/MOL
REMARK 923 INTER-LIGAND FREE ENERGY PREDICTED BY IDOCK:   -5.61 KCAL/MOL
REMARK 924 INTRA-LIGAND FREE ENERGY PREDICTED BY IDOCK:   -0.51 KCAL/MOL
REMARK 927      BINDING AFFINITY PREDICTED BY RF-SCORE:    0.00 PKD
ROOT
HETATM    1  C   UNL     1      -9.968  10.113  65.503  1.00  0.00    -0.363 C  
HETATM    2  C   UNL     1      -9.549  11.580  65.537  1.00  0.00    -0.227 C  
ENDROOT
BRANCH   2   3
HETATM    3  N   UNL     1     -10.557  12.490  64.949  1.00  0.00    -0.291 N  
BRANCH   3   4
HETATM    4  C   UNL     1     -11.094  12.179  63.603  1.00  0.00    -0.457 C  
HETATM    5  C   UNL     1     -12.604  12.020  63.440  1.00  0.00    -0.592 C  
ENDBRANCH   3   4
BRANCH   3   6
HETATM    6  C   UNL     1     -10.949  13.674  65.641  1.00  0.00    -0.290 C  
HETATM    7  S   UNL     1     -10.442  15.240  65.234  1.00  0.00    -0.414 S  
BRANCH   6   8
HETATM    8  S   UNL     1     -12.160  13.475  66.945  1.00  0.00    -0.331 SA 
BRANCH   8   9
HETATM    9  S   UNL     1     -11.043  12.820  68.559  1.00  0.00    -0.283 SA 
BRANCH   9  10
HETATM   10  C   UNL     1     -11.831  13.455  70.020  1.00  0.00    -0.294 C  
HETATM   11  S   UNL     1     -12.714  12.543  71.123  1.00  0.00    -0.140 S  
BRANCH  10  12
HETATM   12  N   UNL     1     -11.511  14.804  70.236  1.00  0.00    -0.264 N  
BRANCH  12  13
HETATM   13  C   UNL     1     -12.474  15.710  70.879  1.00  0.00    -0.445 C  
HETATM   14  C   UNL     1     -12.171  16.037  72.333  1.00  0.00    -0.603 C  
ENDBRANCH  12  13
BRANCH  12  15
HETATM   15  C   UNL     1     -10.274  15.367  69.674  1.00  0.00    -0.277 C  
HETATM   16  C   UNL     1     -10.429  16.770  69.112  1.00  0.00    -0.343 C  
ENDBRANCH  12  15
ENDBRANCH  10  12
ENDBRANCH   9  10
ENDBRANCH   8   9
ENDBRANCH   6   8
ENDBRANCH   3   6
ENDBRANCH   2   3
TORSDOF 9
ENDMDL
MODEL       25
REMARK 921   NORMALIZED FREE ENERGY PREDICTED BY IDOCK:   -3.67 KCAL/MOL
REMARK 922        TOTAL FREE ENERGY PREDICTED BY IDOCK:   -6.12 KCAL/MOL
REMARK 923 INTER-LIGAND FREE ENERGY PREDICTED BY IDOCK:   -5.56 KCAL/MOL
REMARK 924 INTRA-LIGAND FREE ENERGY PREDICTED BY IDOCK:   -0.56 KCAL/MOL
REMARK 927      BINDING AFFINITY PREDICTED BY RF-SCORE:    0.00 PKD
ROOT
HETATM    1  C   UNL     1      -9.929   8.723  71.946  1.00  0.00    -0.401 C  
HETATM    2  C   UNL     1     -10.553   9.477  70.775  1.00  0.00    -0.317 C  
ENDROOT
BRANCH   2   3
HETATM    3  N   UNL     1     -11.818  10.159  71.125  1.00  0.00    -0.371 N  
BRANCH   3   4
HETATM    4  C   UNL     1     -12.725   9.512  72.103  1.00  0.00    -0.362 C  
HETATM    5  C   UNL     1     -13.980   8.817  71.583  1.00  0.00    -0.450 C  
ENDBRANCH   3   4
BRANCH   3   6
HETATM    6  C   UNL     1     -12.181  11.378  70.483  1.00  0.00    -0.386 C  
HETATM    7  S   UNL     1     -12.675  12.785  71.291  1.00  0.00    -0.169 S  
BRANCH   6   8
HETATM    8  S   UNL     1     -11.970  11.438  68.705  1.00  0.00    -0.203 SA 
BRANCH   8   9
HETATM    9  S   UNL     1     -10.430  12.796  68.437  1.00  0.00    -0.239 SA 
BRANCH   9  10
HETATM   10  C   UNL     1     -11.170  14.302  67.850  1.00  0.00    -0.285 C  
HETATM   11  S   UNL     1     -11.577  15.622  68.808  1.00  0.00    -0.378 S  
BRANCH  10  12
HETATM   12  N   UNL     1     -11.249  14.327  66.450  1.00  0.00    -0.329 N  
BRANCH  12  13
HETATM   13  C   UNL     1     -12.526  14.072  65.765  1.00  0.00    -0.494 C  
HETATM   14  C   UNL     1     -12.526  12.865  64.839  1.00  0.00    -0.540 C  
ENDBRANCH  12  13
BRANCH  12  15
HETATM   15  C   UNL     1     -10.025  14.446  65.643  1.00  0.00    -0.337 C  
HETATM   16  C   UNL     1      -9.292  15.766  65.816  1.00  0.00    -0.298 C  
ENDBRANCH  12  15
ENDBRANCH  10  12
ENDBRANCH   9  10
ENDBRANCH   8   9
ENDBRANCH   6   8
ENDBRANCH   3   6
ENDBRANCH   2   3
TORSDOF 9
ENDMDL
MODEL       26
REMARK 921   NORMALIZED FREE ENERGY PREDICTED BY IDOCK:   -3.67 KCAL/MOL
REMARK 922        TOTAL FREE ENERGY PREDICTED BY IDOCK:   -6.12 KCAL/MOL
REMARK 923 INTER-LIGAND FREE ENERGY PREDICTED BY IDOCK:   -5.63 KCAL/MOL
REMARK 924 INTRA-LIGAND FREE ENERGY PREDICTED BY IDOCK:   -0.49 KCAL/MOL
REMARK 927      BINDING AFFINITY PREDICTED BY RF-SCORE:    0.00 PKD
ROOT
HETATM    1  C   UNL     1      -9.811   9.778  65.480  1.00  0.00    -0.378 C  
HETATM    2  C   UNL     1      -9.653  11.255  65.828  1.00  0.00    -0.227 C  
ENDROOT
BRANCH   2   3
HETATM    3  N   UNL     1     -10.916  11.893  66.260  1.00  0.00    -0.290 N  
BRANCH   3   4
HETATM    4  C   UNL     1     -11.417  11.620  67.628  1.00  0.00    -0.303 C  
HETATM    5  C   UNL     1     -10.413  11.582  68.777  1.00  0.00    -0.227 C  
ENDBRANCH   3   4
BRANCH   3   6
HETATM    6  C   UNL     1     -11.664  12.698  65.351  1.00  0.00    -0.387 C  
HETATM    7  S   UNL     1     -12.182  12.194  63.817  1.00  0.00    -0.533 S  
BRANCH   6   8
HETATM    8  S   UNL     1     -12.185  14.304  65.949  1.00  0.00    -0.377 SA 
BRANCH   8   9
HETATM    9  S   UNL     1     -10.409  15.328  66.228  1.00  0.00    -0.310 SA 
BRANCH   9  10
HETATM   10  C   UNL     1     -10.607  16.311  67.695  1.00  0.00    -0.311 C  
HETATM   11  S   UNL     1     -11.305  15.785  69.131  1.00  0.00    -0.373 S  
BRANCH  10  12
HETATM   12  N   UNL     1      -9.977  17.559  67.570  1.00  0.00    -0.304 N  
BRANCH  12  13
HETATM   13  C   UNL     1      -8.555  17.719  67.911  1.00  0.00    -0.250 C  
HETATM   14  C   UNL     1      -8.222  18.983  68.688  1.00  0.00    -0.399 C  
ENDBRANCH  12  13
BRANCH  12  15
HETATM   15  C   UNL     1     -10.769  18.757  67.255  1.00  0.00    -0.425 C  
HETATM   16  C   UNL     1     -10.532  19.310  65.860  1.00  0.00    -0.534 C  
ENDBRANCH  12  15
ENDBRANCH  10  12
ENDBRANCH   9  10
ENDBRANCH   8   9
ENDBRANCH   6   8
ENDBRANCH   3   6
ENDBRANCH   2   3
TORSDOF 9
ENDMDL
MODEL       27
REMARK 921   NORMALIZED FREE ENERGY PREDICTED BY IDOCK:   -3.66 KCAL/MOL
REMARK 922        TOTAL FREE ENERGY PREDICTED BY IDOCK:   -6.10 KCAL/MOL
REMARK 923 INTER-LIGAND FREE ENERGY PREDICTED BY IDOCK:   -5.64 KCAL/MOL
REMARK 924 INTRA-LIGAND FREE ENERGY PREDICTED BY IDOCK:   -0.47 KCAL/MOL
REMARK 927      BINDING AFFINITY PREDICTED BY RF-SCORE:    0.00 PKD
ROOT
HETATM    1  C   UNL     1     -12.448  12.241  63.518  1.00  0.00    -0.642 C  
HETATM    2  C   UNL     1     -10.972  12.542  63.769  1.00  0.00    -0.447 C  
ENDROOT
BRANCH   2   3
HETATM    3  N   UNL     1     -10.622  12.596  65.205  1.00  0.00    -0.291 N  
BRANCH   3   4
HETATM    4  C   UNL     1      -9.943  11.427  65.814  1.00  0.00    -0.230 C  
HETATM    5  C   UNL     1      -9.767  10.167  64.971  1.00  0.00    -0.384 C  
ENDBRANCH   3   4
BRANCH   3   6
HETATM    6  C   UNL     1     -10.993  13.723  65.995  1.00  0.00    -0.284 C  
HETATM    7  S   UNL     1     -11.838  13.635  67.463  1.00  0.00    -0.373 S  
BRANCH   6   8
HETATM    8  S   UNL     1     -10.401  15.319  65.439  1.00  0.00    -0.401 SA 
BRANCH   8   9
HETATM    9  S   UNL     1     -10.427  16.480  67.152  1.00  0.00    -0.272 SA 
BRANCH   9  10
HETATM   10  C   UNL     1      -9.613  18.007  66.749  1.00  0.00    -0.303 C  
HETATM   11  S   UNL     1     -10.376  19.397  66.189  1.00  0.00    -0.506 S  
BRANCH  10  12
HETATM   12  N   UNL     1      -8.253  17.974  67.092  1.00  0.00    -0.217 N  
BRANCH  12  13
HETATM   13  C   UNL     1      -7.234  17.632  66.089  1.00  0.00    -0.317 C  
HETATM   14  C   UNL     1      -6.628  18.822  65.360  1.00  0.00    -0.282 C  
ENDBRANCH  12  13
BRANCH  12  15
HETATM   15  C   UNL     1      -7.843  18.120  68.497  1.00  0.00    -0.297 C  
HETATM   16  C   UNL     1      -7.429  19.531  68.881  1.00  0.00    -0.392 C  
ENDBRANCH  12  15
ENDBRANCH  10  12
ENDBRANCH   9  10
ENDBRANCH   8   9
ENDBRANCH   6   8
ENDBRANCH   3   6
ENDBRANCH   2   3
TORSDOF 9
ENDMDL
MODEL       28
REMARK 921   NORMALIZED FREE ENERGY PREDICTED BY IDOCK:   -3.66 KCAL/MOL
REMARK 922        TOTAL FREE ENERGY PREDICTED BY IDOCK:   -6.10 KCAL/MOL
REMARK 923 INTER-LIGAND FREE ENERGY PREDICTED BY IDOCK:   -5.73 KCAL/MOL
REMARK 924 INTRA-LIGAND FREE ENERGY PREDICTED BY IDOCK:   -0.37 KCAL/MOL
REMARK 927      BINDING AFFINITY PREDICTED BY RF-SCORE:    0.00 PKD
ROOT
HETATM    1  C   UNL     1     -12.252  12.447  63.484  1.00  0.00    -0.661 C  
HETATM    2  C   UNL     1     -12.511  12.750  64.957  1.00  0.00    -0.506 C  
ENDROOT
BRANCH   2   3
HETATM    3  N   UNL     1     -11.273  12.970  65.736  1.00  0.00    -0.285 N  
BRANCH   3   4
HETATM    4  C   UNL     1     -10.516  14.228  65.527  1.00  0.00    -0.346 C  
HETATM    5  C   UNL     1     -10.774  15.398  66.472  1.00  0.00    -0.308 C  
ENDBRANCH   3   4
BRANCH   3   6
HETATM    6  C   UNL     1     -10.787  11.960  66.618  1.00  0.00    -0.276 C  
HETATM    7  S   UNL     1      -9.453  10.963  66.301  1.00  0.00    -0.202 S  
BRANCH   6   8
HETATM    8  S   UNL     1     -11.584  11.846  68.218  1.00  0.00    -0.330 SA 
BRANCH   8   9
HETATM    9  S   UNL     1     -10.589  10.292  69.155  1.00  0.00    -0.246 SA 
BRANCH   9  10
HETATM   10  C   UNL     1     -11.553   9.850  70.581  1.00  0.00    -0.335 C  
HETATM   11  S   UNL     1     -12.759  10.798  71.270  1.00  0.00    -0.457 S  
BRANCH  10  12
HETATM   12  N   UNL     1     -11.293   8.535  70.995  1.00  0.00    -0.265 N  
BRANCH  12  13
HETATM   13  C   UNL     1     -11.634   8.095  72.356  1.00  0.00    -0.399 C  
HETATM   14  C   UNL     1     -10.498   7.426  73.115  1.00  0.00    -0.406 C  
ENDBRANCH  12  13
BRANCH  12  15
HETATM   15  C   UNL     1     -10.526   7.628  70.128  1.00  0.00    -0.227 C  
HETATM   16  C   UNL     1     -11.301   6.405  69.667  1.00  0.00    -0.479 C  
ENDBRANCH  12  15
ENDBRANCH  10  12
ENDBRANCH   9  10
ENDBRANCH   8   9
ENDBRANCH   6   8
ENDBRANCH   3   6
ENDBRANCH   2   3
TORSDOF 9
ENDMDL
MODEL       29
REMARK 921   NORMALIZED FREE ENERGY PREDICTED BY IDOCK:   -3.65 KCAL/MOL
REMARK 922        TOTAL FREE ENERGY PREDICTED BY IDOCK:   -6.09 KCAL/MOL
REMARK 923 INTER-LIGAND FREE ENERGY PREDICTED BY IDOCK:   -5.77 KCAL/MOL
REMARK 924 INTRA-LIGAND FREE ENERGY PREDICTED BY IDOCK:   -0.32 KCAL/MOL
REMARK 927      BINDING AFFINITY PREDICTED BY RF-SCORE:    0.00 PKD
ROOT
HETATM    1  C   UNL     1     -10.876   6.854  73.008  1.00  0.00    -0.328 C  
HETATM    2  C   UNL     1     -11.485   8.175  72.545  1.00  0.00    -0.404 C  
ENDROOT
BRANCH   2   3
HETATM    3  N   UNL     1     -11.183   8.496  71.133  1.00  0.00    -0.257 N  
BRANCH   3   4
HETATM    4  C   UNL     1     -10.476   7.485  70.312  1.00  0.00    -0.222 C  
HETATM    5  C   UNL     1     -11.307   6.464  69.539  1.00  0.00    -0.460 C  
ENDBRANCH   3   4
BRANCH   3   6
HETATM    6  C   UNL     1     -11.508   9.777  70.600  1.00  0.00    -0.324 C  
HETATM    7  S   UNL     1     -12.711  10.801  71.216  1.00  0.00    -0.457 S  
BRANCH   6   8
HETATM    8  S   UNL     1     -10.473  10.374  69.266  1.00  0.00    -0.249 SA 
BRANCH   8   9
HETATM    9  S   UNL     1     -11.643  11.805  68.335  1.00  0.00    -0.324 SA 
BRANCH   9  10
HETATM   10  C   UNL     1     -11.180  11.811  66.620  1.00  0.00    -0.323 C  
HETATM   11  S   UNL     1     -10.022  10.811  65.922  1.00  0.00    -0.262 S  
BRANCH  10  12
HETATM   12  N   UNL     1     -12.003  12.660  65.864  1.00  0.00    -0.443 N  
BRANCH  12  13
HETATM   13  C   UNL     1     -12.545  12.223  64.569  1.00  0.00    -0.327 C  
HETATM   14  C   UNL     1     -12.020  12.988  63.364  1.00  0.00    -0.592 C  
ENDBRANCH  12  13
BRANCH  12  15
HETATM   15  C   UNL     1     -12.200  14.057  66.280  1.00  0.00    -0.462 C  
HETATM   16  C   UNL     1     -10.925  14.882  66.311  1.00  0.00    -0.338 C  
ENDBRANCH  12  15
ENDBRANCH  10  12
ENDBRANCH   9  10
ENDBRANCH   8   9
ENDBRANCH   6   8
ENDBRANCH   3   6
ENDBRANCH   2   3
TORSDOF 9
ENDMDL
MODEL       30
REMARK 921   NORMALIZED FREE ENERGY PREDICTED BY IDOCK:   -3.65 KCAL/MOL
REMARK 922        TOTAL FREE ENERGY PREDICTED BY IDOCK:   -6.08 KCAL/MOL
REMARK 923 INTER-LIGAND FREE ENERGY PREDICTED BY IDOCK:   -5.66 KCAL/MOL
REMARK 924 INTRA-LIGAND FREE ENERGY PREDICTED BY IDOCK:   -0.43 KCAL/MOL
REMARK 927      BINDING AFFINITY PREDICTED BY RF-SCORE:    0.00 PKD
ROOT
HETATM    1  C   UNL     1     -11.136  12.099  63.562  1.00  0.00    -0.525 C  
HETATM    2  C   UNL     1     -10.574  12.040  64.980  1.00  0.00    -0.289 C  
ENDROOT
BRANCH   2   3
HETATM    3  N   UNL     1     -10.951  13.207  65.808  1.00  0.00    -0.276 N  
BRANCH   3   4
HETATM    4  C   UNL     1     -11.682  14.325  65.167  1.00  0.00    -0.368 C  
HETATM    5  C   UNL     1     -10.956  15.653  64.972  1.00  0.00    -0.445 C  
ENDBRANCH   3   4
BRANCH   3   6
HETATM    6  C   UNL     1     -10.557  13.276  67.177  1.00  0.00    -0.258 C  
HETATM    7  S   UNL     1      -8.966  13.516  67.712  1.00  0.00    -0.213 S  
BRANCH   6   8
HETATM    8  S   UNL     1     -11.874  13.230  68.390  1.00  0.00    -0.332 SA 
BRANCH   8   9
HETATM    9  S   UNL     1     -11.845  11.277  69.075  1.00  0.00    -0.336 SA 
BRANCH   9  10
HETATM   10  C   UNL     1     -12.348  11.323  70.779  1.00  0.00    -0.398 C  
HETATM   11  S   UNL     1     -12.907  12.685  71.591  1.00  0.00    -0.180 S  
BRANCH  10  12
HETATM   12  N   UNL     1     -12.365  10.041  71.348  1.00  0.00    -0.385 N  
BRANCH  12  13
HETATM   13  C   UNL     1     -11.403   9.015  70.918  1.00  0.00    -0.293 C  
HETATM   14  C   UNL     1     -10.252   8.773  71.881  1.00  0.00    -0.415 C  
ENDBRANCH  12  13
BRANCH  12  15
HETATM   15  C   UNL     1     -13.449   9.655  72.265  1.00  0.00    -0.400 C  
HETATM   16  C   UNL     1     -14.165   8.372  71.876  1.00  0.00    -0.541 C  
ENDBRANCH  12  15
ENDBRANCH  10  12
ENDBRANCH   9  10
ENDBRANCH   8   9
ENDBRANCH   6   8
ENDBRANCH   3   6
ENDBRANCH   2   3
TORSDOF 9
ENDMDL
MODEL       31
REMARK 921   NORMALIZED FREE ENERGY PREDICTED BY IDOCK:   -3.65 KCAL/MOL
REMARK 922        TOTAL FREE ENERGY PREDICTED BY IDOCK:   -6.08 KCAL/MOL
REMARK 923 INTER-LIGAND FREE ENERGY PREDICTED BY IDOCK:   -5.62 KCAL/MOL
REMARK 924 INTRA-LIGAND FREE ENERGY PREDICTED BY IDOCK:   -0.46 KCAL/MOL
REMARK 927      BINDING AFFINITY PREDICTED BY RF-SCORE:    0.00 PKD
ROOT
HETATM    1  C   UNL     1     -12.263  14.077  64.365  1.00  0.00    -0.457 C  
HETATM    2  C   UNL     1     -12.423  12.754  65.110  1.00  0.00    -0.501 C  
ENDROOT
BRANCH   2   3
HETATM    3  N   UNL     1     -11.202  12.339  65.834  1.00  0.00    -0.325 N  
BRANCH   3   4
HETATM    4  C   UNL     1     -10.027  11.893  65.046  1.00  0.00    -0.248 C  
HETATM    5  C   UNL     1     -10.242  10.869  63.935  1.00  0.00    -0.418 C  
ENDBRANCH   3   4
BRANCH   3   6
HETATM    6  C   UNL     1     -11.184  12.307  67.259  1.00  0.00    -0.300 C  
HETATM    7  S   UNL     1     -11.910  13.469  68.259  1.00  0.00    -0.352 S  
BRANCH   6   8
HETATM    8  S   UNL     1     -10.447  10.861  68.017  1.00  0.00    -0.206 SA 
BRANCH   8   9
HETATM    9  S   UNL     1     -11.514  10.627  69.775  1.00  0.00    -0.327 SA 
BRANCH   9  10
HETATM   10  C   UNL     1     -10.772   9.271  70.650  1.00  0.00    -0.269 C  
HETATM   11  S   UNL     1      -9.122   9.058  70.893  1.00  0.00    -0.254 S  
BRANCH  10  12
HETATM   12  N   UNL     1     -11.738   8.453  71.254  1.00  0.00    -0.280 N  
BRANCH  12  13
HETATM   13  C   UNL     1     -12.841   9.041  72.030  1.00  0.00    -0.401 C  
HETATM   14  C   UNL     1     -14.229   8.566  71.629  1.00  0.00    -0.496 C  
ENDBRANCH  12  13
BRANCH  12  15
HETATM   15  C   UNL     1     -11.570   6.992  71.257  1.00  0.00    -0.303 C  
HETATM   16  C   UNL     1     -11.529   6.368  69.872  1.00  0.00    -0.483 C  
ENDBRANCH  12  15
ENDBRANCH  10  12
ENDBRANCH   9  10
ENDBRANCH   8   9
ENDBRANCH   6   8
ENDBRANCH   3   6
ENDBRANCH   2   3
TORSDOF 9
ENDMDL
MODEL       32
REMARK 921   NORMALIZED FREE ENERGY PREDICTED BY IDOCK:   -3.65 KCAL/MOL
REMARK 922        TOTAL FREE ENERGY PREDICTED BY IDOCK:   -6.08 KCAL/MOL
REMARK 923 INTER-LIGAND FREE ENERGY PREDICTED BY IDOCK:   -5.73 KCAL/MOL
REMARK 924 INTRA-LIGAND FREE ENERGY PREDICTED BY IDOCK:   -0.35 KCAL/MOL
REMARK 927      BINDING AFFINITY PREDICTED BY RF-SCORE:    0.00 PKD
ROOT
HETATM    1  C   UNL     1     -10.571  19.246  65.841  1.00  0.00    -0.521 C  
HETATM    2  C   UNL     1     -10.703  18.964  67.335  1.00  0.00    -0.444 C  
ENDROOT
BRANCH   2   3
HETATM    3  N   UNL     1     -10.225  17.618  67.721  1.00  0.00    -0.337 N  
BRANCH   3   4
HETATM    4  C   UNL     1     -10.383  17.187  69.130  1.00  0.00    -0.297 C  
HETATM    5  C   UNL     1     -11.383  16.076  69.444  1.00  0.00    -0.355 C  
ENDBRANCH   3   4
BRANCH   3   6
HETATM    6  C   UNL     1      -9.566  16.787  66.769  1.00  0.00    -0.249 C  
HETATM    7  S   UNL     1      -7.922  16.894  66.369  1.00  0.00    -0.326 S  
BRANCH   6   8
HETATM    8  S   UNL     1     -10.539  15.464  66.054  1.00  0.00    -0.335 SA 
BRANCH   8   9
HETATM    9  S   UNL     1      -9.611  13.745  66.736  1.00  0.00    -0.286 SA 
BRANCH   9  10
HETATM   10  C   UNL     1     -10.862  12.486  66.826  1.00  0.00    -0.249 C  
HETATM   11  S   UNL     1     -11.691  12.036  68.218  1.00  0.00    -0.307 S  
BRANCH  10  12
HETATM   12  N   UNL     1     -11.194  11.995  65.554  1.00  0.00    -0.322 N  
BRANCH  12  13
HETATM   13  C   UNL     1     -10.264  11.124  64.820  1.00  0.00    -0.306 C  
HETATM   14  C   UNL     1      -9.948   9.803  65.505  1.00  0.00    -0.329 C  
ENDBRANCH  12  13
BRANCH  12  15
HETATM   15  C   UNL     1     -12.403  12.477  64.869  1.00  0.00    -0.470 C  
HETATM   16  C   UNL     1     -12.198  12.800  63.399  1.00  0.00    -0.594 C  
ENDBRANCH  12  15
ENDBRANCH  10  12
ENDBRANCH   9  10
ENDBRANCH   8   9
ENDBRANCH   6   8
ENDBRANCH   3   6
ENDBRANCH   2   3
TORSDOF 9
ENDMDL
MODEL       33
REMARK 921   NORMALIZED FREE ENERGY PREDICTED BY IDOCK:   -3.64 KCAL/MOL
REMARK 922        TOTAL FREE ENERGY PREDICTED BY IDOCK:   -6.07 KCAL/MOL
REMARK 923 INTER-LIGAND FREE ENERGY PREDICTED BY IDOCK:   -5.59 KCAL/MOL
REMARK 924 INTRA-LIGAND FREE ENERGY PREDICTED BY IDOCK:   -0.48 KCAL/MOL
REMARK 927      BINDING AFFINITY PREDICTED BY RF-SCORE:    0.00 PKD
ROOT
HETATM    1  C   UNL     1     -11.783  11.688  68.336  1.00  0.00    -0.374 C  
HETATM    2  C   UNL     1     -11.386  12.177  66.946  1.00  0.00    -0.343 C  
ENDROOT
BRANCH   2   3
HETATM    3  N   UNL     1     -11.688  13.608  66.721  1.00  0.00    -0.370 N  
BRANCH   3   4
HETATM    4  C   UNL     1     -12.694  13.967  65.693  1.00  0.00    -0.495 C  
HETATM    5  C   UNL     1     -12.205  14.525  64.359  1.00  0.00    -0.480 C  
ENDBRANCH   3   4
BRANCH   3   6
HETATM    6  C   UNL     1     -10.975  14.616  67.433  1.00  0.00    -0.308 C  
HETATM    7  S   UNL     1     -11.600  15.498  68.740  1.00  0.00    -0.376 S  
BRANCH   6   8
HETATM    8  S   UNL     1      -9.261  14.856  66.976  1.00  0.00    -0.247 SA 
BRANCH   8   9
HETATM    9  S   UNL     1      -8.498  16.016  68.511  1.00  0.00    -0.200 SA 
BRANCH   9  10
HETATM   10  C   UNL     1      -7.705  17.414  67.753  1.00  0.00    -0.195 C  
HETATM   11  S   UNL     1      -6.659  17.344  66.439  1.00  0.00    -0.257 S  
BRANCH  10  12
HETATM   12  N   UNL     1      -8.167  18.625  68.291  1.00  0.00    -0.313 N  
BRANCH  12  13
HETATM   13  C   UNL     1      -9.593  18.818  68.591  1.00  0.00    -0.387 C  
HETATM   14  C   UNL     1     -10.291  19.867  67.737  1.00  0.00    -0.548 C  
ENDBRANCH  12  13
BRANCH  12  15
HETATM   15  C   UNL     1      -7.256  19.775  68.407  1.00  0.00    -0.317 C  
HETATM   16  C   UNL     1      -6.489  19.830  69.717  1.00  0.00    -0.382 C  
ENDBRANCH  12  15
ENDBRANCH  10  12
ENDBRANCH   9  10
ENDBRANCH   8   9
ENDBRANCH   6   8
ENDBRANCH   3   6
ENDBRANCH   2   3
TORSDOF 9
ENDMDL
MODEL       34
REMARK 921   NORMALIZED FREE ENERGY PREDICTED BY IDOCK:   -3.63 KCAL/MOL
REMARK 922        TOTAL FREE ENERGY PREDICTED BY IDOCK:   -6.05 KCAL/MOL
REMARK 923 INTER-LIGAND FREE ENERGY PREDICTED BY IDOCK:   -5.54 KCAL/MOL
REMARK 924 INTRA-LIGAND FREE ENERGY PREDICTED BY IDOCK:   -0.51 KCAL/MOL
REMARK 927      BINDING AFFINITY PREDICTED BY RF-SCORE:    0.00 PKD
ROOT
HETATM    1  C   UNL     1     -13.786   9.150  71.909  1.00  0.00    -0.455 C  
HETATM    2  C   UNL     1     -12.732  10.156  71.458  1.00  0.00    -0.436 C  
ENDROOT
BRANCH   2   3
HETATM    3  N   UNL     1     -11.533   9.523  70.866  1.00  0.00    -0.307 N  
BRANCH   3   4
HETATM    4  C   UNL     1     -11.122   8.186  71.357  1.00  0.00    -0.247 C  
HETATM    5  C   UNL     1     -10.269   8.105  72.620  1.00  0.00    -0.388 C  
ENDBRANCH   3   4
BRANCH   3   6
HETATM    6  C   UNL     1     -10.758  10.218  69.892  1.00  0.00    -0.294 C  
HETATM    7  S   UNL     1      -9.117   9.924  69.577  1.00  0.00    -0.230 S  
BRANCH   6   8
HETATM    8  S   UNL     1     -11.635  11.388  68.858  1.00  0.00    -0.352 SA 
BRANCH   8   9
HETATM    9  S   UNL     1     -10.125  12.401  67.869  1.00  0.00    -0.214 SA 
BRANCH   9  10
HETATM   10  C   UNL     1     -10.150  11.842  66.182  1.00  0.00    -0.224 C  
HETATM   11  S   UNL     1      -9.705  10.306  65.661  1.00  0.00    -0.267 S  
BRANCH  10  12
HETATM   12  N   UNL     1     -10.729  12.794  65.330  1.00  0.00    -0.287 N  
BRANCH  12  13
HETATM   13  C   UNL     1     -11.283  14.045  65.868  1.00  0.00    -0.308 C  
HETATM   14  C   UNL     1     -10.659  15.314  65.308  1.00  0.00    -0.438 C  
ENDBRANCH  12  13
BRANCH  12  15
HETATM   15  C   UNL     1     -10.936  12.480  63.908  1.00  0.00    -0.424 C  
HETATM   16  C   UNL     1     -12.394  12.310  63.515  1.00  0.00    -0.670 C  
ENDBRANCH  12  15
ENDBRANCH  10  12
ENDBRANCH   9  10
ENDBRANCH   8   9
ENDBRANCH   6   8
ENDBRANCH   3   6
ENDBRANCH   2   3
TORSDOF 9
ENDMDL
MODEL       35
REMARK 921   NORMALIZED FREE ENERGY PREDICTED BY IDOCK:   -3.62 KCAL/MOL
REMARK 922        TOTAL FREE ENERGY PREDICTED BY IDOCK:   -6.04 KCAL/MOL
REMARK 923 INTER-LIGAND FREE ENERGY PREDICTED BY IDOCK:   -5.55 KCAL/MOL
REMARK 924 INTRA-LIGAND FREE ENERGY PREDICTED BY IDOCK:   -0.48 KCAL/MOL
REMARK 927      BINDING AFFINITY PREDICTED BY RF-SCORE:    0.00 PKD
ROOT
HETATM    1  C   UNL     1     -14.360   8.143  71.592  1.00  0.00    -0.570 C  
HETATM    2  C   UNL     1     -13.382   9.126  72.229  1.00  0.00    -0.477 C  
ENDROOT
BRANCH   2   3
HETATM    3  N   UNL     1     -11.964   8.797  71.964  1.00  0.00    -0.357 N  
BRANCH   3   4
HETATM    4  C   UNL     1     -11.340   7.688  72.724  1.00  0.00    -0.367 C  
HETATM    5  C   UNL     1     -11.388   6.282  72.132  1.00  0.00    -0.343 C  
ENDBRANCH   3   4
BRANCH   3   6
HETATM    6  C   UNL     1     -11.203   9.576  71.045  1.00  0.00    -0.362 C  
HETATM    7  S   UNL     1      -9.632   9.197  70.529  1.00  0.00    -0.262 S  
BRANCH   6   8
HETATM    8  S   UNL     1     -12.036  10.977  70.303  1.00  0.00    -0.391 SA 
BRANCH   8   9
HETATM    9  S   UNL     1     -11.381  10.958  68.340  1.00  0.00    -0.307 SA 
BRANCH   9  10
HETATM   10  C   UNL     1     -10.550  12.504  68.060  1.00  0.00    -0.223 C  
HETATM   11  S   UNL     1      -8.891  12.750  68.171  1.00  0.00    -0.181 S  
BRANCH  10  12
HETATM   12  N   UNL     1     -11.433  13.488  67.588  1.00  0.00    -0.300 N  
BRANCH  12  13
HETATM   13  C   UNL     1     -12.142  13.310  66.313  1.00  0.00    -0.414 C  
HETATM   14  C   UNL     1     -11.243  13.151  65.096  1.00  0.00    -0.317 C  
ENDBRANCH  12  13
BRANCH  12  15
HETATM   15  C   UNL     1     -11.534  14.782  68.280  1.00  0.00    -0.317 C  
HETATM   16  C   UNL     1     -11.873  14.672  69.757  1.00  0.00    -0.366 C  
ENDBRANCH  12  15
ENDBRANCH  10  12
ENDBRANCH   9  10
ENDBRANCH   8   9
ENDBRANCH   6   8
ENDBRANCH   3   6
ENDBRANCH   2   3
TORSDOF 9
ENDMDL
MODEL       36
REMARK 921   NORMALIZED FREE ENERGY PREDICTED BY IDOCK:   -3.62 KCAL/MOL
REMARK 922        TOTAL FREE ENERGY PREDICTED BY IDOCK:   -6.03 KCAL/MOL
REMARK 923 INTER-LIGAND FREE ENERGY PREDICTED BY IDOCK:   -5.58 KCAL/MOL
REMARK 924 INTRA-LIGAND FREE ENERGY PREDICTED BY IDOCK:   -0.46 KCAL/MOL
REMARK 927      BINDING AFFINITY PREDICTED BY RF-SCORE:    0.00 PKD
ROOT
HETATM    1  C   UNL     1     -12.995  10.270  71.149  1.00  0.00    -0.503 C  
HETATM    2  C   UNL     1     -11.550   9.813  71.328  1.00  0.00    -0.390 C  
ENDROOT
BRANCH   2   3
HETATM    3  N   UNL     1     -11.176   8.691  70.440  1.00  0.00    -0.245 N  
BRANCH   3   4
HETATM    4  C   UNL     1     -11.644   7.327  70.787  1.00  0.00    -0.302 C  
HETATM    5  C   UNL     1     -11.346   6.788  72.184  1.00  0.00    -0.307 C  
ENDBRANCH   3   4
BRANCH   3   6
HETATM    6  C   UNL     1     -10.330   8.912  69.315  1.00  0.00    -0.213 C  
HETATM    7  S   UNL     1      -9.765   7.695  68.278  1.00  0.00    -0.161 S  
BRANCH   6   8
HETATM    8  S   UNL     1      -9.956  10.619  68.920  1.00  0.00    -0.209 SA 
BRANCH   8   9
HETATM    9  S   UNL     1     -10.865  10.911  67.084  1.00  0.00    -0.268 SA 
BRANCH   9  10
HETATM   10  C   UNL     1     -11.496  12.572  67.081  1.00  0.00    -0.351 C  
HETATM   11  S   UNL     1     -11.822  13.490  68.452  1.00  0.00    -0.361 S  
BRANCH  10  12
HETATM   12  N   UNL     1     -11.559  13.100  65.783  1.00  0.00    -0.333 N  
BRANCH  12  13
HETATM   13  C   UNL     1     -12.620  12.683  64.854  1.00  0.00    -0.450 C  
HETATM   14  C   UNL     1     -12.127  12.132  63.525  1.00  0.00    -0.649 C  
ENDBRANCH  12  13
BRANCH  12  15
HETATM   15  C   UNL     1     -10.470  13.951  65.279  1.00  0.00    -0.371 C  
HETATM   16  C   UNL     1     -10.865  15.402  65.062  1.00  0.00    -0.462 C  
ENDBRANCH  12  15
ENDBRANCH  10  12
ENDBRANCH   9  10
ENDBRANCH   8   9
ENDBRANCH   6   8
ENDBRANCH   3   6
ENDBRANCH   2   3
TORSDOF 9
ENDMDL
MODEL       37
REMARK 921   NORMALIZED FREE ENERGY PREDICTED BY IDOCK:   -3.61 KCAL/MOL
REMARK 922        TOTAL FREE ENERGY PREDICTED BY IDOCK:   -6.03 KCAL/MOL
REMARK 923 INTER-LIGAND FREE ENERGY PREDICTED BY IDOCK:   -5.50 KCAL/MOL
REMARK 924 INTRA-LIGAND FREE ENERGY PREDICTED BY IDOCK:   -0.54 KCAL/MOL
REMARK 927      BINDING AFFINITY PREDICTED BY RF-SCORE:    0.00 PKD
ROOT
HETATM    1  C   UNL     1     -10.045  12.376  67.239  1.00  0.00    -0.214 C  
HETATM    2  C   UNL     1     -11.500  12.838  67.237  1.00  0.00    -0.337 C  
ENDROOT
BRANCH   2   3
HETATM    3  N   UNL     1     -11.714  14.095  66.488  1.00  0.00    -0.379 N  
BRANCH   3   4
HETATM    4  C   UNL     1     -12.528  14.052  65.250  1.00  0.00    -0.475 C  
HETATM    5  C   UNL     1     -12.005  13.250  64.061  1.00  0.00    -0.525 C  
ENDBRANCH   3   4
BRANCH   3   6
HETATM    6  C   UNL     1     -11.092  15.304  66.916  1.00  0.00    -0.288 C  
HETATM    7  S   UNL     1     -11.172  15.924  68.492  1.00  0.00    -0.372 S  
BRANCH   6   8
HETATM    8  S   UNL     1     -10.056  16.138  65.717  1.00  0.00    -0.347 SA 
BRANCH   8   9
HETATM    9  S   UNL     1      -8.565  16.998  66.866  1.00  0.00    -0.240 SA 
BRANCH   9  10
HETATM   10  C   UNL     1      -8.895  18.743  66.914  1.00  0.00    -0.294 C  
HETATM   11  S   UNL     1     -10.232  19.499  66.230  1.00  0.00    -0.522 S  
BRANCH  10  12
HETATM   12  N   UNL     1      -7.973  19.422  67.724  1.00  0.00    -0.278 N  
BRANCH  12  13
HETATM   13  C   UNL     1      -7.557  20.795  67.400  1.00  0.00    -0.300 C  
HETATM   14  C   UNL     1      -6.579  20.911  66.241  1.00  0.00    -0.263 C  
ENDBRANCH  12  13
BRANCH  12  15
HETATM   15  C   UNL     1      -7.285  18.712  68.813  1.00  0.00    -0.305 C  
HETATM   16  C   UNL     1      -6.448  19.609  69.709  1.00  0.00    -0.355 C  
ENDBRANCH  12  15
ENDBRANCH  10  12
ENDBRANCH   9  10
ENDBRANCH   8   9
ENDBRANCH   6   8
ENDBRANCH   3   6
ENDBRANCH   2   3
TORSDOF 9
ENDMDL
MODEL       38
REMARK 921   NORMALIZED FREE ENERGY PREDICTED BY IDOCK:   -3.61 KCAL/MOL
REMARK 922        TOTAL FREE ENERGY PREDICTED BY IDOCK:   -6.03 KCAL/MOL
REMARK 923 INTER-LIGAND FREE ENERGY PREDICTED BY IDOCK:   -5.54 KCAL/MOL
REMARK 924 INTRA-LIGAND FREE ENERGY PREDICTED BY IDOCK:   -0.49 KCAL/MOL
REMARK 927      BINDING AFFINITY PREDICTED BY RF-SCORE:    0.00 PKD
ROOT
HETATM    1  C   UNL     1      -9.298  10.219  63.308  1.00  0.00    -0.340 C  
HETATM    2  C   UNL     1     -10.035  10.471  64.620  1.00  0.00    -0.347 C  
ENDROOT
BRANCH   2   3
HETATM    3  N   UNL     1     -10.401  11.889  64.823  1.00  0.00    -0.270 N  
BRANCH   3   4
HETATM    4  C   UNL     1     -11.203  12.571  63.779  1.00  0.00    -0.462 C  
HETATM    5  C   UNL     1     -12.628  12.086  63.523  1.00  0.00    -0.625 C  
ENDBRANCH   3   4
BRANCH   3   6
HETATM    6  C   UNL     1      -9.933  12.598  65.968  1.00  0.00    -0.258 C  
HETATM    7  S   UNL     1      -9.026  11.910  67.224  1.00  0.00    -0.183 S  
BRANCH   6   8
HETATM    8  S   UNL     1     -10.232  14.364  65.992  1.00  0.00    -0.329 SA 
BRANCH   8   9
HETATM    9  S   UNL     1     -11.685  14.599  67.447  1.00  0.00    -0.351 SA 
BRANCH   9  10
HETATM   10  C   UNL     1     -10.835  14.939  68.971  1.00  0.00    -0.245 C  
HETATM   11  S   UNL     1      -9.215  15.368  69.105  1.00  0.00    -0.252 S  
BRANCH  10  12
HETATM   12  N   UNL     1     -11.716  14.951  70.063  1.00  0.00    -0.276 N  
BRANCH  12  13
HETATM   13  C   UNL     1     -11.612  15.987  71.101  1.00  0.00    -0.443 C  
HETATM   14  C   UNL     1     -11.810  15.490  72.524  1.00  0.00    -0.572 C  
ENDBRANCH  12  13
BRANCH  12  15
HETATM   15  C   UNL     1     -12.648  13.832  70.270  1.00  0.00    -0.222 C  
HETATM   16  C   UNL     1     -11.981  12.468  70.319  1.00  0.00    -0.364 C  
ENDBRANCH  12  15
ENDBRANCH  10  12
ENDBRANCH   9  10
ENDBRANCH   8   9
ENDBRANCH   6   8
ENDBRANCH   3   6
ENDBRANCH   2   3
TORSDOF 9
ENDMDL
MODEL       39
REMARK 921   NORMALIZED FREE ENERGY PREDICTED BY IDOCK:   -3.61 KCAL/MOL
REMARK 922        TOTAL FREE ENERGY PREDICTED BY IDOCK:   -6.03 KCAL/MOL
REMARK 923 INTER-LIGAND FREE ENERGY PREDICTED BY IDOCK:   -5.46 KCAL/MOL
REMARK 924 INTRA-LIGAND FREE ENERGY PREDICTED BY IDOCK:   -0.57 KCAL/MOL
REMARK 927      BINDING AFFINITY PREDICTED BY RF-SCORE:    0.00 PKD
ROOT
HETATM    1  C   UNL     1     -12.134  12.364  64.492  1.00  0.00    -0.492 C  
HETATM    2  C   UNL     1     -12.441  13.381  65.588  1.00  0.00    -0.464 C  
ENDROOT
BRANCH   2   3
HETATM    3  N   UNL     1     -11.484  13.335  66.715  1.00  0.00    -0.333 N  
BRANCH   3   4
HETATM    4  C   UNL     1     -11.958  12.833  68.027  1.00  0.00    -0.264 C  
HETATM    5  C   UNL     1     -11.821  11.343  68.330  1.00  0.00    -0.320 C  
ENDBRANCH   3   4
BRANCH   3   6
HETATM    6  C   UNL     1     -10.156  13.825  66.553  1.00  0.00    -0.286 C  
HETATM    7  S   UNL     1      -8.753  12.964  66.959  1.00  0.00    -0.163 S  
BRANCH   6   8
HETATM    8  S   UNL     1      -9.984  15.414  65.745  1.00  0.00    -0.374 SA 
BRANCH   8   9
HETATM    9  S   UNL     1      -8.527  16.378  66.855  1.00  0.00    -0.248 SA 
BRANCH   9  10
HETATM   10  C   UNL     1      -9.343  17.096  68.261  1.00  0.00    -0.265 C  
HETATM   11  S   UNL     1     -10.421  16.295  69.272  1.00  0.00    -0.306 S  
BRANCH  10  12
HETATM   12  N   UNL     1      -8.872  18.390  68.527  1.00  0.00    -0.318 N  
BRANCH  12  13
HETATM   13  C   UNL     1      -9.798  19.532  68.569  1.00  0.00    -0.429 C  
HETATM   14  C   UNL     1     -10.671  19.694  67.334  1.00  0.00    -0.563 C  
ENDBRANCH  12  13
BRANCH  12  15
HETATM   15  C   UNL     1      -7.426  18.648  68.604  1.00  0.00    -0.307 C  
HETATM   16  C   UNL     1      -7.024  20.060  68.213  1.00  0.00    -0.330 C  
ENDBRANCH  12  15
ENDBRANCH  10  12
ENDBRANCH   9  10
ENDBRANCH   8   9
ENDBRANCH   6   8
ENDBRANCH   3   6
ENDBRANCH   2   3
TORSDOF 9
ENDMDL
MODEL       40
REMARK 921   NORMALIZED FREE ENERGY PREDICTED BY IDOCK:   -3.60 KCAL/MOL
REMARK 922        TOTAL FREE ENERGY PREDICTED BY IDOCK:   -6.01 KCAL/MOL
REMARK 923 INTER-LIGAND FREE ENERGY PREDICTED BY IDOCK:   -5.48 KCAL/MOL
REMARK 924 INTRA-LIGAND FREE ENERGY PREDICTED BY IDOCK:   -0.53 KCAL/MOL
REMARK 927      BINDING AFFINITY PREDICTED BY RF-SCORE:    0.00 PKD
ROOT
HETATM    1  C   UNL     1     -10.887  19.519  67.170  1.00  0.00    -0.555 C  
HETATM    2  C   UNL     1     -10.079  19.452  68.463  1.00  0.00    -0.437 C  
ENDROOT
BRANCH   2   3
HETATM    3  N   UNL     1      -8.764  18.794  68.298  1.00  0.00    -0.322 N  
BRANCH   3   4
HETATM    4  C   UNL     1      -7.538  19.580  68.574  1.00  0.00    -0.343 C  
HETATM    5  C   UNL     1      -7.038  20.548  67.505  1.00  0.00    -0.370 C  
ENDBRANCH   3   4
BRANCH   3   6
HETATM    6  C   UNL     1      -8.684  17.453  67.819  1.00  0.00    -0.232 C  
HETATM    7  S   UNL     1      -7.788  16.965  66.465  1.00  0.00    -0.319 S  
BRANCH   6   8
HETATM    8  S   UNL     1      -9.494  16.201  68.810  1.00  0.00    -0.241 SA 
BRANCH   8   9
HETATM    9  S   UNL     1     -11.144  15.667  67.679  1.00  0.00    -0.269 SA 
BRANCH   9  10
HETATM   10  C   UNL     1     -11.037  13.914  67.410  1.00  0.00    -0.298 C  
HETATM   11  S   UNL     1     -11.559  12.732  68.486  1.00  0.00    -0.342 S  
BRANCH  10  12
HETATM   12  N   UNL     1     -10.590  13.616  66.114  1.00  0.00    -0.287 N  
BRANCH  12  13
HETATM   13  C   UNL     1      -9.745  12.439  65.863  1.00  0.00    -0.228 C  
HETATM   14  C   UNL     1     -10.305  11.454  64.848  1.00  0.00    -0.347 C  
ENDBRANCH  12  13
BRANCH  12  15
HETATM   15  C   UNL     1     -10.825  14.567  65.016  1.00  0.00    -0.412 C  
HETATM   16  C   UNL     1     -12.190  14.437  64.362  1.00  0.00    -0.481 C  
ENDBRANCH  12  15
ENDBRANCH  10  12
ENDBRANCH   9  10
ENDBRANCH   8   9
ENDBRANCH   6   8
ENDBRANCH   3   6
ENDBRANCH   2   3
TORSDOF 9
ENDMDL
MODEL       41
REMARK 921   NORMALIZED FREE ENERGY PREDICTED BY IDOCK:   -3.59 KCAL/MOL
REMARK 922        TOTAL FREE ENERGY PREDICTED BY IDOCK:   -6.00 KCAL/MOL
REMARK 923 INTER-LIGAND FREE ENERGY PREDICTED BY IDOCK:   -5.41 KCAL/MOL
REMARK 924 INTRA-LIGAND FREE ENERGY PREDICTED BY IDOCK:   -0.59 KCAL/MOL
REMARK 927      BINDING AFFINITY PREDICTED BY RF-SCORE:    0.00 PKD
ROOT
HETATM    1  C   UNL     1     -12.513  11.971  63.451  1.00  0.00    -0.625 C  
HETATM    2  C   UNL     1     -11.125  12.500  63.798  1.00  0.00    -0.448 C  
ENDROOT
BRANCH   2   3
HETATM    3  N   UNL     1     -10.708  12.185  65.182  1.00  0.00    -0.282 N  
BRANCH   3   4
HETATM    4  C   UNL     1      -9.508  11.339  65.387  1.00  0.00    -0.225 C  
HETATM    5  C   UNL     1      -9.614   9.844  65.101  1.00  0.00    -0.367 C  
ENDBRANCH   3   4
BRANCH   3   6
HETATM    6  C   UNL     1     -11.487  12.633  66.289  1.00  0.00    -0.364 C  
HETATM    7  S   UNL     1     -11.604  11.827  67.776  1.00  0.00    -0.276 S  
BRANCH   6   8
HETATM    8  S   UNL     1     -12.286  14.227  66.111  1.00  0.00    -0.365 SA 
BRANCH   8   9
HETATM    9  S   UNL     1     -10.708  15.565  66.054  1.00  0.00    -0.313 SA 
BRANCH   9  10
HETATM   10  C   UNL     1      -9.953  15.539  67.662  1.00  0.00    -0.233 C  
HETATM   11  S   UNL     1      -8.701  14.519  68.131  1.00  0.00    -0.179 S  
BRANCH  10  12
HETATM   12  N   UNL     1     -10.428  16.579  68.474  1.00  0.00    -0.282 N  
BRANCH  12  13
HETATM   13  C   UNL     1     -11.006  16.296  69.797  1.00  0.00    -0.354 C  
HETATM   14  C   UNL     1     -12.060  15.200  69.813  1.00  0.00    -0.354 C  
ENDBRANCH  12  13
BRANCH  12  15
HETATM   15  C   UNL     1     -10.506  17.950  67.946  1.00  0.00    -0.396 C  
HETATM   16  C   UNL     1      -9.242  18.768  68.152  1.00  0.00    -0.348 C  
ENDBRANCH  12  15
ENDBRANCH  10  12
ENDBRANCH   9  10
ENDBRANCH   8   9
ENDBRANCH   6   8
ENDBRANCH   3   6
ENDBRANCH   2   3
TORSDOF 9
ENDMDL
MODEL       42
REMARK 921   NORMALIZED FREE ENERGY PREDICTED BY IDOCK:   -3.59 KCAL/MOL
REMARK 922        TOTAL FREE ENERGY PREDICTED BY IDOCK:   -6.00 KCAL/MOL
REMARK 923 INTER-LIGAND FREE ENERGY PREDICTED BY IDOCK:   -5.45 KCAL/MOL
REMARK 924 INTRA-LIGAND FREE ENERGY PREDICTED BY IDOCK:   -0.55 KCAL/MOL
REMARK 927      BINDING AFFINITY PREDICTED BY RF-SCORE:    0.00 PKD
ROOT
HETATM    1  C   UNL     1     -14.359   8.486  71.763  1.00  0.00    -0.522 C  
HETATM    2  C   UNL     1     -13.168   9.402  72.031  1.00  0.00    -0.449 C  
ENDROOT
BRANCH   2   3
HETATM    3  N   UNL     1     -11.894   8.878  71.491  1.00  0.00    -0.309 N  
BRANCH   3   4
HETATM    4  C   UNL     1     -11.445   7.531  71.915  1.00  0.00    -0.270 C  
HETATM    5  C   UNL     1     -10.790   7.379  73.286  1.00  0.00    -0.417 C  
ENDBRANCH   3   4
BRANCH   3   6
HETATM    6  C   UNL     1     -11.088   9.685  70.635  1.00  0.00    -0.319 C  
HETATM    7  S   UNL     1      -9.468   9.365  70.253  1.00  0.00    -0.264 S  
BRANCH   6   8
HETATM    8  S   UNL     1     -11.908  11.054  69.822  1.00  0.00    -0.377 SA 
BRANCH   8   9
HETATM    9  S   UNL     1     -11.245  10.934  67.865  1.00  0.00    -0.315 SA 
BRANCH   9  10
HETATM   10  C   UNL     1     -10.247  12.375  67.572  1.00  0.00    -0.209 C  
HETATM   11  S   UNL     1      -8.655  12.573  68.075  1.00  0.00    -0.191 S  
BRANCH  10  12
HETATM   12  N   UNL     1     -10.897  13.293  66.734  1.00  0.00    -0.279 N  
BRANCH  12  13
HETATM   13  C   UNL     1     -12.023  14.097  67.232  1.00  0.00    -0.414 C  
HETATM   14  C   UNL     1     -11.648  15.162  68.252  1.00  0.00    -0.357 C  
ENDBRANCH  12  13
BRANCH  12  15
HETATM   15  C   UNL     1     -10.568  13.346  65.301  1.00  0.00    -0.325 C  
HETATM   16  C   UNL     1     -11.709  13.824  64.419  1.00  0.00    -0.436 C  
ENDBRANCH  12  15
ENDBRANCH  10  12
ENDBRANCH   9  10
ENDBRANCH   8   9
ENDBRANCH   6   8
ENDBRANCH   3   6
ENDBRANCH   2   3
TORSDOF 9
ENDMDL
MODEL       43
REMARK 921   NORMALIZED FREE ENERGY PREDICTED BY IDOCK:   -3.59 KCAL/MOL
REMARK 922        TOTAL FREE ENERGY PREDICTED BY IDOCK:   -6.00 KCAL/MOL
REMARK 923 INTER-LIGAND FREE ENERGY PREDICTED BY IDOCK:   -5.57 KCAL/MOL
REMARK 924 INTRA-LIGAND FREE ENERGY PREDICTED BY IDOCK:   -0.43 KCAL/MOL
REMARK 927      BINDING AFFINITY PREDICTED BY RF-SCORE:    0.00 PKD
ROOT
HETATM    1  C   UNL     1     -12.039  13.024  63.413  1.00  0.00    -0.591 C  
HETATM    2  C   UNL     1     -12.519  12.260  64.645  1.00  0.00    -0.341 C  
ENDROOT
BRANCH   2   3
HETATM    3  N   UNL     1     -12.002  12.814  65.915  1.00  0.00    -0.439 N  
BRANCH   3   4
HETATM    4  C   UNL     1     -12.219  14.252  66.202  1.00  0.00    -0.410 C  
HETATM    5  C   UNL     1     -11.008  15.119  66.538  1.00  0.00    -0.318 C  
ENDBRANCH   3   4
BRANCH   3   6
HETATM    6  C   UNL     1     -11.255  11.992  66.809  1.00  0.00    -0.322 C  
HETATM    7  S   UNL     1      -9.854  11.134  66.386  1.00  0.00    -0.219 S  
BRANCH   6   8
HETATM    8  S   UNL     1     -11.782  11.986  68.520  1.00  0.00    -0.321 SA 
BRANCH   8   9
HETATM    9  S   UNL     1     -10.516  10.620  69.422  1.00  0.00    -0.204 SA 
BRANCH   9  10
HETATM   10  C   UNL     1     -11.464   9.790  70.675  1.00  0.00    -0.324 C  
HETATM   11  S   UNL     1     -12.845  10.403  71.414  1.00  0.00    -0.486 S  
BRANCH  10  12
HETATM   12  N   UNL     1     -11.009   8.480  70.886  1.00  0.00    -0.243 N  
BRANCH  12  13
HETATM   13  C   UNL     1     -10.684   7.606  69.749  1.00  0.00    -0.240 C  
HETATM   14  C   UNL     1     -11.091   6.151  69.923  1.00  0.00    -0.481 C  
ENDBRANCH  12  13
BRANCH  12  15
HETATM   15  C   UNL     1     -11.008   7.909  72.241  1.00  0.00    -0.300 C  
HETATM   16  C   UNL     1      -9.729   8.161  73.021  1.00  0.00    -0.327 C  
ENDBRANCH  12  15
ENDBRANCH  10  12
ENDBRANCH   9  10
ENDBRANCH   8   9
ENDBRANCH   6   8
ENDBRANCH   3   6
ENDBRANCH   2   3
TORSDOF 9
ENDMDL
MODEL       44
REMARK 921   NORMALIZED FREE ENERGY PREDICTED BY IDOCK:   -3.58 KCAL/MOL
REMARK 922        TOTAL FREE ENERGY PREDICTED BY IDOCK:   -5.99 KCAL/MOL
REMARK 923 INTER-LIGAND FREE ENERGY PREDICTED BY IDOCK:   -5.69 KCAL/MOL
REMARK 924 INTRA-LIGAND FREE ENERGY PREDICTED BY IDOCK:   -0.30 KCAL/MOL
REMARK 927      BINDING AFFINITY PREDICTED BY RF-SCORE:    0.00 PKD
ROOT
HETATM    1  C   UNL     1     -14.240   7.553  71.641  1.00  0.00    -0.592 C  
HETATM    2  C   UNL     1     -12.865   7.016  71.255  1.00  0.00    -0.323 C  
ENDROOT
BRANCH   2   3
HETATM    3  N   UNL     1     -11.757   7.922  71.630  1.00  0.00    -0.271 N  
BRANCH   3   4
HETATM    4  C   UNL     1     -11.113   7.745  72.953  1.00  0.00    -0.398 C  
HETATM    5  C   UNL     1      -9.629   8.075  73.092  1.00  0.00    -0.344 C  
ENDBRANCH   3   4
BRANCH   3   6
HETATM    6  C   UNL     1     -11.367   8.982  70.760  1.00  0.00    -0.277 C  
HETATM    7  S   UNL     1     -10.241   8.832  69.501  1.00  0.00    -0.212 S  
BRANCH   6   8
HETATM    8  S   UNL     1     -12.237  10.536  70.954  1.00  0.00    -0.419 SA 
BRANCH   8   9
HETATM    9  S   UNL     1     -11.621  11.653  69.324  1.00  0.00    -0.348 SA 
BRANCH   9  10
HETATM   10  C   UNL     1     -12.024  13.347  69.680  1.00  0.00    -0.324 C  
HETATM   11  S   UNL     1     -12.511  13.935  71.178  1.00  0.00    -0.365 S  
BRANCH  10  12
HETATM   12  N   UNL     1     -11.749  14.185  68.589  1.00  0.00    -0.329 N  
BRANCH  12  13
HETATM   13  C   UNL     1     -11.362  13.620  67.288  1.00  0.00    -0.323 C  
HETATM   14  C   UNL     1     -12.366  13.846  66.168  1.00  0.00    -0.504 C  
ENDBRANCH  12  13
BRANCH  12  15
HETATM   15  C   UNL     1     -11.685  15.642  68.777  1.00  0.00    -0.370 C  
HETATM   16  C   UNL     1     -10.481  16.300  68.124  1.00  0.00    -0.289 C  
ENDBRANCH  12  15
ENDBRANCH  10  12
ENDBRANCH   9  10
ENDBRANCH   8   9
ENDBRANCH   6   8
ENDBRANCH   3   6
ENDBRANCH   2   3
TORSDOF 9
ENDMDL
MODEL       45
REMARK 921   NORMALIZED FREE ENERGY PREDICTED BY IDOCK:   -3.58 KCAL/MOL
REMARK 922        TOTAL FREE ENERGY PREDICTED BY IDOCK:   -5.98 KCAL/MOL
REMARK 923 INTER-LIGAND FREE ENERGY PREDICTED BY IDOCK:   -5.35 KCAL/MOL
REMARK 924 INTRA-LIGAND FREE ENERGY PREDICTED BY IDOCK:   -0.63 KCAL/MOL
REMARK 927      BINDING AFFINITY PREDICTED BY RF-SCORE:    0.00 PKD
ROOT
HETATM    1  C   UNL     1      -7.504  17.632  66.299  1.00  0.00    -0.340 C  
HETATM    2  C   UNL     1      -8.443  17.682  67.502  1.00  0.00    -0.219 C  
ENDROOT
BRANCH   2   3
HETATM    3  N   UNL     1      -9.873  17.601  67.132  1.00  0.00    -0.295 N  
BRANCH   3   4
HETATM    4  C   UNL     1     -10.647  18.860  67.013  1.00  0.00    -0.438 C  
HETATM    5  C   UNL     1      -9.945  20.179  67.326  1.00  0.00    -0.583 C  
ENDBRANCH   3   4
BRANCH   3   6
HETATM    6  C   UNL     1     -10.502  16.334  66.960  1.00  0.00    -0.306 C  
HETATM    7  S   UNL     1     -11.233  15.443  68.205  1.00  0.00    -0.333 S  
BRANCH   6   8
HETATM    8  S   UNL     1     -10.626  15.724  65.281  1.00  0.00    -0.400 SA 
BRANCH   8   9
HETATM    9  S   UNL     1     -12.123  14.298  65.383  1.00  0.00    -0.389 SA 
BRANCH   9  10
HETATM   10  C   UNL     1     -11.354  12.724  65.086  1.00  0.00    -0.311 C  
HETATM   11  S   UNL     1     -11.182  11.995  63.580  1.00  0.00    -0.460 S  
BRANCH  10  12
HETATM   12  N   UNL     1     -10.765  12.207  66.250  1.00  0.00    -0.252 N  
BRANCH  12  13
HETATM   13  C   UNL     1      -9.323  11.925  66.301  1.00  0.00    -0.227 C  
HETATM   14  C   UNL     1      -8.504  12.923  67.104  1.00  0.00    -0.179 C  
ENDBRANCH  12  13
BRANCH  12  15
HETATM   15  C   UNL     1     -11.610  11.787  67.379  1.00  0.00    -0.280 C  
HETATM   16  C   UNL     1     -11.229  10.442  67.974  1.00  0.00    -0.340 C  
ENDBRANCH  12  15
ENDBRANCH  10  12
ENDBRANCH   9  10
ENDBRANCH   8   9
ENDBRANCH   6   8
ENDBRANCH   3   6
ENDBRANCH   2   3
TORSDOF 9
ENDMDL
MODEL       46
REMARK 921   NORMALIZED FREE ENERGY PREDICTED BY IDOCK:   -3.58 KCAL/MOL
REMARK 922        TOTAL FREE ENERGY PREDICTED BY IDOCK:   -5.98 KCAL/MOL
REMARK 923 INTER-LIGAND FREE ENERGY PREDICTED BY IDOCK:   -5.36 KCAL/MOL
REMARK 924 INTRA-LIGAND FREE ENERGY PREDICTED BY IDOCK:   -0.62 KCAL/MOL
REMARK 927      BINDING AFFINITY PREDICTED BY RF-SCORE:    0.00 PKD
ROOT
HETATM    1  C   UNL     1     -12.198  12.243  63.765  1.00  0.00    -0.642 C  
HETATM    2  C   UNL     1     -12.523  13.260  64.855  1.00  0.00    -0.409 C  
ENDROOT
BRANCH   2   3
HETATM    3  N   UNL     1     -11.717  13.080  66.082  1.00  0.00    -0.373 N  
BRANCH   3   4
HETATM    4  C   UNL     1     -11.239  11.719  66.423  1.00  0.00    -0.323 C  
HETATM    5  C   UNL     1      -9.735  11.481  66.526  1.00  0.00    -0.226 C  
ENDBRANCH   3   4
BRANCH   3   6
HETATM    6  C   UNL     1     -11.467  14.185  66.949  1.00  0.00    -0.357 C  
HETATM    7  S   UNL     1     -11.764  14.187  68.618  1.00  0.00    -0.364 S  
BRANCH   6   8
HETATM    8  S   UNL     1     -10.666  15.609  66.216  1.00  0.00    -0.264 SA 
BRANCH   8   9
HETATM    9  S   UNL     1     -10.635  17.000  67.749  1.00  0.00    -0.328 SA 
BRANCH   9  10
HETATM   10  C   UNL     1      -8.946  17.136  68.285  1.00  0.00    -0.248 C  
HETATM   11  S   UNL     1      -8.068  15.922  69.048  1.00  0.00    -0.239 S  
BRANCH  10  12
HETATM   12  N   UNL     1      -8.366  18.342  67.866  1.00  0.00    -0.256 N  
BRANCH  12  13
HETATM   13  C   UNL     1      -8.137  19.437  68.821  1.00  0.00    -0.353 C  
HETATM   14  C   UNL     1      -6.684  19.642  69.223  1.00  0.00    -0.391 C  
ENDBRANCH  12  13
BRANCH  12  15
HETATM   15  C   UNL     1      -8.131  18.590  66.435  1.00  0.00    -0.273 C  
HETATM   16  C   UNL     1      -6.909  17.882  65.874  1.00  0.00    -0.315 C  
ENDBRANCH  12  15
ENDBRANCH  10  12
ENDBRANCH   9  10
ENDBRANCH   8   9
ENDBRANCH   6   8
ENDBRANCH   3   6
ENDBRANCH   2   3
TORSDOF 9
ENDMDL
MODEL       47
REMARK 921   NORMALIZED FREE ENERGY PREDICTED BY IDOCK:   -3.58 KCAL/MOL
REMARK 922        TOTAL FREE ENERGY PREDICTED BY IDOCK:   -5.97 KCAL/MOL
REMARK 923 INTER-LIGAND FREE ENERGY PREDICTED BY IDOCK:   -5.73 KCAL/MOL
REMARK 924 INTRA-LIGAND FREE ENERGY PREDICTED BY IDOCK:   -0.24 KCAL/MOL
REMARK 927      BINDING AFFINITY PREDICTED BY RF-SCORE:    0.00 PKD
ROOT
HETATM    1  C   UNL     1     -14.362   8.597  71.971  1.00  0.00    -0.512 C  
HETATM    2  C   UNL     1     -13.240   9.625  71.860  1.00  0.00    -0.446 C  
ENDROOT
BRANCH   2   3
HETATM    3  N   UNL     1     -11.943   9.036  71.459  1.00  0.00    -0.321 N  
BRANCH   3   4
HETATM    4  C   UNL     1     -11.535   7.744  72.061  1.00  0.00    -0.289 C  
HETATM    5  C   UNL     1     -11.610   6.484  71.202  1.00  0.00    -0.390 C  
ENDBRANCH   3   4
BRANCH   3   6
HETATM    6  C   UNL     1     -11.081   9.733  70.563  1.00  0.00    -0.321 C  
HETATM    7  S   UNL     1      -9.441   9.373  70.326  1.00  0.00    -0.264 S  
BRANCH   6   8
HETATM    8  S   UNL     1     -11.841  10.989  69.537  1.00  0.00    -0.352 SA 
BRANCH   8   9
HETATM    9  S   UNL     1     -11.021  10.659  67.665  1.00  0.00    -0.313 SA 
BRANCH   9  10
HETATM   10  C   UNL     1     -11.206  12.172  66.750  1.00  0.00    -0.322 C  
HETATM   11  S   UNL     1     -11.904  13.584  67.338  1.00  0.00    -0.374 S  
BRANCH  10  12
HETATM   12  N   UNL     1     -10.563  12.105  65.505  1.00  0.00    -0.268 N  
BRANCH  12  13
HETATM   13  C   UNL     1     -11.144  12.762  64.324  1.00  0.00    -0.370 C  
HETATM   14  C   UNL     1     -12.407  12.109  63.784  1.00  0.00    -0.635 C  
ENDBRANCH  12  13
BRANCH  12  15
HETATM   15  C   UNL     1      -9.387  11.239  65.327  1.00  0.00    -0.203 C  
HETATM   16  C   UNL     1      -9.543  10.195  64.234  1.00  0.00    -0.354 C  
ENDBRANCH  12  15
ENDBRANCH  10  12
ENDBRANCH   9  10
ENDBRANCH   8   9
ENDBRANCH   6   8
ENDBRANCH   3   6
ENDBRANCH   2   3
TORSDOF 9
ENDMDL
MODEL       48
REMARK 921   NORMALIZED FREE ENERGY PREDICTED BY IDOCK:   -3.57 KCAL/MOL
REMARK 922        TOTAL FREE ENERGY PREDICTED BY IDOCK:   -5.96 KCAL/MOL
REMARK 923 INTER-LIGAND FREE ENERGY PREDICTED BY IDOCK:   -5.47 KCAL/MOL
REMARK 924 INTRA-LIGAND FREE ENERGY PREDICTED BY IDOCK:   -0.49 KCAL/MOL
REMARK 927      BINDING AFFINITY PREDICTED BY RF-SCORE:    0.00 PKD
ROOT
HETATM    1  C   UNL     1     -10.604  19.659  66.099  1.00  0.00    -0.584 C  
HETATM    2  C   UNL     1     -10.459  19.456  67.605  1.00  0.00    -0.457 C  
ENDROOT
BRANCH   2   3
HETATM    3  N   UNL     1      -9.259  18.676  67.978  1.00  0.00    -0.297 N  
BRANCH   3   4
HETATM    4  C   UNL     1      -8.090  19.398  68.535  1.00  0.00    -0.361 C  
HETATM    5  C   UNL     1      -7.113  20.059  67.567  1.00  0.00    -0.300 C  
ENDBRANCH   3   4
BRANCH   3   6
HETATM    6  C   UNL     1      -9.210  17.271  67.742  1.00  0.00    -0.239 C  
HETATM    7  S   UNL     1      -8.548  16.549  66.357  1.00  0.00    -0.330 S  
BRANCH   6   8
HETATM    8  S   UNL     1      -9.779  16.217  69.072  1.00  0.00    -0.258 SA 
BRANCH   8   9
HETATM    9  S   UNL     1     -11.415  15.240  68.263  1.00  0.00    -0.345 SA 
BRANCH   9  10
HETATM   10  C   UNL     1     -11.748  13.842  69.308  1.00  0.00    -0.334 C  
HETATM   11  S   UNL     1     -12.507  13.909  70.807  1.00  0.00    -0.375 S  
BRANCH  10  12
HETATM   12  N   UNL     1     -11.430  12.633  68.672  1.00  0.00    -0.283 N  
BRANCH  12  13
HETATM   13  C   UNL     1     -10.697  12.625  67.397  1.00  0.00    -0.229 C  
HETATM   14  C   UNL     1     -11.408  11.915  66.255  1.00  0.00    -0.394 C  
ENDBRANCH  12  13
BRANCH  12  15
HETATM   15  C   UNL     1     -11.968  11.365  69.188  1.00  0.00    -0.328 C  
HETATM   16  C   UNL     1     -10.938  10.486  69.877  1.00  0.00    -0.359 C  
ENDBRANCH  12  15
ENDBRANCH  10  12
ENDBRANCH   9  10
ENDBRANCH   8   9
ENDBRANCH   6   8
ENDBRANCH   3   6
ENDBRANCH   2   3
TORSDOF 9
ENDMDL
MODEL       49
REMARK 921   NORMALIZED FREE ENERGY PREDICTED BY IDOCK:   -3.56 KCAL/MOL
REMARK 922        TOTAL FREE ENERGY PREDICTED BY IDOCK:   -5.95 KCAL/MOL
REMARK 923 INTER-LIGAND FREE ENERGY PREDICTED BY IDOCK:   -5.40 KCAL/MOL
REMARK 924 INTRA-LIGAND FREE ENERGY PREDICTED BY IDOCK:   -0.55 KCAL/MOL
REMARK 927      BINDING AFFINITY PREDICTED BY RF-SCORE:    0.00 PKD
ROOT
HETATM    1  C   UNL     1     -11.978  13.615  68.958  1.00  0.00    -0.392 C  
HETATM    2  C   UNL     1     -11.873  12.553  67.867  1.00  0.00    -0.323 C  
ENDROOT
BRANCH   2   3
HETATM    3  N   UNL     1     -11.415  13.091  66.568  1.00  0.00    -0.323 N  
BRANCH   3   4
HETATM    4  C   UNL     1     -12.130  12.675  65.337  1.00  0.00    -0.462 C  
HETATM    5  C   UNL     1     -11.320  12.470  64.059  1.00  0.00    -0.467 C  
ENDBRANCH   3   4
BRANCH   3   6
HETATM    6  C   UNL     1     -10.270  13.937  66.501  1.00  0.00    -0.280 C  
HETATM    7  S   UNL     1      -8.681  13.436  66.813  1.00  0.00     0.001 S  
BRANCH   6   8
HETATM    8  S   UNL     1     -10.546  15.609  65.921  1.00  0.00    -0.348 SA 
BRANCH   8   9
HETATM    9  S   UNL     1     -10.154  16.779  67.583  1.00  0.00    -0.283 SA 
BRANCH   9  10
HETATM   10  C   UNL     1      -8.689  17.716  67.217  1.00  0.00    -0.235 C  
HETATM   11  S   UNL     1      -7.324  17.121  66.437  1.00  0.00    -0.297 S  
BRANCH  10  12
HETATM   12  N   UNL     1      -8.852  19.074  67.529  1.00  0.00    -0.287 N  
BRANCH  12  13
HETATM   13  C   UNL     1      -7.793  19.818  68.227  1.00  0.00    -0.299 C  
HETATM   14  C   UNL     1      -7.093  20.875  67.387  1.00  0.00    -0.418 C  
ENDBRANCH  12  13
BRANCH  12  15
HETATM   15  C   UNL     1     -10.151  19.730  67.310  1.00  0.00    -0.418 C  
HETATM   16  C   UNL     1     -10.488  19.967  65.848  1.00  0.00    -0.567 C  
ENDBRANCH  12  15
ENDBRANCH  10  12
ENDBRANCH   9  10
ENDBRANCH   8   9
ENDBRANCH   6   8
ENDBRANCH   3   6
ENDBRANCH   2   3
TORSDOF 9
ENDMDL
MODEL       50
REMARK 921   NORMALIZED FREE ENERGY PREDICTED BY IDOCK:   -3.56 KCAL/MOL
REMARK 922        TOTAL FREE ENERGY PREDICTED BY IDOCK:   -5.94 KCAL/MOL
REMARK 923 INTER-LIGAND FREE ENERGY PREDICTED BY IDOCK:   -5.49 KCAL/MOL
REMARK 924 INTRA-LIGAND FREE ENERGY PREDICTED BY IDOCK:   -0.46 KCAL/MOL
REMARK 927      BINDING AFFINITY PREDICTED BY RF-SCORE:    0.00 PKD
ROOT
HETATM    1  C   UNL     1      -7.237  18.098  65.955  1.00  0.00    -0.275 C  
HETATM    2  C   UNL     1      -8.133  17.840  67.163  1.00  0.00    -0.214 C  
ENDROOT
BRANCH   2   3
HETATM    3  N   UNL     1      -9.576  17.894  66.843  1.00  0.00    -0.289 N  
BRANCH   3   4
HETATM    4  C   UNL     1     -10.179  19.206  66.507  1.00  0.00    -0.429 C  
HETATM    5  C   UNL     1      -9.875  20.400  67.408  1.00  0.00    -0.587 C  
ENDBRANCH   3   4
BRANCH   3   6
HETATM    6  C   UNL     1     -10.378  16.718  66.924  1.00  0.00    -0.294 C  
HETATM    7  S   UNL     1     -11.129  16.158  68.337  1.00  0.00    -0.355 S  
BRANCH   6   8
HETATM    8  S   UNL     1     -10.699  15.863  65.383  1.00  0.00    -0.376 SA 
BRANCH   8   9
HETATM    9  S   UNL     1     -11.666  14.130  65.973  1.00  0.00    -0.396 SA 
BRANCH   9  10
HETATM   10  C   UNL     1     -10.421  12.869  66.110  1.00  0.00    -0.269 C  
HETATM   11  S   UNL     1      -9.392  12.658  67.423  1.00  0.00    -0.196 S  
BRANCH  10  12
HETATM   12  N   UNL     1     -10.486  11.960  65.044  1.00  0.00    -0.277 N  
BRANCH  12  13
HETATM   13  C   UNL     1     -10.917  12.399  63.708  1.00  0.00    -0.447 C  
HETATM   14  C   UNL     1     -12.261  11.848  63.256  1.00  0.00    -0.487 C  
ENDBRANCH  12  13
BRANCH  12  15
HETATM   15  C   UNL     1     -10.283  10.523  65.286  1.00  0.00    -0.282 C  
HETATM   16  C   UNL     1      -9.232   9.885  64.394  1.00  0.00    -0.317 C  
ENDBRANCH  12  15
ENDBRANCH  10  12
ENDBRANCH   9  10
ENDBRANCH   8   9
ENDBRANCH   6   8
ENDBRANCH   3   6
ENDBRANCH   2   3
TORSDOF 9
ENDMDL
MODEL       51
REMARK 921   NORMALIZED FREE ENERGY PREDICTED BY IDOCK:   -3.55 KCAL/MOL
REMARK 922        TOTAL FREE ENERGY PREDICTED BY IDOCK:   -5.94 KCAL/MOL
REMARK 923 INTER-LIGAND FREE ENERGY PREDICTED BY IDOCK:   -5.78 KCAL/MOL
REMARK 924 INTRA-LIGAND FREE ENERGY PREDICTED BY IDOCK:   -0.16 KCAL/MOL
REMARK 927      BINDING AFFINITY PREDICTED BY RF-SCORE:    0.00 PKD
ROOT
HETATM    1  C   UNL     1     -12.725  15.873  73.688  1.00  0.00    -0.723 C  
HETATM    2  C   UNL     1     -12.158  16.182  72.305  1.00  0.00    -0.531 C  
ENDROOT
BRANCH   2   3
HETATM    3  N   UNL     1     -12.527  15.177  71.284  1.00  0.00    -0.314 N  
BRANCH   3   4
HETATM    4  C   UNL     1     -13.685  14.291  71.547  1.00  0.00    -0.353 C  
HETATM    5  C   UNL     1     -13.422  12.894  72.102  1.00  0.00    -0.619 C  
ENDBRANCH   3   4
BRANCH   3   6
HETATM    6  C   UNL     1     -11.739  15.026  70.105  1.00  0.00    -0.299 C  
HETATM    7  S   UNL     1     -10.411  16.000  69.701  1.00  0.00    -0.304 S  
BRANCH   6   8
HETATM    8  S   UNL     1     -12.124  13.622  69.062  1.00  0.00    -0.229 SA 
BRANCH   8   9
HETATM    9  S   UNL     1     -11.834  14.339  67.142  1.00  0.00    -0.421 SA 
BRANCH   9  10
HETATM   10  C   UNL     1     -11.568  12.925  66.100  1.00  0.00    -0.372 C  
HETATM   11  S   UNL     1     -12.456  12.553  64.721  1.00  0.00    -0.371 S  
BRANCH  10  12
HETATM   12  N   UNL     1     -10.421  12.211  66.479  1.00  0.00    -0.221 N  
BRANCH  12  13
HETATM   13  C   UNL     1     -10.475  10.755  66.680  1.00  0.00    -0.246 C  
HETATM   14  C   UNL     1      -9.955   9.928  65.514  1.00  0.00    -0.363 C  
ENDBRANCH  12  13
BRANCH  12  15
HETATM   15  C   UNL     1      -9.190  12.931  66.840  1.00  0.00    -0.234 C  
HETATM   16  C   UNL     1      -8.536  12.441  68.120  1.00  0.00    -0.185 C  
ENDBRANCH  12  15
ENDBRANCH  10  12
ENDBRANCH   9  10
ENDBRANCH   8   9
ENDBRANCH   6   8
ENDBRANCH   3   6
ENDBRANCH   2   3
TORSDOF 9
ENDMDL
MODEL       52
REMARK 921   NORMALIZED FREE ENERGY PREDICTED BY IDOCK:   -3.55 KCAL/MOL
REMARK 922        TOTAL FREE ENERGY PREDICTED BY IDOCK:   -5.94 KCAL/MOL
REMARK 923 INTER-LIGAND FREE ENERGY PREDICTED BY IDOCK:   -5.52 KCAL/MOL
REMARK 924 INTRA-LIGAND FREE ENERGY PREDICTED BY IDOCK:   -0.42 KCAL/MOL
REMARK 927      BINDING AFFINITY PREDICTED BY RF-SCORE:    0.00 PKD
ROOT
HETATM    1  C   UNL     1     -10.040  15.960  65.532  1.00  0.00    -0.353 C  
HETATM    2  C   UNL     1     -11.104  15.093  64.865  1.00  0.00    -0.414 C  
ENDROOT
BRANCH   2   3
HETATM    3  N   UNL     1     -10.919  13.646  65.113  1.00  0.00    -0.315 N  
BRANCH   3   4
HETATM    4  C   UNL     1     -10.902  12.724  63.953  1.00  0.00    -0.411 C  
HETATM    5  C   UNL     1     -12.224  12.122  63.481  1.00  0.00    -0.670 C  
ENDBRANCH   3   4
BRANCH   3   6
HETATM    6  C   UNL     1     -10.827  13.150  66.446  1.00  0.00    -0.287 C  
HETATM    7  S   UNL     1     -11.770  13.695  67.746  1.00  0.00    -0.373 S  
BRANCH   6   8
HETATM    8  S   UNL     1      -9.719  11.767  66.710  1.00  0.00    -0.201 SA 
BRANCH   8   9
HETATM    9  S   UNL     1     -10.906  10.356  67.651  1.00  0.00    -0.309 SA 
BRANCH   9  10
HETATM   10  C   UNL     1     -10.134   9.994  69.210  1.00  0.00    -0.213 C  
HETATM   11  S   UNL     1      -8.476   9.894  69.474  1.00  0.00    -0.188 S  
BRANCH  10  12
HETATM   12  N   UNL     1     -11.072   9.940  70.251  1.00  0.00    -0.285 N  
BRANCH  12  13
HETATM   13  C   UNL     1     -11.022   8.863  71.252  1.00  0.00    -0.293 C  
HETATM   14  C   UNL     1     -11.292   7.469  70.706  1.00  0.00    -0.300 C  
ENDBRANCH  12  13
BRANCH  12  15
HETATM   15  C   UNL     1     -12.216  10.864  70.262  1.00  0.00    -0.348 C  
HETATM   16  C   UNL     1     -13.030  10.831  71.545  1.00  0.00    -0.562 C  
ENDBRANCH  12  15
ENDBRANCH  10  12
ENDBRANCH   9  10
ENDBRANCH   8   9
ENDBRANCH   6   8
ENDBRANCH   3   6
ENDBRANCH   2   3
TORSDOF 9
ENDMDL
MODEL       53
REMARK 921   NORMALIZED FREE ENERGY PREDICTED BY IDOCK:   -3.54 KCAL/MOL
REMARK 922        TOTAL FREE ENERGY PREDICTED BY IDOCK:   -5.92 KCAL/MOL
REMARK 923 INTER-LIGAND FREE ENERGY PREDICTED BY IDOCK:   -5.45 KCAL/MOL
REMARK 924 INTRA-LIGAND FREE ENERGY PREDICTED BY IDOCK:   -0.48 KCAL/MOL
REMARK 927      BINDING AFFINITY PREDICTED BY RF-SCORE:    0.00 PKD
ROOT
HETATM    1  C   UNL     1     -11.394  10.587  70.570  1.00  0.00    -0.400 C  
HETATM    2  C   UNL     1     -12.533  11.484  70.093  1.00  0.00    -0.164 C  
ENDROOT
BRANCH   2   3
HETATM    3  N   UNL     1     -12.271  12.925  70.304  1.00  0.00    -0.326 N  
BRANCH   3   4
HETATM    4  C   UNL     1     -12.455  13.487  71.664  1.00  0.00    -0.132 C  
HETATM    5  C   UNL     1     -13.874  13.632  72.206  1.00  0.00    -0.689 C  
ENDBRANCH   3   4
BRANCH   3   6
HETATM    6  C   UNL     1     -11.916  13.762  69.206  1.00  0.00    -0.352 C  
HETATM    7  S   UNL     1     -11.768  13.235  67.601  1.00  0.00    -0.366 S  
BRANCH   6   8
HETATM    8  S   UNL     1     -11.743  15.509  69.556  1.00  0.00    -0.383 SA 
BRANCH   8   9
HETATM    9  S   UNL     1      -9.714  15.858  69.336  1.00  0.00    -0.252 SA 
BRANCH   9  10
HETATM   10  C   UNL     1      -9.522  16.878  67.893  1.00  0.00    -0.239 C  
HETATM   11  S   UNL     1     -10.063  16.488  66.350  1.00  0.00    -0.326 S  
BRANCH  10  12
HETATM   12  N   UNL     1      -8.985  18.133  68.215  1.00  0.00    -0.290 N  
BRANCH  12  13
HETATM   13  C   UNL     1      -7.530  18.345  68.235  1.00  0.00    -0.280 C  
HETATM   14  C   UNL     1      -7.050  19.395  69.224  1.00  0.00    -0.358 C  
ENDBRANCH  12  13
BRANCH  12  15
HETATM   15  C   UNL     1      -9.864  19.210  68.696  1.00  0.00    -0.420 C  
HETATM   16  C   UNL     1     -10.207  20.250  67.642  1.00  0.00    -0.469 C  
ENDBRANCH  12  15
ENDBRANCH  10  12
ENDBRANCH   9  10
ENDBRANCH   8   9
ENDBRANCH   6   8
ENDBRANCH   3   6
ENDBRANCH   2   3
TORSDOF 9
ENDMDL
MODEL       54
REMARK 921   NORMALIZED FREE ENERGY PREDICTED BY IDOCK:   -3.54 KCAL/MOL
REMARK 922        TOTAL FREE ENERGY PREDICTED BY IDOCK:   -5.92 KCAL/MOL
REMARK 923 INTER-LIGAND FREE ENERGY PREDICTED BY IDOCK:   -5.43 KCAL/MOL
REMARK 924 INTRA-LIGAND FREE ENERGY PREDICTED BY IDOCK:   -0.49 KCAL/MOL
REMARK 927      BINDING AFFINITY PREDICTED BY RF-SCORE:    0.00 PKD
ROOT
HETATM    1  C   UNL     1     -11.755  15.180  64.741  1.00  0.00    -0.331 C  
HETATM    2  C   UNL     1     -12.463  14.078  65.524  1.00  0.00    -0.509 C  
ENDROOT
BRANCH   2   3
HETATM    3  N   UNL     1     -11.613  12.891  65.763  1.00  0.00    -0.348 N  
BRANCH   3   4
HETATM    4  C   UNL     1     -11.480  11.885  64.682  1.00  0.00    -0.279 C  
HETATM    5  C   UNL     1     -12.496  11.901  63.543  1.00  0.00    -0.609 C  
ENDBRANCH   3   4
BRANCH   3   6
HETATM    6  C   UNL     1     -10.992  12.692  67.031  1.00  0.00    -0.265 C  
HETATM    7  S   UNL     1     -11.795  12.153  68.424  1.00  0.00    -0.222 S  
BRANCH   6   8
HETATM    8  S   UNL     1      -9.217  12.915  67.094  1.00  0.00    -0.232 SA 
BRANCH   8   9
HETATM    9  S   UNL     1      -8.955  14.393  68.519  1.00  0.00    -0.172 SA 
BRANCH   9  10
HETATM   10  C   UNL     1      -9.273  15.945  67.713  1.00  0.00    -0.201 C  
HETATM   11  S   UNL     1      -8.559  16.461  66.281  1.00  0.00    -0.321 S  
BRANCH  10  12
HETATM   12  N   UNL     1     -10.314  16.648  68.338  1.00  0.00    -0.281 N  
BRANCH  12  13
HETATM   13  C   UNL     1     -10.152  18.064  68.701  1.00  0.00    -0.394 C  
HETATM   14  C   UNL     1     -10.619  19.053  67.644  1.00  0.00    -0.526 C  
ENDBRANCH  12  13
BRANCH  12  15
HETATM   15  C   UNL     1     -11.521  15.936  68.786  1.00  0.00    -0.393 C  
HETATM   16  C   UNL     1     -11.718  15.934  70.292  1.00  0.00    -0.352 C  
ENDBRANCH  12  15
ENDBRANCH  10  12
ENDBRANCH   9  10
ENDBRANCH   8   9
ENDBRANCH   6   8
ENDBRANCH   3   6
ENDBRANCH   2   3
TORSDOF 9
ENDMDL
MODEL       55
REMARK 921   NORMALIZED FREE ENERGY PREDICTED BY IDOCK:   -3.54 KCAL/MOL
REMARK 922        TOTAL FREE ENERGY PREDICTED BY IDOCK:   -5.92 KCAL/MOL
REMARK 923 INTER-LIGAND FREE ENERGY PREDICTED BY IDOCK:   -5.48 KCAL/MOL
REMARK 924 INTRA-LIGAND FREE ENERGY PREDICTED BY IDOCK:   -0.45 KCAL/MOL
REMARK 927      BINDING AFFINITY PREDICTED BY RF-SCORE:    0.00 PKD
ROOT
HETATM    1  C   UNL     1     -12.438  12.629  64.817  1.00  0.00    -0.555 C  
HETATM    2  C   UNL     1     -12.677  13.849  65.702  1.00  0.00    -0.495 C  
ENDROOT
BRANCH   2   3
HETATM    3  N   UNL     1     -11.718  13.955  66.823  1.00  0.00    -0.376 N  
BRANCH   3   4
HETATM    4  C   UNL     1     -12.135  13.469  68.160  1.00  0.00    -0.255 C  
HETATM    5  C   UNL     1     -12.063  14.434  69.341  1.00  0.00    -0.338 C  
ENDBRANCH   3   4
BRANCH   3   6
HETATM    6  C   UNL     1     -10.449  14.574  66.630  1.00  0.00    -0.274 C  
HETATM    7  S   UNL     1      -8.959  13.857  67.006  1.00  0.00    -0.224 S  
BRANCH   6   8
HETATM    8  S   UNL     1     -10.453  16.169  65.815  1.00  0.00    -0.354 SA 
BRANCH   8   9
HETATM    9  S   UNL     1      -8.701  17.060  66.465  1.00  0.00    -0.274 SA 
BRANCH   9  10
HETATM   10  C   UNL     1      -9.011  18.808  66.544  1.00  0.00    -0.319 C  
HETATM   11  S   UNL     1     -10.445  19.561  66.092  1.00  0.00    -0.506 S  
BRANCH  10  12
HETATM   12  N   UNL     1      -7.960  19.492  67.171  1.00  0.00    -0.261 N  
BRANCH  12  13
HETATM   13  C   UNL     1      -7.772  19.409  68.627  1.00  0.00    -0.359 C  
HETATM   14  C   UNL     1      -6.326  19.274  69.079  1.00  0.00    -0.306 C  
ENDBRANCH  12  13
BRANCH  12  15
HETATM   15  C   UNL     1      -7.131  20.434  66.402  1.00  0.00    -0.252 C  
HETATM   16  C   UNL     1      -6.553  19.853  65.123  1.00  0.00    -0.327 C  
ENDBRANCH  12  15
ENDBRANCH  10  12
ENDBRANCH   9  10
ENDBRANCH   8   9
ENDBRANCH   6   8
ENDBRANCH   3   6
ENDBRANCH   2   3
TORSDOF 9
ENDMDL
MODEL       56
REMARK 921   NORMALIZED FREE ENERGY PREDICTED BY IDOCK:   -3.54 KCAL/MOL
REMARK 922        TOTAL FREE ENERGY PREDICTED BY IDOCK:   -5.92 KCAL/MOL
REMARK 923 INTER-LIGAND FREE ENERGY PREDICTED BY IDOCK:   -5.39 KCAL/MOL
REMARK 924 INTRA-LIGAND FREE ENERGY PREDICTED BY IDOCK:   -0.53 KCAL/MOL
REMARK 927      BINDING AFFINITY PREDICTED BY RF-SCORE:    0.00 PKD
ROOT
HETATM    1  C   UNL     1      -9.938  16.546  68.979  1.00  0.00    -0.275 C  
HETATM    2  C   UNL     1     -11.337  16.205  68.473  1.00  0.00    -0.359 C  
ENDROOT
BRANCH   2   3
HETATM    3  N   UNL     1     -11.688  14.778  68.640  1.00  0.00    -0.323 N  
BRANCH   3   4
HETATM    4  C   UNL     1     -12.283  14.340  69.925  1.00  0.00    -0.352 C  
HETATM    5  C   UNL     1     -12.592  15.397  70.983  1.00  0.00    -0.491 C  
ENDBRANCH   3   4
BRANCH   3   6
HETATM    6  C   UNL     1     -11.395  13.838  67.609  1.00  0.00    -0.304 C  
HETATM    7  S   UNL     1     -12.158  13.799  66.095  1.00  0.00    -0.452 S  
BRANCH   6   8
HETATM    8  S   UNL     1     -10.036  12.713  67.915  1.00  0.00    -0.234 SA 
BRANCH   8   9
HETATM    9  S   UNL     1     -10.955  10.867  68.100  1.00  0.00    -0.273 SA 
BRANCH   9  10
HETATM   10  C   UNL     1     -10.249  10.083  69.530  1.00  0.00    -0.234 C  
HETATM   11  S   UNL     1      -8.630   9.669  69.712  1.00  0.00    -0.214 S  
BRANCH  10  12
HETATM   12  N   UNL     1     -11.182   9.973  70.572  1.00  0.00    -0.313 N  
BRANCH  12  13
HETATM   13  C   UNL     1     -10.952   9.048  71.691  1.00  0.00    -0.365 C  
HETATM   14  C   UNL     1     -11.638   7.697  71.557  1.00  0.00    -0.304 C  
ENDBRANCH  12  13
BRANCH  12  15
HETATM   15  C   UNL     1     -12.479  10.660  70.477  1.00  0.00    -0.358 C  
HETATM   16  C   UNL     1     -13.041  11.118  71.812  1.00  0.00    -0.536 C  
ENDBRANCH  12  15
ENDBRANCH  10  12
ENDBRANCH   9  10
ENDBRANCH   8   9
ENDBRANCH   6   8
ENDBRANCH   3   6
ENDBRANCH   2   3
TORSDOF 9
ENDMDL
MODEL       57
REMARK 921   NORMALIZED FREE ENERGY PREDICTED BY IDOCK:   -3.54 KCAL/MOL
REMARK 922        TOTAL FREE ENERGY PREDICTED BY IDOCK:   -5.92 KCAL/MOL
REMARK 923 INTER-LIGAND FREE ENERGY PREDICTED BY IDOCK:   -5.33 KCAL/MOL
REMARK 924 INTRA-LIGAND FREE ENERGY PREDICTED BY IDOCK:   -0.59 KCAL/MOL
REMARK 927      BINDING AFFINITY PREDICTED BY RF-SCORE:    0.00 PKD
ROOT
HETATM    1  C   UNL     1      -6.259  18.969  65.196  1.00  0.00    -0.320 C  
HETATM    2  C   UNL     1      -7.412  19.787  65.771  1.00  0.00    -0.311 C  
ENDROOT
BRANCH   2   3
HETATM    3  N   UNL     1      -7.843  19.332  67.111  1.00  0.00    -0.248 N  
BRANCH   3   4
HETATM    4  C   UNL     1      -6.804  19.035  68.126  1.00  0.00    -0.244 C  
HETATM    5  C   UNL     1      -6.217  20.194  68.927  1.00  0.00    -0.351 C  
ENDBRANCH   3   4
BRANCH   3   6
HETATM    6  C   UNL     1      -9.225  19.122  67.391  1.00  0.00    -0.298 C  
HETATM    7  S   UNL     1     -10.031  19.710  68.761  1.00  0.00    -0.402 S  
BRANCH   6   8
HETATM    8  S   UNL     1     -10.177  18.282  66.127  1.00  0.00    -0.336 SA 
BRANCH   8   9
HETATM    9  S   UNL     1      -9.467  16.339  66.183  1.00  0.00    -0.346 SA 
BRANCH   9  10
HETATM   10  C   UNL     1     -10.646  15.388  67.112  1.00  0.00    -0.305 C  
HETATM   11  S   UNL     1     -11.376  15.876  68.545  1.00  0.00    -0.366 S  
BRANCH  10  12
HETATM   12  N   UNL     1     -11.018  14.219  66.431  1.00  0.00    -0.307 N  
BRANCH  12  13
HETATM   13  C   UNL     1     -12.120  13.380  66.927  1.00  0.00    -0.354 C  
HETATM   14  C   UNL     1     -11.688  12.180  67.756  1.00  0.00    -0.390 C  
ENDBRANCH  12  13
BRANCH  12  15
HETATM   15  C   UNL     1     -10.206  13.729  65.307  1.00  0.00    -0.335 C  
HETATM   16  C   UNL     1     -11.018  13.190  64.142  1.00  0.00    -0.418 C  
ENDBRANCH  12  15
ENDBRANCH  10  12
ENDBRANCH   9  10
ENDBRANCH   8   9
ENDBRANCH   6   8
ENDBRANCH   3   6
ENDBRANCH   2   3
TORSDOF 9
ENDMDL
MODEL       58
REMARK 921   NORMALIZED FREE ENERGY PREDICTED BY IDOCK:   -3.54 KCAL/MOL
REMARK 922        TOTAL FREE ENERGY PREDICTED BY IDOCK:   -5.91 KCAL/MOL
REMARK 923 INTER-LIGAND FREE ENERGY PREDICTED BY IDOCK:   -5.78 KCAL/MOL
REMARK 924 INTRA-LIGAND FREE ENERGY PREDICTED BY IDOCK:   -0.13 KCAL/MOL
REMARK 927      BINDING AFFINITY PREDICTED BY RF-SCORE:    0.00 PKD
ROOT
HETATM    1  C   UNL     1     -12.158  12.423  63.515  1.00  0.00    -0.651 C  
HETATM    2  C   UNL     1     -12.243  12.425  65.039  1.00  0.00    -0.399 C  
ENDROOT
BRANCH   2   3
HETATM    3  N   UNL     1     -10.945  12.689  65.697  1.00  0.00    -0.274 N  
BRANCH   3   4
HETATM    4  C   UNL     1     -10.213  13.931  65.350  1.00  0.00    -0.337 C  
HETATM    5  C   UNL     1     -10.951  15.264  65.455  1.00  0.00    -0.365 C  
ENDBRANCH   3   4
BRANCH   3   6
HETATM    6  C   UNL     1     -10.383  11.734  66.594  1.00  0.00    -0.218 C  
HETATM    7  S   UNL     1      -8.829  11.071  66.449  1.00  0.00    -0.182 S  
BRANCH   6   8
HETATM    8  S   UNL     1     -11.363  11.318  68.034  1.00  0.00    -0.307 SA 
BRANCH   8   9
HETATM    9  S   UNL     1     -11.873  13.159  68.832  1.00  0.00    -0.299 SA 
BRANCH   9  10
HETATM   10  C   UNL     1     -12.493  12.855  70.469  1.00  0.00    -0.217 C  
HETATM   11  S   UNL     1     -12.525  11.358  71.234  1.00  0.00    -0.261 S  
BRANCH  10  12
HETATM   12  N   UNL     1     -12.830  14.048  71.125  1.00  0.00    -0.345 N  
BRANCH  12  13
HETATM   13  C   UNL     1     -13.586  14.025  72.386  1.00  0.00    -0.557 C  
HETATM   14  C   UNL     1     -13.121  15.030  73.429  1.00  0.00    -0.548 C  
ENDBRANCH  12  13
BRANCH  12  15
HETATM   15  C   UNL     1     -12.576  15.344  70.475  1.00  0.00    -0.423 C  
HETATM   16  C   UNL     1     -11.199  15.921  70.758  1.00  0.00    -0.398 C  
ENDBRANCH  12  15
ENDBRANCH  10  12
ENDBRANCH   9  10
ENDBRANCH   8   9
ENDBRANCH   6   8
ENDBRANCH   3   6
ENDBRANCH   2   3
TORSDOF 9
ENDMDL
MODEL       59
REMARK 921   NORMALIZED FREE ENERGY PREDICTED BY IDOCK:   -3.53 KCAL/MOL
REMARK 922        TOTAL FREE ENERGY PREDICTED BY IDOCK:   -5.91 KCAL/MOL
REMARK 923 INTER-LIGAND FREE ENERGY PREDICTED BY IDOCK:   -5.33 KCAL/MOL
REMARK 924 INTRA-LIGAND FREE ENERGY PREDICTED BY IDOCK:   -0.58 KCAL/MOL
REMARK 927      BINDING AFFINITY PREDICTED BY RF-SCORE:    0.00 PKD
ROOT
HETATM    1  C   UNL     1     -11.848  10.813  70.628  1.00  0.00    -0.460 C  
HETATM    2  C   UNL     1     -12.003  11.475  69.262  1.00  0.00    -0.330 C  
ENDROOT
BRANCH   2   3
HETATM    3  N   UNL     1     -11.804  12.940  69.295  1.00  0.00    -0.314 N  
BRANCH   3   4
HETATM    4  C   UNL     1     -12.641  13.749  70.214  1.00  0.00    -0.222 C  
HETATM    5  C   UNL     1     -11.947  14.571  71.298  1.00  0.00    -0.396 C  
ENDBRANCH   3   4
BRANCH   3   6
HETATM    6  C   UNL     1     -10.873  13.562  68.412  1.00  0.00    -0.267 C  
HETATM    7  S   UNL     1      -9.300  13.000  68.118  1.00  0.00    -0.206 S  
BRANCH   6   8
HETATM    8  S   UNL     1     -11.477  14.957  67.466  1.00  0.00    -0.329 SA 
BRANCH   8   9
HETATM    9  S   UNL     1     -10.665  16.597  68.433  1.00  0.00    -0.363 SA 
BRANCH   9  10
HETATM   10  C   UNL     1      -9.386  17.235  67.376  1.00  0.00    -0.236 C  
HETATM   11  S   UNL     1      -8.538  16.343  66.231  1.00  0.00    -0.321 S  
BRANCH  10  12
HETATM   12  N   UNL     1      -9.255  18.626  67.504  1.00  0.00    -0.278 N  
BRANCH  12  13
HETATM   13  C   UNL     1      -9.384  19.503  66.330  1.00  0.00    -0.379 C  
HETATM   14  C   UNL     1     -10.773  19.543  65.711  1.00  0.00    -0.490 C  
ENDBRANCH  12  13
BRANCH  12  15
HETATM   15  C   UNL     1      -8.825  19.212  68.782  1.00  0.00    -0.334 C  
HETATM   16  C   UNL     1      -7.318  19.349  68.927  1.00  0.00    -0.402 C  
ENDBRANCH  12  15
ENDBRANCH  10  12
ENDBRANCH   9  10
ENDBRANCH   8   9
ENDBRANCH   6   8
ENDBRANCH   3   6
ENDBRANCH   2   3
TORSDOF 9
ENDMDL
MODEL       60
REMARK 921   NORMALIZED FREE ENERGY PREDICTED BY IDOCK:   -3.53 KCAL/MOL
REMARK 922        TOTAL FREE ENERGY PREDICTED BY IDOCK:   -5.90 KCAL/MOL
REMARK 923 INTER-LIGAND FREE ENERGY PREDICTED BY IDOCK:   -5.42 KCAL/MOL
REMARK 924 INTRA-LIGAND FREE ENERGY PREDICTED BY IDOCK:   -0.49 KCAL/MOL
REMARK 927      BINDING AFFINITY PREDICTED BY RF-SCORE:    0.00 PKD
ROOT
HETATM    1  C   UNL     1     -10.622   5.595  70.560  1.00  0.00    -0.354 C  
HETATM    2  C   UNL     1     -11.629   6.696  70.241  1.00  0.00    -0.395 C  
ENDROOT
BRANCH   2   3
HETATM    3  N   UNL     1     -11.144   8.050  70.587  1.00  0.00    -0.260 N  
BRANCH   3   4
HETATM    4  C   UNL     1     -11.839   8.799  71.661  1.00  0.00    -0.330 C  
HETATM    5  C   UNL     1     -12.546  10.103  71.300  1.00  0.00    -0.508 C  
ENDBRANCH   3   4
BRANCH   3   6
HETATM    6  C   UNL     1     -10.075   8.642  69.853  1.00  0.00    -0.194 C  
HETATM    7  S   UNL     1      -8.606   9.150  70.532  1.00  0.00    -0.233 S  
BRANCH   6   8
HETATM    8  S   UNL     1     -10.275   8.727  68.076  1.00  0.00    -0.219 SA 
BRANCH   8   9
HETATM    9  S   UNL     1     -11.033  10.626  67.754  1.00  0.00    -0.320 SA 
BRANCH   9  10
HETATM   10  C   UNL     1     -10.581  11.086  66.098  1.00  0.00    -0.228 C  
HETATM   11  S   UNL     1      -9.622  10.171  65.063  1.00  0.00    -0.318 S  
BRANCH  10  12
HETATM   12  N   UNL     1     -11.242  12.253  65.687  1.00  0.00    -0.320 N  
BRANCH  12  13
HETATM   13  C   UNL     1     -11.214  12.675  64.278  1.00  0.00    -0.362 C  
HETATM   14  C   UNL     1     -12.390  12.193  63.442  1.00  0.00    -0.648 C  
ENDBRANCH  12  13
BRANCH  12  15
HETATM   15  C   UNL     1     -11.833  13.157  66.685  1.00  0.00    -0.391 C  
HETATM   16  C   UNL     1     -11.188  14.531  66.738  1.00  0.00    -0.336 C  
ENDBRANCH  12  15
ENDBRANCH  10  12
ENDBRANCH   9  10
ENDBRANCH   8   9
ENDBRANCH   6   8
ENDBRANCH   3   6
ENDBRANCH   2   3
TORSDOF 9
ENDMDL
MODEL       61
REMARK 921   NORMALIZED FREE ENERGY PREDICTED BY IDOCK:   -3.53 KCAL/MOL
REMARK 922        TOTAL FREE ENERGY PREDICTED BY IDOCK:   -5.90 KCAL/MOL
REMARK 923 INTER-LIGAND FREE ENERGY PREDICTED BY IDOCK:   -5.54 KCAL/MOL
REMARK 924 INTRA-LIGAND FREE ENERGY PREDICTED BY IDOCK:   -0.35 KCAL/MOL
REMARK 927      BINDING AFFINITY PREDICTED BY RF-SCORE:    0.00 PKD
ROOT
HETATM    1  C   UNL     1     -11.524  15.967  68.980  1.00  0.00    -0.380 C  
HETATM    2  C   UNL     1     -10.370  16.964  69.025  1.00  0.00    -0.333 C  
ENDROOT
BRANCH   2   3
HETATM    3  N   UNL     1     -10.085  17.590  67.716  1.00  0.00    -0.315 N  
BRANCH   3   4
HETATM    4  C   UNL     1     -10.676  18.917  67.420  1.00  0.00    -0.444 C  
HETATM    5  C   UNL     1     -10.526  19.482  66.010  1.00  0.00    -0.611 C  
ENDBRANCH   3   4
BRANCH   3   6
HETATM    6  C   UNL     1      -9.312  16.896  66.739  1.00  0.00    -0.251 C  
HETATM    7  S   UNL     1      -7.624  16.980  66.607  1.00  0.00    -0.293 S  
BRANCH   6   8
HETATM    8  S   UNL     1     -10.202  15.767  65.671  1.00  0.00    -0.388 SA 
BRANCH   8   9
HETATM    9  S   UNL     1      -9.755  13.900  66.445  1.00  0.00    -0.287 SA 
BRANCH   9  10
HETATM   10  C   UNL     1     -11.246  12.937  66.357  1.00  0.00    -0.300 C  
HETATM   11  S   UNL     1     -12.394  13.033  65.132  1.00  0.00    -0.495 S  
BRANCH  10  12
HETATM   12  N   UNL     1     -11.295  11.964  67.366  1.00  0.00    -0.306 N  
BRANCH  12  13
HETATM   13  C   UNL     1     -10.914  10.572  67.087  1.00  0.00    -0.228 C  
HETATM   14  C   UNL     1      -9.419  10.336  66.929  1.00  0.00    -0.200 C  
ENDBRANCH  12  13
BRANCH  12  15
HETATM   15  C   UNL     1     -11.884  12.288  68.675  1.00  0.00    -0.305 C  
HETATM   16  C   UNL     1     -11.644  11.235  69.743  1.00  0.00    -0.408 C  
ENDBRANCH  12  15
ENDBRANCH  10  12
ENDBRANCH   9  10
ENDBRANCH   8   9
ENDBRANCH   6   8
ENDBRANCH   3   6
ENDBRANCH   2   3
TORSDOF 9
ENDMDL
MODEL       62
REMARK 921   NORMALIZED FREE ENERGY PREDICTED BY IDOCK:   -3.52 KCAL/MOL
REMARK 922        TOTAL FREE ENERGY PREDICTED BY IDOCK:   -5.89 KCAL/MOL
REMARK 923 INTER-LIGAND FREE ENERGY PREDICTED BY IDOCK:   -5.47 KCAL/MOL
REMARK 924 INTRA-LIGAND FREE ENERGY PREDICTED BY IDOCK:   -0.42 KCAL/MOL
REMARK 927      BINDING AFFINITY PREDICTED BY RF-SCORE:    0.00 PKD
ROOT
HETATM    1  C   UNL     1      -7.332  20.339  67.601  1.00  0.00    -0.340 C  
HETATM    2  C   UNL     1      -7.989  19.228  68.415  1.00  0.00    -0.341 C  
ENDROOT
BRANCH   2   3
HETATM    3  N   UNL     1      -9.256  18.742  67.827  1.00  0.00    -0.286 N  
BRANCH   3   4
HETATM    4  C   UNL     1     -10.251  19.738  67.363  1.00  0.00    -0.440 C  
HETATM    5  C   UNL     1     -10.557  19.822  65.870  1.00  0.00    -0.557 C  
ENDBRANCH   3   4
BRANCH   3   6
HETATM    6  C   UNL     1      -9.536  17.345  67.772  1.00  0.00    -0.264 C  
HETATM    7  S   UNL     1     -10.747  16.568  68.671  1.00  0.00    -0.350 S  
BRANCH   6   8
HETATM    8  S   UNL     1      -8.615  16.392  66.568  1.00  0.00    -0.322 SA 
BRANCH   8   9
HETATM    9  S   UNL     1     -10.031  15.118  65.758  1.00  0.00    -0.358 SA 
BRANCH   9  10
HETATM   10  C   UNL     1      -9.764  13.521  66.491  1.00  0.00    -0.283 C  
HETATM   11  S   UNL     1      -8.524  13.137  67.559  1.00  0.00    -0.210 S  
BRANCH  10  12
HETATM   12  N   UNL     1     -10.805  12.632  66.186  1.00  0.00    -0.268 N  
BRANCH  12  13
HETATM   13  C   UNL     1     -11.103  11.494  67.069  1.00  0.00    -0.307 C  
HETATM   14  C   UNL     1     -11.823  11.856  68.359  1.00  0.00    -0.352 C  
ENDBRANCH  12  13
BRANCH  12  15
HETATM   15  C   UNL     1     -11.505  12.730  64.896  1.00  0.00    -0.320 C  
HETATM   16  C   UNL     1     -11.029  11.733  63.853  1.00  0.00    -0.476 C  
ENDBRANCH  12  15
ENDBRANCH  10  12
ENDBRANCH   9  10
ENDBRANCH   8   9
ENDBRANCH   6   8
ENDBRANCH   3   6
ENDBRANCH   2   3
TORSDOF 9
ENDMDL
MODEL       63
REMARK 921   NORMALIZED FREE ENERGY PREDICTED BY IDOCK:   -3.52 KCAL/MOL
REMARK 922        TOTAL FREE ENERGY PREDICTED BY IDOCK:   -5.89 KCAL/MOL
REMARK 923 INTER-LIGAND FREE ENERGY PREDICTED BY IDOCK:   -5.49 KCAL/MOL
REMARK 924 INTRA-LIGAND FREE ENERGY PREDICTED BY IDOCK:   -0.40 KCAL/MOL
REMARK 927      BINDING AFFINITY PREDICTED BY RF-SCORE:    0.00 PKD
ROOT
HETATM    1  C   UNL     1      -9.642   8.163  72.959  1.00  0.00    -0.336 C  
HETATM    2  C   UNL     1      -9.859   9.003  71.703  1.00  0.00    -0.296 C  
ENDROOT
BRANCH   2   3
HETATM    3  N   UNL     1     -11.131   8.704  71.011  1.00  0.00    -0.253 N  
BRANCH   3   4
HETATM    4  C   UNL     1     -11.140   7.655  69.963  1.00  0.00    -0.191 C  
HETATM    5  C   UNL     1     -11.452   6.218  70.373  1.00  0.00    -0.414 C  
ENDBRANCH   3   4
BRANCH   3   6
HETATM    6  C   UNL     1     -12.305   9.458  71.304  1.00  0.00    -0.341 C  
HETATM    7  S   UNL     1     -13.631   8.875  72.186  1.00  0.00    -0.471 S  
BRANCH   6   8
HETATM    8  S   UNL     1     -12.297  11.177  70.801  1.00  0.00    -0.399 SA 
BRANCH   8   9
HETATM    9  S   UNL     1     -11.710  11.108  68.817  1.00  0.00    -0.310 SA 
BRANCH   9  10
HETATM   10  C   UNL     1     -11.585  12.790  68.260  1.00  0.00    -0.334 C  
HETATM   11  S   UNL     1     -11.943  14.149  69.183  1.00  0.00    -0.336 S  
BRANCH  10  12
HETATM   12  N   UNL     1     -11.007  12.871  66.984  1.00  0.00    -0.257 N  
BRANCH  12  13
HETATM   13  C   UNL     1      -9.625  13.343  66.815  1.00  0.00    -0.262 C  
HETATM   14  C   UNL     1      -9.494  14.750  66.251  1.00  0.00    -0.332 C  
ENDBRANCH  12  13
BRANCH  12  15
HETATM   15  C   UNL     1     -11.829  12.642  65.786  1.00  0.00    -0.444 C  
HETATM   16  C   UNL     1     -12.756  13.794  65.438  1.00  0.00    -0.513 C  
ENDBRANCH  12  15
ENDBRANCH  10  12
ENDBRANCH   9  10
ENDBRANCH   8   9
ENDBRANCH   6   8
ENDBRANCH   3   6
ENDBRANCH   2   3
TORSDOF 9
ENDMDL
MODEL       64
REMARK 921   NORMALIZED FREE ENERGY PREDICTED BY IDOCK:   -3.51 KCAL/MOL
REMARK 922        TOTAL FREE ENERGY PREDICTED BY IDOCK:   -5.88 KCAL/MOL
REMARK 923 INTER-LIGAND FREE ENERGY PREDICTED BY IDOCK:   -5.30 KCAL/MOL
REMARK 924 INTRA-LIGAND FREE ENERGY PREDICTED BY IDOCK:   -0.58 KCAL/MOL
REMARK 927      BINDING AFFINITY PREDICTED BY RF-SCORE:    0.00 PKD
ROOT
HETATM    1  C   UNL     1     -12.107  13.176  64.171  1.00  0.00    -0.496 C  
HETATM    2  C   UNL     1     -10.707  13.467  64.704  1.00  0.00    -0.416 C  
ENDROOT
BRANCH   2   3
HETATM    3  N   UNL     1     -10.569  13.217  66.155  1.00  0.00    -0.284 N  
BRANCH   3   4
HETATM    4  C   UNL     1     -11.756  13.407  67.023  1.00  0.00    -0.381 C  
HETATM    5  C   UNL     1     -11.763  12.749  68.401  1.00  0.00    -0.380 C  
ENDBRANCH   3   4
BRANCH   3   6
HETATM    6  C   UNL     1      -9.303  12.866  66.709  1.00  0.00    -0.243 C  
HETATM    7  S   UNL     1      -8.517  11.385  66.457  1.00  0.00    -0.153 S  
BRANCH   6   8
HETATM    8  S   UNL     1      -8.450  14.145  67.628  1.00  0.00    -0.200 SA 
BRANCH   8   9
HETATM    9  S   UNL     1      -8.876  15.876  66.575  1.00  0.00    -0.331 SA 
BRANCH   9  10
HETATM   10  C   UNL     1      -8.660  17.231  67.705  1.00  0.00    -0.217 C  
HETATM   11  S   UNL     1      -7.191  17.958  68.080  1.00  0.00    -0.226 S  
BRANCH  10  12
HETATM   12  N   UNL     1      -9.891  17.733  68.152  1.00  0.00    -0.309 N  
BRANCH  12  13
HETATM   13  C   UNL     1     -11.008  16.825  68.450  1.00  0.00    -0.325 C  
HETATM   14  C   UNL     1     -10.961  16.183  69.828  1.00  0.00    -0.349 C  
ENDBRANCH  12  13
BRANCH  12  15
HETATM   15  C   UNL     1     -10.132  19.184  68.171  1.00  0.00    -0.402 C  
HETATM   16  C   UNL     1     -10.595  19.755  66.841  1.00  0.00    -0.588 C  
ENDBRANCH  12  15
ENDBRANCH  10  12
ENDBRANCH   9  10
ENDBRANCH   8   9
ENDBRANCH   6   8
ENDBRANCH   3   6
ENDBRANCH   2   3
TORSDOF 9
ENDMDL
MODEL       65
REMARK 921   NORMALIZED FREE ENERGY PREDICTED BY IDOCK:   -3.51 KCAL/MOL
REMARK 922        TOTAL FREE ENERGY PREDICTED BY IDOCK:   -5.88 KCAL/MOL
REMARK 923 INTER-LIGAND FREE ENERGY PREDICTED BY IDOCK:   -5.36 KCAL/MOL
REMARK 924 INTRA-LIGAND FREE ENERGY PREDICTED BY IDOCK:   -0.52 KCAL/MOL
REMARK 927      BINDING AFFINITY PREDICTED BY RF-SCORE:    0.00 PKD
ROOT
HETATM    1  C   UNL     1     -12.313  12.052  63.475  1.00  0.00    -0.661 C  
HETATM    2  C   UNL     1     -12.562  12.629  64.866  1.00  0.00    -0.450 C  
ENDROOT
BRANCH   2   3
HETATM    3  N   UNL     1     -11.318  12.970  65.589  1.00  0.00    -0.294 N  
BRANCH   3   4
HETATM    4  C   UNL     1     -10.450  14.040  65.043  1.00  0.00    -0.420 C  
HETATM    5  C   UNL     1     -11.018  15.452  64.930  1.00  0.00    -0.453 C  
ENDBRANCH   3   4
BRANCH   3   6
HETATM    6  C   UNL     1     -10.935  12.235  66.750  1.00  0.00    -0.276 C  
HETATM    7  S   UNL     1     -11.569  12.484  68.302  1.00  0.00    -0.344 S  
BRANCH   6   8
HETATM    8  S   UNL     1      -9.797  10.875  66.495  1.00  0.00    -0.211 SA 
BRANCH   8   9
HETATM    9  S   UNL     1     -10.647   9.315  67.556  1.00  0.00    -0.211 SA 
BRANCH   9  10
HETATM   10  C   UNL     1      -9.830   9.261  69.134  1.00  0.00    -0.167 C  
HETATM   11  S   UNL     1      -8.399  10.059  69.514  1.00  0.00    -0.173 S  
BRANCH  10  12
HETATM   12  N   UNL     1     -10.598   8.582  70.091  1.00  0.00    -0.228 N  
BRANCH  12  13
HETATM   13  C   UNL     1     -10.966   9.234  71.357  1.00  0.00    -0.359 C  
HETATM   14  C   UNL     1     -12.257  10.038  71.311  1.00  0.00    -0.498 C  
ENDBRANCH  12  13
BRANCH  12  15
HETATM   15  C   UNL     1     -10.905   7.155  69.913  1.00  0.00    -0.254 C  
HETATM   16  C   UNL     1     -11.230   6.423  71.204  1.00  0.00    -0.357 C  
ENDBRANCH  12  15
ENDBRANCH  10  12
ENDBRANCH   9  10
ENDBRANCH   8   9
ENDBRANCH   6   8
ENDBRANCH   3   6
ENDBRANCH   2   3
TORSDOF 9
ENDMDL
MODEL       66
REMARK 921   NORMALIZED FREE ENERGY PREDICTED BY IDOCK:   -3.51 KCAL/MOL
REMARK 922        TOTAL FREE ENERGY PREDICTED BY IDOCK:   -5.87 KCAL/MOL
REMARK 923 INTER-LIGAND FREE ENERGY PREDICTED BY IDOCK:   -5.21 KCAL/MOL
REMARK 924 INTRA-LIGAND FREE ENERGY PREDICTED BY IDOCK:   -0.66 KCAL/MOL
REMARK 927      BINDING AFFINITY PREDICTED BY RF-SCORE:    0.00 PKD
ROOT
HETATM    1  C   UNL     1      -6.657  18.742  65.459  1.00  0.00    -0.307 C  
HETATM    2  C   UNL     1      -7.210  19.679  66.530  1.00  0.00    -0.228 C  
ENDROOT
BRANCH   2   3
HETATM    3  N   UNL     1      -8.367  19.115  67.260  1.00  0.00    -0.274 N  
BRANCH   3   4
HETATM    4  C   UNL     1      -9.669  19.819  67.178  1.00  0.00    -0.376 C  
HETATM    5  C   UNL     1     -10.457  19.743  65.873  1.00  0.00    -0.587 C  
ENDBRANCH   3   4
BRANCH   3   6
HETATM    6  C   UNL     1      -8.209  17.956  68.075  1.00  0.00    -0.257 C  
HETATM    7  S   UNL     1      -6.871  17.654  69.072  1.00  0.00    -0.221 S  
BRANCH   6   8
HETATM    8  S   UNL     1      -9.593  16.821  68.127  1.00  0.00    -0.249 SA 
BRANCH   8   9
HETATM    9  S   UNL     1      -9.536  15.889  66.280  1.00  0.00    -0.344 SA 
BRANCH   9  10
HETATM   10  C   UNL     1      -9.375  14.146  66.588  1.00  0.00    -0.282 C  
HETATM   11  S   UNL     1      -8.201  13.436  67.560  1.00  0.00    -0.193 S  
BRANCH  10  12
HETATM   12  N   UNL     1     -10.441  13.422  66.036  1.00  0.00    -0.289 N  
BRANCH  12  13
HETATM   13  C   UNL     1     -10.714  13.471  64.591  1.00  0.00    -0.416 C  
HETATM   14  C   UNL     1     -12.149  13.816  64.222  1.00  0.00    -0.481 C  
ENDBRANCH  12  13
BRANCH  12  15
HETATM   15  C   UNL     1     -11.400  12.735  66.914  1.00  0.00    -0.321 C  
HETATM   16  C   UNL     1     -12.024  13.629  67.973  1.00  0.00    -0.385 C  
ENDBRANCH  12  15
ENDBRANCH  10  12
ENDBRANCH   9  10
ENDBRANCH   8   9
ENDBRANCH   6   8
ENDBRANCH   3   6
ENDBRANCH   2   3
TORSDOF 9
ENDMDL
MODEL       67
REMARK 921   NORMALIZED FREE ENERGY PREDICTED BY IDOCK:   -3.51 KCAL/MOL
REMARK 922        TOTAL FREE ENERGY PREDICTED BY IDOCK:   -5.87 KCAL/MOL
REMARK 923 INTER-LIGAND FREE ENERGY PREDICTED BY IDOCK:   -5.36 KCAL/MOL
REMARK 924 INTRA-LIGAND FREE ENERGY PREDICTED BY IDOCK:   -0.51 KCAL/MOL
REMARK 927      BINDING AFFINITY PREDICTED BY RF-SCORE:    0.00 PKD
ROOT
HETATM    1  C   UNL     1     -10.133  10.625  65.360  1.00  0.00    -0.356 C  
HETATM    2  C   UNL     1      -9.561  11.761  66.203  1.00  0.00    -0.232 C  
ENDROOT
BRANCH   2   3
HETATM    3  N   UNL     1     -10.016  13.099  65.767  1.00  0.00    -0.275 N  
BRANCH   3   4
HETATM    4  C   UNL     1     -10.729  13.220  64.473  1.00  0.00    -0.411 C  
HETATM    5  C   UNL     1     -12.119  13.849  64.463  1.00  0.00    -0.473 C  
ENDBRANCH   3   4
BRANCH   3   6
HETATM    6  C   UNL     1      -9.713  14.253  66.548  1.00  0.00    -0.291 C  
HETATM    7  S   UNL     1      -9.322  15.774  65.910  1.00  0.00    -0.271 S  
BRANCH   6   8
HETATM    8  S   UNL     1      -9.889  14.085  68.323  1.00  0.00    -0.235 SA 
BRANCH   8   9
HETATM    9  S   UNL     1     -11.839  13.434  68.566  1.00  0.00    -0.347 SA 
BRANCH   9  10
HETATM   10  C   UNL     1     -12.070  13.142  70.303  1.00  0.00    -0.328 C  
HETATM   11  S   UNL     1     -12.240  14.336  71.475  1.00  0.00    -0.233 S  
BRANCH  10  12
HETATM   12  N   UNL     1     -12.241  11.778  70.581  1.00  0.00    -0.380 N  
BRANCH  12  13
HETATM   13  C   UNL     1     -11.838  10.756  69.603  1.00  0.00    -0.320 C  
HETATM   14  C   UNL     1     -10.392  10.297  69.716  1.00  0.00    -0.287 C  
ENDBRANCH  12  13
BRANCH  12  15
HETATM   15  C   UNL     1     -12.976  11.356  71.783  1.00  0.00    -0.414 C  
HETATM   16  C   UNL     1     -13.386   9.893  71.780  1.00  0.00    -0.501 C  
ENDBRANCH  12  15
ENDBRANCH  10  12
ENDBRANCH   9  10
ENDBRANCH   8   9
ENDBRANCH   6   8
ENDBRANCH   3   6
ENDBRANCH   2   3
TORSDOF 9
ENDMDL
MODEL       68
REMARK 921   NORMALIZED FREE ENERGY PREDICTED BY IDOCK:   -3.50 KCAL/MOL
REMARK 922        TOTAL FREE ENERGY PREDICTED BY IDOCK:   -5.86 KCAL/MOL
REMARK 923 INTER-LIGAND FREE ENERGY PREDICTED BY IDOCK:   -5.49 KCAL/MOL
REMARK 924 INTRA-LIGAND FREE ENERGY PREDICTED BY IDOCK:   -0.37 KCAL/MOL
REMARK 927      BINDING AFFINITY PREDICTED BY RF-SCORE:    0.00 PKD
ROOT
HETATM    1  C   UNL     1     -11.375  11.382  67.358  1.00  0.00    -0.359 C  
HETATM    2  C   UNL     1     -11.835  12.668  66.675  1.00  0.00    -0.380 C  
ENDROOT
BRANCH   2   3
HETATM    3  N   UNL     1     -10.804  13.266  65.799  1.00  0.00    -0.273 N  
BRANCH   3   4
HETATM    4  C   UNL     1     -10.762  12.861  64.374  1.00  0.00    -0.386 C  
HETATM    5  C   UNL     1     -12.059  12.897  63.568  1.00  0.00    -0.633 C  
ENDBRANCH   3   4
BRANCH   3   6
HETATM    6  C   UNL     1      -9.834  14.162  66.336  1.00  0.00    -0.296 C  
HETATM    7  S   UNL     1      -8.476  13.687  67.235  1.00  0.00    -0.173 S  
BRANCH   6   8
HETATM    8  S   UNL     1     -10.019  15.891  65.908  1.00  0.00    -0.369 SA 
BRANCH   8   9
HETATM    9  S   UNL     1     -10.295  16.825  67.735  1.00  0.00    -0.328 SA 
BRANCH   9  10
HETATM   10  C   UNL     1      -8.805  17.729  68.080  1.00  0.00    -0.259 C  
HETATM   11  S   UNL     1      -7.429  17.095  68.808  1.00  0.00    -0.243 S  
BRANCH  10  12
HETATM   12  N   UNL     1      -8.848  19.023  67.538  1.00  0.00    -0.287 N  
BRANCH  12  13
HETATM   13  C   UNL     1     -10.134  19.699  67.310  1.00  0.00    -0.409 C  
HETATM   14  C   UNL     1     -10.468  19.963  65.850  1.00  0.00    -0.567 C  
ENDBRANCH  12  13
BRANCH  12  15
HETATM   15  C   UNL     1      -7.617  19.655  67.039  1.00  0.00    -0.247 C  
HETATM   16  C   UNL     1      -7.092  19.056  65.745  1.00  0.00    -0.286 C  
ENDBRANCH  12  15
ENDBRANCH  10  12
ENDBRANCH   9  10
ENDBRANCH   8   9
ENDBRANCH   6   8
ENDBRANCH   3   6
ENDBRANCH   2   3
TORSDOF 9
ENDMDL
MODEL       69
REMARK 921   NORMALIZED FREE ENERGY PREDICTED BY IDOCK:   -3.49 KCAL/MOL
REMARK 922        TOTAL FREE ENERGY PREDICTED BY IDOCK:   -5.84 KCAL/MOL
REMARK 923 INTER-LIGAND FREE ENERGY PREDICTED BY IDOCK:   -5.57 KCAL/MOL
REMARK 924 INTRA-LIGAND FREE ENERGY PREDICTED BY IDOCK:   -0.27 KCAL/MOL
REMARK 927      BINDING AFFINITY PREDICTED BY RF-SCORE:    0.00 PKD
ROOT
HETATM    1  C   UNL     1     -11.933  12.532  65.922  1.00  0.00    -0.472 C  
HETATM    2  C   UNL     1     -11.996  13.738  66.855  1.00  0.00    -0.421 C  
ENDROOT
BRANCH   2   3
HETATM    3  N   UNL     1     -11.569  13.432  68.238  1.00  0.00    -0.321 N  
BRANCH   3   4
HETATM    4  C   UNL     1     -10.871  12.150  68.497  1.00  0.00    -0.236 C  
HETATM    5  C   UNL     1     -11.698  10.949  68.951  1.00  0.00    -0.376 C  
ENDBRANCH   3   4
BRANCH   3   6
HETATM    6  C   UNL     1     -11.884  14.324  69.304  1.00  0.00    -0.330 C  
HETATM    7  S   UNL     1     -12.462  13.844  70.824  1.00  0.00    -0.375 S  
BRANCH   6   8
HETATM    8  S   UNL     1     -11.513  16.055  69.033  1.00  0.00    -0.335 SA 
BRANCH   8   9
HETATM    9  S   UNL     1      -9.445  16.124  69.041  1.00  0.00    -0.250 SA 
BRANCH   9  10
HETATM   10  C   UNL     1      -8.956  17.064  67.614  1.00  0.00    -0.221 C  
HETATM   11  S   UNL     1      -8.164  16.444  66.267  1.00  0.00    -0.223 S  
BRANCH  10  12
HETATM   12  N   UNL     1      -9.440  18.380  67.671  1.00  0.00    -0.270 N  
BRANCH  12  13
HETATM   13  C   UNL     1      -8.990  19.300  68.725  1.00  0.00    -0.355 C  
HETATM   14  C   UNL     1      -7.480  19.426  68.864  1.00  0.00    -0.399 C  
ENDBRANCH  12  13
BRANCH  12  15
HETATM   15  C   UNL     1     -10.527  18.805  66.775  1.00  0.00    -0.420 C  
HETATM   16  C   UNL     1     -10.218  20.060  65.976  1.00  0.00    -0.568 C  
ENDBRANCH  12  15
ENDBRANCH  10  12
ENDBRANCH   9  10
ENDBRANCH   8   9
ENDBRANCH   6   8
ENDBRANCH   3   6
ENDBRANCH   2   3
TORSDOF 9
ENDMDL
MODEL       70
REMARK 921   NORMALIZED FREE ENERGY PREDICTED BY IDOCK:   -3.49 KCAL/MOL
REMARK 922        TOTAL FREE ENERGY PREDICTED BY IDOCK:   -5.84 KCAL/MOL
REMARK 923 INTER-LIGAND FREE ENERGY PREDICTED BY IDOCK:   -5.46 KCAL/MOL
REMARK 924 INTRA-LIGAND FREE ENERGY PREDICTED BY IDOCK:   -0.38 KCAL/MOL
REMARK 927      BINDING AFFINITY PREDICTED BY RF-SCORE:    0.00 PKD
ROOT
HETATM    1  C   UNL     1     -12.278  12.265  63.507  1.00  0.00    -0.669 C  
HETATM    2  C   UNL     1     -12.180  12.905  64.889  1.00  0.00    -0.453 C  
ENDROOT
BRANCH   2   3
HETATM    3  N   UNL     1     -11.072  12.366  65.706  1.00  0.00    -0.303 N  
BRANCH   3   4
HETATM    4  C   UNL     1     -10.441  11.090  65.293  1.00  0.00    -0.251 C  
HETATM    5  C   UNL     1      -8.949  11.087  64.969  1.00  0.00    -0.137 C  
ENDBRANCH   3   4
BRANCH   3   6
HETATM    6  C   UNL     1     -10.669  13.030  66.902  1.00  0.00    -0.262 C  
HETATM    7  S   UNL     1      -9.293  14.011  67.043  1.00  0.00    -0.259 S  
BRANCH   6   8
HETATM    8  S   UNL     1     -11.781  12.904  68.300  1.00  0.00    -0.346 SA 
BRANCH   8   9
HETATM    9  S   UNL     1     -11.354  11.046  69.104  1.00  0.00    -0.309 SA 
BRANCH   9  10
HETATM   10  C   UNL     1     -12.173  10.967  70.679  1.00  0.00    -0.385 C  
HETATM   11  S   UNL     1     -12.998  12.237  71.410  1.00  0.00    -0.140 S  
BRANCH  10  12
HETATM   12  N   UNL     1     -12.181   9.662  71.194  1.00  0.00    -0.330 N  
BRANCH  12  13
HETATM   13  C   UNL     1     -13.224   9.233  72.137  1.00  0.00    -0.461 C  
HETATM   14  C   UNL     1     -14.333   8.390  71.524  1.00  0.00    -0.499 C  
ENDBRANCH  12  13
BRANCH  12  15
HETATM   15  C   UNL     1     -11.052   8.758  70.927  1.00  0.00    -0.268 C  
HETATM   16  C   UNL     1     -10.072   8.628  72.080  1.00  0.00    -0.388 C  
ENDBRANCH  12  15
ENDBRANCH  10  12
ENDBRANCH   9  10
ENDBRANCH   8   9
ENDBRANCH   6   8
ENDBRANCH   3   6
ENDBRANCH   2   3
TORSDOF 9
ENDMDL
MODEL       71
REMARK 921   NORMALIZED FREE ENERGY PREDICTED BY IDOCK:   -3.49 KCAL/MOL
REMARK 922        TOTAL FREE ENERGY PREDICTED BY IDOCK:   -5.84 KCAL/MOL
REMARK 923 INTER-LIGAND FREE ENERGY PREDICTED BY IDOCK:   -5.30 KCAL/MOL
REMARK 924 INTRA-LIGAND FREE ENERGY PREDICTED BY IDOCK:   -0.54 KCAL/MOL
REMARK 927      BINDING AFFINITY PREDICTED BY RF-SCORE:    0.00 PKD
ROOT
HETATM    1  C   UNL     1     -10.750   7.531  73.049  1.00  0.00    -0.438 C  
HETATM    2  C   UNL     1     -10.186   8.686  72.225  1.00  0.00    -0.301 C  
ENDROOT
BRANCH   2   3
HETATM    3  N   UNL     1     -11.023   9.032  71.055  1.00  0.00    -0.260 N  
BRANCH   3   4
HETATM    4  C   UNL     1     -12.460   9.326  71.273  1.00  0.00    -0.316 C  
HETATM    5  C   UNL     1     -12.872  10.765  71.572  1.00  0.00    -0.567 C  
ENDBRANCH   3   4
BRANCH   3   6
HETATM    6  C   UNL     1     -10.468   9.017  69.742  1.00  0.00    -0.218 C  
HETATM    7  S   UNL     1     -10.343   7.638  68.764  1.00  0.00    -0.190 S  
BRANCH   6   8
HETATM    8  S   UNL     1      -9.995  10.603  69.056  1.00  0.00    -0.206 SA 
BRANCH   8   9
HETATM    9  S   UNL     1     -11.590  11.109  67.839  1.00  0.00    -0.189 SA 
BRANCH   9  10
HETATM   10  C   UNL     1     -11.704  12.883  67.853  1.00  0.00    -0.357 C  
HETATM   11  S   UNL     1     -11.886  13.834  69.228  1.00  0.00    -0.358 S  
BRANCH  10  12
HETATM   12  N   UNL     1     -11.478  13.426  66.580  1.00  0.00    -0.327 N  
BRANCH  12  13
HETATM   13  C   UNL     1     -12.604  13.848  65.733  1.00  0.00    -0.494 C  
HETATM   14  C   UNL     1     -12.206  14.502  64.419  1.00  0.00    -0.480 C  
ENDBRANCH  12  13
BRANCH  12  15
HETATM   15  C   UNL     1     -10.123  13.428  66.009  1.00  0.00    -0.304 C  
HETATM   16  C   UNL     1      -9.198  14.476  66.606  1.00  0.00    -0.290 C  
ENDBRANCH  12  15
ENDBRANCH  10  12
ENDBRANCH   9  10
ENDBRANCH   8   9
ENDBRANCH   6   8
ENDBRANCH   3   6
ENDBRANCH   2   3
TORSDOF 9
ENDMDL
MODEL       72
REMARK 921   NORMALIZED FREE ENERGY PREDICTED BY IDOCK:   -3.49 KCAL/MOL
REMARK 922        TOTAL FREE ENERGY PREDICTED BY IDOCK:   -5.84 KCAL/MOL
REMARK 923 INTER-LIGAND FREE ENERGY PREDICTED BY IDOCK:   -5.08 KCAL/MOL
REMARK 924 INTRA-LIGAND FREE ENERGY PREDICTED BY IDOCK:   -0.76 KCAL/MOL
REMARK 927      BINDING AFFINITY PREDICTED BY RF-SCORE:    0.00 PKD
ROOT
HETATM    1  C   UNL     1      -9.852   8.800  66.573  1.00  0.00    -0.349 C  
HETATM    2  C   UNL     1      -9.489  10.260  66.317  1.00  0.00    -0.177 C  
ENDROOT
BRANCH   2   3
HETATM    3  N   UNL     1     -10.652  11.172  66.382  1.00  0.00    -0.260 N  
BRANCH   3   4
HETATM    4  C   UNL     1     -11.450  11.216  67.630  1.00  0.00    -0.250 C  
HETATM    5  C   UNL     1     -10.795  11.764  68.895  1.00  0.00    -0.265 C  
ENDBRANCH   3   4
BRANCH   3   6
HETATM    6  C   UNL     1     -11.030  11.940  65.241  1.00  0.00    -0.302 C  
HETATM    7  S   UNL     1     -10.607  11.564  63.643  1.00  0.00    -0.450 S  
BRANCH   6   8
HETATM    8  S   UNL     1     -12.134  13.319  65.536  1.00  0.00    -0.463 SA 
BRANCH   8   9
HETATM    9  S   UNL     1     -10.929  14.981  65.274  1.00  0.00    -0.405 SA 
BRANCH   9  10
HETATM   10  C   UNL     1      -9.994  15.179  66.772  1.00  0.00    -0.239 C  
HETATM   11  S   UNL     1      -8.586  14.346  67.156  1.00  0.00    -0.204 S  
BRANCH  10  12
HETATM   12  N   UNL     1     -10.490  16.232  67.555  1.00  0.00    -0.297 N  
BRANCH  12  13
HETATM   13  C   UNL     1      -9.810  17.536  67.577  1.00  0.00    -0.293 C  
HETATM   14  C   UNL     1     -10.730  18.740  67.441  1.00  0.00    -0.487 C  
ENDBRANCH  12  13
BRANCH  12  15
HETATM   15  C   UNL     1     -11.600  15.996  68.491  1.00  0.00    -0.316 C  
HETATM   16  C   UNL     1     -11.167  15.479  69.852  1.00  0.00    -0.322 C  
ENDBRANCH  12  15
ENDBRANCH  10  12
ENDBRANCH   9  10
ENDBRANCH   8   9
ENDBRANCH   6   8
ENDBRANCH   3   6
ENDBRANCH   2   3
TORSDOF 9
ENDMDL
MODEL       73
REMARK 921   NORMALIZED FREE ENERGY PREDICTED BY IDOCK:   -3.47 KCAL/MOL
REMARK 922        TOTAL FREE ENERGY PREDICTED BY IDOCK:   -5.82 KCAL/MOL
REMARK 923 INTER-LIGAND FREE ENERGY PREDICTED BY IDOCK:   -5.25 KCAL/MOL
REMARK 924 INTRA-LIGAND FREE ENERGY PREDICTED BY IDOCK:   -0.57 KCAL/MOL
REMARK 927      BINDING AFFINITY PREDICTED BY RF-SCORE:    0.00 PKD
ROOT
HETATM    1  C   UNL     1      -7.094  19.390  68.944  1.00  0.00    -0.393 C  
HETATM    2  C   UNL     1      -7.000  17.882  68.730  1.00  0.00    -0.262 C  
ENDROOT
BRANCH   2   3
HETATM    3  N   UNL     1      -7.924  17.379  67.691  1.00  0.00    -0.191 N  
BRANCH   3   4
HETATM    4  C   UNL     1      -7.391  17.125  66.331  1.00  0.00    -0.299 C  
HETATM    5  C   UNL     1      -6.198  17.948  65.851  1.00  0.00    -0.273 C  
ENDBRANCH   3   4
BRANCH   3   6
HETATM    6  C   UNL     1      -9.310  17.208  67.980  1.00  0.00    -0.254 C  
HETATM    7  S   UNL     1     -10.545  18.224  67.416  1.00  0.00    -0.356 S  
BRANCH   6   8
HETATM    8  S   UNL     1      -9.759  15.737  68.899  1.00  0.00    -0.240 SA 
BRANCH   8   9
HETATM    9  S   UNL     1     -11.623  15.238  68.150  1.00  0.00    -0.279 SA 
BRANCH   9  10
HETATM   10  C   UNL     1     -11.423  13.722  67.244  1.00  0.00    -0.341 C  
HETATM   11  S   UNL     1     -11.317  12.189  67.927  1.00  0.00    -0.324 S  
BRANCH  10  12
HETATM   12  N   UNL     1     -11.509  13.931  65.860  1.00  0.00    -0.318 N  
BRANCH  12  13
HETATM   13  C   UNL     1     -10.607  14.877  65.186  1.00  0.00    -0.428 C  
HETATM   14  C   UNL     1     -11.305  15.960  64.376  1.00  0.00    -0.276 C  
ENDBRANCH  12  13
BRANCH  12  15
HETATM   15  C   UNL     1     -12.609  13.331  65.090  1.00  0.00    -0.453 C  
HETATM   16  C   UNL     1     -12.160  12.325  64.044  1.00  0.00    -0.563 C  
ENDBRANCH  12  15
ENDBRANCH  10  12
ENDBRANCH   9  10
ENDBRANCH   8   9
ENDBRANCH   6   8
ENDBRANCH   3   6
ENDBRANCH   2   3
TORSDOF 9
ENDMDL
MODEL       74
REMARK 921   NORMALIZED FREE ENERGY PREDICTED BY IDOCK:   -3.47 KCAL/MOL
REMARK 922        TOTAL FREE ENERGY PREDICTED BY IDOCK:   -5.81 KCAL/MOL
REMARK 923 INTER-LIGAND FREE ENERGY PREDICTED BY IDOCK:   -5.42 KCAL/MOL
REMARK 924 INTRA-LIGAND FREE ENERGY PREDICTED BY IDOCK:   -0.39 KCAL/MOL
REMARK 927      BINDING AFFINITY PREDICTED BY RF-SCORE:    0.00 PKD
ROOT
HETATM    1  C   UNL     1      -9.941  11.596  63.438  1.00  0.00    -0.447 C  
HETATM    2  C   UNL     1     -10.347  10.775  64.659  1.00  0.00    -0.324 C  
ENDROOT
BRANCH   2   3
HETATM    3  N   UNL     1     -10.746  11.606  65.816  1.00  0.00    -0.274 N  
BRANCH   3   4
HETATM    4  C   UNL     1     -10.921  13.064  65.616  1.00  0.00    -0.273 C  
HETATM    5  C   UNL     1     -12.305  13.587  65.241  1.00  0.00    -0.506 C  
ENDBRANCH   3   4
BRANCH   3   6
HETATM    6  C   UNL     1     -10.892  11.020  67.108  1.00  0.00    -0.282 C  
HETATM    7  S   UNL     1     -11.572  11.801  68.450  1.00  0.00    -0.324 S  
BRANCH   6   8
HETATM    8  S   UNL     1     -10.433   9.295  67.260  1.00  0.00    -0.241 SA 
BRANCH   8   9
HETATM    9  S   UNL     1      -9.888   9.103  69.247  1.00  0.00    -0.181 SA 
BRANCH   9  10
HETATM   10  C   UNL     1     -10.873   7.788  69.924  1.00  0.00    -0.226 C  
HETATM   11  S   UNL     1     -10.928   6.213  69.337  1.00  0.00    -0.395 S  
BRANCH  10  12
HETATM   12  N   UNL     1     -11.505   8.175  71.115  1.00  0.00    -0.272 N  
BRANCH  12  13
HETATM   13  C   UNL     1     -11.772   9.594  71.396  1.00  0.00    -0.404 C  
HETATM   14  C   UNL     1     -13.187   9.899  71.865  1.00  0.00    -0.558 C  
ENDBRANCH  12  13
BRANCH  12  15
HETATM   15  C   UNL     1     -11.762   7.184  72.171  1.00  0.00    -0.284 C  
HETATM   16  C   UNL     1     -10.765   7.223  73.317  1.00  0.00    -0.428 C  
ENDBRANCH  12  15
ENDBRANCH  10  12
ENDBRANCH   9  10
ENDBRANCH   8   9
ENDBRANCH   6   8
ENDBRANCH   3   6
ENDBRANCH   2   3
TORSDOF 9
ENDMDL
MODEL       75
REMARK 921   NORMALIZED FREE ENERGY PREDICTED BY IDOCK:   -3.46 KCAL/MOL
REMARK 922        TOTAL FREE ENERGY PREDICTED BY IDOCK:   -5.79 KCAL/MOL
REMARK 923 INTER-LIGAND FREE ENERGY PREDICTED BY IDOCK:   -5.36 KCAL/MOL
REMARK 924 INTRA-LIGAND FREE ENERGY PREDICTED BY IDOCK:   -0.44 KCAL/MOL
REMARK 927      BINDING AFFINITY PREDICTED BY RF-SCORE:    0.00 PKD
ROOT
HETATM    1  C   UNL     1     -10.655  19.930  65.712  1.00  0.00    -0.490 C  
HETATM    2  C   UNL     1     -10.245  19.655  67.156  1.00  0.00    -0.435 C  
ENDROOT
BRANCH   2   3
HETATM    3  N   UNL     1      -9.017  18.839  67.271  1.00  0.00    -0.272 N  
BRANCH   3   4
HETATM    4  C   UNL     1      -7.761  19.361  66.681  1.00  0.00    -0.267 C  
HETATM    5  C   UNL     1      -7.142  20.620  67.282  1.00  0.00    -0.385 C  
ENDBRANCH   3   4
BRANCH   3   6
HETATM    6  C   UNL     1      -9.062  17.550  67.878  1.00  0.00    -0.261 C  
HETATM    7  S   UNL     1      -7.736  16.777  68.599  1.00  0.00    -0.241 S  
BRANCH   6   8
HETATM    8  S   UNL     1     -10.672  16.773  67.986  1.00  0.00    -0.339 SA 
BRANCH   8   9
HETATM    9  S   UNL     1     -10.309  15.030  69.042  1.00  0.00    -0.249 SA 
BRANCH   9  10
HETATM   10  C   UNL     1     -10.117  13.733  67.842  1.00  0.00    -0.246 C  
HETATM   11  S   UNL     1      -8.648  13.149  67.270  1.00  0.00    -0.202 S  
BRANCH  10  12
HETATM   12  N   UNL     1     -11.346  13.139  67.521  1.00  0.00    -0.283 N  
BRANCH  12  13
HETATM   13  C   UNL     1     -11.714  11.828  68.077  1.00  0.00    -0.293 C  
HETATM   14  C   UNL     1     -11.684  11.745  69.595  1.00  0.00    -0.413 C  
ENDBRANCH  12  13
BRANCH  12  15
HETATM   15  C   UNL     1     -12.212  13.742  66.496  1.00  0.00    -0.430 C  
HETATM   16  C   UNL     1     -12.438  12.863  65.278  1.00  0.00    -0.552 C  
ENDBRANCH  12  15
ENDBRANCH  10  12
ENDBRANCH   9  10
ENDBRANCH   8   9
ENDBRANCH   6   8
ENDBRANCH   3   6
ENDBRANCH   2   3
TORSDOF 9
ENDMDL
MODEL       76
REMARK 921   NORMALIZED FREE ENERGY PREDICTED BY IDOCK:   -3.45 KCAL/MOL
REMARK 922        TOTAL FREE ENERGY PREDICTED BY IDOCK:   -5.79 KCAL/MOL
REMARK 923 INTER-LIGAND FREE ENERGY PREDICTED BY IDOCK:   -5.27 KCAL/MOL
REMARK 924 INTRA-LIGAND FREE ENERGY PREDICTED BY IDOCK:   -0.51 KCAL/MOL
REMARK 927      BINDING AFFINITY PREDICTED BY RF-SCORE:    0.00 PKD
ROOT
HETATM    1  C   UNL     1     -12.611  13.425  65.562  1.00  0.00    -0.520 C  
HETATM    2  C   UNL     1     -11.231  13.720  66.143  1.00  0.00    -0.300 C  
ENDROOT
BRANCH   2   3
HETATM    3  N   UNL     1     -10.619  12.555  66.819  1.00  0.00    -0.232 N  
BRANCH   3   4
HETATM    4  C   UNL     1      -9.545  11.812  66.117  1.00  0.00    -0.232 C  
HETATM    5  C   UNL     1      -9.914  10.990  64.885  1.00  0.00    -0.343 C  
ENDBRANCH   3   4
BRANCH   3   6
HETATM    6  C   UNL     1     -11.103  12.121  68.088  1.00  0.00    -0.248 C  
HETATM    7  S   UNL     1     -11.629  13.156  69.324  1.00  0.00    -0.316 S  
BRANCH   6   8
HETATM    8  S   UNL     1     -11.274  10.353  68.317  1.00  0.00    -0.224 SA 
BRANCH   8   9
HETATM    9  S   UNL     1     -10.418  10.011  70.170  1.00  0.00    -0.261 SA 
BRANCH   9  10
HETATM   10  C   UNL     1     -11.728   9.493  71.253  1.00  0.00    -0.370 C  
HETATM   11  S   UNL     1     -13.063  10.424  71.677  1.00  0.00    -0.441 S  
BRANCH  10  12
HETATM   12  N   UNL     1     -11.600   8.143  71.612  1.00  0.00    -0.266 N  
BRANCH  12  13
HETATM   13  C   UNL     1     -12.129   7.082  70.742  1.00  0.00    -0.327 C  
HETATM   14  C   UNL     1     -11.072   6.223  70.065  1.00  0.00    -0.455 C  
ENDBRANCH  12  13
BRANCH  12  15
HETATM   15  C   UNL     1     -11.083   7.779  72.940  1.00  0.00    -0.398 C  
HETATM   16  C   UNL     1      -9.575   7.909  73.076  1.00  0.00    -0.341 C  
ENDBRANCH  12  15
ENDBRANCH  10  12
ENDBRANCH   9  10
ENDBRANCH   8   9
ENDBRANCH   6   8
ENDBRANCH   3   6
ENDBRANCH   2   3
TORSDOF 9
ENDMDL
MODEL       77
REMARK 921   NORMALIZED FREE ENERGY PREDICTED BY IDOCK:   -3.44 KCAL/MOL
REMARK 922        TOTAL FREE ENERGY PREDICTED BY IDOCK:   -5.76 KCAL/MOL
REMARK 923 INTER-LIGAND FREE ENERGY PREDICTED BY IDOCK:   -5.33 KCAL/MOL
REMARK 924 INTRA-LIGAND FREE ENERGY PREDICTED BY IDOCK:   -0.43 KCAL/MOL
REMARK 927      BINDING AFFINITY PREDICTED BY RF-SCORE:    0.00 PKD
ROOT
HETATM    1  C   UNL     1     -10.690  19.567  67.370  1.00  0.00    -0.589 C  
HETATM    2  C   UNL     1      -9.955  18.440  68.091  1.00  0.00    -0.364 C  
ENDROOT
BRANCH   2   3
HETATM    3  N   UNL     1      -8.488  18.489  67.912  1.00  0.00    -0.270 N  
BRANCH   3   4
HETATM    4  C   UNL     1      -7.758  19.697  68.366  1.00  0.00    -0.331 C  
HETATM    5  C   UNL     1      -6.735  19.551  69.489  1.00  0.00    -0.354 C  
ENDBRANCH   3   4
BRANCH   3   6
HETATM    6  C   UNL     1      -7.806  17.423  67.256  1.00  0.00    -0.198 C  
HETATM    7  S   UNL     1      -6.453  17.616  66.252  1.00  0.00    -0.260 S  
BRANCH   6   8
HETATM    8  S   UNL     1      -8.361  15.764  67.638  1.00  0.00    -0.164 SA 
BRANCH   8   9
HETATM    9  S   UNL     1      -9.477  15.222  65.981  1.00  0.00    -0.314 SA 
BRANCH   9  10
HETATM   10  C   UNL     1     -10.112  13.593  66.299  1.00  0.00    -0.299 C  
HETATM   11  S   UNL     1      -9.178  12.220  66.560  1.00  0.00    -0.195 S  
BRANCH  10  12
HETATM   12  N   UNL     1     -11.506  13.603  66.454  1.00  0.00    -0.326 N  
BRANCH  12  13
HETATM   13  C   UNL     1     -12.121  14.091  67.697  1.00  0.00    -0.309 C  
HETATM   14  C   UNL     1     -11.807  13.264  68.934  1.00  0.00    -0.367 C  
ENDBRANCH  12  13
BRANCH  12  15
HETATM   15  C   UNL     1     -12.365  12.972  65.440  1.00  0.00    -0.486 C  
HETATM   16  C   UNL     1     -12.087  13.429  64.018  1.00  0.00    -0.506 C  
ENDBRANCH  12  15
ENDBRANCH  10  12
ENDBRANCH   9  10
ENDBRANCH   8   9
ENDBRANCH   6   8
ENDBRANCH   3   6
ENDBRANCH   2   3
TORSDOF 9
ENDMDL
MODEL       78
REMARK 921   NORMALIZED FREE ENERGY PREDICTED BY IDOCK:   -3.43 KCAL/MOL
REMARK 922        TOTAL FREE ENERGY PREDICTED BY IDOCK:   -5.75 KCAL/MOL
REMARK 923 INTER-LIGAND FREE ENERGY PREDICTED BY IDOCK:   -5.36 KCAL/MOL
REMARK 924 INTRA-LIGAND FREE ENERGY PREDICTED BY IDOCK:   -0.39 KCAL/MOL
REMARK 927      BINDING AFFINITY PREDICTED BY RF-SCORE:    0.00 PKD
ROOT
HETATM    1  C   UNL     1     -13.266   7.313  71.539  1.00  0.00    -0.434 C  
HETATM    2  C   UNL     1     -11.901   7.911  71.205  1.00  0.00    -0.296 C  
ENDROOT
BRANCH   2   3
HETATM    3  N   UNL     1     -11.977   9.301  70.707  1.00  0.00    -0.251 N  
BRANCH   3   4
HETATM    4  C   UNL     1     -13.216  10.077  70.956  1.00  0.00    -0.325 C  
HETATM    5  C   UNL     1     -13.127  11.334  71.818  1.00  0.00    -0.527 C  
ENDBRANCH   3   4
BRANCH   3   6
HETATM    6  C   UNL     1     -10.905   9.854  69.948  1.00  0.00    -0.278 C  
HETATM    7  S   UNL     1      -9.270   9.455  70.154  1.00  0.00    -0.249 S  
BRANCH   6   8
HETATM    8  S   UNL     1     -11.359  10.949  68.605  1.00  0.00    -0.316 SA 
BRANCH   8   9
HETATM    9  S   UNL     1      -9.581  11.246  67.587  1.00  0.00    -0.173 SA 
BRANCH   9  10
HETATM   10  C   UNL     1      -9.874  12.542  66.407  1.00  0.00    -0.253 C  
HETATM   11  S   UNL     1      -9.633  14.182  66.686  1.00  0.00    -0.297 S  
BRANCH  10  12
HETATM   12  N   UNL     1     -10.200  12.027  65.144  1.00  0.00    -0.269 N  
BRANCH  12  13
HETATM   13  C   UNL     1     -10.688  12.912  64.075  1.00  0.00    -0.399 C  
HETATM   14  C   UNL     1     -12.059  12.553  63.523  1.00  0.00    -0.653 C  
ENDBRANCH  12  13
BRANCH  12  15
HETATM   15  C   UNL     1     -10.216  10.573  64.922  1.00  0.00    -0.300 C  
HETATM   16  C   UNL     1      -9.316  10.108  63.789  1.00  0.00    -0.336 C  
ENDBRANCH  12  15
ENDBRANCH  10  12
ENDBRANCH   9  10
ENDBRANCH   8   9
ENDBRANCH   6   8
ENDBRANCH   3   6
ENDBRANCH   2   3
TORSDOF 9
ENDMDL
MODEL       79
REMARK 921   NORMALIZED FREE ENERGY PREDICTED BY IDOCK:   -3.43 KCAL/MOL
REMARK 922        TOTAL FREE ENERGY PREDICTED BY IDOCK:   -5.75 KCAL/MOL
REMARK 923 INTER-LIGAND FREE ENERGY PREDICTED BY IDOCK:   -5.20 KCAL/MOL
REMARK 924 INTRA-LIGAND FREE ENERGY PREDICTED BY IDOCK:   -0.55 KCAL/MOL
REMARK 927      BINDING AFFINITY PREDICTED BY RF-SCORE:    0.00 PKD
ROOT
HETATM    1  C   UNL     1      -6.648  20.337  68.315  1.00  0.00    -0.335 C  
HETATM    2  C   UNL     1      -7.222  18.933  68.487  1.00  0.00    -0.290 C  
ENDROOT
BRANCH   2   3
HETATM    3  N   UNL     1      -7.887  18.420  67.269  1.00  0.00    -0.228 N  
BRANCH   3   4
HETATM    4  C   UNL     1      -7.049  17.823  66.202  1.00  0.00    -0.312 C  
HETATM    5  C   UNL     1      -5.758  17.112  66.602  1.00  0.00    -0.221 C  
ENDBRANCH   3   4
BRANCH   3   6
HETATM    6  C   UNL     1      -9.296  18.560  67.104  1.00  0.00    -0.277 C  
HETATM    7  S   UNL     1     -10.052  19.881  66.357  1.00  0.00    -0.516 S  
BRANCH   6   8
HETATM    8  S   UNL     1     -10.303  17.171  67.617  1.00  0.00    -0.353 SA 
BRANCH   8   9
HETATM    9  S   UNL     1     -10.385  15.972  65.932  1.00  0.00    -0.384 SA 
BRANCH   9  10
HETATM   10  C   UNL     1      -9.991  14.320  66.457  1.00  0.00    -0.281 C  
HETATM   11  S   UNL     1      -8.548  13.848  67.179  1.00  0.00    -0.173 S  
BRANCH  10  12
HETATM   12  N   UNL     1     -11.092  13.461  66.332  1.00  0.00    -0.296 N  
BRANCH  12  13
HETATM   13  C   UNL     1     -11.666  12.798  67.512  1.00  0.00    -0.364 C  
HETATM   14  C   UNL     1     -11.998  13.728  68.670  1.00  0.00    -0.401 C  
ENDBRANCH  12  13
BRANCH  12  15
HETATM   15  C   UNL     1     -11.584  13.082  64.998  1.00  0.00    -0.325 C  
HETATM   16  C   UNL     1     -10.491  12.671  64.026  1.00  0.00    -0.443 C  
ENDBRANCH  12  15
ENDBRANCH  10  12
ENDBRANCH   9  10
ENDBRANCH   8   9
ENDBRANCH   6   8
ENDBRANCH   3   6
ENDBRANCH   2   3
TORSDOF 9
ENDMDL
MODEL       80
REMARK 921   NORMALIZED FREE ENERGY PREDICTED BY IDOCK:   -3.43 KCAL/MOL
REMARK 922        TOTAL FREE ENERGY PREDICTED BY IDOCK:   -5.74 KCAL/MOL
REMARK 923 INTER-LIGAND FREE ENERGY PREDICTED BY IDOCK:   -5.40 KCAL/MOL
REMARK 924 INTRA-LIGAND FREE ENERGY PREDICTED BY IDOCK:   -0.35 KCAL/MOL
REMARK 927      BINDING AFFINITY PREDICTED BY RF-SCORE:    0.00 PKD
ROOT
HETATM    1  C   UNL     1     -12.078  15.951  72.550  1.00  0.00    -0.611 C  
HETATM    2  C   UNL     1     -12.765  15.663  71.218  1.00  0.00    -0.475 C  
ENDROOT
BRANCH   2   3
HETATM    3  N   UNL     1     -12.146  14.547  70.469  1.00  0.00    -0.303 N  
BRANCH   3   4
HETATM    4  C   UNL     1     -12.436  13.158  70.898  1.00  0.00    -0.323 C  
HETATM    5  C   UNL     1     -13.444  12.939  72.024  1.00  0.00    -0.568 C  
ENDBRANCH   3   4
BRANCH   3   6
HETATM    6  C   UNL     1     -11.238  14.811  69.402  1.00  0.00    -0.284 C  
HETATM    7  S   UNL     1     -10.226  13.653  68.688  1.00  0.00    -0.152 S  
BRANCH   6   8
HETATM    8  S   UNL     1     -11.285  16.459  68.703  1.00  0.00    -0.277 SA 
BRANCH   8   9
HETATM    9  S   UNL     1      -9.924  16.373  67.145  1.00  0.00    -0.266 SA 
BRANCH   9  10
HETATM   10  C   UNL     1      -8.490  17.284  67.665  1.00  0.00    -0.209 C  
HETATM   11  S   UNL     1      -7.389  16.780  68.831  1.00  0.00    -0.235 S  
BRANCH  10  12
HETATM   12  N   UNL     1      -8.292  18.430  66.880  1.00  0.00    -0.246 N  
BRANCH  12  13
HETATM   13  C   UNL     1      -6.934  18.896  66.561  1.00  0.00    -0.212 C  
HETATM   14  C   UNL     1      -6.841  19.822  65.358  1.00  0.00    -0.321 C  
ENDBRANCH  12  13
BRANCH  12  15
HETATM   15  C   UNL     1      -9.437  19.272  66.502  1.00  0.00    -0.357 C  
HETATM   16  C   UNL     1      -9.960  20.151  67.626  1.00  0.00    -0.560 C  
ENDBRANCH  12  15
ENDBRANCH  10  12
ENDBRANCH   9  10
ENDBRANCH   8   9
ENDBRANCH   6   8
ENDBRANCH   3   6
ENDBRANCH   2   3
TORSDOF 9
ENDMDL
MODEL       81
REMARK 921   NORMALIZED FREE ENERGY PREDICTED BY IDOCK:   -3.43 KCAL/MOL
REMARK 922        TOTAL FREE ENERGY PREDICTED BY IDOCK:   -5.74 KCAL/MOL
REMARK 923 INTER-LIGAND FREE ENERGY PREDICTED BY IDOCK:   -5.37 KCAL/MOL
REMARK 924 INTRA-LIGAND FREE ENERGY PREDICTED BY IDOCK:   -0.37 KCAL/MOL
REMARK 927      BINDING AFFINITY PREDICTED BY RF-SCORE:    0.00 PKD
ROOT
HETATM    1  C   UNL     1     -13.442   9.050  71.748  1.00  0.00    -0.467 C  
HETATM    2  C   UNL     1     -12.300  10.050  71.592  1.00  0.00    -0.394 C  
ENDROOT
BRANCH   2   3
HETATM    3  N   UNL     1     -11.139   9.502  70.857  1.00  0.00    -0.306 N  
BRANCH   3   4
HETATM    4  C   UNL     1     -10.542   8.227  71.321  1.00  0.00    -0.219 C  
HETATM    5  C   UNL     1      -9.642   8.251  72.554  1.00  0.00    -0.365 C  
ENDBRANCH   3   4
BRANCH   3   6
HETATM    6  C   UNL     1     -10.570  10.224  69.767  1.00  0.00    -0.271 C  
HETATM    7  S   UNL     1      -9.017   9.960  69.141  1.00  0.00    -0.180 S  
BRANCH   6   8
HETATM    8  S   UNL     1     -11.641  11.398  68.940  1.00  0.00    -0.352 SA 
BRANCH   8   9
HETATM    9  S   UNL     1     -10.332  12.597  67.877  1.00  0.00    -0.223 SA 
BRANCH   9  10
HETATM   10  C   UNL     1     -11.116  12.965  66.326  1.00  0.00    -0.288 C  
HETATM   11  S   UNL     1     -12.268  14.165  66.079  1.00  0.00    -0.422 S  
BRANCH  10  12
HETATM   12  N   UNL     1     -10.555  12.225  65.274  1.00  0.00    -0.277 N  
BRANCH  12  13
HETATM   13  C   UNL     1      -9.476  11.260  65.528  1.00  0.00    -0.229 C  
HETATM   14  C   UNL     1      -9.861   9.802  65.331  1.00  0.00    -0.365 C  
ENDBRANCH  12  13
BRANCH  12  15
HETATM   15  C   UNL     1     -10.926  12.524  63.882  1.00  0.00    -0.424 C  
HETATM   16  C   UNL     1     -12.273  11.958  63.463  1.00  0.00    -0.591 C  
ENDBRANCH  12  15
ENDBRANCH  10  12
ENDBRANCH   9  10
ENDBRANCH   8   9
ENDBRANCH   6   8
ENDBRANCH   3   6
ENDBRANCH   2   3
TORSDOF 9
ENDMDL
MODEL       82
REMARK 921   NORMALIZED FREE ENERGY PREDICTED BY IDOCK:   -3.41 KCAL/MOL
REMARK 922        TOTAL FREE ENERGY PREDICTED BY IDOCK:   -5.73 KCAL/MOL
REMARK 923 INTER-LIGAND FREE ENERGY PREDICTED BY IDOCK:   -5.21 KCAL/MOL
REMARK 924 INTRA-LIGAND FREE ENERGY PREDICTED BY IDOCK:   -0.52 KCAL/MOL
REMARK 927      BINDING AFFINITY PREDICTED BY RF-SCORE:    0.00 PKD
ROOT
HETATM    1  C   UNL     1     -11.780   9.391  71.460  1.00  0.00    -0.465 C  
HETATM    2  C   UNL     1     -12.654  10.395  70.715  1.00  0.00    -0.371 C  
ENDROOT
BRANCH   2   3
HETATM    3  N   UNL     1     -11.876  11.416  69.980  1.00  0.00    -0.333 N  
BRANCH   3   4
HETATM    4  C   UNL     1     -10.761  10.969  69.111  1.00  0.00    -0.234 C  
HETATM    5  C   UNL     1     -11.097  10.229  67.819  1.00  0.00    -0.335 C  
ENDBRANCH   3   4
BRANCH   3   6
HETATM    6  C   UNL     1     -12.155  12.803  70.160  1.00  0.00    -0.298 C  
HETATM    7  S   UNL     1     -12.809  13.479  71.571  1.00  0.00    -0.313 S  
BRANCH   6   8
HETATM    8  S   UNL     1     -11.652  13.898  68.835  1.00  0.00    -0.339 SA 
BRANCH   8   9
HETATM    9  S   UNL     1     -10.681  15.442  69.813  1.00  0.00    -0.310 SA 
BRANCH   9  10
HETATM   10  C   UNL     1      -9.262  15.862  68.828  1.00  0.00    -0.218 C  
HETATM   11  S   UNL     1      -7.732  15.185  68.990  1.00  0.00    -0.191 S  
BRANCH  10  12
HETATM   12  N   UNL     1      -9.598  16.736  67.784  1.00  0.00    -0.238 N  
BRANCH  12  13
HETATM   13  C   UNL     1      -9.096  16.505  66.421  1.00  0.00    -0.297 C  
HETATM   14  C   UNL     1      -9.668  15.278  65.728  1.00  0.00    -0.385 C  
ENDBRANCH  12  13
BRANCH  12  15
HETATM   15  C   UNL     1     -10.321  17.984  68.070  1.00  0.00    -0.387 C  
HETATM   16  C   UNL     1     -10.581  18.847  66.847  1.00  0.00    -0.495 C  
ENDBRANCH  12  15
ENDBRANCH  10  12
ENDBRANCH   9  10
ENDBRANCH   8   9
ENDBRANCH   6   8
ENDBRANCH   3   6
ENDBRANCH   2   3
TORSDOF 9
ENDMDL
MODEL       83
REMARK 921   NORMALIZED FREE ENERGY PREDICTED BY IDOCK:   -3.41 KCAL/MOL
REMARK 922        TOTAL FREE ENERGY PREDICTED BY IDOCK:   -5.72 KCAL/MOL
REMARK 923 INTER-LIGAND FREE ENERGY PREDICTED BY IDOCK:   -5.18 KCAL/MOL
REMARK 924 INTRA-LIGAND FREE ENERGY PREDICTED BY IDOCK:   -0.54 KCAL/MOL
REMARK 927      BINDING AFFINITY PREDICTED BY RF-SCORE:    0.00 PKD
ROOT
HETATM    1  C   UNL     1     -11.349  10.222  70.619  1.00  0.00    -0.431 C  
HETATM    2  C   UNL     1     -12.314  11.059  69.785  1.00  0.00    -0.262 C  
ENDROOT
BRANCH   2   3
HETATM    3  N   UNL     1     -11.695  12.278  69.221  1.00  0.00    -0.315 N  
BRANCH   3   4
HETATM    4  C   UNL     1     -10.632  12.126  68.199  1.00  0.00    -0.216 C  
HETATM    5  C   UNL     1     -11.018  11.588  66.823  1.00  0.00    -0.347 C  
ENDBRANCH   3   4
BRANCH   3   6
HETATM    6  C   UNL     1     -12.069  13.567  69.704  1.00  0.00    -0.306 C  
HETATM    7  S   UNL     1     -12.668  13.877  71.260  1.00  0.00    -0.373 S  
BRANCH   6   8
HETATM    8  S   UNL     1     -11.755  14.951  68.613  1.00  0.00    -0.314 SA 
BRANCH   8   9
HETATM    9  S   UNL     1      -9.999  15.767  69.344  1.00  0.00    -0.286 SA 
BRANCH   9  10
HETATM   10  C   UNL     1      -9.175  16.531  67.967  1.00  0.00    -0.214 C  
HETATM   11  S   UNL     1      -9.015  15.857  66.435  1.00  0.00    -0.350 S  
BRANCH  10  12
HETATM   12  N   UNL     1      -8.787  17.846  68.261  1.00  0.00    -0.269 N  
BRANCH  12  13
HETATM   13  C   UNL     1      -9.791  18.872  68.582  1.00  0.00    -0.407 C  
HETATM   14  C   UNL     1     -10.718  19.240  67.434  1.00  0.00    -0.594 C  
ENDBRANCH  12  13
BRANCH  12  15
HETATM   15  C   UNL     1      -7.384  18.257  68.092  1.00  0.00    -0.260 C  
HETATM   16  C   UNL     1      -6.457  17.771  69.194  1.00  0.00    -0.240 C  
ENDBRANCH  12  15
ENDBRANCH  10  12
ENDBRANCH   9  10
ENDBRANCH   8   9
ENDBRANCH   6   8
ENDBRANCH   3   6
ENDBRANCH   2   3
TORSDOF 9
ENDMDL
MODEL       84
REMARK 921   NORMALIZED FREE ENERGY PREDICTED BY IDOCK:   -3.41 KCAL/MOL
REMARK 922        TOTAL FREE ENERGY PREDICTED BY IDOCK:   -5.72 KCAL/MOL
REMARK 923 INTER-LIGAND FREE ENERGY PREDICTED BY IDOCK:   -5.22 KCAL/MOL
REMARK 924 INTRA-LIGAND FREE ENERGY PREDICTED BY IDOCK:   -0.49 KCAL/MOL
REMARK 927      BINDING AFFINITY PREDICTED BY RF-SCORE:    0.00 PKD
ROOT
HETATM    1  C   UNL     1     -12.429  12.337  63.580  1.00  0.00    -0.642 C  
HETATM    2  C   UNL     1     -10.922  12.112  63.492  1.00  0.00    -0.453 C  
ENDROOT
BRANCH   2   3
HETATM    3  N   UNL     1     -10.354  11.474  64.700  1.00  0.00    -0.277 N  
BRANCH   3   4
HETATM    4  C   UNL     1      -9.657  10.174  64.555  1.00  0.00    -0.311 C  
HETATM    5  C   UNL     1      -8.916   9.887  63.252  1.00  0.00    -0.276 C  
ENDBRANCH   3   4
BRANCH   3   6
HETATM    6  C   UNL     1     -10.536  12.070  65.982  1.00  0.00    -0.249 C  
HETATM    7  S   UNL     1     -11.154  11.266  67.341  1.00  0.00    -0.300 S  
BRANCH   6   8
HETATM    8  S   UNL     1      -9.942  13.749  66.175  1.00  0.00    -0.303 SA 
BRANCH   8   9
HETATM    9  S   UNL     1      -9.411  13.859  68.172  1.00  0.00    -0.210 SA 
BRANCH   9  10
HETATM   10  C   UNL     1      -9.208  15.583  68.555  1.00  0.00    -0.197 C  
HETATM   11  S   UNL     1      -7.770  16.308  69.036  1.00  0.00    -0.219 S  
BRANCH  10  12
HETATM   12  N   UNL     1     -10.369  16.317  68.270  1.00  0.00    -0.261 N  
BRANCH  12  13
HETATM   13  C   UNL     1     -10.301  17.548  67.468  1.00  0.00    -0.356 C  
HETATM   14  C   UNL     1     -10.405  18.838  68.267  1.00  0.00    -0.391 C  
ENDBRANCH  12  13
BRANCH  12  15
HETATM   15  C   UNL     1     -11.645  15.955  68.905  1.00  0.00    -0.388 C  
HETATM   16  C   UNL     1     -11.598  15.928  70.424  1.00  0.00    -0.387 C  
ENDBRANCH  12  15
ENDBRANCH  10  12
ENDBRANCH   9  10
ENDBRANCH   8   9
ENDBRANCH   6   8
ENDBRANCH   3   6
ENDBRANCH   2   3
TORSDOF 9
ENDMDL
MODEL       85
REMARK 921   NORMALIZED FREE ENERGY PREDICTED BY IDOCK:   -3.41 KCAL/MOL
REMARK 922        TOTAL FREE ENERGY PREDICTED BY IDOCK:   -5.72 KCAL/MOL
REMARK 923 INTER-LIGAND FREE ENERGY PREDICTED BY IDOCK:   -5.24 KCAL/MOL
REMARK 924 INTRA-LIGAND FREE ENERGY PREDICTED BY IDOCK:   -0.48 KCAL/MOL
REMARK 927      BINDING AFFINITY PREDICTED BY RF-SCORE:    0.00 PKD
ROOT
HETATM    1  C   UNL     1     -11.646  11.004  68.994  1.00  0.00    -0.392 C  
HETATM    2  C   UNL     1     -11.232  10.815  67.537  1.00  0.00    -0.274 C  
ENDROOT
BRANCH   2   3
HETATM    3  N   UNL     1     -10.940  12.088  66.842  1.00  0.00    -0.266 N  
BRANCH   3   4
HETATM    4  C   UNL     1     -11.214  12.181  65.388  1.00  0.00    -0.333 C  
HETATM    5  C   UNL     1     -12.514  12.839  64.932  1.00  0.00    -0.563 C  
ENDBRANCH   3   4
BRANCH   3   6
HETATM    6  C   UNL     1     -10.346  13.175  67.548  1.00  0.00    -0.225 C  
HETATM    7  S   UNL     1      -8.685  13.338  67.848  1.00  0.00    -0.203 S  
BRANCH   6   8
HETATM    8  S   UNL     1     -11.441  14.509  68.028  1.00  0.00    -0.337 SA 
BRANCH   8   9
HETATM    9  S   UNL     1     -10.187  16.151  68.163  1.00  0.00    -0.255 SA 
BRANCH   9  10
HETATM   10  C   UNL     1     -10.034  16.817  66.523  1.00  0.00    -0.298 C  
HETATM   11  S   UNL     1     -10.615  16.091  65.121  1.00  0.00    -0.286 S  
BRANCH  10  12
HETATM   12  N   UNL     1      -9.489  18.109  66.538  1.00  0.00    -0.301 N  
BRANCH  12  13
HETATM   13  C   UNL     1      -8.060  18.319  66.812  1.00  0.00    -0.250 C  
HETATM   14  C   UNL     1      -7.122  17.371  66.080  1.00  0.00    -0.320 C  
ENDBRANCH  12  13
BRANCH  12  15
HETATM   15  C   UNL     1     -10.372  19.282  66.443  1.00  0.00    -0.471 C  
HETATM   16  C   UNL     1     -10.408  20.137  67.698  1.00  0.00    -0.466 C  
ENDBRANCH  12  15
ENDBRANCH  10  12
ENDBRANCH   9  10
ENDBRANCH   8   9
ENDBRANCH   6   8
ENDBRANCH   3   6
ENDBRANCH   2   3
TORSDOF 9
ENDMDL
MODEL       86
REMARK 921   NORMALIZED FREE ENERGY PREDICTED BY IDOCK:   -3.41 KCAL/MOL
REMARK 922        TOTAL FREE ENERGY PREDICTED BY IDOCK:   -5.72 KCAL/MOL
REMARK 923 INTER-LIGAND FREE ENERGY PREDICTED BY IDOCK:   -5.28 KCAL/MOL
REMARK 924 INTRA-LIGAND FREE ENERGY PREDICTED BY IDOCK:   -0.44 KCAL/MOL
REMARK 927      BINDING AFFINITY PREDICTED BY RF-SCORE:    0.00 PKD
ROOT
HETATM    1  C   UNL     1     -11.782  14.401  66.161  1.00  0.00    -0.384 C  
HETATM    2  C   UNL     1     -11.767  13.015  66.800  1.00  0.00    -0.382 C  
ENDROOT
BRANCH   2   3
HETATM    3  N   UNL     1     -10.986  12.023  66.030  1.00  0.00    -0.293 N  
BRANCH   3   4
HETATM    4  C   UNL     1     -10.636  12.334  64.623  1.00  0.00    -0.303 C  
HETATM    5  C   UNL     1     -11.623  11.949  63.525  1.00  0.00    -0.537 C  
ENDBRANCH   3   4
BRANCH   3   6
HETATM    6  C   UNL     1     -10.638  10.770  66.613  1.00  0.00    -0.232 C  
HETATM    7  S   UNL     1      -9.678   9.590  65.862  1.00  0.00    -0.286 S  
BRANCH   6   8
HETATM    8  S   UNL     1     -11.159  10.503  68.305  1.00  0.00    -0.280 SA 
BRANCH   8   9
HETATM    9  S   UNL     1      -9.875   9.031  68.991  1.00  0.00    -0.180 SA 
BRANCH   9  10
HETATM   10  C   UNL     1     -10.872   7.846  69.862  1.00  0.00    -0.221 C  
HETATM   11  S   UNL     1     -11.109   6.247  69.397  1.00  0.00    -0.407 S  
BRANCH  10  12
HETATM   12  N   UNL     1     -11.335   8.357  71.083  1.00  0.00    -0.261 N  
BRANCH  12  13
HETATM   13  C   UNL     1     -12.749   8.722  71.257  1.00  0.00    -0.230 C  
HETATM   14  C   UNL     1     -12.999  10.194  71.546  1.00  0.00    -0.547 C  
ENDBRANCH  12  13
BRANCH  12  15
HETATM   15  C   UNL     1     -10.382   8.689  72.154  1.00  0.00    -0.333 C  
HETATM   16  C   UNL     1     -10.223   7.602  73.203  1.00  0.00    -0.401 C  
ENDBRANCH  12  15
ENDBRANCH  10  12
ENDBRANCH   9  10
ENDBRANCH   8   9
ENDBRANCH   6   8
ENDBRANCH   3   6
ENDBRANCH   2   3
TORSDOF 9
ENDMDL
MODEL       87
REMARK 921   NORMALIZED FREE ENERGY PREDICTED BY IDOCK:   -3.41 KCAL/MOL
REMARK 922        TOTAL FREE ENERGY PREDICTED BY IDOCK:   -5.71 KCAL/MOL
REMARK 923 INTER-LIGAND FREE ENERGY PREDICTED BY IDOCK:   -5.32 KCAL/MOL
REMARK 924 INTRA-LIGAND FREE ENERGY PREDICTED BY IDOCK:   -0.40 KCAL/MOL
REMARK 927      BINDING AFFINITY PREDICTED BY RF-SCORE:    0.00 PKD
ROOT
HETATM    1  C   UNL     1     -14.181   8.557  71.804  1.00  0.00    -0.525 C  
HETATM    2  C   UNL     1     -12.888   9.362  71.900  1.00  0.00    -0.412 C  
ENDROOT
BRANCH   2   3
HETATM    3  N   UNL     1     -11.743   8.714  71.224  1.00  0.00    -0.279 N  
BRANCH   3   4
HETATM    4  C   UNL     1     -11.628   7.237  71.283  1.00  0.00    -0.286 C  
HETATM    5  C   UNL     1     -11.505   6.463  69.973  1.00  0.00    -0.496 C  
ENDBRANCH   3   4
BRANCH   3   6
HETATM    6  C   UNL     1     -10.739   9.503  70.589  1.00  0.00    -0.309 C  
HETATM    7  S   UNL     1      -9.073   9.206  70.689  1.00  0.00    -0.266 S  
BRANCH   6   8
HETATM    8  S   UNL     1     -11.316  10.815  69.516  1.00  0.00    -0.314 SA 
BRANCH   8   9
HETATM    9  S   UNL     1      -9.846  10.946  68.064  1.00  0.00    -0.176 SA 
BRANCH   9  10
HETATM   10  C   UNL     1     -10.318  12.267  66.973  1.00  0.00    -0.219 C  
HETATM   11  S   UNL     1     -10.297  13.903  67.362  1.00  0.00    -0.253 S  
BRANCH  10  12
HETATM   12  N   UNL     1     -10.580  11.799  65.677  1.00  0.00    -0.260 N  
BRANCH  12  13
HETATM   13  C   UNL     1     -10.252  10.417  65.297  1.00  0.00    -0.262 C  
HETATM   14  C   UNL     1      -9.513  10.275  63.975  1.00  0.00    -0.356 C  
ENDBRANCH  12  13
BRANCH  12  15
HETATM   15  C   UNL     1     -11.034  12.732  64.634  1.00  0.00    -0.327 C  
HETATM   16  C   UNL     1     -12.401  12.403  64.058  1.00  0.00    -0.579 C  
ENDBRANCH  12  15
ENDBRANCH  10  12
ENDBRANCH   9  10
ENDBRANCH   8   9
ENDBRANCH   6   8
ENDBRANCH   3   6
ENDBRANCH   2   3
TORSDOF 9
ENDMDL
MODEL       88
REMARK 921   NORMALIZED FREE ENERGY PREDICTED BY IDOCK:   -3.41 KCAL/MOL
REMARK 922        TOTAL FREE ENERGY PREDICTED BY IDOCK:   -5.71 KCAL/MOL
REMARK 923 INTER-LIGAND FREE ENERGY PREDICTED BY IDOCK:   -5.23 KCAL/MOL
REMARK 924 INTRA-LIGAND FREE ENERGY PREDICTED BY IDOCK:   -0.48 KCAL/MOL
REMARK 927      BINDING AFFINITY PREDICTED BY RF-SCORE:    0.00 PKD
ROOT
HETATM    1  C   UNL     1      -7.164  18.939  66.087  1.00  0.00    -0.288 C  
HETATM    2  C   UNL     1      -7.998  19.195  67.340  1.00  0.00    -0.259 C  
ENDROOT
BRANCH   2   3
HETATM    3  N   UNL     1      -9.243  18.397  67.386  1.00  0.00    -0.270 N  
BRANCH   3   4
HETATM    4  C   UNL     1     -10.528  19.070  67.082  1.00  0.00    -0.441 C  
HETATM    5  C   UNL     1     -10.689  19.754  65.727  1.00  0.00    -0.474 C  
ENDBRANCH   3   4
BRANCH   3   6
HETATM    6  C   UNL     1      -9.207  17.028  67.782  1.00  0.00    -0.236 C  
HETATM    7  S   UNL     1      -7.968  16.321  68.698  1.00  0.00    -0.227 S  
BRANCH   6   8
HETATM    8  S   UNL     1     -10.646  16.041  67.376  1.00  0.00    -0.306 SA 
BRANCH   8   9
HETATM    9  S   UNL     1     -10.075  15.014  65.672  1.00  0.00    -0.376 SA 
BRANCH   9  10
HETATM   10  C   UNL     1     -10.014  13.292  66.107  1.00  0.00    -0.293 C  
HETATM   11  S   UNL     1      -9.440  12.677  67.563  1.00  0.00    -0.193 S  
BRANCH  10  12
HETATM   12  N   UNL     1     -10.641  12.492  65.141  1.00  0.00    -0.285 N  
BRANCH  12  13
HETATM   13  C   UNL     1     -10.337  11.056  65.042  1.00  0.00    -0.295 C  
HETATM   14  C   UNL     1      -9.273  10.697  64.015  1.00  0.00    -0.269 C  
ENDBRANCH  12  13
BRANCH  12  15
HETATM   15  C   UNL     1     -11.488  13.109  64.109  1.00  0.00    -0.403 C  
HETATM   16  C   UNL     1     -12.612  12.216  63.610  1.00  0.00    -0.616 C  
ENDBRANCH  12  15
ENDBRANCH  10  12
ENDBRANCH   9  10
ENDBRANCH   8   9
ENDBRANCH   6   8
ENDBRANCH   3   6
ENDBRANCH   2   3
TORSDOF 9
ENDMDL
MODEL       89
REMARK 921   NORMALIZED FREE ENERGY PREDICTED BY IDOCK:   -3.40 KCAL/MOL
REMARK 922        TOTAL FREE ENERGY PREDICTED BY IDOCK:   -5.70 KCAL/MOL
REMARK 923 INTER-LIGAND FREE ENERGY PREDICTED BY IDOCK:   -5.25 KCAL/MOL
REMARK 924 INTRA-LIGAND FREE ENERGY PREDICTED BY IDOCK:   -0.45 KCAL/MOL
REMARK 927      BINDING AFFINITY PREDICTED BY RF-SCORE:    0.00 PKD
ROOT
HETATM    1  C   UNL     1     -13.780   9.186  72.299  1.00  0.00    -0.548 C  
HETATM    2  C   UNL     1     -12.493   9.654  71.625  1.00  0.00    -0.407 C  
ENDROOT
BRANCH   2   3
HETATM    3  N   UNL     1     -11.452   8.607  71.560  1.00  0.00    -0.274 N  
BRANCH   3   4
HETATM    4  C   UNL     1     -11.160   7.819  72.781  1.00  0.00    -0.398 C  
HETATM    5  C   UNL     1      -9.709   7.693  73.238  1.00  0.00    -0.346 C  
ENDBRANCH   3   4
BRANCH   3   6
HETATM    6  C   UNL     1     -10.702   8.409  70.363  1.00  0.00    -0.231 C  
HETATM    7  S   UNL     1     -10.608   6.945  69.514  1.00  0.00    -0.247 S  
BRANCH   6   8
HETATM    8  S   UNL     1      -9.918   9.860  69.663  1.00  0.00    -0.242 SA 
BRANCH   8   9
HETATM    9  S   UNL     1     -10.883  10.116  67.850  1.00  0.00    -0.275 SA 
BRANCH   9  10
HETATM   10  C   UNL     1      -9.914  11.272  66.911  1.00  0.00    -0.207 C  
HETATM   11  S   UNL     1      -8.234  11.336  66.885  1.00  0.00    -0.158 S  
BRANCH  10  12
HETATM   12  N   UNL     1     -10.716  12.051  66.064  1.00  0.00    -0.269 N  
BRANCH  12  13
HETATM   13  C   UNL     1     -10.328  12.281  64.664  1.00  0.00    -0.301 C  
HETATM   14  C   UNL     1     -10.584  11.109  63.729  1.00  0.00    -0.422 C  
ENDBRANCH  12  13
BRANCH  12  15
HETATM   15  C   UNL     1     -11.869  12.784  66.608  1.00  0.00    -0.393 C  
HETATM   16  C   UNL     1     -12.621  13.612  65.581  1.00  0.00    -0.531 C  
ENDBRANCH  12  15
ENDBRANCH  10  12
ENDBRANCH   9  10
ENDBRANCH   8   9
ENDBRANCH   6   8
ENDBRANCH   3   6
ENDBRANCH   2   3
TORSDOF 9
ENDMDL
MODEL       90
REMARK 921   NORMALIZED FREE ENERGY PREDICTED BY IDOCK:   -3.40 KCAL/MOL
REMARK 922        TOTAL FREE ENERGY PREDICTED BY IDOCK:   -5.70 KCAL/MOL
REMARK 923 INTER-LIGAND FREE ENERGY PREDICTED BY IDOCK:   -5.28 KCAL/MOL
REMARK 924 INTRA-LIGAND FREE ENERGY PREDICTED BY IDOCK:   -0.42 KCAL/MOL
REMARK 927      BINDING AFFINITY PREDICTED BY RF-SCORE:    0.00 PKD
ROOT
HETATM    1  C   UNL     1     -10.535  10.619  69.343  1.00  0.00    -0.252 C  
HETATM    2  C   UNL     1     -11.808  11.331  68.894  1.00  0.00    -0.345 C  
ENDROOT
BRANCH   2   3
HETATM    3  N   UNL     1     -11.565  12.702  68.394  1.00  0.00    -0.306 N  
BRANCH   3   4
HETATM    4  C   UNL     1     -10.906  12.870  67.077  1.00  0.00    -0.260 C  
HETATM    5  C   UNL     1     -11.573  12.263  65.846  1.00  0.00    -0.450 C  
ENDBRANCH   3   4
BRANCH   3   6
HETATM    6  C   UNL     1     -11.901  13.832  69.196  1.00  0.00    -0.354 C  
HETATM    7  S   UNL     1     -12.363  13.755  70.826  1.00  0.00    -0.373 S  
BRANCH   6   8
HETATM    8  S   UNL     1     -11.688  15.441  68.439  1.00  0.00    -0.245 SA 
BRANCH   8   9
HETATM    9  S   UNL     1      -9.890  16.116  69.210  1.00  0.00    -0.236 SA 
BRANCH   9  10
HETATM   10  C   UNL     1      -9.093  17.041  67.919  1.00  0.00    -0.232 C  
HETATM   11  S   UNL     1      -8.498  16.396  66.486  1.00  0.00    -0.327 S  
BRANCH  10  12
HETATM   12  N   UNL     1      -9.140  18.421  68.167  1.00  0.00    -0.300 N  
BRANCH  12  13
HETATM   13  C   UNL     1      -8.003  19.112  68.794  1.00  0.00    -0.347 C  
HETATM   14  C   UNL     1      -6.748  18.266  68.950  1.00  0.00    -0.259 C  
ENDBRANCH  12  13
BRANCH  12  15
HETATM   15  C   UNL     1     -10.391  19.166  67.955  1.00  0.00    -0.414 C  
HETATM   16  C   UNL     1     -10.638  19.569  66.511  1.00  0.00    -0.579 C  
ENDBRANCH  12  15
ENDBRANCH  10  12
ENDBRANCH   9  10
ENDBRANCH   8   9
ENDBRANCH   6   8
ENDBRANCH   3   6
ENDBRANCH   2   3
TORSDOF 9
ENDMDL
MODEL       91
REMARK 921   NORMALIZED FREE ENERGY PREDICTED BY IDOCK:   -3.39 KCAL/MOL
REMARK 922        TOTAL FREE ENERGY PREDICTED BY IDOCK:   -5.69 KCAL/MOL
REMARK 923 INTER-LIGAND FREE ENERGY PREDICTED BY IDOCK:   -5.17 KCAL/MOL
REMARK 924 INTRA-LIGAND FREE ENERGY PREDICTED BY IDOCK:   -0.53 KCAL/MOL
REMARK 927      BINDING AFFINITY PREDICTED BY RF-SCORE:    0.00 PKD
ROOT
HETATM    1  C   UNL     1     -10.513   5.440  70.360  1.00  0.00    -0.345 C  
HETATM    2  C   UNL     1     -11.474   6.492  69.812  1.00  0.00    -0.379 C  
ENDROOT
BRANCH   2   3
HETATM    3  N   UNL     1     -10.950   7.871  69.911  1.00  0.00    -0.220 N  
BRANCH   3   4
HETATM    4  C   UNL     1     -11.073   8.587  71.203  1.00  0.00    -0.260 C  
HETATM    5  C   UNL     1     -12.398   9.269  71.534  1.00  0.00    -0.439 C  
ENDBRANCH   3   4
BRANCH   3   6
HETATM    6  C   UNL     1     -10.399   8.517  68.765  1.00  0.00    -0.213 C  
HETATM    7  S   UNL     1     -10.424   7.879  67.194  1.00  0.00    -0.321 S  
BRANCH   6   8
HETATM    8  S   UNL     1      -9.757  10.171  69.010  1.00  0.00    -0.217 SA 
BRANCH   8   9
HETATM    9  S   UNL     1     -11.219  11.392  68.202  1.00  0.00    -0.307 SA 
BRANCH   9  10
HETATM   10  C   UNL     1     -10.431  12.377  66.950  1.00  0.00    -0.224 C  
HETATM   11  S   UNL     1      -9.162  13.448  67.211  1.00  0.00    -0.231 S  
BRANCH  10  12
HETATM   12  N   UNL     1     -10.897  12.052  65.667  1.00  0.00    -0.273 N  
BRANCH  12  13
HETATM   13  C   UNL     1     -12.235  12.474  65.224  1.00  0.00    -0.433 C  
HETATM   14  C   UNL     1     -12.660  13.854  65.701  1.00  0.00    -0.553 C  
ENDBRANCH  12  13
BRANCH  12  15
HETATM   15  C   UNL     1     -10.121  11.145  64.808  1.00  0.00    -0.295 C  
HETATM   16  C   UNL     1     -10.069  11.563  63.348  1.00  0.00    -0.454 C  
ENDBRANCH  12  15
ENDBRANCH  10  12
ENDBRANCH   9  10
ENDBRANCH   8   9
ENDBRANCH   6   8
ENDBRANCH   3   6
ENDBRANCH   2   3
TORSDOF 9
ENDMDL
MODEL       92
REMARK 921   NORMALIZED FREE ENERGY PREDICTED BY IDOCK:   -3.39 KCAL/MOL
REMARK 922        TOTAL FREE ENERGY PREDICTED BY IDOCK:   -5.68 KCAL/MOL
REMARK 923 INTER-LIGAND FREE ENERGY PREDICTED BY IDOCK:   -5.54 KCAL/MOL
REMARK 924 INTRA-LIGAND FREE ENERGY PREDICTED BY IDOCK:   -0.14 KCAL/MOL
REMARK 927      BINDING AFFINITY PREDICTED BY RF-SCORE:    0.00 PKD
ROOT
HETATM    1  C   UNL     1     -10.486   7.343  73.341  1.00  0.00    -0.419 C  
HETATM    2  C   UNL     1     -10.525   8.459  72.301  1.00  0.00    -0.337 C  
ENDROOT
BRANCH   2   3
HETATM    3  N   UNL     1     -11.554   8.252  71.258  1.00  0.00    -0.275 N  
BRANCH   3   4
HETATM    4  C   UNL     1     -11.143   7.650  69.967  1.00  0.00    -0.191 C  
HETATM    5  C   UNL     1     -11.220   6.133  69.815  1.00  0.00    -0.494 C  
ENDBRANCH   3   4
BRANCH   3   6
HETATM    6  C   UNL     1     -12.895   8.686  71.472  1.00  0.00    -0.319 C  
HETATM    7  S   UNL     1     -14.246   7.663  71.502  1.00  0.00    -0.410 S  
BRANCH   6   8
HETATM    8  S   UNL     1     -13.121  10.420  71.859  1.00  0.00    -0.398 SA 
BRANCH   8   9
HETATM    9  S   UNL     1     -12.067  11.400  70.371  1.00  0.00    -0.377 SA 
BRANCH   9  10
HETATM   10  C   UNL     1     -12.356  13.139  70.598  1.00  0.00    -0.326 C  
HETATM   11  S   UNL     1     -13.325  13.815  71.794  1.00  0.00    -0.387 S  
BRANCH  10  12
HETATM   12  N   UNL     1     -11.557  13.911  69.741  1.00  0.00    -0.279 N  
BRANCH  12  13
HETATM   13  C   UNL     1     -11.391  15.355  69.968  1.00  0.00    -0.306 C  
HETATM   14  C   UNL     1     -11.297  16.194  68.703  1.00  0.00    -0.365 C  
ENDBRANCH  12  13
BRANCH  12  15
HETATM   15  C   UNL     1     -11.009  13.320  68.511  1.00  0.00    -0.266 C  
HETATM   16  C   UNL     1     -11.963  13.347  67.329  1.00  0.00    -0.393 C  
ENDBRANCH  12  15
ENDBRANCH  10  12
ENDBRANCH   9  10
ENDBRANCH   8   9
ENDBRANCH   6   8
ENDBRANCH   3   6
ENDBRANCH   2   3
TORSDOF 9
ENDMDL
MODEL       93
REMARK 921   NORMALIZED FREE ENERGY PREDICTED BY IDOCK:   -3.38 KCAL/MOL
REMARK 922        TOTAL FREE ENERGY PREDICTED BY IDOCK:   -5.68 KCAL/MOL
REMARK 923 INTER-LIGAND FREE ENERGY PREDICTED BY IDOCK:   -5.49 KCAL/MOL
REMARK 924 INTRA-LIGAND FREE ENERGY PREDICTED BY IDOCK:   -0.19 KCAL/MOL
REMARK 927      BINDING AFFINITY PREDICTED BY RF-SCORE:    0.00 PKD
ROOT
HETATM    1  C   UNL     1     -10.591   9.529  67.249  1.00  0.00    -0.317 C  
HETATM    2  C   UNL     1     -10.930  11.015  67.164  1.00  0.00    -0.283 C  
ENDROOT
BRANCH   2   3
HETATM    3  N   UNL     1     -10.698  11.592  65.822  1.00  0.00    -0.274 N  
BRANCH   3   4
HETATM    4  C   UNL     1      -9.461  11.220  65.095  1.00  0.00    -0.215 C  
HETATM    5  C   UNL     1      -9.565  10.220  63.946  1.00  0.00    -0.354 C  
ENDBRANCH   3   4
BRANCH   3   6
HETATM    6  C   UNL     1     -11.615  12.537  65.276  1.00  0.00    -0.364 C  
HETATM    7  S   UNL     1     -12.260  12.460  63.709  1.00  0.00    -0.554 S  
BRANCH   6   8
HETATM    8  S   UNL     1     -12.205  13.812  66.386  1.00  0.00    -0.414 SA 
BRANCH   8   9
HETATM    9  S   UNL     1     -10.593  15.098  66.564  1.00  0.00    -0.310 SA 
BRANCH   9  10
HETATM   10  C   UNL     1     -10.849  16.041  68.048  1.00  0.00    -0.335 C  
HETATM   11  S   UNL     1     -11.681  15.506  69.408  1.00  0.00    -0.379 S  
BRANCH  10  12
HETATM   12  N   UNL     1     -10.144  17.253  68.018  1.00  0.00    -0.307 N  
BRANCH  12  13
HETATM   13  C   UNL     1      -8.838  17.380  68.682  1.00  0.00    -0.258 C  
HETATM   14  C   UNL     1      -7.664  16.813  67.898  1.00  0.00    -0.178 C  
ENDBRANCH  12  13
BRANCH  12  15
HETATM   15  C   UNL     1     -10.777  18.460  67.465  1.00  0.00    -0.365 C  
HETATM   16  C   UNL     1     -10.275  19.760  68.071  1.00  0.00    -0.581 C  
ENDBRANCH  12  15
ENDBRANCH  10  12
ENDBRANCH   9  10
ENDBRANCH   8   9
ENDBRANCH   6   8
ENDBRANCH   3   6
ENDBRANCH   2   3
TORSDOF 9
ENDMDL
MODEL       94
REMARK 921   NORMALIZED FREE ENERGY PREDICTED BY IDOCK:   -3.37 KCAL/MOL
REMARK 922        TOTAL FREE ENERGY PREDICTED BY IDOCK:   -5.66 KCAL/MOL
REMARK 923 INTER-LIGAND FREE ENERGY PREDICTED BY IDOCK:   -5.29 KCAL/MOL
REMARK 924 INTRA-LIGAND FREE ENERGY PREDICTED BY IDOCK:   -0.37 KCAL/MOL
REMARK 927      BINDING AFFINITY PREDICTED BY RF-SCORE:    0.00 PKD
ROOT
HETATM    1  C   UNL     1     -12.454  11.985  63.485  1.00  0.00    -0.654 C  
HETATM    2  C   UNL     1     -11.232  12.615  64.148  1.00  0.00    -0.386 C  
ENDROOT
BRANCH   2   3
HETATM    3  N   UNL     1     -10.967  12.090  65.505  1.00  0.00    -0.290 N  
BRANCH   3   4
HETATM    4  C   UNL     1     -11.695  12.687  66.650  1.00  0.00    -0.398 C  
HETATM    5  C   UNL     1     -12.075  14.164  66.582  1.00  0.00    -0.480 C  
ENDBRANCH   3   4
BRANCH   3   6
HETATM    6  C   UNL     1      -9.982  11.079  65.707  1.00  0.00    -0.244 C  
HETATM    7  S   UNL     1      -9.229  10.204  64.465  1.00  0.00    -0.279 S  
BRANCH   6   8
HETATM    8  S   UNL     1      -9.431  10.827  67.393  1.00  0.00    -0.155 SA 
BRANCH   8   9
HETATM    9  S   UNL     1     -10.534   9.196  68.033  1.00  0.00    -0.202 SA 
BRANCH   9  10
HETATM   10  C   UNL     1     -10.068   8.892  69.721  1.00  0.00    -0.199 C  
HETATM   11  S   UNL     1      -8.500   8.958  70.323  1.00  0.00    -0.179 S  
BRANCH  10  12
HETATM   12  N   UNL     1     -11.191   8.726  70.545  1.00  0.00    -0.256 N  
BRANCH  12  13
HETATM   13  C   UNL     1     -11.807   7.402  70.718  1.00  0.00    -0.258 C  
HETATM   14  C   UNL     1     -11.067   6.258  70.041  1.00  0.00    -0.455 C  
ENDBRANCH  12  13
BRANCH  12  15
HETATM   15  C   UNL     1     -11.865   9.901  71.117  1.00  0.00    -0.386 C  
HETATM   16  C   UNL     1     -12.909   9.568  72.170  1.00  0.00    -0.471 C  
ENDBRANCH  12  15
ENDBRANCH  10  12
ENDBRANCH   9  10
ENDBRANCH   8   9
ENDBRANCH   6   8
ENDBRANCH   3   6
ENDBRANCH   2   3
TORSDOF 9
ENDMDL
MODEL       95
REMARK 921   NORMALIZED FREE ENERGY PREDICTED BY IDOCK:   -3.36 KCAL/MOL
REMARK 922        TOTAL FREE ENERGY PREDICTED BY IDOCK:   -5.65 KCAL/MOL
REMARK 923 INTER-LIGAND FREE ENERGY PREDICTED BY IDOCK:   -5.16 KCAL/MOL
REMARK 924 INTRA-LIGAND FREE ENERGY PREDICTED BY IDOCK:   -0.49 KCAL/MOL
REMARK 927      BINDING AFFINITY PREDICTED BY RF-SCORE:    0.00 PKD
ROOT
HETATM    1  C   UNL     1     -10.631  19.838  65.811  1.00  0.00    -0.522 C  
HETATM    2  C   UNL     1     -10.454  19.453  67.277  1.00  0.00    -0.467 C  
ENDROOT
BRANCH   2   3
HETATM    3  N   UNL     1      -9.158  18.796  67.558  1.00  0.00    -0.275 N  
BRANCH   3   4
HETATM    4  C   UNL     1      -8.099  19.579  68.237  1.00  0.00    -0.334 C  
HETATM    5  C   UNL     1      -7.380  20.670  67.448  1.00  0.00    -0.384 C  
ENDBRANCH   3   4
BRANCH   3   6
HETATM    6  C   UNL     1      -8.918  17.460  67.121  1.00  0.00    -0.240 C  
HETATM    7  S   UNL     1      -7.427  16.884  66.555  1.00  0.00    -0.295 S  
BRANCH   6   8
HETATM    8  S   UNL     1     -10.270  16.301  67.314  1.00  0.00    -0.283 SA 
BRANCH   8   9
HETATM    9  S   UNL     1      -9.982  14.947  65.775  1.00  0.00    -0.359 SA 
BRANCH   9  10
HETATM   10  C   UNL     1     -11.133  13.619  66.038  1.00  0.00    -0.293 C  
HETATM   11  S   UNL     1     -12.649  13.490  65.322  1.00  0.00    -0.426 S  
BRANCH  10  12
HETATM   12  N   UNL     1     -10.571  12.594  66.814  1.00  0.00    -0.236 N  
BRANCH  12  13
HETATM   13  C   UNL     1     -11.429  11.644  67.537  1.00  0.00    -0.289 C  
HETATM   14  C   UNL     1     -11.638  11.963  69.010  1.00  0.00    -0.376 C  
ENDBRANCH  12  13
BRANCH  12  15
HETATM   15  C   UNL     1      -9.119  12.556  67.047  1.00  0.00    -0.213 C  
HETATM   16  C   UNL     1      -8.449  11.272  66.589  1.00  0.00    -0.168 C  
ENDBRANCH  12  15
ENDBRANCH  10  12
ENDBRANCH   9  10
ENDBRANCH   8   9
ENDBRANCH   6   8
ENDBRANCH   3   6
ENDBRANCH   2   3
TORSDOF 9
ENDMDL
MODEL       96
REMARK 921   NORMALIZED FREE ENERGY PREDICTED BY IDOCK:   -3.36 KCAL/MOL
REMARK 922        TOTAL FREE ENERGY PREDICTED BY IDOCK:   -5.64 KCAL/MOL
REMARK 923 INTER-LIGAND FREE ENERGY PREDICTED BY IDOCK:   -5.28 KCAL/MOL
REMARK 924 INTRA-LIGAND FREE ENERGY PREDICTED BY IDOCK:   -0.36 KCAL/MOL
REMARK 927      BINDING AFFINITY PREDICTED BY RF-SCORE:    0.00 PKD
ROOT
HETATM    1  C   UNL     1      -9.018  15.993  67.075  1.00  0.00    -0.236 C  
HETATM    2  C   UNL     1     -10.532  16.178  67.021  1.00  0.00    -0.306 C  
ENDROOT
BRANCH   2   3
HETATM    3  N   UNL     1     -11.276  15.142  67.770  1.00  0.00    -0.314 N  
BRANCH   3   4
HETATM    4  C   UNL     1     -11.859  15.498  69.085  1.00  0.00    -0.354 C  
HETATM    5  C   UNL     1     -10.920  15.958  70.197  1.00  0.00    -0.369 C  
ENDBRANCH   3   4
BRANCH   3   6
HETATM    6  C   UNL     1     -11.368  13.813  67.261  1.00  0.00    -0.321 C  
HETATM    7  S   UNL     1     -12.176  13.381  65.834  1.00  0.00    -0.445 S  
BRANCH   6   8
HETATM    8  S   UNL     1     -10.452  12.553  68.144  1.00  0.00    -0.234 SA 
BRANCH   8   9
HETATM    9  S   UNL     1     -11.906  11.548  69.220  1.00  0.00    -0.348 SA 
BRANCH   9  10
HETATM   10  C   UNL     1     -11.218   9.970  69.663  1.00  0.00    -0.239 C  
HETATM   11  S   UNL     1     -10.243   9.023  68.673  1.00  0.00    -0.208 S  
BRANCH  10  12
HETATM   12  N   UNL     1     -11.465   9.657  71.008  1.00  0.00    -0.339 N  
BRANCH  12  13
HETATM   13  C   UNL     1     -12.696  10.112  71.671  1.00  0.00    -0.447 C  
HETATM   14  C   UNL     1     -13.746   9.032  71.883  1.00  0.00    -0.495 C  
ENDBRANCH  12  13
BRANCH  12  15
HETATM   15  C   UNL     1     -10.421   9.010  71.817  1.00  0.00    -0.348 C  
HETATM   16  C   UNL     1     -10.677   7.539  72.102  1.00  0.00    -0.275 C  
ENDBRANCH  12  15
ENDBRANCH  10  12
ENDBRANCH   9  10
ENDBRANCH   8   9
ENDBRANCH   6   8
ENDBRANCH   3   6
ENDBRANCH   2   3
TORSDOF 9
ENDMDL
MODEL       97
REMARK 921   NORMALIZED FREE ENERGY PREDICTED BY IDOCK:   -3.36 KCAL/MOL
REMARK 922        TOTAL FREE ENERGY PREDICTED BY IDOCK:   -5.64 KCAL/MOL
REMARK 923 INTER-LIGAND FREE ENERGY PREDICTED BY IDOCK:   -5.26 KCAL/MOL
REMARK 924 INTRA-LIGAND FREE ENERGY PREDICTED BY IDOCK:   -0.37 KCAL/MOL
REMARK 927      BINDING AFFINITY PREDICTED BY RF-SCORE:    0.00 PKD
ROOT
HETATM    1  C   UNL     1     -10.669  15.539  70.019  1.00  0.00    -0.331 C  
HETATM    2  C   UNL     1     -11.943  15.081  69.313  1.00  0.00    -0.289 C  
ENDROOT
BRANCH   2   3
HETATM    3  N   UNL     1     -11.762  13.844  68.523  1.00  0.00    -0.334 N  
BRANCH   3   4
HETATM    4  C   UNL     1     -11.840  12.538  69.222  1.00  0.00    -0.304 C  
HETATM    5  C   UNL     1     -12.369  12.509  70.653  1.00  0.00    -0.369 C  
ENDBRANCH   3   4
BRANCH   3   6
HETATM    6  C   UNL     1     -11.453  13.915  67.133  1.00  0.00    -0.347 C  
HETATM    7  S   UNL     1     -12.606  14.015  65.893  1.00  0.00    -0.366 S  
BRANCH   6   8
HETATM    8  S   UNL     1      -9.718  14.032  66.705  1.00  0.00    -0.297 SA 
BRANCH   8   9
HETATM    9  S   UNL     1      -9.511  15.971  66.011  1.00  0.00    -0.337 SA 
BRANCH   9  10
HETATM   10  C   UNL     1      -8.576  16.857  67.235  1.00  0.00    -0.196 C  
HETATM   11  S   UNL     1      -7.067  16.404  67.822  1.00  0.00    -0.142 S  
BRANCH  10  12
HETATM   12  N   UNL     1      -9.182  18.079  67.564  1.00  0.00    -0.252 N  
BRANCH  12  13
HETATM   13  C   UNL     1      -8.572  18.977  68.555  1.00  0.00    -0.358 C  
HETATM   14  C   UNL     1      -7.536  19.940  67.994  1.00  0.00    -0.332 C  
ENDBRANCH  12  13
BRANCH  12  15
HETATM   15  C   UNL     1     -10.520  18.402  67.044  1.00  0.00    -0.399 C  
HETATM   16  C   UNL     1     -10.530  19.495  65.989  1.00  0.00    -0.611 C  
ENDBRANCH  12  15
ENDBRANCH  10  12
ENDBRANCH   9  10
ENDBRANCH   8   9
ENDBRANCH   6   8
ENDBRANCH   3   6
ENDBRANCH   2   3
TORSDOF 9
ENDMDL
MODEL       98
REMARK 921   NORMALIZED FREE ENERGY PREDICTED BY IDOCK:   -3.35 KCAL/MOL
REMARK 922        TOTAL FREE ENERGY PREDICTED BY IDOCK:   -5.63 KCAL/MOL
REMARK 923 INTER-LIGAND FREE ENERGY PREDICTED BY IDOCK:   -5.12 KCAL/MOL
REMARK 924 INTRA-LIGAND FREE ENERGY PREDICTED BY IDOCK:   -0.51 KCAL/MOL
REMARK 927      BINDING AFFINITY PREDICTED BY RF-SCORE:    0.00 PKD
ROOT
HETATM    1  C   UNL     1     -11.869   6.882  70.759  1.00  0.00    -0.427 C  
HETATM    2  C   UNL     1     -11.550   8.118  71.596  1.00  0.00    -0.279 C  
ENDROOT
BRANCH   2   3
HETATM    3  N   UNL     1     -11.761   9.388  70.867  1.00  0.00    -0.294 N  
BRANCH   3   4
HETATM    4  C   UNL     1     -13.054  10.095  71.033  1.00  0.00    -0.375 C  
HETATM    5  C   UNL     1     -13.086  11.366  71.877  1.00  0.00    -0.505 C  
ENDBRANCH   3   4
BRANCH   3   6
HETATM    6  C   UNL     1     -10.765   9.882  69.975  1.00  0.00    -0.292 C  
HETATM    7  S   UNL     1      -9.103   9.573  70.119  1.00  0.00    -0.243 S  
BRANCH   6   8
HETATM    8  S   UNL     1     -11.350  10.781  68.541  1.00  0.00    -0.290 SA 
BRANCH   8   9
HETATM    9  S   UNL     1     -10.015  12.354  68.367  1.00  0.00    -0.179 SA 
BRANCH   9  10
HETATM   10  C   UNL     1     -10.984  13.830  68.164  1.00  0.00    -0.246 C  
HETATM   11  S   UNL     1     -11.997  14.156  66.862  1.00  0.00    -0.434 S  
BRANCH  10  12
HETATM   12  N   UNL     1     -10.922  14.649  69.301  1.00  0.00    -0.253 N  
BRANCH  12  13
HETATM   13  C   UNL     1      -9.729  15.464  69.575  1.00  0.00    -0.257 C  
HETATM   14  C   UNL     1      -9.552  16.667  68.662  1.00  0.00    -0.248 C  
ENDBRANCH  12  13
BRANCH  12  15
HETATM   15  C   UNL     1     -11.982  14.580  70.319  1.00  0.00    -0.314 C  
HETATM   16  C   UNL     1     -11.777  15.519  71.495  1.00  0.00    -0.479 C  
ENDBRANCH  12  15
ENDBRANCH  10  12
ENDBRANCH   9  10
ENDBRANCH   8   9
ENDBRANCH   6   8
ENDBRANCH   3   6
ENDBRANCH   2   3
TORSDOF 9
ENDMDL
MODEL       99
REMARK 921   NORMALIZED FREE ENERGY PREDICTED BY IDOCK:   -3.35 KCAL/MOL
REMARK 922        TOTAL FREE ENERGY PREDICTED BY IDOCK:   -5.62 KCAL/MOL
REMARK 923 INTER-LIGAND FREE ENERGY PREDICTED BY IDOCK:   -5.20 KCAL/MOL
REMARK 924 INTRA-LIGAND FREE ENERGY PREDICTED BY IDOCK:   -0.42 KCAL/MOL
REMARK 927      BINDING AFFINITY PREDICTED BY RF-SCORE:    0.00 PKD
ROOT
HETATM    1  C   UNL     1      -7.380  17.784  66.864  1.00  0.00    -0.229 C  
HETATM    2  C   UNL     1      -8.302  17.612  68.068  1.00  0.00    -0.246 C  
ENDROOT
BRANCH   2   3
HETATM    3  N   UNL     1      -9.707  17.343  67.695  1.00  0.00    -0.264 N  
BRANCH   3   4
HETATM    4  C   UNL     1     -10.661  18.477  67.658  1.00  0.00    -0.414 C  
HETATM    5  C   UNL     1     -10.188  19.842  68.152  1.00  0.00    -0.577 C  
ENDBRANCH   3   4
BRANCH   3   6
HETATM    6  C   UNL     1     -10.144  16.009  67.443  1.00  0.00    -0.258 C  
HETATM    7  S   UNL     1     -10.705  15.444  65.946  1.00  0.00    -0.341 S  
BRANCH   6   8
HETATM    8  S   UNL     1      -9.955  14.839  68.786  1.00  0.00    -0.234 SA 
BRANCH   8   9
HETATM    9  S   UNL     1     -11.794  13.894  68.880  1.00  0.00    -0.369 SA 
BRANCH   9  10
HETATM   10  C   UNL     1     -11.521  12.196  68.433  1.00  0.00    -0.304 C  
HETATM   11  S   UNL     1     -11.108  11.649  66.898  1.00  0.00    -0.314 S  
BRANCH  10  12
HETATM   12  N   UNL     1     -11.549  11.355  69.555  1.00  0.00    -0.300 N  
BRANCH  12  13
HETATM   13  C   UNL     1     -11.062   9.970  69.468  1.00  0.00    -0.238 C  
HETATM   14  C   UNL     1      -9.846   9.664  70.330  1.00  0.00    -0.315 C  
ENDBRANCH  12  13
BRANCH  12  15
HETATM   15  C   UNL     1     -12.218  11.794  70.790  1.00  0.00    -0.326 C  
HETATM   16  C   UNL     1     -13.078  10.727  71.445  1.00  0.00    -0.469 C  
ENDBRANCH  12  15
ENDBRANCH  10  12
ENDBRANCH   9  10
ENDBRANCH   8   9
ENDBRANCH   6   8
ENDBRANCH   3   6
ENDBRANCH   2   3
TORSDOF 9
ENDMDL
MODEL      100
REMARK 921   NORMALIZED FREE ENERGY PREDICTED BY IDOCK:   -3.35 KCAL/MOL
REMARK 922        TOTAL FREE ENERGY PREDICTED BY IDOCK:   -5.62 KCAL/MOL
REMARK 923 INTER-LIGAND FREE ENERGY PREDICTED BY IDOCK:   -5.06 KCAL/MOL
REMARK 924 INTRA-LIGAND FREE ENERGY PREDICTED BY IDOCK:   -0.56 KCAL/MOL
REMARK 927      BINDING AFFINITY PREDICTED BY RF-SCORE:    0.00 PKD
ROOT
HETATM    1  C   UNL     1      -7.068  19.952  65.642  1.00  0.00    -0.337 C  
HETATM    2  C   UNL     1      -7.662  20.356  66.989  1.00  0.00    -0.318 C  
ENDROOT
BRANCH   2   3
HETATM    3  N   UNL     1      -8.754  19.465  67.438  1.00  0.00    -0.295 N  
BRANCH   3   4
HETATM    4  C   UNL     1     -10.156  19.893  67.215  1.00  0.00    -0.432 C  
HETATM    5  C   UNL     1     -10.724  19.817  65.800  1.00  0.00    -0.474 C  
ENDBRANCH   3   4
BRANCH   3   6
HETATM    6  C   UNL     1      -8.458  18.254  68.130  1.00  0.00    -0.278 C  
HETATM    7  S   UNL     1      -7.031  17.963  68.998  1.00  0.00    -0.209 S  
BRANCH   6   8
HETATM    8  S   UNL     1      -9.756  17.021  68.173  1.00  0.00    -0.279 SA 
BRANCH   8   9
HETATM    9  S   UNL     1      -9.505  15.977  66.404  1.00  0.00    -0.320 SA 
BRANCH   9  10
HETATM   10  C   UNL     1     -10.768  14.728  66.360  1.00  0.00    -0.313 C  
HETATM   11  S   UNL     1     -11.721  14.356  65.027  1.00  0.00    -0.407 S  
BRANCH  10  12
HETATM   12  N   UNL     1     -10.788  13.971  67.541  1.00  0.00    -0.267 N  
BRANCH  12  13
HETATM   13  C   UNL     1     -11.994  13.921  68.381  1.00  0.00    -0.356 C  
HETATM   14  C   UNL     1     -11.755  14.184  69.860  1.00  0.00    -0.372 C  
ENDBRANCH  12  13
BRANCH  12  15
HETATM   15  C   UNL     1      -9.551  13.350  68.041  1.00  0.00    -0.219 C  
HETATM   16  C   UNL     1      -9.185  12.049  67.347  1.00  0.00    -0.180 C  
ENDBRANCH  12  15
ENDBRANCH  10  12
ENDBRANCH   9  10
ENDBRANCH   8   9
ENDBRANCH   6   8
ENDBRANCH   3   6
ENDBRANCH   2   3
TORSDOF 9
ENDMDL
MODEL      101
REMARK 921   NORMALIZED FREE ENERGY PREDICTED BY IDOCK:   -3.34 KCAL/MOL
REMARK 922        TOTAL FREE ENERGY PREDICTED BY IDOCK:   -5.62 KCAL/MOL
REMARK 923 INTER-LIGAND FREE ENERGY PREDICTED BY IDOCK:   -5.09 KCAL/MOL
REMARK 924 INTRA-LIGAND FREE ENERGY PREDICTED BY IDOCK:   -0.53 KCAL/MOL
REMARK 927      BINDING AFFINITY PREDICTED BY RF-SCORE:    0.00 PKD
ROOT
HETATM    1  C   UNL     1     -10.826  18.889  67.546  1.00  0.00    -0.440 C  
HETATM    2  C   UNL     1      -9.949  18.823  66.299  1.00  0.00    -0.385 C  
ENDROOT
BRANCH   2   3
HETATM    3  N   UNL     1      -8.508  18.686  66.604  1.00  0.00    -0.284 N  
BRANCH   3   4
HETATM    4  C   UNL     1      -7.577  19.731  66.116  1.00  0.00    -0.320 C  
HETATM    5  C   UNL     1      -7.127  20.817  67.089  1.00  0.00    -0.404 C  
ENDBRANCH   3   4
BRANCH   3   6
HETATM    6  C   UNL     1      -8.023  17.537  67.294  1.00  0.00    -0.205 C  
HETATM    7  S   UNL     1      -7.173  17.580  68.761  1.00  0.00    -0.252 S  
BRANCH   6   8
HETATM    8  S   UNL     1      -8.468  15.944  66.607  1.00  0.00    -0.305 SA 
BRANCH   8   9
HETATM    9  S   UNL     1      -8.854  14.778  68.272  1.00  0.00    -0.185 SA 
BRANCH   9  10
HETATM   10  C   UNL     1     -10.138  13.637  67.815  1.00  0.00    -0.242 C  
HETATM   11  S   UNL     1      -9.963  11.968  67.712  1.00  0.00    -0.200 S  
BRANCH  10  12
HETATM   12  N   UNL     1     -11.378  14.279  67.684  1.00  0.00    -0.308 N  
BRANCH  12  13
HETATM   13  C   UNL     1     -12.225  14.044  66.505  1.00  0.00    -0.451 C  
HETATM   14  C   UNL     1     -11.670  14.590  65.199  1.00  0.00    -0.376 C  
ENDBRANCH  12  13
BRANCH  12  15
HETATM   15  C   UNL     1     -11.773  15.322  68.643  1.00  0.00    -0.346 C  
HETATM   16  C   UNL     1     -12.165  14.792  70.012  1.00  0.00    -0.383 C  
ENDBRANCH  12  15
ENDBRANCH  10  12
ENDBRANCH   9  10
ENDBRANCH   8   9
ENDBRANCH   6   8
ENDBRANCH   3   6
ENDBRANCH   2   3
TORSDOF 9
ENDMDL
MODEL      102
REMARK 921   NORMALIZED FREE ENERGY PREDICTED BY IDOCK:   -3.34 KCAL/MOL
REMARK 922        TOTAL FREE ENERGY PREDICTED BY IDOCK:   -5.61 KCAL/MOL
REMARK 923 INTER-LIGAND FREE ENERGY PREDICTED BY IDOCK:   -5.25 KCAL/MOL
REMARK 924 INTRA-LIGAND FREE ENERGY PREDICTED BY IDOCK:   -0.36 KCAL/MOL
REMARK 927      BINDING AFFINITY PREDICTED BY RF-SCORE:    0.00 PKD
ROOT
HETATM    1  C   UNL     1      -8.903   8.375  71.756  1.00  0.00    -0.257 C  
HETATM    2  C   UNL     1     -10.230   8.932  71.248  1.00  0.00    -0.291 C  
ENDROOT
BRANCH   2   3
HETATM    3  N   UNL     1     -10.665   8.332  69.968  1.00  0.00    -0.240 N  
BRANCH   3   4
HETATM    4  C   UNL     1     -11.387   7.038  70.001  1.00  0.00    -0.249 C  
HETATM    5  C   UNL     1     -10.569   5.748  70.004  1.00  0.00    -0.380 C  
ENDBRANCH   3   4
BRANCH   3   6
HETATM    6  C   UNL     1     -10.336   8.958  68.730  1.00  0.00    -0.211 C  
HETATM    7  S   UNL     1     -10.428   8.204  67.214  1.00  0.00    -0.280 S  
BRANCH   6   8
HETATM    8  S   UNL     1      -9.922  10.699  68.800  1.00  0.00    -0.200 SA 
BRANCH   8   9
HETATM    9  S   UNL     1     -10.053  11.316  66.829  1.00  0.00    -0.226 SA 
BRANCH   9  10
HETATM   10  C   UNL     1     -11.074  12.771  66.813  1.00  0.00    -0.277 C  
HETATM   11  S   UNL     1     -11.520  13.659  68.169  1.00  0.00    -0.335 S  
BRANCH  10  12
HETATM   12  N   UNL     1     -11.357  13.190  65.504  1.00  0.00    -0.296 N  
BRANCH  12  13
HETATM   13  C   UNL     1     -10.524  14.206  64.844  1.00  0.00    -0.438 C  
HETATM   14  C   UNL     1     -11.151  15.589  64.756  1.00  0.00    -0.421 C  
ENDBRANCH  12  13
BRANCH  12  15
HETATM   15  C   UNL     1     -12.588  12.739  64.836  1.00  0.00    -0.470 C  
HETATM   16  C   UNL     1     -12.358  12.092  63.481  1.00  0.00    -0.682 C  
ENDBRANCH  12  15
ENDBRANCH  10  12
ENDBRANCH   9  10
ENDBRANCH   8   9
ENDBRANCH   6   8
ENDBRANCH   3   6
ENDBRANCH   2   3
TORSDOF 9
ENDMDL
MODEL      103
REMARK 921   NORMALIZED FREE ENERGY PREDICTED BY IDOCK:   -3.33 KCAL/MOL
REMARK 922        TOTAL FREE ENERGY PREDICTED BY IDOCK:   -5.60 KCAL/MOL
REMARK 923 INTER-LIGAND FREE ENERGY PREDICTED BY IDOCK:   -5.26 KCAL/MOL
REMARK 924 INTRA-LIGAND FREE ENERGY PREDICTED BY IDOCK:   -0.34 KCAL/MOL
REMARK 927      BINDING AFFINITY PREDICTED BY RF-SCORE:    0.00 PKD
ROOT
HETATM    1  C   UNL     1     -11.982  12.277  63.498  1.00  0.00    -0.625 C  
HETATM    2  C   UNL     1     -10.773  12.582  64.379  1.00  0.00    -0.350 C  
ENDROOT
BRANCH   2   3
HETATM    3  N   UNL     1     -11.091  13.465  65.523  1.00  0.00    -0.281 N  
BRANCH   3   4
HETATM    4  C   UNL     1     -12.034  12.974  66.556  1.00  0.00    -0.391 C  
HETATM    5  C   UNL     1     -11.463  12.320  67.811  1.00  0.00    -0.392 C  
ENDBRANCH   3   4
BRANCH   3   6
HETATM    6  C   UNL     1     -10.550  14.782  65.589  1.00  0.00    -0.340 C  
HETATM    7  S   UNL     1     -11.257  16.152  64.882  1.00  0.00    -0.175 S  
BRANCH   6   8
HETATM    8  S   UNL     1      -9.089  14.996  66.602  1.00  0.00    -0.285 SA 
BRANCH   8   9
HETATM    9  S   UNL     1      -8.601  16.992  66.350  1.00  0.00    -0.269 SA 
BRANCH   9  10
HETATM   10  C   UNL     1      -7.750  17.503  67.824  1.00  0.00    -0.205 C  
HETATM   11  S   UNL     1      -7.069  16.468  68.961  1.00  0.00    -0.219 S  
BRANCH  10  12
HETATM   12  N   UNL     1      -7.579  18.894  67.866  1.00  0.00    -0.254 N  
BRANCH  12  13
HETATM   13  C   UNL     1      -8.649  19.797  67.415  1.00  0.00    -0.322 C  
HETATM   14  C   UNL     1      -9.912  19.765  68.262  1.00  0.00    -0.557 C  
ENDBRANCH  12  13
BRANCH  12  15
HETATM   15  C   UNL     1      -6.267  19.466  68.208  1.00  0.00    -0.228 C  
HETATM   16  C   UNL     1      -6.233  20.190  69.543  1.00  0.00    -0.370 C  
ENDBRANCH  12  15
ENDBRANCH  10  12
ENDBRANCH   9  10
ENDBRANCH   8   9
ENDBRANCH   6   8
ENDBRANCH   3   6
ENDBRANCH   2   3
TORSDOF 9
ENDMDL
MODEL      104
REMARK 921   NORMALIZED FREE ENERGY PREDICTED BY IDOCK:   -3.33 KCAL/MOL
REMARK 922        TOTAL FREE ENERGY PREDICTED BY IDOCK:   -5.59 KCAL/MOL
REMARK 923 INTER-LIGAND FREE ENERGY PREDICTED BY IDOCK:   -5.05 KCAL/MOL
REMARK 924 INTRA-LIGAND FREE ENERGY PREDICTED BY IDOCK:   -0.54 KCAL/MOL
REMARK 927      BINDING AFFINITY PREDICTED BY RF-SCORE:    0.00 PKD
ROOT
HETATM    1  C   UNL     1      -5.960  18.412  65.672  1.00  0.00    -0.265 C  
HETATM    2  C   UNL     1      -7.358  18.941  65.984  1.00  0.00    -0.259 C  
ENDROOT
BRANCH   2   3
HETATM    3  N   UNL     1      -7.947  18.353  67.207  1.00  0.00    -0.233 N  
BRANCH   3   4
HETATM    4  C   UNL     1      -7.074  18.154  68.389  1.00  0.00    -0.252 C  
HETATM    5  C   UNL     1      -6.811  19.344  69.308  1.00  0.00    -0.367 C  
ENDBRANCH   3   4
BRANCH   3   6
HETATM    6  C   UNL     1      -9.307  17.928  67.219  1.00  0.00    -0.258 C  
HETATM    7  S   UNL     1     -10.642  18.969  67.319  1.00  0.00    -0.471 S  
BRANCH   6   8
HETATM    8  S   UNL     1      -9.600  16.177  66.984  1.00  0.00    -0.229 SA 
BRANCH   8   9
HETATM    9  S   UNL     1     -11.340  15.820  68.047  1.00  0.00    -0.261 SA 
BRANCH   9  10
HETATM   10  C   UNL     1     -11.594  14.061  68.041  1.00  0.00    -0.337 C  
HETATM   11  S   UNL     1     -11.863  13.114  69.404  1.00  0.00    -0.310 S  
BRANCH  10  12
HETATM   12  N   UNL     1     -11.689  13.557  66.736  1.00  0.00    -0.369 N  
BRANCH  12  13
HETATM   13  C   UNL     1     -12.558  14.204  65.742  1.00  0.00    -0.447 C  
HETATM   14  C   UNL     1     -12.226  13.880  64.294  1.00  0.00    -0.447 C  
ENDBRANCH  12  13
BRANCH  12  15
HETATM   15  C   UNL     1     -11.050  12.278  66.391  1.00  0.00    -0.303 C  
HETATM   16  C   UNL     1      -9.531  12.316  66.415  1.00  0.00    -0.240 C  
ENDBRANCH  12  15
ENDBRANCH  10  12
ENDBRANCH   9  10
ENDBRANCH   8   9
ENDBRANCH   6   8
ENDBRANCH   3   6
ENDBRANCH   2   3
TORSDOF 9
ENDMDL
MODEL      105
REMARK 921   NORMALIZED FREE ENERGY PREDICTED BY IDOCK:   -3.32 KCAL/MOL
REMARK 922        TOTAL FREE ENERGY PREDICTED BY IDOCK:   -5.59 KCAL/MOL
REMARK 923 INTER-LIGAND FREE ENERGY PREDICTED BY IDOCK:   -5.14 KCAL/MOL
REMARK 924 INTRA-LIGAND FREE ENERGY PREDICTED BY IDOCK:   -0.44 KCAL/MOL
REMARK 927      BINDING AFFINITY PREDICTED BY RF-SCORE:    0.00 PKD
ROOT
HETATM    1  C   UNL     1     -10.367  19.658  66.942  1.00  0.00    -0.583 C  
HETATM    2  C   UNL     1     -10.581  18.531  67.949  1.00  0.00    -0.348 C  
ENDROOT
BRANCH   2   3
HETATM    3  N   UNL     1      -9.676  17.380  67.740  1.00  0.00    -0.262 N  
BRANCH   3   4
HETATM    4  C   UNL     1      -8.213  17.619  67.739  1.00  0.00    -0.225 C  
HETATM    5  C   UNL     1      -7.427  17.320  66.465  1.00  0.00    -0.315 C  
ENDBRANCH   3   4
BRANCH   3   6
HETATM    6  C   UNL     1     -10.208  16.083  67.480  1.00  0.00    -0.275 C  
HETATM    7  S   UNL     1     -10.754  15.551  65.965  1.00  0.00    -0.313 S  
BRANCH   6   8
HETATM    8  S   UNL     1     -10.166  14.915  68.837  1.00  0.00    -0.242 SA 
BRANCH   8   9
HETATM    9  S   UNL     1     -12.014  13.987  68.746  1.00  0.00    -0.317 SA 
BRANCH   9  10
HETATM   10  C   UNL     1     -11.706  12.250  68.535  1.00  0.00    -0.331 C  
HETATM   11  S   UNL     1     -10.998  11.545  67.183  1.00  0.00    -0.301 S  
BRANCH  10  12
HETATM   12  N   UNL     1     -11.994  11.528  69.703  1.00  0.00    -0.332 N  
BRANCH  12  13
HETATM   13  C   UNL     1     -12.491  12.212  70.906  1.00  0.00    -0.279 C  
HETATM   14  C   UNL     1     -13.254  11.325  71.878  1.00  0.00    -0.491 C  
ENDBRANCH  12  13
BRANCH  12  15
HETATM   15  C   UNL     1     -11.647  10.101  69.793  1.00  0.00    -0.182 C  
HETATM   16  C   UNL     1     -10.312   9.827  70.463  1.00  0.00    -0.348 C  
ENDBRANCH  12  15
ENDBRANCH  10  12
ENDBRANCH   9  10
ENDBRANCH   8   9
ENDBRANCH   6   8
ENDBRANCH   3   6
ENDBRANCH   2   3
TORSDOF 9
ENDMDL
MODEL      106
REMARK 921   NORMALIZED FREE ENERGY PREDICTED BY IDOCK:   -3.32 KCAL/MOL
REMARK 922        TOTAL FREE ENERGY PREDICTED BY IDOCK:   -5.58 KCAL/MOL
REMARK 923 INTER-LIGAND FREE ENERGY PREDICTED BY IDOCK:   -5.17 KCAL/MOL
REMARK 924 INTRA-LIGAND FREE ENERGY PREDICTED BY IDOCK:   -0.41 KCAL/MOL
REMARK 927      BINDING AFFINITY PREDICTED BY RF-SCORE:    0.00 PKD
ROOT
HETATM    1  C   UNL     1     -11.414  14.585  66.164  1.00  0.00    -0.357 C  
HETATM    2  C   UNL     1     -11.937  13.255  66.699  1.00  0.00    -0.388 C  
ENDROOT
BRANCH   2   3
HETATM    3  N   UNL     1     -11.246  12.080  66.124  1.00  0.00    -0.330 N  
BRANCH   3   4
HETATM    4  C   UNL     1     -10.942  12.075  64.673  1.00  0.00    -0.317 C  
HETATM    5  C   UNL     1     -12.092  11.878  63.689  1.00  0.00    -0.580 C  
ENDBRANCH   3   4
BRANCH   3   6
HETATM    6  C   UNL     1     -10.941  10.952  66.941  1.00  0.00    -0.223 C  
HETATM    7  S   UNL     1      -9.960   9.653  66.466  1.00  0.00    -0.251 S  
BRANCH   6   8
HETATM    8  S   UNL     1     -11.547  10.999  68.626  1.00  0.00    -0.299 SA 
BRANCH   8   9
HETATM    9  S   UNL     1     -10.127   9.934  69.691  1.00  0.00    -0.243 SA 
BRANCH   9  10
HETATM   10  C   UNL     1     -10.889   8.402  70.172  1.00  0.00    -0.236 C  
HETATM   11  S   UNL     1     -10.820   6.966  69.299  1.00  0.00    -0.221 S  
BRANCH  10  12
HETATM   12  N   UNL     1     -11.446   8.482  71.457  1.00  0.00    -0.270 N  
BRANCH  12  13
HETATM   13  C   UNL     1     -10.652   8.129  72.643  1.00  0.00    -0.344 C  
HETATM   14  C   UNL     1     -10.691   6.657  73.024  1.00  0.00    -0.299 C  
ENDBRANCH  12  13
BRANCH  12  15
HETATM   15  C   UNL     1     -12.880   8.763  71.623  1.00  0.00    -0.348 C  
HETATM   16  C   UNL     1     -13.767   7.531  71.553  1.00  0.00    -0.460 C  
ENDBRANCH  12  15
ENDBRANCH  10  12
ENDBRANCH   9  10
ENDBRANCH   8   9
ENDBRANCH   6   8
ENDBRANCH   3   6
ENDBRANCH   2   3
TORSDOF 9
ENDMDL
MODEL      107
REMARK 921   NORMALIZED FREE ENERGY PREDICTED BY IDOCK:   -3.32 KCAL/MOL
REMARK 922        TOTAL FREE ENERGY PREDICTED BY IDOCK:   -5.58 KCAL/MOL
REMARK 923 INTER-LIGAND FREE ENERGY PREDICTED BY IDOCK:   -5.04 KCAL/MOL
REMARK 924 INTRA-LIGAND FREE ENERGY PREDICTED BY IDOCK:   -0.54 KCAL/MOL
REMARK 927      BINDING AFFINITY PREDICTED BY RF-SCORE:    0.00 PKD
ROOT
HETATM    1  C   UNL     1      -6.089  20.239  69.385  1.00  0.00    -0.374 C  
HETATM    2  C   UNL     1      -7.422  19.522  69.188  1.00  0.00    -0.305 C  
ENDROOT
BRANCH   2   3
HETATM    3  N   UNL     1      -7.333  18.364  68.273  1.00  0.00    -0.264 N  
BRANCH   3   4
HETATM    4  C   UNL     1      -6.688  17.122  68.762  1.00  0.00    -0.200 C  
HETATM    5  C   UNL     1      -7.578  15.984  69.255  1.00  0.00    -0.230 C  
ENDBRANCH   3   4
BRANCH   3   6
HETATM    6  C   UNL     1      -7.801  18.468  66.930  1.00  0.00    -0.233 C  
HETATM    7  S   UNL     1      -6.813  18.779  65.587  1.00  0.00    -0.218 S  
BRANCH   6   8
HETATM    8  S   UNL     1      -9.536  18.117  66.658  1.00  0.00    -0.309 SA 
BRANCH   8   9
HETATM    9  S   UNL     1      -9.548  16.140  66.045  1.00  0.00    -0.338 SA 
BRANCH   9  10
HETATM   10  C   UNL     1     -10.717  15.289  67.079  1.00  0.00    -0.313 C  
HETATM   11  S   UNL     1     -11.348  15.879  68.522  1.00  0.00    -0.366 S  
BRANCH  10  12
HETATM   12  N   UNL     1     -11.174  14.107  66.479  1.00  0.00    -0.322 N  
BRANCH  12  13
HETATM   13  C   UNL     1     -10.451  12.840  66.666  1.00  0.00    -0.257 C  
HETATM   14  C   UNL     1     -11.193  11.795  67.485  1.00  0.00    -0.354 C  
ENDBRANCH  12  13
BRANCH  12  15
HETATM   15  C   UNL     1     -12.290  14.151  65.521  1.00  0.00    -0.458 C  
HETATM   16  C   UNL     1     -11.987  13.496  64.183  1.00  0.00    -0.498 C  
ENDBRANCH  12  15
ENDBRANCH  10  12
ENDBRANCH   9  10
ENDBRANCH   8   9
ENDBRANCH   6   8
ENDBRANCH   3   6
ENDBRANCH   2   3
TORSDOF 9
ENDMDL
MODEL      108
REMARK 921   NORMALIZED FREE ENERGY PREDICTED BY IDOCK:   -3.31 KCAL/MOL
REMARK 922        TOTAL FREE ENERGY PREDICTED BY IDOCK:   -5.57 KCAL/MOL
REMARK 923 INTER-LIGAND FREE ENERGY PREDICTED BY IDOCK:   -5.27 KCAL/MOL
REMARK 924 INTRA-LIGAND FREE ENERGY PREDICTED BY IDOCK:   -0.30 KCAL/MOL
REMARK 927      BINDING AFFINITY PREDICTED BY RF-SCORE:    0.00 PKD
ROOT
HETATM    1  C   UNL     1      -5.855  18.889  65.098  1.00  0.00    -0.289 C  
HETATM    2  C   UNL     1      -6.884  20.013  65.195  1.00  0.00    -0.258 C  
ENDROOT
BRANCH   2   3
HETATM    3  N   UNL     1      -7.727  19.932  66.407  1.00  0.00    -0.291 N  
BRANCH   3   4
HETATM    4  C   UNL     1      -7.236  20.561  67.656  1.00  0.00    -0.315 C  
HETATM    5  C   UNL     1      -6.961  19.667  68.863  1.00  0.00    -0.382 C  
ENDBRANCH   3   4
BRANCH   3   6
HETATM    6  C   UNL     1      -8.953  19.205  66.385  1.00  0.00    -0.342 C  
HETATM    7  S   UNL     1     -10.436  19.830  65.850  1.00  0.00    -0.396 S  
BRANCH   6   8
HETATM    8  S   UNL     1      -8.865  17.475  66.840  1.00  0.00    -0.260 SA 
BRANCH   8   9
HETATM    9  S   UNL     1     -10.167  17.319  68.441  1.00  0.00    -0.381 SA 
BRANCH   9  10
HETATM   10  C   UNL     1      -9.927  15.704  69.144  1.00  0.00    -0.244 C  
HETATM   11  S   UNL     1      -8.477  14.852  69.146  1.00  0.00    -0.111 S  
BRANCH  10  12
HETATM   12  N   UNL     1     -11.065  15.267  69.837  1.00  0.00    -0.270 N  
BRANCH  12  13
HETATM   13  C   UNL     1     -11.815  14.087  69.381  1.00  0.00    -0.333 C  
HETATM   14  C   UNL     1     -11.821  13.876  67.875  1.00  0.00    -0.413 C  
ENDBRANCH  12  13
BRANCH  12  15
HETATM   15  C   UNL     1     -11.618  16.078  70.933  1.00  0.00    -0.418 C  
HETATM   16  C   UNL     1     -11.704  15.349  72.263  1.00  0.00    -0.564 C  
ENDBRANCH  12  15
ENDBRANCH  10  12
ENDBRANCH   9  10
ENDBRANCH   8   9
ENDBRANCH   6   8
ENDBRANCH   3   6
ENDBRANCH   2   3
TORSDOF 9
ENDMDL
MODEL      109
REMARK 921   NORMALIZED FREE ENERGY PREDICTED BY IDOCK:   -3.30 KCAL/MOL
REMARK 922        TOTAL FREE ENERGY PREDICTED BY IDOCK:   -5.56 KCAL/MOL
REMARK 923 INTER-LIGAND FREE ENERGY PREDICTED BY IDOCK:   -5.03 KCAL/MOL
REMARK 924 INTRA-LIGAND FREE ENERGY PREDICTED BY IDOCK:   -0.53 KCAL/MOL
REMARK 927      BINDING AFFINITY PREDICTED BY RF-SCORE:    0.00 PKD
ROOT
HETATM    1  C   UNL     1     -12.536  12.754  65.013  1.00  0.00    -0.572 C  
HETATM    2  C   UNL     1     -11.277  12.191  65.666  1.00  0.00    -0.335 C  
ENDROOT
BRANCH   2   3
HETATM    3  N   UNL     1     -10.801  12.997  66.812  1.00  0.00    -0.266 N  
BRANCH   3   4
HETATM    4  C   UNL     1      -9.608  13.857  66.627  1.00  0.00    -0.289 C  
HETATM    5  C   UNL     1      -9.763  15.160  65.848  1.00  0.00    -0.385 C  
ENDBRANCH   3   4
BRANCH   3   6
HETATM    6  C   UNL     1     -11.442  12.893  68.081  1.00  0.00    -0.315 C  
HETATM    7  S   UNL     1     -11.854  14.212  69.064  1.00  0.00    -0.353 S  
BRANCH   6   8
HETATM    8  S   UNL     1     -11.948  11.252  68.589  1.00  0.00    -0.134 SA 
BRANCH   8   9
HETATM    9  S   UNL     1     -10.169  10.319  69.088  1.00  0.00    -0.232 SA 
BRANCH   9  10
HETATM   10  C   UNL     1     -10.395   8.584  68.777  1.00  0.00    -0.213 C  
HETATM   11  S   UNL     1     -10.151   7.823  67.297  1.00  0.00    -0.266 S  
BRANCH  10  12
HETATM   12  N   UNL     1     -10.666   7.877  69.958  1.00  0.00    -0.243 N  
BRANCH  12  13
HETATM   13  C   UNL     1     -11.315   6.559  69.911  1.00  0.00    -0.406 C  
HETATM   14  C   UNL     1     -10.391   5.381  70.186  1.00  0.00    -0.361 C  
ENDBRANCH  12  13
BRANCH  12  15
HETATM   15  C   UNL     1     -10.456   8.518  71.265  1.00  0.00    -0.225 C  
HETATM   16  C   UNL     1     -11.527   8.198  72.294  1.00  0.00    -0.435 C  
ENDBRANCH  12  15
ENDBRANCH  10  12
ENDBRANCH   9  10
ENDBRANCH   8   9
ENDBRANCH   6   8
ENDBRANCH   3   6
ENDBRANCH   2   3
TORSDOF 9
ENDMDL
MODEL      110
REMARK 921   NORMALIZED FREE ENERGY PREDICTED BY IDOCK:   -3.30 KCAL/MOL
REMARK 922        TOTAL FREE ENERGY PREDICTED BY IDOCK:   -5.55 KCAL/MOL
REMARK 923 INTER-LIGAND FREE ENERGY PREDICTED BY IDOCK:   -4.99 KCAL/MOL
REMARK 924 INTRA-LIGAND FREE ENERGY PREDICTED BY IDOCK:   -0.56 KCAL/MOL
REMARK 927      BINDING AFFINITY PREDICTED BY RF-SCORE:    0.00 PKD
ROOT
HETATM    1  C   UNL     1      -9.966  19.536  68.854  1.00  0.00    -0.529 C  
HETATM    2  C   UNL     1     -10.730  18.794  67.761  1.00  0.00    -0.343 C  
ENDROOT
BRANCH   2   3
HETATM    3  N   UNL     1      -9.863  17.948  66.912  1.00  0.00    -0.306 N  
BRANCH   3   4
HETATM    4  C   UNL     1      -8.671  18.563  66.282  1.00  0.00    -0.203 C  
HETATM    5  C   UNL     1      -7.424  17.703  66.089  1.00  0.00    -0.334 C  
ENDBRANCH   3   4
BRANCH   3   6
HETATM    6  C   UNL     1     -10.210  16.589  66.657  1.00  0.00    -0.300 C  
HETATM    7  S   UNL     1     -10.747  15.995  65.162  1.00  0.00    -0.333 S  
BRANCH   6   8
HETATM    8  S   UNL     1      -9.928  15.428  67.991  1.00  0.00    -0.222 SA 
BRANCH   8   9
HETATM    9  S   UNL     1     -11.747  14.462  68.197  1.00  0.00    -0.336 SA 
BRANCH   9  10
HETATM   10  C   UNL     1     -11.539  12.827  67.532  1.00  0.00    -0.356 C  
HETATM   11  S   UNL     1     -11.669  12.415  65.907  1.00  0.00    -0.392 S  
BRANCH  10  12
HETATM   12  N   UNL     1     -11.105  11.922  68.512  1.00  0.00    -0.224 N  
BRANCH  12  13
HETATM   13  C   UNL     1      -9.949  11.047  68.266  1.00  0.00    -0.179 C  
HETATM   14  C   UNL     1      -8.599  11.747  68.293  1.00  0.00    -0.162 C  
ENDBRANCH  12  13
BRANCH  12  15
HETATM   15  C   UNL     1     -11.900  11.719  69.733  1.00  0.00    -0.349 C  
HETATM   16  C   UNL     1     -11.727  10.349  70.367  1.00  0.00    -0.419 C  
ENDBRANCH  12  15
ENDBRANCH  10  12
ENDBRANCH   9  10
ENDBRANCH   8   9
ENDBRANCH   6   8
ENDBRANCH   3   6
ENDBRANCH   2   3
TORSDOF 9
ENDMDL
MODEL      111
REMARK 921   NORMALIZED FREE ENERGY PREDICTED BY IDOCK:   -3.30 KCAL/MOL
REMARK 922        TOTAL FREE ENERGY PREDICTED BY IDOCK:   -5.55 KCAL/MOL
REMARK 923 INTER-LIGAND FREE ENERGY PREDICTED BY IDOCK:   -5.09 KCAL/MOL
REMARK 924 INTRA-LIGAND FREE ENERGY PREDICTED BY IDOCK:   -0.46 KCAL/MOL
REMARK 927      BINDING AFFINITY PREDICTED BY RF-SCORE:    0.00 PKD
ROOT
HETATM    1  C   UNL     1     -12.239  14.704  64.482  1.00  0.00    -0.473 C  
HETATM    2  C   UNL     1     -12.659  13.783  65.624  1.00  0.00    -0.509 C  
ENDROOT
BRANCH   2   3
HETATM    3  N   UNL     1     -11.629  13.647  66.676  1.00  0.00    -0.346 N  
BRANCH   3   4
HETATM    4  C   UNL     1     -11.916  14.192  68.025  1.00  0.00    -0.337 C  
HETATM    5  C   UNL     1     -11.908  13.235  69.214  1.00  0.00    -0.383 C  
ENDBRANCH   3   4
BRANCH   3   6
HETATM    6  C   UNL     1     -10.363  13.063  66.375  1.00  0.00    -0.281 C  
HETATM    7  S   UNL     1     -10.130  11.761  65.315  1.00  0.00    -0.269 S  
BRANCH   6   8
HETATM    8  S   UNL     1      -8.926  13.863  67.082  1.00  0.00    -0.238 SA 
BRANCH   8   9
HETATM    9  S   UNL     1      -9.037  15.802  66.366  1.00  0.00    -0.348 SA 
BRANCH   9  10
HETATM   10  C   UNL     1      -8.291  16.847  67.594  1.00  0.00    -0.184 C  
HETATM   11  S   UNL     1      -7.659  16.324  69.062  1.00  0.00    -0.220 S  
BRANCH  10  12
HETATM   12  N   UNL     1      -8.153  18.166  67.136  1.00  0.00    -0.218 N  
BRANCH  12  13
HETATM   13  C   UNL     1      -7.380  18.463  65.921  1.00  0.00    -0.203 C  
HETATM   14  C   UNL     1      -5.944  17.961  65.937  1.00  0.00    -0.243 C  
ENDBRANCH  12  13
BRANCH  12  15
HETATM   15  C   UNL     1      -8.641  19.286  67.956  1.00  0.00    -0.321 C  
HETATM   16  C   UNL     1     -10.134  19.248  68.235  1.00  0.00    -0.516 C  
ENDBRANCH  12  15
ENDBRANCH  10  12
ENDBRANCH   9  10
ENDBRANCH   8   9
ENDBRANCH   6   8
ENDBRANCH   3   6
ENDBRANCH   2   3
TORSDOF 9
ENDMDL
MODEL      112
REMARK 921   NORMALIZED FREE ENERGY PREDICTED BY IDOCK:   -3.30 KCAL/MOL
REMARK 922        TOTAL FREE ENERGY PREDICTED BY IDOCK:   -5.55 KCAL/MOL
REMARK 923 INTER-LIGAND FREE ENERGY PREDICTED BY IDOCK:   -5.04 KCAL/MOL
REMARK 924 INTRA-LIGAND FREE ENERGY PREDICTED BY IDOCK:   -0.51 KCAL/MOL
REMARK 927      BINDING AFFINITY PREDICTED BY RF-SCORE:    0.00 PKD
ROOT
HETATM    1  C   UNL     1     -12.381  12.603  64.923  1.00  0.00    -0.563 C  
HETATM    2  C   UNL     1     -10.985  12.174  65.365  1.00  0.00    -0.302 C  
ENDROOT
BRANCH   2   3
HETATM    3  N   UNL     1     -10.870  11.974  66.826  1.00  0.00    -0.253 N  
BRANCH   3   4
HETATM    4  C   UNL     1     -11.198  10.642  67.388  1.00  0.00    -0.205 C  
HETATM    5  C   UNL     1     -10.342   9.447  66.976  1.00  0.00    -0.322 C  
ENDBRANCH   3   4
BRANCH   3   6
HETATM    6  C   UNL     1     -10.516  13.062  67.677  1.00  0.00    -0.225 C  
HETATM    7  S   UNL     1     -11.569  13.810  68.776  1.00  0.00    -0.352 S  
BRANCH   6   8
HETATM    8  S   UNL     1      -8.798  13.570  67.652  1.00  0.00    -0.216 SA 
BRANCH   8   9
HETATM    9  S   UNL     1      -8.853  15.530  68.313  1.00  0.00    -0.184 SA 
BRANCH   9  10
HETATM   10  C   UNL     1      -9.426  16.516  66.950  1.00  0.00    -0.237 C  
HETATM   11  S   UNL     1     -10.285  15.938  65.626  1.00  0.00    -0.374 S  
BRANCH  10  12
HETATM   12  N   UNL     1      -9.203  17.884  67.171  1.00  0.00    -0.254 N  
BRANCH  12  13
HETATM   13  C   UNL     1      -7.835  18.412  67.289  1.00  0.00    -0.230 C  
HETATM   14  C   UNL     1      -6.907  18.046  66.141  1.00  0.00    -0.312 C  
ENDBRANCH  12  13
BRANCH  12  15
HETATM   15  C   UNL     1     -10.335  18.780  67.453  1.00  0.00    -0.418 C  
HETATM   16  C   UNL     1     -10.521  19.886  66.429  1.00  0.00    -0.589 C  
ENDBRANCH  12  15
ENDBRANCH  10  12
ENDBRANCH   9  10
ENDBRANCH   8   9
ENDBRANCH   6   8
ENDBRANCH   3   6
ENDBRANCH   2   3
TORSDOF 9
ENDMDL
MODEL      113
REMARK 921   NORMALIZED FREE ENERGY PREDICTED BY IDOCK:   -3.29 KCAL/MOL
REMARK 922        TOTAL FREE ENERGY PREDICTED BY IDOCK:   -5.54 KCAL/MOL
REMARK 923 INTER-LIGAND FREE ENERGY PREDICTED BY IDOCK:   -4.96 KCAL/MOL
REMARK 924 INTRA-LIGAND FREE ENERGY PREDICTED BY IDOCK:   -0.58 KCAL/MOL
REMARK 927      BINDING AFFINITY PREDICTED BY RF-SCORE:    0.00 PKD
ROOT
HETATM    1  C   UNL     1      -9.930  20.392  67.438  1.00  0.00    -0.556 C  
HETATM    2  C   UNL     1     -10.014  18.880  67.629  1.00  0.00    -0.349 C  
ENDROOT
BRANCH   2   3
HETATM    3  N   UNL     1      -8.712  18.259  67.959  1.00  0.00    -0.270 N  
BRANCH   3   4
HETATM    4  C   UNL     1      -7.560  19.142  68.256  1.00  0.00    -0.304 C  
HETATM    5  C   UNL     1      -6.620  18.755  69.395  1.00  0.00    -0.271 C  
ENDBRANCH   3   4
BRANCH   3   6
HETATM    6  C   UNL     1      -8.561  16.842  67.924  1.00  0.00    -0.202 C  
HETATM    7  S   UNL     1      -7.498  16.010  66.896  1.00  0.00    -0.185 S  
BRANCH   6   8
HETATM    8  S   UNL     1      -9.475  15.910  69.150  1.00  0.00    -0.270 SA 
BRANCH   8   9
HETATM    9  S   UNL     1     -11.333  15.639  68.279  1.00  0.00    -0.341 SA 
BRANCH   9  10
HETATM   10  C   UNL     1     -11.068  14.731  66.775  1.00  0.00    -0.338 C  
HETATM   11  S   UNL     1     -10.947  15.406  65.240  1.00  0.00    -0.382 S  
BRANCH  10  12
HETATM   12  N   UNL     1     -10.823  13.373  67.027  1.00  0.00    -0.271 N  
BRANCH  12  13
HETATM   13  C   UNL     1      -9.724  12.669  66.348  1.00  0.00    -0.258 C  
HETATM   14  C   UNL     1     -10.163  11.602  65.358  1.00  0.00    -0.306 C  
ENDBRANCH  12  13
BRANCH  12  15
HETATM   15  C   UNL     1     -11.762  12.594  67.848  1.00  0.00    -0.358 C  
HETATM   16  C   UNL     1     -11.116  11.879  69.023  1.00  0.00    -0.300 C  
ENDBRANCH  12  15
ENDBRANCH  10  12
ENDBRANCH   9  10
ENDBRANCH   8   9
ENDBRANCH   6   8
ENDBRANCH   3   6
ENDBRANCH   2   3
TORSDOF 9
ENDMDL
MODEL      114
REMARK 921   NORMALIZED FREE ENERGY PREDICTED BY IDOCK:   -3.29 KCAL/MOL
REMARK 922        TOTAL FREE ENERGY PREDICTED BY IDOCK:   -5.53 KCAL/MOL
REMARK 923 INTER-LIGAND FREE ENERGY PREDICTED BY IDOCK:   -4.96 KCAL/MOL
REMARK 924 INTRA-LIGAND FREE ENERGY PREDICTED BY IDOCK:   -0.57 KCAL/MOL
REMARK 927      BINDING AFFINITY PREDICTED BY RF-SCORE:    0.00 PKD
ROOT
HETATM    1  C   UNL     1     -11.289   8.170  72.544  1.00  0.00    -0.469 C  
HETATM    2  C   UNL     1     -11.998   7.820  71.239  1.00  0.00    -0.302 C  
ENDROOT
BRANCH   2   3
HETATM    3  N   UNL     1     -11.081   7.729  70.081  1.00  0.00    -0.242 N  
BRANCH   3   4
HETATM    4  C   UNL     1     -11.030   6.461  69.315  1.00  0.00    -0.356 C  
HETATM    5  C   UNL     1     -10.316   5.263  69.935  1.00  0.00    -0.374 C  
ENDBRANCH   3   4
BRANCH   3   6
HETATM    6  C   UNL     1     -10.220   8.818  69.757  1.00  0.00    -0.202 C  
HETATM    7  S   UNL     1      -8.532   8.709  69.633  1.00  0.00    -0.132 S  
BRANCH   6   8
HETATM    8  S   UNL     1     -11.014  10.366  69.332  1.00  0.00    -0.268 SA 
BRANCH   8   9
HETATM    9  S   UNL     1     -10.817  10.474  67.275  1.00  0.00    -0.252 SA 
BRANCH   9  10
HETATM   10  C   UNL     1     -10.086  12.052  66.911  1.00  0.00    -0.205 C  
HETATM   11  S   UNL     1      -8.524  12.518  67.324  1.00  0.00    -0.187 S  
BRANCH  10  12
HETATM   12  N   UNL     1     -10.921  12.834  66.100  1.00  0.00    -0.277 N  
BRANCH  12  13
HETATM   13  C   UNL     1     -12.129  13.465  66.653  1.00  0.00    -0.373 C  
HETATM   14  C   UNL     1     -11.977  14.008  68.066  1.00  0.00    -0.386 C  
ENDBRANCH  12  13
BRANCH  12  15
HETATM   15  C   UNL     1     -10.690  12.899  64.648  1.00  0.00    -0.353 C  
HETATM   16  C   UNL     1     -11.817  12.316  63.813  1.00  0.00    -0.587 C  
ENDBRANCH  12  15
ENDBRANCH  10  12
ENDBRANCH   9  10
ENDBRANCH   8   9
ENDBRANCH   6   8
ENDBRANCH   3   6
ENDBRANCH   2   3
TORSDOF 9
ENDMDL
MODEL      115
REMARK 921   NORMALIZED FREE ENERGY PREDICTED BY IDOCK:   -3.29 KCAL/MOL
REMARK 922        TOTAL FREE ENERGY PREDICTED BY IDOCK:   -5.53 KCAL/MOL
REMARK 923 INTER-LIGAND FREE ENERGY PREDICTED BY IDOCK:   -5.12 KCAL/MOL
REMARK 924 INTRA-LIGAND FREE ENERGY PREDICTED BY IDOCK:   -0.41 KCAL/MOL
REMARK 927      BINDING AFFINITY PREDICTED BY RF-SCORE:    0.00 PKD
ROOT
HETATM    1  C   UNL     1     -12.981   9.840  71.689  1.00  0.00    -0.517 C  
HETATM    2  C   UNL     1     -12.038  10.685  70.838  1.00  0.00    -0.385 C  
ENDROOT
BRANCH   2   3
HETATM    3  N   UNL     1     -10.846   9.943  70.372  1.00  0.00    -0.298 N  
BRANCH   3   4
HETATM    4  C   UNL     1     -10.104   9.110  71.348  1.00  0.00    -0.322 C  
HETATM    5  C   UNL     1      -8.601   8.926  71.154  1.00  0.00    -0.263 C  
ENDBRANCH   3   4
BRANCH   3   6
HETATM    6  C   UNL     1     -10.388  10.084  69.029  1.00  0.00    -0.206 C  
HETATM    7  S   UNL     1     -10.389   8.842  67.875  1.00  0.00    -0.213 S  
BRANCH   6   8
HETATM    8  S   UNL     1      -9.904  11.731  68.519  1.00  0.00    -0.155 SA 
BRANCH   8   9
HETATM    9  S   UNL     1     -11.611  12.496  67.635  1.00  0.00    -0.361 SA 
BRANCH   9  10
HETATM   10  C   UNL     1     -11.313  14.225  67.352  1.00  0.00    -0.332 C  
HETATM   11  S   UNL     1     -10.965  14.920  65.861  1.00  0.00    -0.345 S  
BRANCH  10  12
HETATM   12  N   UNL     1     -11.544  14.986  68.508  1.00  0.00    -0.316 N  
BRANCH  12  13
HETATM   13  C   UNL     1     -12.278  14.417  69.648  1.00  0.00    -0.307 C  
HETATM   14  C   UNL     1     -12.672  15.420  70.721  1.00  0.00    -0.516 C  
ENDBRANCH  12  13
BRANCH  12  15
HETATM   15  C   UNL     1     -11.198  16.416  68.531  1.00  0.00    -0.334 C  
HETATM   16  C   UNL     1      -9.749  16.700  68.886  1.00  0.00    -0.255 C  
ENDBRANCH  12  15
ENDBRANCH  10  12
ENDBRANCH   9  10
ENDBRANCH   8   9
ENDBRANCH   6   8
ENDBRANCH   3   6
ENDBRANCH   2   3
TORSDOF 9
ENDMDL
MODEL      116
REMARK 921   NORMALIZED FREE ENERGY PREDICTED BY IDOCK:   -3.28 KCAL/MOL
REMARK 922        TOTAL FREE ENERGY PREDICTED BY IDOCK:   -5.53 KCAL/MOL
REMARK 923 INTER-LIGAND FREE ENERGY PREDICTED BY IDOCK:   -5.14 KCAL/MOL
REMARK 924 INTRA-LIGAND FREE ENERGY PREDICTED BY IDOCK:   -0.39 KCAL/MOL
REMARK 927      BINDING AFFINITY PREDICTED BY RF-SCORE:    0.00 PKD
ROOT
HETATM    1  C   UNL     1     -10.475  16.454  69.445  1.00  0.00    -0.309 C  
HETATM    2  C   UNL     1     -11.782  15.851  68.938  1.00  0.00    -0.370 C  
ENDROOT
BRANCH   2   3
HETATM    3  N   UNL     1     -12.062  14.508  69.492  1.00  0.00    -0.315 N  
BRANCH   3   4
HETATM    4  C   UNL     1     -12.496  14.401  70.905  1.00  0.00    -0.354 C  
HETATM    5  C   UNL     1     -13.525  15.399  71.429  1.00  0.00    -0.607 C  
ENDBRANCH   3   4
BRANCH   3   6
HETATM    6  C   UNL     1     -11.851  13.343  68.698  1.00  0.00    -0.362 C  
HETATM    7  S   UNL     1     -11.568  13.353  67.026  1.00  0.00    -0.378 S  
BRANCH   6   8
HETATM    8  S   UNL     1     -11.758  11.784  69.575  1.00  0.00    -0.355 SA 
BRANCH   8   9
HETATM    9  S   UNL     1     -10.917  10.491  68.196  1.00  0.00    -0.290 SA 
BRANCH   9  10
HETATM   10  C   UNL     1      -9.762   9.473  69.084  1.00  0.00    -0.178 C  
HETATM   11  S   UNL     1      -8.184   9.905  69.471  1.00  0.00    -0.172 S  
BRANCH  10  12
HETATM   12  N   UNL     1     -10.366   8.301  69.562  1.00  0.00    -0.215 N  
BRANCH  12  13
HETATM   13  C   UNL     1     -10.339   7.064  68.767  1.00  0.00    -0.187 C  
HETATM   14  C   UNL     1     -10.887   5.835  69.477  1.00  0.00    -0.410 C  
ENDBRANCH  12  13
BRANCH  12  15
HETATM   15  C   UNL     1     -11.177   8.336  70.789  1.00  0.00    -0.264 C  
HETATM   16  C   UNL     1     -10.363   8.405  72.070  1.00  0.00    -0.374 C  
ENDBRANCH  12  15
ENDBRANCH  10  12
ENDBRANCH   9  10
ENDBRANCH   8   9
ENDBRANCH   6   8
ENDBRANCH   3   6
ENDBRANCH   2   3
TORSDOF 9
ENDMDL
MODEL      117
REMARK 921   NORMALIZED FREE ENERGY PREDICTED BY IDOCK:   -3.27 KCAL/MOL
REMARK 922        TOTAL FREE ENERGY PREDICTED BY IDOCK:   -5.51 KCAL/MOL
REMARK 923 INTER-LIGAND FREE ENERGY PREDICTED BY IDOCK:   -5.31 KCAL/MOL
REMARK 924 INTRA-LIGAND FREE ENERGY PREDICTED BY IDOCK:   -0.20 KCAL/MOL
REMARK 927      BINDING AFFINITY PREDICTED BY RF-SCORE:    0.00 PKD
ROOT
HETATM    1  C   UNL     1     -13.941  15.603  72.623  1.00  0.00    -0.608 C  
HETATM    2  C   UNL     1     -14.021  14.976  71.234  1.00  0.00    -0.444 C  
ENDROOT
BRANCH   2   3
HETATM    3  N   UNL     1     -12.978  13.956  70.991  1.00  0.00    -0.312 N  
BRANCH   3   4
HETATM    4  C   UNL     1     -12.951  12.749  71.851  1.00  0.00    -0.295 C  
HETATM    5  C   UNL     1     -12.421  11.445  71.261  1.00  0.00    -0.423 C  
ENDBRANCH   3   4
BRANCH   3   6
HETATM    6  C   UNL     1     -11.982  14.167  69.992  1.00  0.00    -0.340 C  
HETATM    7  S   UNL     1     -11.900  13.329  68.520  1.00  0.00    -0.323 S  
BRANCH   6   8
HETATM    8  S   UNL     1     -10.827  15.504  70.286  1.00  0.00    -0.343 SA 
BRANCH   8   9
HETATM    9  S   UNL     1     -10.873  16.591  68.525  1.00  0.00    -0.351 SA 
BRANCH   9  10
HETATM   10  C   UNL     1      -9.251  16.473  67.807  1.00  0.00    -0.202 C  
HETATM   11  S   UNL     1      -8.658  15.150  66.957  1.00  0.00    -0.251 S  
BRANCH  10  12
HETATM   12  N   UNL     1      -8.553  17.686  67.905  1.00  0.00    -0.233 N  
BRANCH  12  13
HETATM   13  C   UNL     1      -9.257  18.971  67.775  1.00  0.00    -0.298 C  
HETATM   14  C   UNL     1      -8.853  19.803  66.568  1.00  0.00    -0.420 C  
ENDBRANCH  12  13
BRANCH  12  15
HETATM   15  C   UNL     1      -7.083  17.687  67.974  1.00  0.00    -0.200 C  
HETATM   16  C   UNL     1      -6.520  18.382  69.203  1.00  0.00    -0.270 C  
ENDBRANCH  12  15
ENDBRANCH  10  12
ENDBRANCH   9  10
ENDBRANCH   8   9
ENDBRANCH   6   8
ENDBRANCH   3   6
ENDBRANCH   2   3
TORSDOF 9
ENDMDL
MODEL      118
REMARK 921   NORMALIZED FREE ENERGY PREDICTED BY IDOCK:   -3.27 KCAL/MOL
REMARK 922        TOTAL FREE ENERGY PREDICTED BY IDOCK:   -5.51 KCAL/MOL
REMARK 923 INTER-LIGAND FREE ENERGY PREDICTED BY IDOCK:   -4.99 KCAL/MOL
REMARK 924 INTRA-LIGAND FREE ENERGY PREDICTED BY IDOCK:   -0.52 KCAL/MOL
REMARK 927      BINDING AFFINITY PREDICTED BY RF-SCORE:    0.00 PKD
ROOT
HETATM    1  C   UNL     1      -7.321  19.504  67.840  1.00  0.00    -0.310 C  
HETATM    2  C   UNL     1      -8.561  19.032  68.595  1.00  0.00    -0.354 C  
ENDROOT
BRANCH   2   3
HETATM    3  N   UNL     1      -9.642  18.556  67.705  1.00  0.00    -0.284 N  
BRANCH   3   4
HETATM    4  C   UNL     1     -10.617  19.543  67.184  1.00  0.00    -0.487 C  
HETATM    5  C   UNL     1     -10.633  19.830  65.685  1.00  0.00    -0.456 C  
ENDBRANCH   3   4
BRANCH   3   6
HETATM    6  C   UNL     1      -9.777  17.167  67.414  1.00  0.00    -0.253 C  
HETATM    7  S   UNL     1      -8.768  16.300  66.362  1.00  0.00    -0.340 S  
BRANCH   6   8
HETATM    8  S   UNL     1     -11.029  16.275  68.333  1.00  0.00    -0.357 SA 
BRANCH   8   9
HETATM    9  S   UNL     1     -10.187  14.408  68.630  1.00  0.00    -0.245 SA 
BRANCH   9  10
HETATM   10  C   UNL     1     -10.962  13.305  67.471  1.00  0.00    -0.263 C  
HETATM   11  S   UNL     1     -12.083  13.756  66.302  1.00  0.00    -0.449 S  
BRANCH  10  12
HETATM   12  N   UNL     1     -10.419  12.014  67.544  1.00  0.00    -0.209 N  
BRANCH  12  13
HETATM   13  C   UNL     1     -11.225  10.888  68.039  1.00  0.00    -0.314 C  
HETATM   14  C   UNL     1     -12.091  11.203  69.249  1.00  0.00    -0.377 C  
ENDBRANCH  12  13
BRANCH  12  15
HETATM   15  C   UNL     1      -8.988  11.799  67.282  1.00  0.00    -0.172 C  
HETATM   16  C   UNL     1      -8.498  10.399  67.613  1.00  0.00    -0.114 C  
ENDBRANCH  12  15
ENDBRANCH  10  12
ENDBRANCH   9  10
ENDBRANCH   8   9
ENDBRANCH   6   8
ENDBRANCH   3   6
ENDBRANCH   2   3
TORSDOF 9
ENDMDL
MODEL      119
REMARK 921   NORMALIZED FREE ENERGY PREDICTED BY IDOCK:   -3.27 KCAL/MOL
REMARK 922        TOTAL FREE ENERGY PREDICTED BY IDOCK:   -5.51 KCAL/MOL
REMARK 923 INTER-LIGAND FREE ENERGY PREDICTED BY IDOCK:   -4.98 KCAL/MOL
REMARK 924 INTRA-LIGAND FREE ENERGY PREDICTED BY IDOCK:   -0.53 KCAL/MOL
REMARK 927      BINDING AFFINITY PREDICTED BY RF-SCORE:    0.00 PKD
ROOT
HETATM    1  C   UNL     1     -11.436   6.226  69.603  1.00  0.00    -0.425 C  
HETATM    2  C   UNL     1     -11.656   6.658  71.050  1.00  0.00    -0.346 C  
ENDROOT
BRANCH   2   3
HETATM    3  N   UNL     1     -11.833   8.119  71.204  1.00  0.00    -0.284 N  
BRANCH   3   4
HETATM    4  C   UNL     1     -13.161   8.632  71.618  1.00  0.00    -0.346 C  
HETATM    5  C   UNL     1     -14.338   7.661  71.655  1.00  0.00    -0.613 C  
ENDBRANCH   3   4
BRANCH   3   6
HETATM    6  C   UNL     1     -10.765   9.011  70.896  1.00  0.00    -0.253 C  
HETATM    7  S   UNL     1      -9.149   8.776  71.356  1.00  0.00    -0.247 S  
BRANCH   6   8
HETATM    8  S   UNL     1     -11.164  10.402  69.841  1.00  0.00    -0.326 SA 
BRANCH   8   9
HETATM    9  S   UNL     1     -10.724   9.720  67.937  1.00  0.00    -0.237 SA 
BRANCH   9  10
HETATM   10  C   UNL     1     -10.618  11.152  66.890  1.00  0.00    -0.258 C  
HETATM   11  S   UNL     1     -11.182  12.686  67.283  1.00  0.00    -0.317 S  
BRANCH  10  12
HETATM   12  N   UNL     1      -9.870  10.892  65.732  1.00  0.00    -0.225 N  
BRANCH  12  13
HETATM   13  C   UNL     1     -10.518  10.850  64.413  1.00  0.00    -0.333 C  
HETATM   14  C   UNL     1     -10.314  12.092  63.560  1.00  0.00    -0.492 C  
ENDBRANCH  12  13
BRANCH  12  15
HETATM   15  C   UNL     1      -8.457  10.496  65.841  1.00  0.00    -0.162 C  
HETATM   16  C   UNL     1      -7.608  11.443  66.671  1.00  0.00    -0.119 C  
ENDBRANCH  12  15
ENDBRANCH  10  12
ENDBRANCH   9  10
ENDBRANCH   8   9
ENDBRANCH   6   8
ENDBRANCH   3   6
ENDBRANCH   2   3
TORSDOF 9
ENDMDL
MODEL      120
REMARK 921   NORMALIZED FREE ENERGY PREDICTED BY IDOCK:   -3.26 KCAL/MOL
REMARK 922        TOTAL FREE ENERGY PREDICTED BY IDOCK:   -5.49 KCAL/MOL
REMARK 923 INTER-LIGAND FREE ENERGY PREDICTED BY IDOCK:   -4.96 KCAL/MOL
REMARK 924 INTRA-LIGAND FREE ENERGY PREDICTED BY IDOCK:   -0.53 KCAL/MOL
REMARK 927      BINDING AFFINITY PREDICTED BY RF-SCORE:    0.00 PKD
ROOT
HETATM    1  C   UNL     1      -9.649   7.164  71.127  1.00  0.00    -0.164 C  
HETATM    2  C   UNL     1      -9.820   8.579  71.672  1.00  0.00    -0.247 C  
ENDROOT
BRANCH   2   3
HETATM    3  N   UNL     1     -11.229   9.031  71.693  1.00  0.00    -0.337 N  
BRANCH   3   4
HETATM    4  C   UNL     1     -12.222   8.222  72.439  1.00  0.00    -0.352 C  
HETATM    5  C   UNL     1     -13.291   7.472  71.648  1.00  0.00    -0.414 C  
ENDBRANCH   3   4
BRANCH   3   6
HETATM    6  C   UNL     1     -11.626  10.184  70.954  1.00  0.00    -0.372 C  
HETATM    7  S   UNL     1     -12.816  11.285  71.453  1.00  0.00    -0.349 S  
BRANCH   6   8
HETATM    8  S   UNL     1     -10.700  10.536  69.463  1.00  0.00    -0.259 SA 
BRANCH   8   9
HETATM    9  S   UNL     1     -11.757  12.081  68.579  1.00  0.00    -0.321 SA 
BRANCH   9  10
HETATM   10  C   UNL     1     -10.637  13.453  68.435  1.00  0.00    -0.248 C  
HETATM   11  S   UNL     1      -9.176  13.432  67.604  1.00  0.00    -0.224 S  
BRANCH  10  12
HETATM   12  N   UNL     1     -11.181  14.624  68.982  1.00  0.00    -0.255 N  
BRANCH  12  13
HETATM   13  C   UNL     1     -11.337  15.834  68.161  1.00  0.00    -0.337 C  
HETATM   14  C   UNL     1     -10.329  16.937  68.448  1.00  0.00    -0.338 C  
ENDBRANCH  12  13
BRANCH  12  15
HETATM   15  C   UNL     1     -11.450  14.709  70.426  1.00  0.00    -0.229 C  
HETATM   16  C   UNL     1     -12.765  15.385  70.775  1.00  0.00    -0.516 C  
ENDBRANCH  12  15
ENDBRANCH  10  12
ENDBRANCH   9  10
ENDBRANCH   8   9
ENDBRANCH   6   8
ENDBRANCH   3   6
ENDBRANCH   2   3
TORSDOF 9
ENDMDL
MODEL      121
REMARK 921   NORMALIZED FREE ENERGY PREDICTED BY IDOCK:   -3.26 KCAL/MOL
REMARK 922        TOTAL FREE ENERGY PREDICTED BY IDOCK:   -5.49 KCAL/MOL
REMARK 923 INTER-LIGAND FREE ENERGY PREDICTED BY IDOCK:   -5.04 KCAL/MOL
REMARK 924 INTRA-LIGAND FREE ENERGY PREDICTED BY IDOCK:   -0.46 KCAL/MOL
REMARK 927      BINDING AFFINITY PREDICTED BY RF-SCORE:    0.00 PKD
ROOT
HETATM    1  C   UNL     1      -9.711   9.819  65.102  1.00  0.00    -0.338 C  
HETATM    2  C   UNL     1      -9.779  10.750  66.309  1.00  0.00    -0.205 C  
ENDROOT
BRANCH   2   3
HETATM    3  N   UNL     1     -10.804  11.809  66.175  1.00  0.00    -0.281 N  
BRANCH   3   4
HETATM    4  C   UNL     1     -11.084  12.357  64.826  1.00  0.00    -0.304 C  
HETATM    5  C   UNL     1     -12.483  12.177  64.243  1.00  0.00    -0.461 C  
ENDBRANCH   3   4
BRANCH   3   6
HETATM    6  C   UNL     1     -11.455  12.332  67.330  1.00  0.00    -0.357 C  
HETATM    7  S   UNL     1     -11.775  11.448  68.741  1.00  0.00    -0.339 S  
BRANCH   6   8
HETATM    8  S   UNL     1     -11.837  14.082  67.308  1.00  0.00    -0.416 SA 
BRANCH   8   9
HETATM    9  S   UNL     1      -9.981  14.994  67.381  1.00  0.00    -0.226 SA 
BRANCH   9  10
HETATM   10  C   UNL     1     -10.076  16.437  66.348  1.00  0.00    -0.316 C  
HETATM   11  S   UNL     1     -10.920  16.540  64.898  1.00  0.00    -0.046 S  
BRANCH  10  12
HETATM   12  N   UNL     1      -9.475  17.549  66.956  1.00  0.00    -0.260 N  
BRANCH  12  13
HETATM   13  C   UNL     1     -10.133  18.240  68.075  1.00  0.00    -0.364 C  
HETATM   14  C   UNL     1     -10.129  19.758  67.980  1.00  0.00    -0.571 C  
ENDBRANCH  12  13
BRANCH  12  15
HETATM   15  C   UNL     1      -8.258  18.138  66.377  1.00  0.00    -0.253 C  
HETATM   16  C   UNL     1      -7.009  17.293  66.561  1.00  0.00    -0.298 C  
ENDBRANCH  12  15
ENDBRANCH  10  12
ENDBRANCH   9  10
ENDBRANCH   8   9
ENDBRANCH   6   8
ENDBRANCH   3   6
ENDBRANCH   2   3
TORSDOF 9
ENDMDL
MODEL      122
REMARK 921   NORMALIZED FREE ENERGY PREDICTED BY IDOCK:   -3.26 KCAL/MOL
REMARK 922        TOTAL FREE ENERGY PREDICTED BY IDOCK:   -5.48 KCAL/MOL
REMARK 923 INTER-LIGAND FREE ENERGY PREDICTED BY IDOCK:   -5.10 KCAL/MOL
REMARK 924 INTRA-LIGAND FREE ENERGY PREDICTED BY IDOCK:   -0.38 KCAL/MOL
REMARK 927      BINDING AFFINITY PREDICTED BY RF-SCORE:    0.00 PKD
ROOT
HETATM    1  C   UNL     1     -13.672   7.761  71.459  1.00  0.00    -0.416 C  
HETATM    2  C   UNL     1     -12.339   8.373  71.879  1.00  0.00    -0.347 C  
ENDROOT
BRANCH   2   3
HETATM    3  N   UNL     1     -11.903   9.483  71.003  1.00  0.00    -0.309 N  
BRANCH   3   4
HETATM    4  C   UNL     1     -12.835  10.612  70.773  1.00  0.00    -0.352 C  
HETATM    5  C   UNL     1     -13.118  11.570  71.928  1.00  0.00    -0.492 C  
ENDBRANCH   3   4
BRANCH   3   6
HETATM    6  C   UNL     1     -10.640   9.428  70.345  1.00  0.00    -0.261 C  
HETATM    7  S   UNL     1      -9.182   8.990  71.092  1.00  0.00    -0.235 S  
BRANCH   6   8
HETATM    8  S   UNL     1     -10.645   9.727  68.579  1.00  0.00    -0.215 SA 
BRANCH   8   9
HETATM    9  S   UNL     1      -9.672  11.543  68.383  1.00  0.00    -0.198 SA 
BRANCH   9  10
HETATM   10  C   UNL     1     -10.022  12.139  66.746  1.00  0.00    -0.203 C  
HETATM   11  S   UNL     1      -9.794  11.269  65.325  1.00  0.00    -0.259 S  
BRANCH  10  12
HETATM   12  N   UNL     1     -10.657  13.389  66.775  1.00  0.00    -0.276 N  
BRANCH  12  13
HETATM   13  C   UNL     1      -9.894  14.613  67.063  1.00  0.00    -0.244 C  
HETATM   14  C   UNL     1      -9.590  15.478  65.849  1.00  0.00    -0.383 C  
ENDBRANCH  12  13
BRANCH  12  15
HETATM   15  C   UNL     1     -12.123  13.475  66.682  1.00  0.00    -0.396 C  
HETATM   16  C   UNL     1     -12.649  13.596  65.262  1.00  0.00    -0.512 C  
ENDBRANCH  12  15
ENDBRANCH  10  12
ENDBRANCH   9  10
ENDBRANCH   8   9
ENDBRANCH   6   8
ENDBRANCH   3   6
ENDBRANCH   2   3
TORSDOF 9
ENDMDL
MODEL      123
REMARK 921   NORMALIZED FREE ENERGY PREDICTED BY IDOCK:   -3.25 KCAL/MOL
REMARK 922        TOTAL FREE ENERGY PREDICTED BY IDOCK:   -5.48 KCAL/MOL
REMARK 923 INTER-LIGAND FREE ENERGY PREDICTED BY IDOCK:   -4.75 KCAL/MOL
REMARK 924 INTRA-LIGAND FREE ENERGY PREDICTED BY IDOCK:   -0.73 KCAL/MOL
REMARK 927      BINDING AFFINITY PREDICTED BY RF-SCORE:    0.00 PKD
ROOT
HETATM    1  C   UNL     1      -9.449   8.575  72.226  1.00  0.00    -0.365 C  
HETATM    2  C   UNL     1      -8.943   9.194  70.925  1.00  0.00    -0.237 C  
ENDROOT
BRANCH   2   3
HETATM    3  N   UNL     1     -10.029   9.702  70.058  1.00  0.00    -0.232 N  
BRANCH   3   4
HETATM    4  C   UNL     1     -11.433   9.457  70.463  1.00  0.00    -0.262 C  
HETATM    5  C   UNL     1     -12.272  10.641  70.937  1.00  0.00    -0.497 C  
ENDBRANCH   3   4
BRANCH   3   6
HETATM    6  C   UNL     1      -9.722  10.355  68.829  1.00  0.00    -0.183 C  
HETATM    7  S   UNL     1      -8.339  11.298  68.555  1.00  0.00    -0.149 S  
BRANCH   6   8
HETATM    8  S   UNL     1     -10.829  10.035  67.457  1.00  0.00    -0.208 SA 
BRANCH   8   9
HETATM    9  S   UNL     1     -10.025  11.145  65.906  1.00  0.00    -0.250 SA 
BRANCH   9  10
HETATM   10  C   UNL     1     -11.175  12.456  65.563  1.00  0.00    -0.325 C  
HETATM   11  S   UNL     1     -12.371  12.416  64.382  1.00  0.00    -0.415 S  
BRANCH  10  12
HETATM   12  N   UNL     1     -11.069  13.495  66.500  1.00  0.00    -0.297 N  
BRANCH  12  13
HETATM   13  C   UNL     1      -9.914  14.405  66.484  1.00  0.00    -0.283 C  
HETATM   14  C   UNL     1     -10.015  15.552  65.490  1.00  0.00    -0.377 C  
ENDBRANCH  12  13
BRANCH  12  15
HETATM   15  C   UNL     1     -12.029  13.588  67.611  1.00  0.00    -0.336 C  
HETATM   16  C   UNL     1     -11.384  13.721  68.980  1.00  0.00    -0.333 C  
ENDBRANCH  12  15
ENDBRANCH  10  12
ENDBRANCH   9  10
ENDBRANCH   8   9
ENDBRANCH   6   8
ENDBRANCH   3   6
ENDBRANCH   2   3
TORSDOF 9
ENDMDL
MODEL      124
REMARK 921   NORMALIZED FREE ENERGY PREDICTED BY IDOCK:   -3.25 KCAL/MOL
REMARK 922        TOTAL FREE ENERGY PREDICTED BY IDOCK:   -5.48 KCAL/MOL
REMARK 923 INTER-LIGAND FREE ENERGY PREDICTED BY IDOCK:   -5.09 KCAL/MOL
REMARK 924 INTRA-LIGAND FREE ENERGY PREDICTED BY IDOCK:   -0.39 KCAL/MOL
REMARK 927      BINDING AFFINITY PREDICTED BY RF-SCORE:    0.00 PKD
ROOT
HETATM    1  C   UNL     1     -12.979  15.888  73.185  1.00  0.00    -0.653 C  
HETATM    2  C   UNL     1     -11.735  15.633  72.338  1.00  0.00    -0.475 C  
ENDROOT
BRANCH   2   3
HETATM    3  N   UNL     1     -12.014  14.863  71.106  1.00  0.00    -0.315 N  
BRANCH   3   4
HETATM    4  C   UNL     1     -13.079  13.833  71.139  1.00  0.00    -0.253 C  
HETATM    5  C   UNL     1     -12.670  12.368  71.272  1.00  0.00    -0.347 C  
ENDBRANCH   3   4
BRANCH   3   6
HETATM    6  C   UNL     1     -11.226  15.067  69.935  1.00  0.00    -0.276 C  
HETATM    7  S   UNL     1      -9.665  15.730  69.927  1.00  0.00     0.067 S  
BRANCH   6   8
HETATM    8  S   UNL     1     -11.907  14.453  68.397  1.00  0.00    -0.294 SA 
BRANCH   8   9
HETATM    9  S   UNL     1     -10.308  14.527  67.085  1.00  0.00    -0.267 SA 
BRANCH   9  10
HETATM   10  C   UNL     1     -10.965  14.251  65.457  1.00  0.00    -0.319 C  
HETATM   11  S   UNL     1     -11.483  15.453  64.402  1.00  0.00    -0.154 S  
BRANCH  10  12
HETATM   12  N   UNL     1     -10.872  12.902  65.084  1.00  0.00    -0.289 N  
BRANCH  12  13
HETATM   13  C   UNL     1     -10.391  11.891  66.036  1.00  0.00    -0.233 C  
HETATM   14  C   UNL     1      -9.239  11.035  65.533  1.00  0.00    -0.235 C  
ENDBRANCH  12  13
BRANCH  12  15
HETATM   15  C   UNL     1     -11.098  12.508  63.685  1.00  0.00    -0.467 C  
HETATM   16  C   UNL     1     -12.454  11.870  63.430  1.00  0.00    -0.582 C  
ENDBRANCH  12  15
ENDBRANCH  10  12
ENDBRANCH   9  10
ENDBRANCH   8   9
ENDBRANCH   6   8
ENDBRANCH   3   6
ENDBRANCH   2   3
TORSDOF 9
ENDMDL
MODEL      125
REMARK 921   NORMALIZED FREE ENERGY PREDICTED BY IDOCK:   -3.25 KCAL/MOL
REMARK 922        TOTAL FREE ENERGY PREDICTED BY IDOCK:   -5.48 KCAL/MOL
REMARK 923 INTER-LIGAND FREE ENERGY PREDICTED BY IDOCK:   -5.03 KCAL/MOL
REMARK 924 INTRA-LIGAND FREE ENERGY PREDICTED BY IDOCK:   -0.45 KCAL/MOL
REMARK 927      BINDING AFFINITY PREDICTED BY RF-SCORE:    0.00 PKD
ROOT
HETATM    1  C   UNL     1     -10.542  15.721  65.395  1.00  0.00    -0.441 C  
HETATM    2  C   UNL     1     -11.297  14.829  66.376  1.00  0.00    -0.339 C  
ENDROOT
BRANCH   2   3
HETATM    3  N   UNL     1     -11.020  13.388  66.188  1.00  0.00    -0.276 N  
BRANCH   3   4
HETATM    4  C   UNL     1     -11.942  12.592  65.343  1.00  0.00    -0.446 C  
HETATM    5  C   UNL     1     -11.793  12.674  63.826  1.00  0.00    -0.574 C  
ENDBRANCH   3   4
BRANCH   3   6
HETATM    6  C   UNL     1      -9.926  12.771  66.863  1.00  0.00    -0.232 C  
HETATM    7  S   UNL     1      -8.891  13.563  67.947  1.00  0.00    -0.200 S  
BRANCH   6   8
HETATM    8  S   UNL     1      -9.734  11.006  66.625  1.00  0.00    -0.201 SA 
BRANCH   8   9
HETATM    9  S   UNL     1     -11.030  10.178  68.010  1.00  0.00    -0.240 SA 
BRANCH   9  10
HETATM   10  C   UNL     1     -10.030   9.553  69.340  1.00  0.00    -0.191 C  
HETATM   11  S   UNL     1      -8.419   9.947  69.612  1.00  0.00    -0.189 S  
BRANCH  10  12
HETATM   12  N   UNL     1     -10.787   8.790  70.242  1.00  0.00    -0.230 N  
BRANCH  12  13
HETATM   13  C   UNL     1     -11.256   9.371  71.508  1.00  0.00    -0.386 C  
HETATM   14  C   UNL     1     -12.667   9.938  71.469  1.00  0.00    -0.515 C  
ENDBRANCH  12  13
BRANCH  12  15
HETATM   15  C   UNL     1     -10.981   7.350  70.008  1.00  0.00    -0.248 C  
HETATM   16  C   UNL     1     -11.107   6.526  71.278  1.00  0.00    -0.321 C  
ENDBRANCH  12  15
ENDBRANCH  10  12
ENDBRANCH   9  10
ENDBRANCH   8   9
ENDBRANCH   6   8
ENDBRANCH   3   6
ENDBRANCH   2   3
TORSDOF 9
ENDMDL
MODEL      126
REMARK 921   NORMALIZED FREE ENERGY PREDICTED BY IDOCK:   -3.25 KCAL/MOL
REMARK 922        TOTAL FREE ENERGY PREDICTED BY IDOCK:   -5.47 KCAL/MOL
REMARK 923 INTER-LIGAND FREE ENERGY PREDICTED BY IDOCK:   -5.23 KCAL/MOL
REMARK 924 INTRA-LIGAND FREE ENERGY PREDICTED BY IDOCK:   -0.24 KCAL/MOL
REMARK 927      BINDING AFFINITY PREDICTED BY RF-SCORE:    0.00 PKD
ROOT
HETATM    1  C   UNL     1     -10.493   9.679  67.285  1.00  0.00    -0.323 C  
HETATM    2  C   UNL     1     -11.089  11.083  67.250  1.00  0.00    -0.294 C  
ENDROOT
BRANCH   2   3
HETATM    3  N   UNL     1     -10.870  11.780  65.964  1.00  0.00    -0.287 N  
BRANCH   3   4
HETATM    4  C   UNL     1     -10.322  11.009  64.823  1.00  0.00    -0.324 C  
HETATM    5  C   UNL     1     -10.396  11.622  63.427  1.00  0.00    -0.482 C  
ENDBRANCH   3   4
BRANCH   3   6
HETATM    6  C   UNL     1     -11.120  13.179  65.851  1.00  0.00    -0.278 C  
HETATM    7  S   UNL     1     -12.651  13.869  65.614  1.00  0.00    -0.471 S  
BRANCH   6   8
HETATM    8  S   UNL     1      -9.720  14.265  66.109  1.00  0.00    -0.279 SA 
BRANCH   8   9
HETATM    9  S   UNL     1     -10.497  16.157  65.793  1.00  0.00    -0.354 SA 
BRANCH   9  10
HETATM   10  C   UNL     1     -10.210  17.085  67.281  1.00  0.00    -0.310 C  
HETATM   11  S   UNL     1     -10.009  18.753  67.363  1.00  0.00    -0.355 S  
BRANCH  10  12
HETATM   12  N   UNL     1     -10.313  16.277  68.423  1.00  0.00    -0.259 N  
BRANCH  12  13
HETATM   13  C   UNL     1      -9.120  15.647  69.007  1.00  0.00    -0.241 C  
HETATM   14  C   UNL     1      -7.885  16.533  69.052  1.00  0.00    -0.226 C  
ENDBRANCH  12  13
BRANCH  12  15
HETATM   15  C   UNL     1     -11.637  15.916  68.954  1.00  0.00    -0.388 C  
HETATM   16  C   UNL     1     -11.767  14.457  69.359  1.00  0.00    -0.362 C  
ENDBRANCH  12  15
ENDBRANCH  10  12
ENDBRANCH   9  10
ENDBRANCH   8   9
ENDBRANCH   6   8
ENDBRANCH   3   6
ENDBRANCH   2   3
TORSDOF 9
ENDMDL
MODEL      127
REMARK 921   NORMALIZED FREE ENERGY PREDICTED BY IDOCK:   -3.25 KCAL/MOL
REMARK 922        TOTAL FREE ENERGY PREDICTED BY IDOCK:   -5.47 KCAL/MOL
REMARK 923 INTER-LIGAND FREE ENERGY PREDICTED BY IDOCK:   -5.23 KCAL/MOL
REMARK 924 INTRA-LIGAND FREE ENERGY PREDICTED BY IDOCK:   -0.24 KCAL/MOL
REMARK 927      BINDING AFFINITY PREDICTED BY RF-SCORE:    0.00 PKD
ROOT
HETATM    1  C   UNL     1      -8.851  13.954  67.097  1.00  0.00    -0.236 C  
HETATM    2  C   UNL     1      -9.875  13.018  66.462  1.00  0.00    -0.263 C  
ENDROOT
BRANCH   2   3
HETATM    3  N   UNL     1     -11.214  13.107  67.084  1.00  0.00    -0.283 N  
BRANCH   3   4
HETATM    4  C   UNL     1     -12.274  13.867  66.379  1.00  0.00    -0.449 C  
HETATM    5  C   UNL     1     -12.514  13.581  64.899  1.00  0.00    -0.429 C  
ENDBRANCH   3   4
BRANCH   3   6
HETATM    6  C   UNL     1     -11.454  12.530  68.365  1.00  0.00    -0.312 C  
HETATM    7  S   UNL     1     -11.898  13.403  69.749  1.00  0.00    -0.305 S  
BRANCH   6   8
HETATM    8  S   UNL     1     -11.400  10.742  68.458  1.00  0.00    -0.290 SA 
BRANCH   8   9
HETATM    9  S   UNL     1     -11.655  10.345  70.473  1.00  0.00    -0.362 SA 
BRANCH   9  10
HETATM   10  C   UNL     1     -10.328   9.266  70.956  1.00  0.00    -0.318 C  
HETATM   11  S   UNL     1      -8.758   9.329  70.358  1.00  0.00    -0.241 S  
BRANCH  10  12
HETATM   12  N   UNL     1     -10.702   8.429  72.018  1.00  0.00    -0.291 N  
BRANCH  12  13
HETATM   13  C   UNL     1     -12.120   8.159  72.297  1.00  0.00    -0.364 C  
HETATM   14  C   UNL     1     -12.753   7.087  71.423  1.00  0.00    -0.421 C  
ENDBRANCH  12  13
BRANCH  12  15
HETATM   15  C   UNL     1      -9.688   7.941  72.965  1.00  0.00    -0.283 C  
HETATM   16  C   UNL     1     -10.210   6.925  73.967  1.00  0.00    -0.384 C  
ENDBRANCH  12  15
ENDBRANCH  10  12
ENDBRANCH   9  10
ENDBRANCH   8   9
ENDBRANCH   6   8
ENDBRANCH   3   6
ENDBRANCH   2   3
TORSDOF 9
ENDMDL
MODEL      128
REMARK 921   NORMALIZED FREE ENERGY PREDICTED BY IDOCK:   -3.24 KCAL/MOL
REMARK 922        TOTAL FREE ENERGY PREDICTED BY IDOCK:   -5.47 KCAL/MOL
REMARK 923 INTER-LIGAND FREE ENERGY PREDICTED BY IDOCK:   -4.93 KCAL/MOL
REMARK 924 INTRA-LIGAND FREE ENERGY PREDICTED BY IDOCK:   -0.54 KCAL/MOL
REMARK 927      BINDING AFFINITY PREDICTED BY RF-SCORE:    0.00 PKD
ROOT
HETATM    1  C   UNL     1     -12.251  12.406  64.722  1.00  0.00    -0.493 C  
HETATM    2  C   UNL     1     -10.917  11.867  65.234  1.00  0.00    -0.302 C  
ENDROOT
BRANCH   2   3
HETATM    3  N   UNL     1     -10.635  12.241  66.637  1.00  0.00    -0.225 N  
BRANCH   3   4
HETATM    4  C   UNL     1     -11.772  12.586  67.522  1.00  0.00    -0.374 C  
HETATM    5  C   UNL     1     -11.948  11.804  68.821  1.00  0.00    -0.317 C  
ENDBRANCH   3   4
BRANCH   3   6
HETATM    6  C   UNL     1      -9.290  12.329  67.102  1.00  0.00    -0.196 C  
HETATM    7  S   UNL     1      -8.037  11.287  66.633  1.00  0.00    -0.151 S  
BRANCH   6   8
HETATM    8  S   UNL     1      -8.898  13.724  68.155  1.00  0.00    -0.188 SA 
BRANCH   8   9
HETATM    9  S   UNL     1      -8.524  15.260  66.820  1.00  0.00    -0.220 SA 
BRANCH   9  10
HETATM   10  C   UNL     1     -10.093  16.000  66.434  1.00  0.00    -0.300 C  
HETATM   11  S   UNL     1     -10.985  15.713  65.038  1.00  0.00    -0.395 S  
BRANCH  10  12
HETATM   12  N   UNL     1     -10.586  16.757  67.507  1.00  0.00    -0.324 N  
BRANCH  12  13
HETATM   13  C   UNL     1     -10.052  18.097  67.789  1.00  0.00    -0.362 C  
HETATM   14  C   UNL     1      -9.823  18.966  66.562  1.00  0.00    -0.405 C  
ENDBRANCH  12  13
BRANCH  12  15
HETATM   15  C   UNL     1     -11.528  16.154  68.463  1.00  0.00    -0.324 C  
HETATM   16  C   UNL     1     -11.086  16.246  69.914  1.00  0.00    -0.347 C  
ENDBRANCH  12  15
ENDBRANCH  10  12
ENDBRANCH   9  10
ENDBRANCH   8   9
ENDBRANCH   6   8
ENDBRANCH   3   6
ENDBRANCH   2   3
TORSDOF 9
ENDMDL
MODEL      129
REMARK 921   NORMALIZED FREE ENERGY PREDICTED BY IDOCK:   -3.24 KCAL/MOL
REMARK 922        TOTAL FREE ENERGY PREDICTED BY IDOCK:   -5.46 KCAL/MOL
REMARK 923 INTER-LIGAND FREE ENERGY PREDICTED BY IDOCK:   -5.06 KCAL/MOL
REMARK 924 INTRA-LIGAND FREE ENERGY PREDICTED BY IDOCK:   -0.40 KCAL/MOL
REMARK 927      BINDING AFFINITY PREDICTED BY RF-SCORE:    0.00 PKD
ROOT
HETATM    1  C   UNL     1      -8.758  12.427  66.858  1.00  0.00    -0.191 C  
HETATM    2  C   UNL     1     -10.153  11.809  66.882  1.00  0.00    -0.207 C  
ENDROOT
BRANCH   2   3
HETATM    3  N   UNL     1     -11.176  12.696  67.479  1.00  0.00    -0.272 N  
BRANCH   3   4
HETATM    4  C   UNL     1     -11.847  12.263  68.728  1.00  0.00    -0.306 C  
HETATM    5  C   UNL     1     -11.556  10.864  69.264  1.00  0.00    -0.388 C  
ENDBRANCH   3   4
BRANCH   3   6
HETATM    6  C   UNL     1     -11.550  13.906  66.826  1.00  0.00    -0.378 C  
HETATM    7  S   UNL     1     -12.530  13.994  65.444  1.00  0.00    -0.486 S  
BRANCH   6   8
HETATM    8  S   UNL     1     -11.040  15.431  67.615  1.00  0.00    -0.301 SA 
BRANCH   8   9
HETATM    9  S   UNL     1     -10.018  16.440  66.125  1.00  0.00    -0.354 SA 
BRANCH   9  10
HETATM   10  C   UNL     1      -9.614  18.044  66.775  1.00  0.00    -0.303 C  
HETATM   11  S   UNL     1     -10.714  19.286  67.052  1.00  0.00    -0.424 S  
BRANCH  10  12
HETATM   12  N   UNL     1      -8.272  18.117  67.175  1.00  0.00    -0.225 N  
BRANCH  12  13
HETATM   13  C   UNL     1      -7.203  17.573  66.323  1.00  0.00    -0.316 C  
HETATM   14  C   UNL     1      -6.545  18.585  65.398  1.00  0.00    -0.257 C  
ENDBRANCH  12  13
BRANCH  12  15
HETATM   15  C   UNL     1      -7.929  18.590  68.525  1.00  0.00    -0.323 C  
HETATM   16  C   UNL     1      -7.232  19.940  68.553  1.00  0.00    -0.331 C  
ENDBRANCH  12  15
ENDBRANCH  10  12
ENDBRANCH   9  10
ENDBRANCH   8   9
ENDBRANCH   6   8
ENDBRANCH   3   6
ENDBRANCH   2   3
TORSDOF 9
ENDMDL
MODEL      130
REMARK 921   NORMALIZED FREE ENERGY PREDICTED BY IDOCK:   -3.24 KCAL/MOL
REMARK 922        TOTAL FREE ENERGY PREDICTED BY IDOCK:   -5.46 KCAL/MOL
REMARK 923 INTER-LIGAND FREE ENERGY PREDICTED BY IDOCK:   -5.17 KCAL/MOL
REMARK 924 INTRA-LIGAND FREE ENERGY PREDICTED BY IDOCK:   -0.28 KCAL/MOL
REMARK 927      BINDING AFFINITY PREDICTED BY RF-SCORE:    0.00 PKD
ROOT
HETATM    1  C   UNL     1      -9.459  15.928  65.873  1.00  0.00    -0.372 C  
HETATM    2  C   UNL     1      -8.754  17.138  66.480  1.00  0.00    -0.261 C  
ENDROOT
BRANCH   2   3
HETATM    3  N   UNL     1      -9.071  17.342  67.911  1.00  0.00    -0.250 N  
BRANCH   3   4
HETATM    4  C   UNL     1      -9.059  18.723  68.449  1.00  0.00    -0.338 C  
HETATM    5  C   UNL     1      -7.968  19.680  67.976  1.00  0.00    -0.339 C  
ENDBRANCH   3   4
BRANCH   3   6
HETATM    6  C   UNL     1      -9.314  16.225  68.762  1.00  0.00    -0.235 C  
HETATM    7  S   UNL     1      -8.157  15.055  69.174  1.00  0.00    -0.178 S  
BRANCH   6   8
HETATM    8  S   UNL     1     -10.928  16.147  69.536  1.00  0.00    -0.355 SA 
BRANCH   8   9
HETATM    9  S   UNL     1     -11.731  14.377  68.824  1.00  0.00    -0.344 SA 
BRANCH   9  10
HETATM   10  C   UNL     1     -12.147  13.394  70.245  1.00  0.00    -0.349 C  
HETATM   11  S   UNL     1     -12.925  13.960  71.624  1.00  0.00    -0.360 S  
BRANCH  10  12
HETATM   12  N   UNL     1     -11.879  12.034  70.030  1.00  0.00    -0.331 N  
BRANCH  12  13
HETATM   13  C   UNL     1     -12.489  11.004  70.884  1.00  0.00    -0.410 C  
HETATM   14  C   UNL     1     -11.573   9.841  71.238  1.00  0.00    -0.465 C  
ENDBRANCH  12  13
BRANCH  12  15
HETATM   15  C   UNL     1     -10.856  11.629  69.053  1.00  0.00    -0.203 C  
HETATM   16  C   UNL     1     -11.410  10.917  67.831  1.00  0.00    -0.380 C  
ENDBRANCH  12  15
ENDBRANCH  10  12
ENDBRANCH   9  10
ENDBRANCH   8   9
ENDBRANCH   6   8
ENDBRANCH   3   6
ENDBRANCH   2   3
TORSDOF 9
ENDMDL
MODEL      131
REMARK 921   NORMALIZED FREE ENERGY PREDICTED BY IDOCK:   -3.23 KCAL/MOL
REMARK 922        TOTAL FREE ENERGY PREDICTED BY IDOCK:   -5.45 KCAL/MOL
REMARK 923 INTER-LIGAND FREE ENERGY PREDICTED BY IDOCK:   -5.10 KCAL/MOL
REMARK 924 INTRA-LIGAND FREE ENERGY PREDICTED BY IDOCK:   -0.35 KCAL/MOL
REMARK 927      BINDING AFFINITY PREDICTED BY RF-SCORE:    0.00 PKD
ROOT
HETATM    1  C   UNL     1     -12.843   8.427  72.174  1.00  0.00    -0.385 C  
HETATM    2  C   UNL     1     -11.409   8.583  71.675  1.00  0.00    -0.295 C  
ENDROOT
BRANCH   2   3
HETATM    3  N   UNL     1     -11.235   8.186  70.261  1.00  0.00    -0.227 N  
BRANCH   3   4
HETATM    4  C   UNL     1     -11.387   6.756  69.901  1.00  0.00    -0.320 C  
HETATM    5  C   UNL     1     -10.524   5.727  70.627  1.00  0.00    -0.331 C  
ENDBRANCH   3   4
BRANCH   3   6
HETATM    6  C   UNL     1     -10.864   9.153  69.281  1.00  0.00    -0.132 C  
HETATM    7  S   UNL     1      -9.818   8.856  67.980  1.00  0.00    -0.176 S  
BRANCH   6   8
HETATM    8  S   UNL     1     -11.674  10.748  69.386  1.00  0.00    -0.299 SA 
BRANCH   8   9
HETATM    9  S   UNL     1     -10.941  11.781  67.749  1.00  0.00    -0.242 SA 
BRANCH   9  10
HETATM   10  C   UNL     1     -11.590  13.433  67.852  1.00  0.00    -0.339 C  
HETATM   11  S   UNL     1     -11.892  14.271  69.278  1.00  0.00    -0.341 S  
BRANCH  10  12
HETATM   12  N   UNL     1     -11.691  14.029  66.586  1.00  0.00    -0.379 N  
BRANCH  12  13
HETATM   13  C   UNL     1     -10.818  15.152  66.213  1.00  0.00    -0.333 C  
HETATM   14  C   UNL     1      -9.330  14.835  66.216  1.00  0.00    -0.310 C  
ENDBRANCH  12  13
BRANCH  12  15
HETATM   15  C   UNL     1     -12.781  13.646  65.676  1.00  0.00    -0.454 C  
HETATM   16  C   UNL     1     -12.364  12.688  64.574  1.00  0.00    -0.537 C  
ENDBRANCH  12  15
ENDBRANCH  10  12
ENDBRANCH   9  10
ENDBRANCH   8   9
ENDBRANCH   6   8
ENDBRANCH   3   6
ENDBRANCH   2   3
TORSDOF 9
ENDMDL
MODEL      132
REMARK 921   NORMALIZED FREE ENERGY PREDICTED BY IDOCK:   -3.23 KCAL/MOL
REMARK 922        TOTAL FREE ENERGY PREDICTED BY IDOCK:   -5.44 KCAL/MOL
REMARK 923 INTER-LIGAND FREE ENERGY PREDICTED BY IDOCK:   -4.95 KCAL/MOL
REMARK 924 INTRA-LIGAND FREE ENERGY PREDICTED BY IDOCK:   -0.49 KCAL/MOL
REMARK 927      BINDING AFFINITY PREDICTED BY RF-SCORE:    0.00 PKD
ROOT
HETATM    1  C   UNL     1     -11.444   9.406  71.638  1.00  0.00    -0.463 C  
HETATM    2  C   UNL     1     -10.182   9.461  70.782  1.00  0.00    -0.299 C  
ENDROOT
BRANCH   2   3
HETATM    3  N   UNL     1     -10.269   8.639  69.556  1.00  0.00    -0.204 N  
BRANCH   3   4
HETATM    4  C   UNL     1     -10.122   7.168  69.677  1.00  0.00    -0.192 C  
HETATM    5  C   UNL     1     -11.378   6.303  69.610  1.00  0.00    -0.492 C  
ENDBRANCH   3   4
BRANCH   3   6
HETATM    6  C   UNL     1     -10.425   9.258  68.282  1.00  0.00    -0.215 C  
HETATM    7  S   UNL     1      -9.985   8.550  66.805  1.00  0.00    -0.301 S  
BRANCH   6   8
HETATM    8  S   UNL     1     -11.261  10.842  68.260  1.00  0.00    -0.305 SA 
BRANCH   8   9
HETATM    9  S   UNL     1     -10.830  11.602  66.384  1.00  0.00    -0.291 SA 
BRANCH   9  10
HETATM   10  C   UNL     1     -11.509  13.243  66.326  1.00  0.00    -0.325 C  
HETATM   11  S   UNL     1     -12.643  13.786  65.210  1.00  0.00    -0.440 S  
BRANCH  10  12
HETATM   12  N   UNL     1     -11.095  14.013  67.423  1.00  0.00    -0.296 N  
BRANCH  12  13
HETATM   13  C   UNL     1     -12.082  14.614  68.333  1.00  0.00    -0.188 C  
HETATM   14  C   UNL     1     -11.597  15.850  69.076  1.00  0.00    -0.392 C  
ENDBRANCH  12  13
BRANCH  12  15
HETATM   15  C   UNL     1      -9.676  14.367  67.582  1.00  0.00    -0.219 C  
HETATM   16  C   UNL     1      -9.104  15.178  66.432  1.00  0.00    -0.331 C  
ENDBRANCH  12  15
ENDBRANCH  10  12
ENDBRANCH   9  10
ENDBRANCH   8   9
ENDBRANCH   6   8
ENDBRANCH   3   6
ENDBRANCH   2   3
TORSDOF 9
ENDMDL
MODEL      133
REMARK 921   NORMALIZED FREE ENERGY PREDICTED BY IDOCK:   -3.22 KCAL/MOL
REMARK 922        TOTAL FREE ENERGY PREDICTED BY IDOCK:   -5.43 KCAL/MOL
REMARK 923 INTER-LIGAND FREE ENERGY PREDICTED BY IDOCK:   -4.76 KCAL/MOL
REMARK 924 INTRA-LIGAND FREE ENERGY PREDICTED BY IDOCK:   -0.67 KCAL/MOL
REMARK 927      BINDING AFFINITY PREDICTED BY RF-SCORE:    0.00 PKD
ROOT
HETATM    1  C   UNL     1      -7.684   9.643  64.200  1.00  0.00    -0.129 C  
HETATM    2  C   UNL     1      -7.891  10.583  65.384  1.00  0.00    -0.119 C  
ENDROOT
BRANCH   2   3
HETATM    3  N   UNL     1      -9.308  10.952  65.598  1.00  0.00    -0.198 N  
BRANCH   3   4
HETATM    4  C   UNL     1     -10.236  10.899  64.443  1.00  0.00    -0.358 C  
HETATM    5  C   UNL     1     -10.454  12.168  63.625  1.00  0.00    -0.495 C  
ENDBRANCH   3   4
BRANCH   3   6
HETATM    6  C   UNL     1      -9.748  11.412  66.873  1.00  0.00    -0.192 C  
HETATM    7  S   UNL     1     -11.081  10.788  67.715  1.00  0.00    -0.318 S  
BRANCH   6   8
HETATM    8  S   UNL     1      -8.728  12.647  67.674  1.00  0.00    -0.191 SA 
BRANCH   8   9
HETATM    9  S   UNL     1      -9.240  14.407  66.713  1.00  0.00    -0.261 SA 
BRANCH   9  10
HETATM   10  C   UNL     1     -10.949  14.720  67.088  1.00  0.00    -0.320 C  
HETATM   11  S   UNL     1     -12.257  14.192  66.173  1.00  0.00    -0.411 S  
BRANCH  10  12
HETATM   12  N   UNL     1     -11.098  15.346  68.334  1.00  0.00    -0.285 N  
BRANCH  12  13
HETATM   13  C   UNL     1     -10.404  16.608  68.629  1.00  0.00    -0.304 C  
HETATM   14  C   UNL     1     -10.660  17.728  67.631  1.00  0.00    -0.385 C  
ENDBRANCH  12  13
BRANCH  12  15
HETATM   15  C   UNL     1     -11.820  14.665  69.420  1.00  0.00    -0.329 C  
HETATM   16  C   UNL     1     -12.297  15.591  70.526  1.00  0.00    -0.461 C  
ENDBRANCH  12  15
ENDBRANCH  10  12
ENDBRANCH   9  10
ENDBRANCH   8   9
ENDBRANCH   6   8
ENDBRANCH   3   6
ENDBRANCH   2   3
TORSDOF 9
ENDMDL
MODEL      134
REMARK 921   NORMALIZED FREE ENERGY PREDICTED BY IDOCK:   -3.22 KCAL/MOL
REMARK 922        TOTAL FREE ENERGY PREDICTED BY IDOCK:   -5.43 KCAL/MOL
REMARK 923 INTER-LIGAND FREE ENERGY PREDICTED BY IDOCK:   -4.94 KCAL/MOL
REMARK 924 INTRA-LIGAND FREE ENERGY PREDICTED BY IDOCK:   -0.48 KCAL/MOL
REMARK 927      BINDING AFFINITY PREDICTED BY RF-SCORE:    0.00 PKD
ROOT
HETATM    1  C   UNL     1     -10.644  17.074  69.189  1.00  0.00    -0.303 C  
HETATM    2  C   UNL     1     -11.070  16.020  68.171  1.00  0.00    -0.344 C  
ENDROOT
BRANCH   2   3
HETATM    3  N   UNL     1     -10.987  14.637  68.690  1.00  0.00    -0.246 N  
BRANCH   3   4
HETATM    4  C   UNL     1     -12.123  14.109  69.483  1.00  0.00    -0.340 C  
HETATM    5  C   UNL     1     -12.087  14.267  71.001  1.00  0.00    -0.416 C  
ENDBRANCH   3   4
BRANCH   3   6
HETATM    6  C   UNL     1      -9.810  13.860  68.485  1.00  0.00    -0.214 C  
HETATM    7  S   UNL     1      -8.242  14.495  68.375  1.00  0.00    -0.155 S  
BRANCH   6   8
HETATM    8  S   UNL     1     -10.019  12.081  68.474  1.00  0.00    -0.144 SA 
BRANCH   8   9
HETATM    9  S   UNL     1     -11.351  11.751  66.924  1.00  0.00    -0.287 SA 
BRANCH   9  10
HETATM   10  C   UNL     1     -10.385  11.601  65.440  1.00  0.00    -0.267 C  
HETATM   11  S   UNL     1      -9.411  10.289  65.043  1.00  0.00    -0.282 S  
BRANCH  10  12
HETATM   12  N   UNL     1     -10.639  12.655  64.549  1.00  0.00    -0.325 N  
BRANCH  12  13
HETATM   13  C   UNL     1     -10.396  14.049  64.948  1.00  0.00    -0.409 C  
HETATM   14  C   UNL     1     -11.550  15.002  64.675  1.00  0.00    -0.386 C  
ENDBRANCH  12  13
BRANCH  12  15
HETATM   15  C   UNL     1     -11.305  12.390  63.265  1.00  0.00    -0.327 C  
HETATM   16  C   UNL     1     -12.716  11.844  63.397  1.00  0.00    -0.496 C  
ENDBRANCH  12  15
ENDBRANCH  10  12
ENDBRANCH   9  10
ENDBRANCH   8   9
ENDBRANCH   6   8
ENDBRANCH   3   6
ENDBRANCH   2   3
TORSDOF 9
ENDMDL
MODEL      135
REMARK 921   NORMALIZED FREE ENERGY PREDICTED BY IDOCK:   -3.21 KCAL/MOL
REMARK 922        TOTAL FREE ENERGY PREDICTED BY IDOCK:   -5.42 KCAL/MOL
REMARK 923 INTER-LIGAND FREE ENERGY PREDICTED BY IDOCK:   -5.03 KCAL/MOL
REMARK 924 INTRA-LIGAND FREE ENERGY PREDICTED BY IDOCK:   -0.39 KCAL/MOL
REMARK 927      BINDING AFFINITY PREDICTED BY RF-SCORE:    0.00 PKD
ROOT
HETATM    1  C   UNL     1     -11.554   6.491  70.142  1.00  0.00    -0.466 C  
HETATM    2  C   UNL     1     -10.703   7.556  70.830  1.00  0.00    -0.229 C  
ENDROOT
BRANCH   2   3
HETATM    3  N   UNL     1     -11.275   8.916  70.729  1.00  0.00    -0.264 N  
BRANCH   3   4
HETATM    4  C   UNL     1     -12.214   9.371  71.783  1.00  0.00    -0.390 C  
HETATM    5  C   UNL     1     -13.679   8.955  71.681  1.00  0.00    -0.444 C  
ENDBRANCH   3   4
BRANCH   3   6
HETATM    6  C   UNL     1     -10.977   9.742  69.606  1.00  0.00    -0.241 C  
HETATM    7  S   UNL     1     -10.130   9.228  68.229  1.00  0.00    -0.193 S  
BRANCH   6   8
HETATM    8  S   UNL     1     -11.668  11.394  69.623  1.00  0.00    -0.376 SA 
BRANCH   8   9
HETATM    9  S   UNL     1     -11.345  12.084  67.698  1.00  0.00    -0.325 SA 
BRANCH   9  10
HETATM   10  C   UNL     1     -10.261  13.486  67.830  1.00  0.00    -0.247 C  
HETATM   11  S   UNL     1      -8.600  13.410  68.077  1.00  0.00    -0.182 S  
BRANCH  10  12
HETATM   12  N   UNL     1     -10.934  14.687  67.559  1.00  0.00    -0.290 N  
BRANCH  12  13
HETATM   13  C   UNL     1     -11.596  15.437  68.636  1.00  0.00    -0.359 C  
HETATM   14  C   UNL     1     -10.662  16.253  69.516  1.00  0.00    -0.323 C  
ENDBRANCH  12  13
BRANCH  12  15
HETATM   15  C   UNL     1     -11.125  15.126  66.168  1.00  0.00    -0.311 C  
HETATM   16  C   UNL     1     -10.243  16.294  65.758  1.00  0.00    -0.390 C  
ENDBRANCH  12  15
ENDBRANCH  10  12
ENDBRANCH   9  10
ENDBRANCH   8   9
ENDBRANCH   6   8
ENDBRANCH   3   6
ENDBRANCH   2   3
TORSDOF 9
ENDMDL
MODEL      136
REMARK 921   NORMALIZED FREE ENERGY PREDICTED BY IDOCK:   -3.21 KCAL/MOL
REMARK 922        TOTAL FREE ENERGY PREDICTED BY IDOCK:   -5.42 KCAL/MOL
REMARK 923 INTER-LIGAND FREE ENERGY PREDICTED BY IDOCK:   -4.85 KCAL/MOL
REMARK 924 INTRA-LIGAND FREE ENERGY PREDICTED BY IDOCK:   -0.57 KCAL/MOL
REMARK 927      BINDING AFFINITY PREDICTED BY RF-SCORE:    0.00 PKD
ROOT
HETATM    1  C   UNL     1     -10.948  11.573  64.010  1.00  0.00    -0.454 C  
HETATM    2  C   UNL     1     -11.364  12.113  65.376  1.00  0.00    -0.338 C  
ENDROOT
BRANCH   2   3
HETATM    3  N   UNL     1     -10.477  11.672  66.474  1.00  0.00    -0.230 N  
BRANCH   3   4
HETATM    4  C   UNL     1     -10.967  10.627  67.405  1.00  0.00    -0.298 C  
HETATM    5  C   UNL     1     -10.614   9.171  67.116  1.00  0.00    -0.286 C  
ENDBRANCH   3   4
BRANCH   3   6
HETATM    6  C   UNL     1      -9.206  12.289  66.667  1.00  0.00    -0.208 C  
HETATM    7  S   UNL     1      -7.734  11.455  66.771  1.00  0.00    -0.129 S  
BRANCH   6   8
HETATM    8  S   UNL     1      -9.181  14.080  66.669  1.00  0.00    -0.206 SA 
BRANCH   8   9
HETATM    9  S   UNL     1      -9.182  14.572  68.679  1.00  0.00    -0.169 SA 
BRANCH   9  10
HETATM   10  C   UNL     1     -10.495  15.744  68.921  1.00  0.00    -0.223 C  
HETATM   11  S   UNL     1     -10.458  17.357  68.448  1.00  0.00    -0.370 S  
BRANCH  10  12
HETATM   12  N   UNL     1     -11.648  15.130  69.433  1.00  0.00    -0.303 N  
BRANCH  12  13
HETATM   13  C   UNL     1     -12.436  15.777  70.493  1.00  0.00    -0.332 C  
HETATM   14  C   UNL     1     -11.712  15.936  71.821  1.00  0.00    -0.575 C  
ENDBRANCH  12  13
BRANCH  12  15
HETATM   15  C   UNL     1     -11.993  13.757  69.033  1.00  0.00    -0.360 C  
HETATM   16  C   UNL     1     -12.139  12.789  70.194  1.00  0.00    -0.370 C  
ENDBRANCH  12  15
ENDBRANCH  10  12
ENDBRANCH   9  10
ENDBRANCH   8   9
ENDBRANCH   6   8
ENDBRANCH   3   6
ENDBRANCH   2   3
TORSDOF 9
ENDMDL
MODEL      137
REMARK 921   NORMALIZED FREE ENERGY PREDICTED BY IDOCK:   -3.21 KCAL/MOL
REMARK 922        TOTAL FREE ENERGY PREDICTED BY IDOCK:   -5.41 KCAL/MOL
REMARK 923 INTER-LIGAND FREE ENERGY PREDICTED BY IDOCK:   -4.96 KCAL/MOL
REMARK 924 INTRA-LIGAND FREE ENERGY PREDICTED BY IDOCK:   -0.45 KCAL/MOL
REMARK 927      BINDING AFFINITY PREDICTED BY RF-SCORE:    0.00 PKD
ROOT
HETATM    1  C   UNL     1     -11.292  15.315  64.770  1.00  0.00    -0.396 C  
HETATM    2  C   UNL     1     -10.812  14.885  66.153  1.00  0.00    -0.327 C  
ENDROOT
BRANCH   2   3
HETATM    3  N   UNL     1     -10.784  13.417  66.333  1.00  0.00    -0.285 N  
BRANCH   3   4
HETATM    4  C   UNL     1     -11.516  12.570  65.361  1.00  0.00    -0.344 C  
HETATM    5  C   UNL     1     -10.739  11.500  64.597  1.00  0.00    -0.379 C  
ENDBRANCH   3   4
BRANCH   3   6
HETATM    6  C   UNL     1     -10.121  12.840  67.456  1.00  0.00    -0.213 C  
HETATM    7  S   UNL     1      -8.445  12.612  67.574  1.00  0.00    -0.187 S  
BRANCH   6   8
HETATM    8  S   UNL     1     -11.143  12.458  68.876  1.00  0.00    -0.249 SA 
BRANCH   8   9
HETATM    9  S   UNL     1     -11.005  10.399  69.042  1.00  0.00    -0.251 SA 
BRANCH   9  10
HETATM   10  C   UNL     1     -11.697   9.964  70.620  1.00  0.00    -0.323 C  
HETATM   11  S   UNL     1     -12.915  10.808  71.414  1.00  0.00    -0.414 S  
BRANCH  10  12
HETATM   12  N   UNL     1     -11.206   8.732  71.078  1.00  0.00    -0.260 N  
BRANCH  12  13
HETATM   13  C   UNL     1      -9.859   8.629  71.658  1.00  0.00    -0.281 C  
HETATM   14  C   UNL     1      -9.783   7.861  72.969  1.00  0.00    -0.349 C  
ENDBRANCH  12  13
BRANCH  12  15
HETATM   15  C   UNL     1     -11.969   7.498  70.835  1.00  0.00    -0.251 C  
HETATM   16  C   UNL     1     -11.352   6.582  69.791  1.00  0.00    -0.456 C  
ENDBRANCH  12  15
ENDBRANCH  10  12
ENDBRANCH   9  10
ENDBRANCH   8   9
ENDBRANCH   6   8
ENDBRANCH   3   6
ENDBRANCH   2   3
TORSDOF 9
ENDMDL
MODEL      138
REMARK 921   NORMALIZED FREE ENERGY PREDICTED BY IDOCK:   -3.20 KCAL/MOL
REMARK 922        TOTAL FREE ENERGY PREDICTED BY IDOCK:   -5.40 KCAL/MOL
REMARK 923 INTER-LIGAND FREE ENERGY PREDICTED BY IDOCK:   -4.96 KCAL/MOL
REMARK 924 INTRA-LIGAND FREE ENERGY PREDICTED BY IDOCK:   -0.44 KCAL/MOL
REMARK 927      BINDING AFFINITY PREDICTED BY RF-SCORE:    0.00 PKD
ROOT
HETATM    1  C   UNL     1      -9.460  15.611  65.929  1.00  0.00    -0.376 C  
HETATM    2  C   UNL     1     -10.542  15.043  65.015  1.00  0.00    -0.412 C  
ENDROOT
BRANCH   2   3
HETATM    3  N   UNL     1     -11.154  13.801  65.534  1.00  0.00    -0.294 N  
BRANCH   3   4
HETATM    4  C   UNL     1     -12.303  13.912  66.465  1.00  0.00    -0.404 C  
HETATM    5  C   UNL     1     -12.019  14.053  67.958  1.00  0.00    -0.386 C  
ENDBRANCH   3   4
BRANCH   3   6
HETATM    6  C   UNL     1     -10.604  12.530  65.196  1.00  0.00    -0.293 C  
HETATM    7  S   UNL     1     -10.753  11.788  63.678  1.00  0.00    -0.466 S  
BRANCH   6   8
HETATM    8  S   UNL     1      -9.583  11.744  66.440  1.00  0.00    -0.223 SA 
BRANCH   8   9
HETATM    9  S   UNL     1     -10.883  10.451  67.400  1.00  0.00    -0.261 SA 
BRANCH   9  10
HETATM   10  C   UNL     1      -9.882   9.291  68.301  1.00  0.00    -0.158 C  
HETATM   11  S   UNL     1      -8.260   8.966  67.997  1.00  0.00    -0.110 S  
BRANCH  10  12
HETATM   12  N   UNL     1     -10.566   8.768  69.408  1.00  0.00    -0.225 N  
BRANCH  12  13
HETATM   13  C   UNL     1     -11.485   9.609  70.189  1.00  0.00    -0.189 C  
HETATM   14  C   UNL     1     -11.541   9.286  71.675  1.00  0.00    -0.463 C  
ENDBRANCH  12  13
BRANCH  12  15
HETATM   15  C   UNL     1     -10.248   7.419  69.901  1.00  0.00    -0.211 C  
HETATM   16  C   UNL     1     -11.195   6.338  69.408  1.00  0.00    -0.489 C  
ENDBRANCH  12  15
ENDBRANCH  10  12
ENDBRANCH   9  10
ENDBRANCH   8   9
ENDBRANCH   6   8
ENDBRANCH   3   6
ENDBRANCH   2   3
TORSDOF 9
ENDMDL
MODEL      139
REMARK 921   NORMALIZED FREE ENERGY PREDICTED BY IDOCK:   -3.20 KCAL/MOL
REMARK 922        TOTAL FREE ENERGY PREDICTED BY IDOCK:   -5.40 KCAL/MOL
REMARK 923 INTER-LIGAND FREE ENERGY PREDICTED BY IDOCK:   -4.93 KCAL/MOL
REMARK 924 INTRA-LIGAND FREE ENERGY PREDICTED BY IDOCK:   -0.47 KCAL/MOL
REMARK 927      BINDING AFFINITY PREDICTED BY RF-SCORE:    0.00 PKD
ROOT
HETATM    1  C   UNL     1      -9.374  12.410  66.535  1.00  0.00    -0.233 C  
HETATM    2  C   UNL     1      -9.830  13.539  67.456  1.00  0.00    -0.227 C  
ENDROOT
BRANCH   2   3
HETATM    3  N   UNL     1     -11.266  13.466  67.804  1.00  0.00    -0.267 N  
BRANCH   3   4
HETATM    4  C   UNL     1     -12.239  14.198  66.959  1.00  0.00    -0.339 C  
HETATM    5  C   UNL     1     -12.654  13.581  65.626  1.00  0.00    -0.512 C  
ENDBRANCH   3   4
BRANCH   3   6
HETATM    6  C   UNL     1     -11.690  12.760  68.968  1.00  0.00    -0.323 C  
HETATM    7  S   UNL     1     -12.132  13.492  70.432  1.00  0.00    -0.306 S  
BRANCH   6   8
HETATM    8  S   UNL     1     -11.880  10.987  68.802  1.00  0.00    -0.210 SA 
BRANCH   8   9
HETATM    9  S   UNL     1     -10.505  10.215  70.142  1.00  0.00    -0.199 SA 
BRANCH   9  10
HETATM   10  C   UNL     1     -11.429   9.311  71.362  1.00  0.00    -0.369 C  
HETATM   11  S   UNL     1     -12.949   9.736  71.942  1.00  0.00    -0.447 S  
BRANCH  10  12
HETATM   12  N   UNL     1     -10.803   8.100  71.693  1.00  0.00    -0.238 N  
BRANCH  12  13
HETATM   13  C   UNL     1     -10.460   7.789  73.089  1.00  0.00    -0.349 C  
HETATM   14  C   UNL     1     -10.731   6.352  73.509  1.00  0.00    -0.267 C  
ENDBRANCH  12  13
BRANCH  12  15
HETATM   15  C   UNL     1     -10.332   7.199  70.630  1.00  0.00    -0.204 C  
HETATM   16  C   UNL     1     -11.445   6.559  69.818  1.00  0.00    -0.443 C  
ENDBRANCH  12  15
ENDBRANCH  10  12
ENDBRANCH   9  10
ENDBRANCH   8   9
ENDBRANCH   6   8
ENDBRANCH   3   6
ENDBRANCH   2   3
TORSDOF 9
ENDMDL
MODEL      140
REMARK 921   NORMALIZED FREE ENERGY PREDICTED BY IDOCK:   -3.19 KCAL/MOL
REMARK 922        TOTAL FREE ENERGY PREDICTED BY IDOCK:   -5.39 KCAL/MOL
REMARK 923 INTER-LIGAND FREE ENERGY PREDICTED BY IDOCK:   -4.80 KCAL/MOL
REMARK 924 INTRA-LIGAND FREE ENERGY PREDICTED BY IDOCK:   -0.59 KCAL/MOL
REMARK 927      BINDING AFFINITY PREDICTED BY RF-SCORE:    0.00 PKD
ROOT
HETATM    1  C   UNL     1     -11.362  15.017  65.709  1.00  0.00    -0.279 C  
HETATM    2  C   UNL     1     -10.210  14.373  64.944  1.00  0.00    -0.324 C  
ENDROOT
BRANCH   2   3
HETATM    3  N   UNL     1     -10.587  13.108  64.275  1.00  0.00    -0.421 N  
BRANCH   3   4
HETATM    4  C   UNL     1     -11.808  13.086  63.435  1.00  0.00    -0.476 C  
HETATM    5  C   UNL     1     -12.755  11.896  63.558  1.00  0.00    -0.530 C  
ENDBRANCH   3   4
BRANCH   3   6
HETATM    6  C   UNL     1      -9.825  11.923  64.493  1.00  0.00    -0.178 C  
HETATM    7  S   UNL     1      -9.303  10.873  63.268  1.00  0.00    -0.338 S  
BRANCH   6   8
HETATM    8  S   UNL     1      -9.289  11.615  66.174  1.00  0.00    -0.221 SA 
BRANCH   8   9
HETATM    9  S   UNL     1     -10.828  10.494  66.985  1.00  0.00    -0.178 SA 
BRANCH   9  10
HETATM   10  C   UNL     1     -10.626  10.546  68.750  1.00  0.00    -0.207 C  
HETATM   11  S   UNL     1      -9.262  10.032  69.588  1.00  0.00    -0.189 S  
BRANCH  10  12
HETATM   12  N   UNL     1     -11.694  11.207  69.374  1.00  0.00    -0.302 N  
BRANCH  12  13
HETATM   13  C   UNL     1     -12.477  10.543  70.427  1.00  0.00    -0.310 C  
HETATM   14  C   UNL     1     -13.060  11.476  71.477  1.00  0.00    -0.429 C  
ENDBRANCH  12  13
BRANCH  12  15
HETATM   15  C   UNL     1     -12.150  12.512  68.870  1.00  0.00    -0.122 C  
HETATM   16  C   UNL     1     -11.136  13.631  69.036  1.00  0.00    -0.295 C  
ENDBRANCH  12  15
ENDBRANCH  10  12
ENDBRANCH   9  10
ENDBRANCH   8   9
ENDBRANCH   6   8
ENDBRANCH   3   6
ENDBRANCH   2   3
TORSDOF 9
ENDMDL
MODEL      141
REMARK 921   NORMALIZED FREE ENERGY PREDICTED BY IDOCK:   -3.19 KCAL/MOL
REMARK 922        TOTAL FREE ENERGY PREDICTED BY IDOCK:   -5.39 KCAL/MOL
REMARK 923 INTER-LIGAND FREE ENERGY PREDICTED BY IDOCK:   -4.95 KCAL/MOL
REMARK 924 INTRA-LIGAND FREE ENERGY PREDICTED BY IDOCK:   -0.43 KCAL/MOL
REMARK 927      BINDING AFFINITY PREDICTED BY RF-SCORE:    0.00 PKD
ROOT
HETATM    1  C   UNL     1     -11.202   6.601  70.181  1.00  0.00    -0.416 C  
HETATM    2  C   UNL     1     -10.788   8.005  70.615  1.00  0.00    -0.234 C  
ENDROOT
BRANCH   2   3
HETATM    3  N   UNL     1     -10.469   8.898  69.480  1.00  0.00    -0.223 N  
BRANCH   3   4
HETATM    4  C   UNL     1      -9.712   8.344  68.333  1.00  0.00    -0.156 C  
HETATM    5  C   UNL     1     -10.462   8.061  67.034  1.00  0.00    -0.410 C  
ENDBRANCH   3   4
BRANCH   3   6
HETATM    6  C   UNL     1     -10.828  10.277  69.526  1.00  0.00    -0.256 C  
HETATM    7  S   UNL     1     -12.007  10.934  70.552  1.00  0.00    -0.391 S  
BRANCH   6   8
HETATM    8  S   UNL     1      -9.859  11.389  68.509  1.00  0.00    -0.188 SA 
BRANCH   8   9
HETATM    9  S   UNL     1     -11.226  12.120  67.138  1.00  0.00    -0.335 SA 
BRANCH   9  10
HETATM   10  C   UNL     1     -11.429  13.851  67.488  1.00  0.00    -0.340 C  
HETATM   11  S   UNL     1     -11.916  14.493  68.964  1.00  0.00    -0.269 S  
BRANCH  10  12
HETATM   12  N   UNL     1     -10.992  14.649  66.421  1.00  0.00    -0.319 N  
BRANCH  12  13
HETATM   13  C   UNL     1     -10.875  14.092  65.065  1.00  0.00    -0.398 C  
HETATM   14  C   UNL     1     -11.954  14.542  64.092  1.00  0.00    -0.346 C  
ENDBRANCH  12  13
BRANCH  12  15
HETATM   15  C   UNL     1     -10.488  16.008  66.674  1.00  0.00    -0.304 C  
HETATM   16  C   UNL     1      -9.039  16.220  66.270  1.00  0.00    -0.366 C  
ENDBRANCH  12  15
ENDBRANCH  10  12
ENDBRANCH   9  10
ENDBRANCH   8   9
ENDBRANCH   6   8
ENDBRANCH   3   6
ENDBRANCH   2   3
TORSDOF 9
ENDMDL
MODEL      142
REMARK 921   NORMALIZED FREE ENERGY PREDICTED BY IDOCK:   -3.19 KCAL/MOL
REMARK 922        TOTAL FREE ENERGY PREDICTED BY IDOCK:   -5.38 KCAL/MOL
REMARK 923 INTER-LIGAND FREE ENERGY PREDICTED BY IDOCK:   -4.87 KCAL/MOL
REMARK 924 INTRA-LIGAND FREE ENERGY PREDICTED BY IDOCK:   -0.51 KCAL/MOL
REMARK 927      BINDING AFFINITY PREDICTED BY RF-SCORE:    0.00 PKD
ROOT
HETATM    1  C   UNL     1     -10.728  11.113  64.231  1.00  0.00    -0.403 C  
HETATM    2  C   UNL     1      -9.961  12.096  65.112  1.00  0.00    -0.228 C  
ENDROOT
BRANCH   2   3
HETATM    3  N   UNL     1     -10.841  12.947  65.942  1.00  0.00    -0.269 N  
BRANCH   3   4
HETATM    4  C   UNL     1     -12.174  13.320  65.410  1.00  0.00    -0.456 C  
HETATM    5  C   UNL     1     -12.260  14.455  64.393  1.00  0.00    -0.481 C  
ENDBRANCH   3   4
BRANCH   3   6
HETATM    6  C   UNL     1     -10.385  13.449  67.195  1.00  0.00    -0.246 C  
HETATM    7  S   UNL     1     -10.657  15.025  67.760  1.00  0.00    -0.270 S  
BRANCH   6   8
HETATM    8  S   UNL     1      -9.580  12.274  68.282  1.00  0.00    -0.191 SA 
BRANCH   8   9
HETATM    9  S   UNL     1     -11.121  11.038  68.899  1.00  0.00    -0.264 SA 
BRANCH   9  10
HETATM   10  C   UNL     1     -10.599   9.369  68.582  1.00  0.00    -0.200 C  
HETATM   11  S   UNL     1     -10.236   8.736  67.067  1.00  0.00    -0.285 S  
BRANCH  10  12
HETATM   12  N   UNL     1     -10.381   8.660  69.772  1.00  0.00    -0.207 N  
BRANCH  12  13
HETATM   13  C   UNL     1     -10.362   9.355  71.068  1.00  0.00    -0.312 C  
HETATM   14  C   UNL     1      -9.650   8.608  72.185  1.00  0.00    -0.378 C  
ENDBRANCH  12  13
BRANCH  12  15
HETATM   15  C   UNL     1     -10.006   7.238  69.726  1.00  0.00    -0.183 C  
HETATM   16  C   UNL     1     -11.183   6.282  69.804  1.00  0.00    -0.499 C  
ENDBRANCH  12  15
ENDBRANCH  10  12
ENDBRANCH   9  10
ENDBRANCH   8   9
ENDBRANCH   6   8
ENDBRANCH   3   6
ENDBRANCH   2   3
TORSDOF 9
ENDMDL
MODEL      143
REMARK 921   NORMALIZED FREE ENERGY PREDICTED BY IDOCK:   -3.19 KCAL/MOL
REMARK 922        TOTAL FREE ENERGY PREDICTED BY IDOCK:   -5.38 KCAL/MOL
REMARK 923 INTER-LIGAND FREE ENERGY PREDICTED BY IDOCK:   -4.84 KCAL/MOL
REMARK 924 INTRA-LIGAND FREE ENERGY PREDICTED BY IDOCK:   -0.55 KCAL/MOL
REMARK 927      BINDING AFFINITY PREDICTED BY RF-SCORE:    0.00 PKD
ROOT
HETATM    1  C   UNL     1      -7.666  10.688  65.960  1.00  0.00    -0.151 C  
HETATM    2  C   UNL     1      -8.464  11.032  67.215  1.00  0.00    -0.130 C  
ENDROOT
BRANCH   2   3
HETATM    3  N   UNL     1      -9.673  11.837  66.937  1.00  0.00    -0.195 N  
BRANCH   3   4
HETATM    4  C   UNL     1     -11.003  11.227  67.180  1.00  0.00    -0.291 C  
HETATM    5  C   UNL     1     -11.881  11.812  68.283  1.00  0.00    -0.340 C  
ENDBRANCH   3   4
BRANCH   3   6
HETATM    6  C   UNL     1      -9.557  13.146  66.384  1.00  0.00    -0.255 C  
HETATM    7  S   UNL     1     -10.556  13.771  65.164  1.00  0.00    -0.397 S  
BRANCH   6   8
HETATM    8  S   UNL     1      -8.343  14.226  67.137  1.00  0.00    -0.140 SA 
BRANCH   8   9
HETATM    9  S   UNL     1      -8.950  16.122  66.569  1.00  0.00    -0.317 SA 
BRANCH   9  10
HETATM   10  C   UNL     1      -9.815  16.821  67.955  1.00  0.00    -0.265 C  
HETATM   11  S   UNL     1     -11.092  16.092  68.771  1.00  0.00    -0.364 S  
BRANCH  10  12
HETATM   12  N   UNL     1      -9.214  18.009  68.395  1.00  0.00    -0.288 N  
BRANCH  12  13
HETATM   13  C   UNL     1      -9.980  19.264  68.449  1.00  0.00    -0.419 C  
HETATM   14  C   UNL     1     -10.526  19.738  67.111  1.00  0.00    -0.592 C  
ENDBRANCH  12  13
BRANCH  12  15
HETATM   15  C   UNL     1      -7.766  18.052  68.651  1.00  0.00    -0.296 C  
HETATM   16  C   UNL     1      -7.211  19.452  68.852  1.00  0.00    -0.397 C  
ENDBRANCH  12  15
ENDBRANCH  10  12
ENDBRANCH   9  10
ENDBRANCH   8   9
ENDBRANCH   6   8
ENDBRANCH   3   6
ENDBRANCH   2   3
TORSDOF 9
ENDMDL
MODEL      144
REMARK 921   NORMALIZED FREE ENERGY PREDICTED BY IDOCK:   -3.19 KCAL/MOL
REMARK 922        TOTAL FREE ENERGY PREDICTED BY IDOCK:   -5.38 KCAL/MOL
REMARK 923 INTER-LIGAND FREE ENERGY PREDICTED BY IDOCK:   -4.87 KCAL/MOL
REMARK 924 INTRA-LIGAND FREE ENERGY PREDICTED BY IDOCK:   -0.51 KCAL/MOL
REMARK 927      BINDING AFFINITY PREDICTED BY RF-SCORE:    0.00 PKD
ROOT
HETATM    1  C   UNL     1      -9.721  10.012  64.876  1.00  0.00    -0.377 C  
HETATM    2  C   UNL     1      -9.935  10.620  66.259  1.00  0.00    -0.222 C  
ENDROOT
BRANCH   2   3
HETATM    3  N   UNL     1     -10.892  11.748  66.261  1.00  0.00    -0.271 N  
BRANCH   3   4
HETATM    4  C   UNL     1     -11.097  12.506  65.004  1.00  0.00    -0.299 C  
HETATM    5  C   UNL     1     -12.399  12.302  64.234  1.00  0.00    -0.519 C  
ENDBRANCH   3   4
BRANCH   3   6
HETATM    6  C   UNL     1     -11.550  12.132  67.466  1.00  0.00    -0.343 C  
HETATM    7  S   UNL     1     -11.797  11.112  68.798  1.00  0.00    -0.263 S  
BRANCH   6   8
HETATM    8  S   UNL     1     -12.026  13.853  67.603  1.00  0.00    -0.321 SA 
BRANCH   8   9
HETATM    9  S   UNL     1     -10.806  14.585  69.106  1.00  0.00    -0.257 SA 
BRANCH   9  10
HETATM   10  C   UNL     1      -9.497  15.487  68.313  1.00  0.00    -0.200 C  
HETATM   11  S   UNL     1      -7.854  15.255  68.583  1.00  0.00    -0.154 S  
BRANCH  10  12
HETATM   12  N   UNL     1      -9.988  16.335  67.308  1.00  0.00    -0.245 N  
BRANCH  12  13
HETATM   13  C   UNL     1      -9.643  16.105  65.897  1.00  0.00    -0.324 C  
HETATM   14  C   UNL     1     -10.812  16.206  64.929  1.00  0.00    -0.353 C  
ENDBRANCH  12  13
BRANCH  12  15
HETATM   15  C   UNL     1     -10.718  17.560  67.669  1.00  0.00    -0.306 C  
HETATM   16  C   UNL     1      -9.975  18.464  68.638  1.00  0.00    -0.415 C  
ENDBRANCH  12  15
ENDBRANCH  10  12
ENDBRANCH   9  10
ENDBRANCH   8   9
ENDBRANCH   6   8
ENDBRANCH   3   6
ENDBRANCH   2   3
TORSDOF 9
ENDMDL
MODEL      145
REMARK 921   NORMALIZED FREE ENERGY PREDICTED BY IDOCK:   -3.18 KCAL/MOL
REMARK 922        TOTAL FREE ENERGY PREDICTED BY IDOCK:   -5.37 KCAL/MOL
REMARK 923 INTER-LIGAND FREE ENERGY PREDICTED BY IDOCK:   -4.92 KCAL/MOL
REMARK 924 INTRA-LIGAND FREE ENERGY PREDICTED BY IDOCK:   -0.46 KCAL/MOL
REMARK 927      BINDING AFFINITY PREDICTED BY RF-SCORE:    0.00 PKD
ROOT
HETATM    1  C   UNL     1     -10.588   5.922  66.869  1.00  0.00    -0.384 C  
HETATM    2  C   UNL     1      -9.832   7.109  67.460  1.00  0.00    -0.151 C  
ENDROOT
BRANCH   2   3
HETATM    3  N   UNL     1     -10.467   7.660  68.677  1.00  0.00    -0.198 N  
BRANCH   3   4
HETATM    4  C   UNL     1     -11.392   6.795  69.448  1.00  0.00    -0.197 C  
HETATM    5  C   UNL     1     -11.617   7.104  70.926  1.00  0.00    -0.350 C  
ENDBRANCH   3   4
BRANCH   3   6
HETATM    6  C   UNL     1     -10.240   9.015  69.058  1.00  0.00    -0.205 C  
HETATM    7  S   UNL     1      -8.902   9.556  69.947  1.00  0.00    -0.227 S  
BRANCH   6   8
HETATM    8  S   UNL     1     -11.401  10.225  68.430  1.00  0.00    -0.094 SA 
BRANCH   8   9
HETATM    9  S   UNL     1     -10.218  11.522  67.334  1.00  0.00    -0.208 SA 
BRANCH   9  10
HETATM   10  C   UNL     1     -11.165  13.007  67.099  1.00  0.00    -0.286 C  
HETATM   11  S   UNL     1     -11.648  14.056  68.321  1.00  0.00    -0.349 S  
BRANCH  10  12
HETATM   12  N   UNL     1     -11.350  13.293  65.738  1.00  0.00    -0.303 N  
BRANCH  12  13
HETATM   13  C   UNL     1     -10.458  14.232  65.040  1.00  0.00    -0.435 C  
HETATM   14  C   UNL     1     -11.037  15.621  64.819  1.00  0.00    -0.426 C  
ENDBRANCH  12  13
BRANCH  12  15
HETATM   15  C   UNL     1     -12.536  12.785  65.032  1.00  0.00    -0.506 C  
HETATM   16  C   UNL     1     -12.220  12.000  63.770  1.00  0.00    -0.600 C  
ENDBRANCH  12  15
ENDBRANCH  10  12
ENDBRANCH   9  10
ENDBRANCH   8   9
ENDBRANCH   6   8
ENDBRANCH   3   6
ENDBRANCH   2   3
TORSDOF 9
ENDMDL
MODEL      146
REMARK 921   NORMALIZED FREE ENERGY PREDICTED BY IDOCK:   -3.18 KCAL/MOL
REMARK 922        TOTAL FREE ENERGY PREDICTED BY IDOCK:   -5.37 KCAL/MOL
REMARK 923 INTER-LIGAND FREE ENERGY PREDICTED BY IDOCK:   -4.68 KCAL/MOL
REMARK 924 INTRA-LIGAND FREE ENERGY PREDICTED BY IDOCK:   -0.69 KCAL/MOL
REMARK 927      BINDING AFFINITY PREDICTED BY RF-SCORE:    0.00 PKD
ROOT
HETATM    1  C   UNL     1     -10.680  15.957  65.186  1.00  0.00    -0.449 C  
HETATM    2  C   UNL     1     -10.505  17.372  65.731  1.00  0.00    -0.215 C  
ENDROOT
BRANCH   2   3
HETATM    3  N   UNL     1     -10.038  17.406  67.134  1.00  0.00    -0.298 N  
BRANCH   3   4
HETATM    4  C   UNL     1     -10.778  18.244  68.108  1.00  0.00    -0.199 C  
HETATM    5  C   UNL     1     -10.102  19.503  68.645  1.00  0.00    -0.535 C  
ENDBRANCH   3   4
BRANCH   3   6
HETATM    6  C   UNL     1      -8.863  16.697  67.520  1.00  0.00    -0.196 C  
HETATM    7  S   UNL     1      -7.362  16.821  66.740  1.00  0.00    -0.263 S  
BRANCH   6   8
HETATM    8  S   UNL     1      -8.977  15.712  69.012  1.00  0.00    -0.255 SA 
BRANCH   8   9
HETATM    9  S   UNL     1     -10.611  14.488  68.671  1.00  0.00    -0.261 SA 
BRANCH   9  10
HETATM   10  C   UNL     1     -10.013  13.067  67.787  1.00  0.00    -0.227 C  
HETATM   11  S   UNL     1      -8.396  12.638  67.617  1.00  0.00    -0.187 S  
BRANCH  10  12
HETATM   12  N   UNL     1     -11.065  12.244  67.358  1.00  0.00    -0.266 N  
BRANCH  12  13
HETATM   13  C   UNL     1     -11.800  12.549  66.121  1.00  0.00    -0.397 C  
HETATM   14  C   UNL     1     -11.071  12.183  64.837  1.00  0.00    -0.367 C  
ENDBRANCH  12  13
BRANCH  12  15
HETATM   15  C   UNL     1     -11.555  11.161  68.224  1.00  0.00    -0.289 C  
HETATM   16  C   UNL     1     -10.847   9.832  68.019  1.00  0.00    -0.276 C  
ENDBRANCH  12  15
ENDBRANCH  10  12
ENDBRANCH   9  10
ENDBRANCH   8   9
ENDBRANCH   6   8
ENDBRANCH   3   6
ENDBRANCH   2   3
TORSDOF 9
ENDMDL
MODEL      147
REMARK 921   NORMALIZED FREE ENERGY PREDICTED BY IDOCK:   -3.18 KCAL/MOL
REMARK 922        TOTAL FREE ENERGY PREDICTED BY IDOCK:   -5.36 KCAL/MOL
REMARK 923 INTER-LIGAND FREE ENERGY PREDICTED BY IDOCK:   -4.98 KCAL/MOL
REMARK 924 INTRA-LIGAND FREE ENERGY PREDICTED BY IDOCK:   -0.38 KCAL/MOL
REMARK 927      BINDING AFFINITY PREDICTED BY RF-SCORE:    0.00 PKD
ROOT
HETATM    1  C   UNL     1     -12.322  12.000  63.564  1.00  0.00    -0.661 C  
HETATM    2  C   UNL     1     -10.896  12.540  63.606  1.00  0.00    -0.441 C  
ENDROOT
BRANCH   2   3
HETATM    3  N   UNL     1     -10.241  12.362  64.921  1.00  0.00    -0.285 N  
BRANCH   3   4
HETATM    4  C   UNL     1      -9.543  11.084  65.198  1.00  0.00    -0.237 C  
HETATM    5  C   UNL     1      -8.967  10.299  64.023  1.00  0.00    -0.261 C  
ENDBRANCH   3   4
BRANCH   3   6
HETATM    6  C   UNL     1     -10.340  13.376  65.919  1.00  0.00    -0.290 C  
HETATM    7  S   UNL     1     -11.712  14.338  66.183  1.00  0.00    -0.395 S  
BRANCH   6   8
HETATM    8  S   UNL     1      -8.951  13.534  67.038  1.00  0.00    -0.212 SA 
BRANCH   8   9
HETATM    9  S   UNL     1      -9.679  14.731  68.561  1.00  0.00    -0.222 SA 
BRANCH   9  10
HETATM   10  C   UNL     1      -8.751  16.246  68.513  1.00  0.00    -0.211 C  
HETATM   11  S   UNL     1      -7.150  16.420  68.998  1.00  0.00    -0.216 S  
BRANCH  10  12
HETATM   12  N   UNL     1      -9.467  17.272  67.880  1.00  0.00    -0.261 N  
BRANCH  12  13
HETATM   13  C   UNL     1     -10.331  18.174  68.657  1.00  0.00    -0.298 C  
HETATM   14  C   UNL     1      -9.710  19.521  68.995  1.00  0.00    -0.455 C  
ENDBRANCH  12  13
BRANCH  12  15
HETATM   15  C   UNL     1      -9.493  17.357  66.412  1.00  0.00    -0.261 C  
HETATM   16  C   UNL     1     -10.599  18.239  65.859  1.00  0.00    -0.274 C  
ENDBRANCH  12  15
ENDBRANCH  10  12
ENDBRANCH   9  10
ENDBRANCH   8   9
ENDBRANCH   6   8
ENDBRANCH   3   6
ENDBRANCH   2   3
TORSDOF 9
ENDMDL
MODEL      148
REMARK 921   NORMALIZED FREE ENERGY PREDICTED BY IDOCK:   -3.18 KCAL/MOL
REMARK 922        TOTAL FREE ENERGY PREDICTED BY IDOCK:   -5.36 KCAL/MOL
REMARK 923 INTER-LIGAND FREE ENERGY PREDICTED BY IDOCK:   -4.95 KCAL/MOL
REMARK 924 INTRA-LIGAND FREE ENERGY PREDICTED BY IDOCK:   -0.41 KCAL/MOL
REMARK 927      BINDING AFFINITY PREDICTED BY RF-SCORE:    0.00 PKD
ROOT
HETATM    1  C   UNL     1     -10.863  10.245  67.529  1.00  0.00    -0.355 C  
HETATM    2  C   UNL     1     -11.403  11.650  67.782  1.00  0.00    -0.288 C  
ENDROOT
BRANCH   2   3
HETATM    3  N   UNL     1     -10.639  12.705  67.080  1.00  0.00    -0.234 N  
BRANCH   3   4
HETATM    4  C   UNL     1      -9.169  12.559  66.966  1.00  0.00    -0.214 C  
HETATM    5  C   UNL     1      -8.302  12.955  68.159  1.00  0.00    -0.168 C  
ENDBRANCH   3   4
BRANCH   3   6
HETATM    6  C   UNL     1     -11.302  13.867  66.587  1.00  0.00    -0.331 C  
HETATM    7  S   UNL     1     -12.568  13.849  65.458  1.00  0.00    -0.485 S  
BRANCH   6   8
HETATM    8  S   UNL     1     -10.830  15.430  67.323  1.00  0.00    -0.311 SA 
BRANCH   8   9
HETATM    9  S   UNL     1     -10.244  16.580  65.705  1.00  0.00    -0.292 SA 
BRANCH   9  10
HETATM   10  C   UNL     1      -9.638  18.117  66.360  1.00  0.00    -0.294 C  
HETATM   11  S   UNL     1     -10.432  19.596  66.262  1.00  0.00    -0.510 S  
BRANCH  10  12
HETATM   12  N   UNL     1      -8.467  17.934  67.110  1.00  0.00    -0.228 N  
BRANCH  12  13
HETATM   13  C   UNL     1      -8.425  18.289  68.536  1.00  0.00    -0.307 C  
HETATM   14  C   UNL     1      -7.208  19.099  68.959  1.00  0.00    -0.370 C  
ENDBRANCH  12  13
BRANCH  12  15
HETATM   15  C   UNL     1      -7.217  17.540  66.441  1.00  0.00    -0.291 C  
HETATM   16  C   UNL     1      -6.676  18.578  65.473  1.00  0.00    -0.270 C  
ENDBRANCH  12  15
ENDBRANCH  10  12
ENDBRANCH   9  10
ENDBRANCH   8   9
ENDBRANCH   6   8
ENDBRANCH   3   6
ENDBRANCH   2   3
TORSDOF 9
ENDMDL
MODEL      149
REMARK 921   NORMALIZED FREE ENERGY PREDICTED BY IDOCK:   -3.17 KCAL/MOL
REMARK 922        TOTAL FREE ENERGY PREDICTED BY IDOCK:   -5.36 KCAL/MOL
REMARK 923 INTER-LIGAND FREE ENERGY PREDICTED BY IDOCK:   -4.71 KCAL/MOL
REMARK 924 INTRA-LIGAND FREE ENERGY PREDICTED BY IDOCK:   -0.65 KCAL/MOL
REMARK 927      BINDING AFFINITY PREDICTED BY RF-SCORE:    0.00 PKD
ROOT
HETATM    1  C   UNL     1     -10.453  18.881  66.354  1.00  0.00    -0.505 C  
HETATM    2  C   UNL     1     -10.597  18.344  67.776  1.00  0.00    -0.391 C  
ENDROOT
BRANCH   2   3
HETATM    3  N   UNL     1      -9.655  17.248  68.086  1.00  0.00    -0.274 N  
BRANCH   3   4
HETATM    4  C   UNL     1      -8.229  17.411  67.712  1.00  0.00    -0.216 C  
HETATM    5  C   UNL     1      -7.366  18.365  68.532  1.00  0.00    -0.302 C  
ENDBRANCH   3   4
BRANCH   3   6
HETATM    6  C   UNL     1     -10.126  16.036  68.671  1.00  0.00    -0.220 C  
HETATM    7  S   UNL     1     -11.654  15.837  69.378  1.00  0.00    -0.362 S  
BRANCH   6   8
HETATM    8  S   UNL     1      -9.056  14.608  68.522  1.00  0.00    -0.189 SA 
BRANCH   8   9
HETATM    9  S   UNL     1      -9.382  13.947  66.587  1.00  0.00    -0.242 SA 
BRANCH   9  10
HETATM   10  C   UNL     1     -10.961  13.133  66.582  1.00  0.00    -0.283 C  
HETATM   11  S   UNL     1     -12.403  13.812  66.044  1.00  0.00    -0.442 S  
BRANCH  10  12
HETATM   12  N   UNL     1     -10.849  11.784  66.949  1.00  0.00    -0.257 N  
BRANCH  12  13
HETATM   13  C   UNL     1     -11.641  11.240  68.063  1.00  0.00    -0.272 C  
HETATM   14  C   UNL     1     -11.615  12.076  69.334  1.00  0.00    -0.393 C  
ENDBRANCH  12  13
BRANCH  12  15
HETATM   15  C   UNL     1      -9.818  10.935  66.333  1.00  0.00    -0.207 C  
HETATM   16  C   UNL     1      -9.054  10.069  67.320  1.00  0.00    -0.152 C  
ENDBRANCH  12  15
ENDBRANCH  10  12
ENDBRANCH   9  10
ENDBRANCH   8   9
ENDBRANCH   6   8
ENDBRANCH   3   6
ENDBRANCH   2   3
TORSDOF 9
ENDMDL
MODEL      150
REMARK 921   NORMALIZED FREE ENERGY PREDICTED BY IDOCK:   -3.17 KCAL/MOL
REMARK 922        TOTAL FREE ENERGY PREDICTED BY IDOCK:   -5.35 KCAL/MOL
REMARK 923 INTER-LIGAND FREE ENERGY PREDICTED BY IDOCK:   -4.94 KCAL/MOL
REMARK 924 INTRA-LIGAND FREE ENERGY PREDICTED BY IDOCK:   -0.41 KCAL/MOL
REMARK 927      BINDING AFFINITY PREDICTED BY RF-SCORE:    0.00 PKD
ROOT
HETATM    1  C   UNL     1     -11.492  10.889  68.549  1.00  0.00    -0.380 C  
HETATM    2  C   UNL     1     -11.051  10.607  67.116  1.00  0.00    -0.196 C  
ENDROOT
BRANCH   2   3
HETATM    3  N   UNL     1     -10.960  11.825  66.281  1.00  0.00    -0.290 N  
BRANCH   3   4
HETATM    4  C   UNL     1     -11.513  11.786  64.906  1.00  0.00    -0.203 C  
HETATM    5  C   UNL     1     -10.613  12.205  63.747  1.00  0.00    -0.482 C  
ENDBRANCH   3   4
BRANCH   3   6
HETATM    6  C   UNL     1     -10.294  12.987  66.771  1.00  0.00    -0.254 C  
HETATM    7  S   UNL     1      -8.652  13.054  67.188  1.00  0.00    -0.169 S  
BRANCH   6   8
HETATM    8  S   UNL     1     -11.255  14.498  66.819  1.00  0.00    -0.342 SA 
BRANCH   8   9
HETATM    9  S   UNL     1     -10.325  15.718  65.430  1.00  0.00    -0.357 SA 
BRANCH   9  10
HETATM   10  C   UNL     1      -9.200  16.758  66.332  1.00  0.00    -0.279 C  
HETATM   11  S   UNL     1      -7.553  16.477  66.516  1.00  0.00    -0.219 S  
BRANCH  10  12
HETATM   12  N   UNL     1      -9.821  17.940  66.763  1.00  0.00    -0.316 N  
BRANCH  12  13
HETATM   13  C   UNL     1      -9.405  19.245  66.227  1.00  0.00    -0.339 C  
HETATM   14  C   UNL     1     -10.117  20.443  66.836  1.00  0.00    -0.503 C  
ENDBRANCH  12  13
BRANCH  12  15
HETATM   15  C   UNL     1     -10.781  17.905  67.877  1.00  0.00    -0.316 C  
HETATM   16  C   UNL     1     -10.286  17.152  69.100  1.00  0.00    -0.297 C  
ENDBRANCH  12  15
ENDBRANCH  10  12
ENDBRANCH   9  10
ENDBRANCH   8   9
ENDBRANCH   6   8
ENDBRANCH   3   6
ENDBRANCH   2   3
TORSDOF 9
ENDMDL
MODEL      151
REMARK 921   NORMALIZED FREE ENERGY PREDICTED BY IDOCK:   -3.17 KCAL/MOL
REMARK 922        TOTAL FREE ENERGY PREDICTED BY IDOCK:   -5.35 KCAL/MOL
REMARK 923 INTER-LIGAND FREE ENERGY PREDICTED BY IDOCK:   -4.78 KCAL/MOL
REMARK 924 INTRA-LIGAND FREE ENERGY PREDICTED BY IDOCK:   -0.57 KCAL/MOL
REMARK 927      BINDING AFFINITY PREDICTED BY RF-SCORE:    0.00 PKD
ROOT
HETATM    1  C   UNL     1      -7.820   9.836  70.069  1.00  0.00    -0.188 C  
HETATM    2  C   UNL     1      -8.599   8.526  70.004  1.00  0.00    -0.134 C  
ENDROOT
BRANCH   2   3
HETATM    3  N   UNL     1     -10.008   8.702  69.589  1.00  0.00    -0.187 N  
BRANCH   3   4
HETATM    4  C   UNL     1     -11.071   8.561  70.612  1.00  0.00    -0.252 C  
HETATM    5  C   UNL     1     -10.670   8.563  72.085  1.00  0.00    -0.426 C  
ENDBRANCH   3   4
BRANCH   3   6
HETATM    6  C   UNL     1     -10.333   8.937  68.221  1.00  0.00    -0.206 C  
HETATM    7  S   UNL     1     -10.213   7.778  66.989  1.00  0.00    -0.323 S  
BRANCH   6   8
HETATM    8  S   UNL     1     -11.033  10.538  67.829  1.00  0.00    -0.318 SA 
BRANCH   8   9
HETATM    9  S   UNL     1      -9.452  11.576  66.988  1.00  0.00    -0.186 SA 
BRANCH   9  10
HETATM   10  C   UNL     1      -9.704  11.559  65.229  1.00  0.00    -0.238 C  
HETATM   11  S   UNL     1      -9.202  10.339  64.187  1.00  0.00    -0.289 S  
BRANCH  10  12
HETATM   12  N   UNL     1     -10.510  12.629  64.812  1.00  0.00    -0.307 N  
BRANCH  12  13
HETATM   13  C   UNL     1     -10.750  13.778  65.696  1.00  0.00    -0.288 C  
HETATM   14  C   UNL     1     -10.458  15.136  65.075  1.00  0.00    -0.418 C  
ENDBRANCH  12  13
BRANCH  12  15
HETATM   15  C   UNL     1     -11.260  12.538  63.549  1.00  0.00    -0.462 C  
HETATM   16  C   UNL     1     -12.658  11.962  63.695  1.00  0.00    -0.555 C  
ENDBRANCH  12  15
ENDBRANCH  10  12
ENDBRANCH   9  10
ENDBRANCH   8   9
ENDBRANCH   6   8
ENDBRANCH   3   6
ENDBRANCH   2   3
TORSDOF 9
ENDMDL
MODEL      152
REMARK 921   NORMALIZED FREE ENERGY PREDICTED BY IDOCK:   -3.16 KCAL/MOL
REMARK 922        TOTAL FREE ENERGY PREDICTED BY IDOCK:   -5.34 KCAL/MOL
REMARK 923 INTER-LIGAND FREE ENERGY PREDICTED BY IDOCK:   -4.92 KCAL/MOL
REMARK 924 INTRA-LIGAND FREE ENERGY PREDICTED BY IDOCK:   -0.42 KCAL/MOL
REMARK 927      BINDING AFFINITY PREDICTED BY RF-SCORE:    0.00 PKD
ROOT
HETATM    1  C   UNL     1      -6.142  20.438  68.773  1.00  0.00    -0.366 C  
HETATM    2  C   UNL     1      -7.214  19.420  69.150  1.00  0.00    -0.342 C  
ENDROOT
BRANCH   2   3
HETATM    3  N   UNL     1      -7.118  18.158  68.384  1.00  0.00    -0.243 N  
BRANCH   3   4
HETATM    4  C   UNL     1      -6.551  16.963  69.054  1.00  0.00    -0.209 C  
HETATM    5  C   UNL     1      -5.553  17.170  70.189  1.00  0.00    -0.236 C  
ENDBRANCH   3   4
BRANCH   3   6
HETATM    6  C   UNL     1      -7.503  18.117  67.012  1.00  0.00    -0.208 C  
HETATM    7  S   UNL     1      -6.451  18.374  65.707  1.00  0.00    -0.284 S  
BRANCH   6   8
HETATM    8  S   UNL     1      -9.193  17.633  66.670  1.00  0.00    -0.273 SA 
BRANCH   8   9
HETATM    9  S   UNL     1      -9.103  15.568  66.566  1.00  0.00    -0.325 SA 
BRANCH   9  10
HETATM   10  C   UNL     1     -10.769  14.992  66.333  1.00  0.00    -0.322 C  
HETATM   11  S   UNL     1     -11.519  14.765  64.846  1.00  0.00    -0.412 S  
BRANCH  10  12
HETATM   12  N   UNL     1     -11.356  14.603  67.546  1.00  0.00    -0.333 N  
BRANCH  12  13
HETATM   13  C   UNL     1     -11.878  13.241  67.725  1.00  0.00    -0.353 C  
HETATM   14  C   UNL     1     -10.880  12.130  67.435  1.00  0.00    -0.286 C  
ENDBRANCH  12  13
BRANCH  12  15
HETATM   15  C   UNL     1     -11.606  15.601  68.598  1.00  0.00    -0.382 C  
HETATM   16  C   UNL     1     -11.705  15.018  69.997  1.00  0.00    -0.345 C  
ENDBRANCH  12  15
ENDBRANCH  10  12
ENDBRANCH   9  10
ENDBRANCH   8   9
ENDBRANCH   6   8
ENDBRANCH   3   6
ENDBRANCH   2   3
TORSDOF 9
ENDMDL
MODEL      153
REMARK 921   NORMALIZED FREE ENERGY PREDICTED BY IDOCK:   -3.16 KCAL/MOL
REMARK 922        TOTAL FREE ENERGY PREDICTED BY IDOCK:   -5.33 KCAL/MOL
REMARK 923 INTER-LIGAND FREE ENERGY PREDICTED BY IDOCK:   -4.96 KCAL/MOL
REMARK 924 INTRA-LIGAND FREE ENERGY PREDICTED BY IDOCK:   -0.37 KCAL/MOL
REMARK 927      BINDING AFFINITY PREDICTED BY RF-SCORE:    0.00 PKD
ROOT
HETATM    1  C   UNL     1     -10.692  11.348  63.739  1.00  0.00    -0.470 C  
HETATM    2  C   UNL     1      -9.861  11.603  64.994  1.00  0.00    -0.248 C  
ENDROOT
BRANCH   2   3
HETATM    3  N   UNL     1     -10.498  12.547  65.937  1.00  0.00    -0.259 N  
BRANCH   3   4
HETATM    4  C   UNL     1     -11.547  12.036  66.852  1.00  0.00    -0.318 C  
HETATM    5  C   UNL     1     -11.845  12.818  68.128  1.00  0.00    -0.372 C  
ENDBRANCH   3   4
BRANCH   3   6
HETATM    6  C   UNL     1     -10.154  13.930  65.916  1.00  0.00    -0.317 C  
HETATM    7  S   UNL     1     -10.984  15.117  65.032  1.00  0.00    -0.434 S  
BRANCH   6   8
HETATM    8  S   UNL     1      -8.828  14.441  67.006  1.00  0.00    -0.226 SA 
BRANCH   8   9
HETATM    9  S   UNL     1      -8.374  16.356  66.366  1.00  0.00    -0.331 SA 
BRANCH   9  10
HETATM   10  C   UNL     1      -7.669  17.209  67.757  1.00  0.00    -0.177 C  
HETATM   11  S   UNL     1      -7.048  16.472  69.135  1.00  0.00    -0.220 S  
BRANCH  10  12
HETATM   12  N   UNL     1      -7.554  18.586  67.516  1.00  0.00    -0.227 N  
BRANCH  12  13
HETATM   13  C   UNL     1      -6.534  19.104  66.593  1.00  0.00    -0.188 C  
HETATM   14  C   UNL     1      -7.055  20.076  65.545  1.00  0.00    -0.336 C  
ENDBRANCH  12  13
BRANCH  12  15
HETATM   15  C   UNL     1      -8.344  19.541  68.309  1.00  0.00    -0.340 C  
HETATM   16  C   UNL     1      -9.835  19.505  68.022  1.00  0.00    -0.500 C  
ENDBRANCH  12  15
ENDBRANCH  10  12
ENDBRANCH   9  10
ENDBRANCH   8   9
ENDBRANCH   6   8
ENDBRANCH   3   6
ENDBRANCH   2   3
TORSDOF 9
ENDMDL
MODEL      154
REMARK 921   NORMALIZED FREE ENERGY PREDICTED BY IDOCK:   -3.15 KCAL/MOL
REMARK 922        TOTAL FREE ENERGY PREDICTED BY IDOCK:   -5.31 KCAL/MOL
REMARK 923 INTER-LIGAND FREE ENERGY PREDICTED BY IDOCK:   -4.83 KCAL/MOL
REMARK 924 INTRA-LIGAND FREE ENERGY PREDICTED BY IDOCK:   -0.48 KCAL/MOL
REMARK 927      BINDING AFFINITY PREDICTED BY RF-SCORE:    0.00 PKD
ROOT
HETATM    1  C   UNL     1     -10.308  11.023  64.575  1.00  0.00    -0.420 C  
HETATM    2  C   UNL     1      -9.625  11.274  65.917  1.00  0.00    -0.221 C  
ENDROOT
BRANCH   2   3
HETATM    3  N   UNL     1     -10.430  10.828  67.076  1.00  0.00    -0.235 N  
BRANCH   3   4
HETATM    4  C   UNL     1     -11.427  11.764  67.648  1.00  0.00    -0.300 C  
HETATM    5  C   UNL     1     -11.142  13.262  67.582  1.00  0.00    -0.292 C  
ENDBRANCH   3   4
BRANCH   3   6
HETATM    6  C   UNL     1     -10.200   9.550  67.664  1.00  0.00    -0.220 C  
HETATM    7  S   UNL     1     -10.368   8.070  66.854  1.00  0.00    -0.300 S  
BRANCH   6   8
HETATM    8  S   UNL     1      -9.568   9.545  69.340  1.00  0.00    -0.191 SA 
BRANCH   8   9
HETATM    9  S   UNL     1     -10.046   7.657  70.042  1.00  0.00    -0.208 SA 
BRANCH   9  10
HETATM   10  C   UNL     1     -10.619   7.860  71.712  1.00  0.00    -0.226 C  
HETATM   11  S   UNL     1      -9.637   7.910  73.076  1.00  0.00    -0.282 S  
BRANCH  10  12
HETATM   12  N   UNL     1     -11.996   8.122  71.759  1.00  0.00    -0.288 N  
BRANCH  12  13
HETATM   13  C   UNL     1     -12.956   7.214  71.112  1.00  0.00    -0.257 C  
HETATM   14  C   UNL     1     -14.402   7.398  71.545  1.00  0.00    -0.594 C  
ENDBRANCH  12  13
BRANCH  12  15
HETATM   15  C   UNL     1     -12.487   9.393  72.313  1.00  0.00    -0.268 C  
HETATM   16  C   UNL     1     -12.586  10.518  71.296  1.00  0.00    -0.531 C  
ENDBRANCH  12  15
ENDBRANCH  10  12
ENDBRANCH   9  10
ENDBRANCH   8   9
ENDBRANCH   6   8
ENDBRANCH   3   6
ENDBRANCH   2   3
TORSDOF 9
ENDMDL
MODEL      155
REMARK 921   NORMALIZED FREE ENERGY PREDICTED BY IDOCK:   -3.14 KCAL/MOL
REMARK 922        TOTAL FREE ENERGY PREDICTED BY IDOCK:   -5.31 KCAL/MOL
REMARK 923 INTER-LIGAND FREE ENERGY PREDICTED BY IDOCK:   -5.09 KCAL/MOL
REMARK 924 INTRA-LIGAND FREE ENERGY PREDICTED BY IDOCK:   -0.22 KCAL/MOL
REMARK 927      BINDING AFFINITY PREDICTED BY RF-SCORE:    0.00 PKD
ROOT
HETATM    1  C   UNL     1      -9.645  10.232  63.940  1.00  0.00    -0.354 C  
HETATM    2  C   UNL     1      -9.826  10.165  65.454  1.00  0.00    -0.307 C  
ENDROOT
BRANCH   2   3
HETATM    3  N   UNL     1     -10.771  11.177  65.976  1.00  0.00    -0.243 N  
BRANCH   3   4
HETATM    4  C   UNL     1     -11.327  12.179  65.036  1.00  0.00    -0.328 C  
HETATM    5  C   UNL     1     -10.564  13.484  64.826  1.00  0.00    -0.429 C  
ENDBRANCH   3   4
BRANCH   3   6
HETATM    6  C   UNL     1     -11.083  11.223  67.366  1.00  0.00    -0.297 C  
HETATM    7  S   UNL     1     -11.830  12.531  68.144  1.00  0.00    -0.243 S  
BRANCH   6   8
HETATM    8  S   UNL     1     -10.768   9.731  68.306  1.00  0.00    -0.211 SA 
BRANCH   8   9
HETATM    9  S   UNL     1     -11.444  10.193  70.206  1.00  0.00    -0.323 SA 
BRANCH   9  10
HETATM   10  C   UNL     1     -10.834   8.924  71.291  1.00  0.00    -0.290 C  
HETATM   11  S   UNL     1      -9.265   8.827  71.888  1.00  0.00    -0.182 S  
BRANCH  10  12
HETATM   12  N   UNL     1     -11.862   8.071  71.720  1.00  0.00    -0.281 N  
BRANCH  12  13
HETATM   13  C   UNL     1     -13.180   8.610  72.087  1.00  0.00    -0.383 C  
HETATM   14  C   UNL     1     -14.365   7.806  71.574  1.00  0.00    -0.574 C  
ENDBRANCH  12  13
BRANCH  12  15
HETATM   15  C   UNL     1     -11.585   6.647  71.965  1.00  0.00    -0.301 C  
HETATM   16  C   UNL     1     -11.026   5.907  70.762  1.00  0.00    -0.343 C  
ENDBRANCH  12  15
ENDBRANCH  10  12
ENDBRANCH   9  10
ENDBRANCH   8   9
ENDBRANCH   6   8
ENDBRANCH   3   6
ENDBRANCH   2   3
TORSDOF 9
ENDMDL
MODEL      156
REMARK 921   NORMALIZED FREE ENERGY PREDICTED BY IDOCK:   -3.14 KCAL/MOL
REMARK 922        TOTAL FREE ENERGY PREDICTED BY IDOCK:   -5.31 KCAL/MOL
REMARK 923 INTER-LIGAND FREE ENERGY PREDICTED BY IDOCK:   -4.81 KCAL/MOL
REMARK 924 INTRA-LIGAND FREE ENERGY PREDICTED BY IDOCK:   -0.50 KCAL/MOL
REMARK 927      BINDING AFFINITY PREDICTED BY RF-SCORE:    0.00 PKD
ROOT
HETATM    1  C   UNL     1     -10.701  18.278  67.595  1.00  0.00    -0.373 C  
HETATM    2  C   UNL     1     -10.095  17.011  68.193  1.00  0.00    -0.308 C  
ENDROOT
BRANCH   2   3
HETATM    3  N   UNL     1     -10.943  15.813  68.008  1.00  0.00    -0.319 N  
BRANCH   3   4
HETATM    4  C   UNL     1     -11.697  15.291  69.172  1.00  0.00    -0.335 C  
HETATM    5  C   UNL     1     -11.100  15.471  70.566  1.00  0.00    -0.369 C  
ENDBRANCH   3   4
BRANCH   3   6
HETATM    6  C   UNL     1     -10.977  15.142  66.751  1.00  0.00    -0.321 C  
HETATM    7  S   UNL     1      -9.810  15.316  65.532  1.00  0.00    -0.281 S  
BRANCH   6   8
HETATM    8  S   UNL     1     -12.285  13.941  66.521  1.00  0.00    -0.408 SA 
BRANCH   8   9
HETATM    9  S   UNL     1     -11.403  12.143  67.043  1.00  0.00    -0.347 SA 
BRANCH   9  10
HETATM   10  C   UNL     1     -10.586  11.530  65.589  1.00  0.00    -0.274 C  
HETATM   11  S   UNL     1     -11.056  11.845  64.005  1.00  0.00    -0.424 S  
BRANCH  10  12
HETATM   12  N   UNL     1      -9.397  10.858  65.908  1.00  0.00    -0.192 N  
BRANCH  12  13
HETATM   13  C   UNL     1      -9.286   9.402  65.727  1.00  0.00    -0.219 C  
HETATM   14  C   UNL     1     -10.152   8.573  66.663  1.00  0.00    -0.364 C  
ENDBRANCH  12  13
BRANCH  12  15
HETATM   15  C   UNL     1      -8.303  11.574  66.581  1.00  0.00    -0.167 C  
HETATM   16  C   UNL     1      -7.899  10.976  67.918  1.00  0.00    -0.110 C  
ENDBRANCH  12  15
ENDBRANCH  10  12
ENDBRANCH   9  10
ENDBRANCH   8   9
ENDBRANCH   6   8
ENDBRANCH   3   6
ENDBRANCH   2   3
TORSDOF 9
ENDMDL
MODEL      157
REMARK 921   NORMALIZED FREE ENERGY PREDICTED BY IDOCK:   -3.14 KCAL/MOL
REMARK 922        TOTAL FREE ENERGY PREDICTED BY IDOCK:   -5.30 KCAL/MOL
REMARK 923 INTER-LIGAND FREE ENERGY PREDICTED BY IDOCK:   -4.99 KCAL/MOL
REMARK 924 INTRA-LIGAND FREE ENERGY PREDICTED BY IDOCK:   -0.31 KCAL/MOL
REMARK 927      BINDING AFFINITY PREDICTED BY RF-SCORE:    0.00 PKD
ROOT
HETATM    1  C   UNL     1     -10.370   7.744  72.838  1.00  0.00    -0.396 C  
HETATM    2  C   UNL     1      -9.781   8.729  71.832  1.00  0.00    -0.316 C  
ENDROOT
BRANCH   2   3
HETATM    3  N   UNL     1     -10.203   8.467  70.439  1.00  0.00    -0.194 N  
BRANCH   3   4
HETATM    4  C   UNL     1      -9.839   7.170  69.820  1.00  0.00    -0.173 C  
HETATM    5  C   UNL     1      -8.377   6.922  69.457  1.00  0.00    -0.133 C  
ENDBRANCH   3   4
BRANCH   3   6
HETATM    6  C   UNL     1     -10.888   9.470  69.692  1.00  0.00    -0.235 C  
HETATM    7  S   UNL     1     -10.705   9.725  68.026  1.00  0.00    -0.227 S  
BRANCH   6   8
HETATM    8  S   UNL     1     -12.115  10.428  70.579  1.00  0.00    -0.347 SA 
BRANCH   8   9
HETATM    9  S   UNL     1     -11.799  12.364  69.919  1.00  0.00    -0.244 SA 
BRANCH   9  10
HETATM   10  C   UNL     1     -12.737  13.430  70.987  1.00  0.00    -0.307 C  
HETATM   11  S   UNL     1     -13.641  12.926  72.313  1.00  0.00    -0.379 S  
BRANCH  10  12
HETATM   12  N   UNL     1     -12.524  14.783  70.685  1.00  0.00    -0.324 N  
BRANCH  12  13
HETATM   13  C   UNL     1     -12.946  15.837  71.620  1.00  0.00    -0.440 C  
HETATM   14  C   UNL     1     -11.970  16.116  72.753  1.00  0.00    -0.638 C  
ENDBRANCH  12  13
BRANCH  12  15
HETATM   15  C   UNL     1     -12.026  15.173  69.357  1.00  0.00    -0.307 C  
HETATM   16  C   UNL     1     -10.922  16.215  69.388  1.00  0.00    -0.333 C  
ENDBRANCH  12  15
ENDBRANCH  10  12
ENDBRANCH   9  10
ENDBRANCH   8   9
ENDBRANCH   6   8
ENDBRANCH   3   6
ENDBRANCH   2   3
TORSDOF 9
ENDMDL
MODEL      158
REMARK 921   NORMALIZED FREE ENERGY PREDICTED BY IDOCK:   -3.12 KCAL/MOL
REMARK 922        TOTAL FREE ENERGY PREDICTED BY IDOCK:   -5.28 KCAL/MOL
REMARK 923 INTER-LIGAND FREE ENERGY PREDICTED BY IDOCK:   -4.82 KCAL/MOL
REMARK 924 INTRA-LIGAND FREE ENERGY PREDICTED BY IDOCK:   -0.46 KCAL/MOL
REMARK 927      BINDING AFFINITY PREDICTED BY RF-SCORE:    0.00 PKD
ROOT
HETATM    1  C   UNL     1     -11.302  12.190  64.926  1.00  0.00    -0.378 C  
HETATM    2  C   UNL     1     -12.144  12.828  66.027  1.00  0.00    -0.395 C  
ENDROOT
BRANCH   2   3
HETATM    3  N   UNL     1     -11.479  12.825  67.348  1.00  0.00    -0.319 N  
BRANCH   3   4
HETATM    4  C   UNL     1     -11.880  13.845  68.346  1.00  0.00    -0.374 C  
HETATM    5  C   UNL     1     -11.998  13.426  69.809  1.00  0.00    -0.396 C  
ENDBRANCH   3   4
BRANCH   3   6
HETATM    6  C   UNL     1     -10.431  11.900  67.625  1.00  0.00    -0.208 C  
HETATM    7  S   UNL     1      -8.817  12.331  67.919  1.00  0.00    -0.186 S  
BRANCH   6   8
HETATM    8  S   UNL     1     -10.905  10.181  67.794  1.00  0.00    -0.274 SA 
BRANCH   8   9
HETATM    9  S   UNL     1     -10.494   9.748  69.776  1.00  0.00    -0.269 SA 
BRANCH   9  10
HETATM   10  C   UNL     1      -9.818   8.105  69.813  1.00  0.00    -0.187 C  
HETATM   11  S   UNL     1      -8.179   7.729  69.850  1.00  0.00    -0.127 S  
BRANCH  10  12
HETATM   12  N   UNL     1     -10.821   7.135  69.956  1.00  0.00    -0.248 N  
BRANCH  12  13
HETATM   13  C   UNL     1     -10.896   5.991  69.035  1.00  0.00    -0.342 C  
HETATM   14  C   UNL     1     -10.994   6.360  67.562  1.00  0.00    -0.454 C  
ENDBRANCH  12  13
BRANCH  12  15
HETATM   15  C   UNL     1     -11.910   7.337  70.925  1.00  0.00    -0.316 C  
HETATM   16  C   UNL     1     -11.805   6.468  72.166  1.00  0.00    -0.348 C  
ENDBRANCH  12  15
ENDBRANCH  10  12
ENDBRANCH   9  10
ENDBRANCH   8   9
ENDBRANCH   6   8
ENDBRANCH   3   6
ENDBRANCH   2   3
TORSDOF 9
ENDMDL
MODEL      159
REMARK 921   NORMALIZED FREE ENERGY PREDICTED BY IDOCK:   -3.12 KCAL/MOL
REMARK 922        TOTAL FREE ENERGY PREDICTED BY IDOCK:   -5.27 KCAL/MOL
REMARK 923 INTER-LIGAND FREE ENERGY PREDICTED BY IDOCK:   -4.82 KCAL/MOL
REMARK 924 INTRA-LIGAND FREE ENERGY PREDICTED BY IDOCK:   -0.45 KCAL/MOL
REMARK 927      BINDING AFFINITY PREDICTED BY RF-SCORE:    0.00 PKD
ROOT
HETATM    1  C   UNL     1      -9.740  16.141  69.092  1.00  0.00    -0.248 C  
HETATM    2  C   UNL     1     -11.176  15.934  68.618  1.00  0.00    -0.360 C  
ENDROOT
BRANCH   2   3
HETATM    3  N   UNL     1     -11.695  14.578  68.899  1.00  0.00    -0.302 N  
BRANCH   3   4
HETATM    4  C   UNL     1     -12.453  14.354  70.153  1.00  0.00    -0.339 C  
HETATM    5  C   UNL     1     -12.991  15.569  70.905  1.00  0.00    -0.526 C  
ENDBRANCH   3   4
BRANCH   3   6
HETATM    6  C   UNL     1     -11.412  13.499  68.011  1.00  0.00    -0.307 C  
HETATM    7  S   UNL     1     -12.019  13.364  66.434  1.00  0.00    -0.403 S  
BRANCH   6   8
HETATM    8  S   UNL     1     -10.228  12.283  68.584  1.00  0.00    -0.112 SA 
BRANCH   8   9
HETATM    9  S   UNL     1     -11.243  10.487  68.409  1.00  0.00    -0.259 SA 
BRANCH   9  10
HETATM   10  C   UNL     1     -11.644   9.961  70.059  1.00  0.00    -0.175 C  
HETATM   11  S   UNL     1     -12.471  10.881  71.197  1.00  0.00    -0.403 S  
BRANCH  10  12
HETATM   12  N   UNL     1     -11.314   8.614  70.267  1.00  0.00    -0.194 N  
BRANCH  12  13
HETATM   13  C   UNL     1     -11.675   7.937  71.521  1.00  0.00    -0.283 C  
HETATM   14  C   UNL     1     -10.517   7.701  72.478  1.00  0.00    -0.323 C  
ENDBRANCH  12  13
BRANCH  12  15
HETATM   15  C   UNL     1     -10.457   7.907  69.302  1.00  0.00    -0.216 C  
HETATM   16  C   UNL     1     -11.027   6.584  68.818  1.00  0.00    -0.371 C  
ENDBRANCH  12  15
ENDBRANCH  10  12
ENDBRANCH   9  10
ENDBRANCH   8   9
ENDBRANCH   6   8
ENDBRANCH   3   6
ENDBRANCH   2   3
TORSDOF 9
ENDMDL
MODEL      160
REMARK 921   NORMALIZED FREE ENERGY PREDICTED BY IDOCK:   -3.11 KCAL/MOL
REMARK 922        TOTAL FREE ENERGY PREDICTED BY IDOCK:   -5.27 KCAL/MOL
REMARK 923 INTER-LIGAND FREE ENERGY PREDICTED BY IDOCK:   -4.79 KCAL/MOL
REMARK 924 INTRA-LIGAND FREE ENERGY PREDICTED BY IDOCK:   -0.47 KCAL/MOL
REMARK 927      BINDING AFFINITY PREDICTED BY RF-SCORE:    0.00 PKD
ROOT
HETATM    1  C   UNL     1     -10.749  14.677  66.636  1.00  0.00    -0.305 C  
HETATM    2  C   UNL     1     -11.911  13.723  66.896  1.00  0.00    -0.421 C  
ENDROOT
BRANCH   2   3
HETATM    3  N   UNL     1     -11.877  12.513  66.046  1.00  0.00    -0.423 N  
BRANCH   3   4
HETATM    4  C   UNL     1     -12.690  12.493  64.807  1.00  0.00    -0.330 C  
HETATM    5  C   UNL     1     -12.074  13.043  63.523  1.00  0.00    -0.617 C  
ENDBRANCH   3   4
BRANCH   3   6
HETATM    6  C   UNL     1     -11.128  11.369  66.451  1.00  0.00    -0.240 C  
HETATM    7  S   UNL     1      -9.995  10.565  65.479  1.00  0.00    -0.287 S  
BRANCH   6   8
HETATM    8  S   UNL     1     -11.327  10.845  68.152  1.00  0.00    -0.299 SA 
BRANCH   8   9
HETATM    9  S   UNL     1      -9.385  10.676  68.847  1.00  0.00    -0.173 SA 
BRANCH   9  10
HETATM   10  C   UNL     1      -9.080   8.945  69.107  1.00  0.00    -0.141 C  
HETATM   11  S   UNL     1      -7.799   8.075  68.453  1.00  0.00    -0.124 S  
BRANCH  10  12
HETATM   12  N   UNL     1      -9.963   8.401  70.052  1.00  0.00    -0.186 N  
BRANCH  12  13
HETATM   13  C   UNL     1     -10.943   7.376  69.661  1.00  0.00    -0.172 C  
HETATM   14  C   UNL     1     -10.476   5.940  69.849  1.00  0.00    -0.337 C  
ENDBRANCH  12  13
BRANCH  12  15
HETATM   15  C   UNL     1     -10.031   8.966  71.408  1.00  0.00    -0.308 C  
HETATM   16  C   UNL     1     -11.243   8.517  72.208  1.00  0.00    -0.432 C  
ENDBRANCH  12  15
ENDBRANCH  10  12
ENDBRANCH   9  10
ENDBRANCH   8   9
ENDBRANCH   6   8
ENDBRANCH   3   6
ENDBRANCH   2   3
TORSDOF 9
ENDMDL
MODEL      161
REMARK 921   NORMALIZED FREE ENERGY PREDICTED BY IDOCK:   -3.11 KCAL/MOL
REMARK 922        TOTAL FREE ENERGY PREDICTED BY IDOCK:   -5.26 KCAL/MOL
REMARK 923 INTER-LIGAND FREE ENERGY PREDICTED BY IDOCK:   -4.98 KCAL/MOL
REMARK 924 INTRA-LIGAND FREE ENERGY PREDICTED BY IDOCK:   -0.29 KCAL/MOL
REMARK 927      BINDING AFFINITY PREDICTED BY RF-SCORE:    0.00 PKD
ROOT
HETATM    1  C   UNL     1     -11.948  13.077  66.085  1.00  0.00    -0.488 C  
HETATM    2  C   UNL     1     -12.053  14.120  67.195  1.00  0.00    -0.397 C  
ENDROOT
BRANCH   2   3
HETATM    3  N   UNL     1     -11.504  13.655  68.487  1.00  0.00    -0.288 N  
BRANCH   3   4
HETATM    4  C   UNL     1     -10.757  12.376  68.522  1.00  0.00    -0.238 C  
HETATM    5  C   UNL     1     -11.470  11.129  69.039  1.00  0.00    -0.364 C  
ENDBRANCH   3   4
BRANCH   3   6
HETATM    6  C   UNL     1     -11.750  14.394  69.682  1.00  0.00    -0.309 C  
HETATM    7  S   UNL     1     -12.546  13.781  71.048  1.00  0.00    -0.362 S  
BRANCH   6   8
HETATM    8  S   UNL     1     -11.048  16.040  69.763  1.00  0.00    -0.355 SA 
BRANCH   8   9
HETATM    9  S   UNL     1      -9.190  15.827  68.874  1.00  0.00    -0.244 SA 
BRANCH   9  10
HETATM   10  C   UNL     1      -8.917  17.288  67.899  1.00  0.00    -0.235 C  
HETATM   11  S   UNL     1      -9.951  17.867  66.706  1.00  0.00    -0.357 S  
BRANCH  10  12
HETATM   12  N   UNL     1      -7.792  18.001  68.339  1.00  0.00    -0.287 N  
BRANCH  12  13
HETATM   13  C   UNL     1      -6.462  17.374  68.348  1.00  0.00    -0.177 C  
HETATM   14  C   UNL     1      -6.014  16.805  67.010  1.00  0.00    -0.213 C  
ENDBRANCH  12  13
BRANCH  12  15
HETATM   15  C   UNL     1      -7.953  19.328  68.953  1.00  0.00    -0.318 C  
HETATM   16  C   UNL     1      -6.650  20.081  69.157  1.00  0.00    -0.345 C  
ENDBRANCH  12  15
ENDBRANCH  10  12
ENDBRANCH   9  10
ENDBRANCH   8   9
ENDBRANCH   6   8
ENDBRANCH   3   6
ENDBRANCH   2   3
TORSDOF 9
ENDMDL
MODEL      162
REMARK 921   NORMALIZED FREE ENERGY PREDICTED BY IDOCK:   -3.09 KCAL/MOL
REMARK 922        TOTAL FREE ENERGY PREDICTED BY IDOCK:   -5.24 KCAL/MOL
REMARK 923 INTER-LIGAND FREE ENERGY PREDICTED BY IDOCK:   -4.65 KCAL/MOL
REMARK 924 INTRA-LIGAND FREE ENERGY PREDICTED BY IDOCK:   -0.59 KCAL/MOL
REMARK 927      BINDING AFFINITY PREDICTED BY RF-SCORE:    0.00 PKD
ROOT
HETATM    1  C   UNL     1      -7.798   9.660  69.573  1.00  0.00    -0.117 C  
HETATM    2  C   UNL     1      -8.684   8.464  69.237  1.00  0.00    -0.138 C  
ENDROOT
BRANCH   2   3
HETATM    3  N   UNL     1      -9.997   8.847  68.674  1.00  0.00    -0.172 N  
BRANCH   3   4
HETATM    4  C   UNL     1     -10.312   8.456  67.280  1.00  0.00    -0.299 C  
HETATM    5  C   UNL     1     -10.778   7.027  67.011  1.00  0.00    -0.423 C  
ENDBRANCH   3   4
BRANCH   3   6
HETATM    6  C   UNL     1     -10.908   9.632  69.440  1.00  0.00    -0.217 C  
HETATM    7  S   UNL     1     -11.183   9.443  71.103  1.00  0.00    -0.387 S  
BRANCH   6   8
HETATM    8  S   UNL     1     -11.708  10.988  68.585  1.00  0.00    -0.246 SA 
BRANCH   8   9
HETATM    9  S   UNL     1     -10.198  12.383  68.350  1.00  0.00    -0.207 SA 
BRANCH   9  10
HETATM   10  C   UNL     1     -10.871  13.710  67.378  1.00  0.00    -0.273 C  
HETATM   11  S   UNL     1     -11.024  15.306  67.885  1.00  0.00    -0.316 S  
BRANCH  10  12
HETATM   12  N   UNL     1     -11.136  13.304  66.062  1.00  0.00    -0.282 N  
BRANCH  12  13
HETATM   13  C   UNL     1     -12.422  13.621  65.422  1.00  0.00    -0.499 C  
HETATM   14  C   UNL     1     -12.351  14.681  64.334  1.00  0.00    -0.420 C  
ENDBRANCH  12  13
BRANCH  12  15
HETATM   15  C   UNL     1     -10.197  12.414  65.362  1.00  0.00    -0.278 C  
HETATM   16  C   UNL     1     -10.867  11.347  64.512  1.00  0.00    -0.375 C  
ENDBRANCH  12  15
ENDBRANCH  10  12
ENDBRANCH   9  10
ENDBRANCH   8   9
ENDBRANCH   6   8
ENDBRANCH   3   6
ENDBRANCH   2   3
TORSDOF 9
ENDMDL
MODEL      163
REMARK 921   NORMALIZED FREE ENERGY PREDICTED BY IDOCK:   -3.09 KCAL/MOL
REMARK 922        TOTAL FREE ENERGY PREDICTED BY IDOCK:   -5.24 KCAL/MOL
REMARK 923 INTER-LIGAND FREE ENERGY PREDICTED BY IDOCK:   -4.70 KCAL/MOL
REMARK 924 INTRA-LIGAND FREE ENERGY PREDICTED BY IDOCK:   -0.53 KCAL/MOL
REMARK 927      BINDING AFFINITY PREDICTED BY RF-SCORE:    0.00 PKD
ROOT
HETATM    1  C   UNL     1     -12.262  14.636  64.521  1.00  0.00    -0.473 C  
HETATM    2  C   UNL     1     -12.473  13.212  65.028  1.00  0.00    -0.460 C  
ENDROOT
BRANCH   2   3
HETATM    3  N   UNL     1     -11.279  12.645  65.694  1.00  0.00    -0.298 N  
BRANCH   3   4
HETATM    4  C   UNL     1     -10.587  11.501  65.055  1.00  0.00    -0.297 C  
HETATM    5  C   UNL     1     -10.540  11.437  63.531  1.00  0.00    -0.468 C  
ENDBRANCH   3   4
BRANCH   3   6
HETATM    6  C   UNL     1     -10.850  13.151  66.956  1.00  0.00    -0.264 C  
HETATM    7  S   UNL     1     -11.872  13.434  68.280  1.00  0.00    -0.337 S  
BRANCH   6   8
HETATM    8  S   UNL     1      -9.086  13.374  67.169  1.00  0.00    -0.242 SA 
BRANCH   8   9
HETATM    9  S   UNL     1      -8.945  14.963  68.488  1.00  0.00    -0.183 SA 
BRANCH   9  10
HETATM   10  C   UNL     1      -8.733  16.429  67.505  1.00  0.00    -0.178 C  
HETATM   11  S   UNL     1      -9.557  16.770  66.080  1.00  0.00    -0.249 S  
BRANCH  10  12
HETATM   12  N   UNL     1      -7.890  17.356  68.135  1.00  0.00    -0.225 N  
BRANCH  12  13
HETATM   13  C   UNL     1      -6.478  17.034  68.392  1.00  0.00    -0.155 C  
HETATM   14  C   UNL     1      -5.993  17.360  69.796  1.00  0.00    -0.245 C  
ENDBRANCH  12  13
BRANCH  12  15
HETATM   15  C   UNL     1      -8.446  18.598  68.694  1.00  0.00    -0.306 C  
HETATM   16  C   UNL     1      -8.045  19.854  67.939  1.00  0.00    -0.321 C  
ENDBRANCH  12  15
ENDBRANCH  10  12
ENDBRANCH   9  10
ENDBRANCH   8   9
ENDBRANCH   6   8
ENDBRANCH   3   6
ENDBRANCH   2   3
TORSDOF 9
ENDMDL
MODEL      164
REMARK 921   NORMALIZED FREE ENERGY PREDICTED BY IDOCK:   -3.09 KCAL/MOL
REMARK 922        TOTAL FREE ENERGY PREDICTED BY IDOCK:   -5.23 KCAL/MOL
REMARK 923 INTER-LIGAND FREE ENERGY PREDICTED BY IDOCK:   -4.71 KCAL/MOL
REMARK 924 INTRA-LIGAND FREE ENERGY PREDICTED BY IDOCK:   -0.52 KCAL/MOL
REMARK 927      BINDING AFFINITY PREDICTED BY RF-SCORE:    0.00 PKD
ROOT
HETATM    1  C   UNL     1      -9.406   7.983  72.930  1.00  0.00    -0.338 C  
HETATM    2  C   UNL     1     -10.525   8.437  71.998  1.00  0.00    -0.314 C  
ENDROOT
BRANCH   2   3
HETATM    3  N   UNL     1     -10.640   7.611  70.776  1.00  0.00    -0.218 N  
BRANCH   3   4
HETATM    4  C   UNL     1     -11.862   6.794  70.584  1.00  0.00    -0.387 C  
HETATM    5  C   UNL     1     -13.107   7.144  71.396  1.00  0.00    -0.408 C  
ENDBRANCH   3   4
BRANCH   3   6
HETATM    6  C   UNL     1      -9.565   7.554  69.841  1.00  0.00    -0.160 C  
HETATM    7  S   UNL     1      -8.823   6.125  69.309  1.00  0.00    -0.124 S  
BRANCH   6   8
HETATM    8  S   UNL     1      -9.071   9.107  69.097  1.00  0.00    -0.147 SA 
BRANCH   8   9
HETATM    9  S   UNL     1     -10.417   9.362  67.546  1.00  0.00    -0.274 SA 
BRANCH   9  10
HETATM   10  C   UNL     1     -11.281  10.883  67.860  1.00  0.00    -0.321 C  
HETATM   11  S   UNL     1     -11.887  11.365  69.352  1.00  0.00    -0.360 S  
BRANCH  10  12
HETATM   12  N   UNL     1     -11.279  11.721  66.735  1.00  0.00    -0.316 N  
BRANCH  12  13
HETATM   13  C   UNL     1     -10.403  11.437  65.589  1.00  0.00    -0.257 C  
HETATM   14  C   UNL     1     -11.051  11.629  64.226  1.00  0.00    -0.406 C  
ENDBRANCH  12  13
BRANCH  12  15
HETATM   15  C   UNL     1     -12.030  12.985  66.757  1.00  0.00    -0.369 C  
HETATM   16  C   UNL     1     -11.156  14.228  66.762  1.00  0.00    -0.316 C  
ENDBRANCH  12  15
ENDBRANCH  10  12
ENDBRANCH   9  10
ENDBRANCH   8   9
ENDBRANCH   6   8
ENDBRANCH   3   6
ENDBRANCH   2   3
TORSDOF 9
ENDMDL
MODEL      165
REMARK 921   NORMALIZED FREE ENERGY PREDICTED BY IDOCK:   -3.09 KCAL/MOL
REMARK 922        TOTAL FREE ENERGY PREDICTED BY IDOCK:   -5.22 KCAL/MOL
REMARK 923 INTER-LIGAND FREE ENERGY PREDICTED BY IDOCK:   -4.79 KCAL/MOL
REMARK 924 INTRA-LIGAND FREE ENERGY PREDICTED BY IDOCK:   -0.44 KCAL/MOL
REMARK 927      BINDING AFFINITY PREDICTED BY RF-SCORE:    0.00 PKD
ROOT
HETATM    1  C   UNL     1      -9.795  11.225  63.375  1.00  0.00    -0.416 C  
HETATM    2  C   UNL     1     -10.021  10.353  64.607  1.00  0.00    -0.338 C  
ENDROOT
BRANCH   2   3
HETATM    3  N   UNL     1      -9.812  11.074  65.881  1.00  0.00    -0.221 N  
BRANCH   3   4
HETATM    4  C   UNL     1      -8.424  11.326  66.335  1.00  0.00    -0.169 C  
HETATM    5  C   UNL     1      -7.439  10.160  66.347  1.00  0.00    -0.108 C  
ENDBRANCH   3   4
BRANCH   3   6
HETATM    6  C   UNL     1     -10.927  11.456  66.684  1.00  0.00    -0.285 C  
HETATM    7  S   UNL     1     -11.270  10.828  68.221  1.00  0.00    -0.304 S  
BRANCH   6   8
HETATM    8  S   UNL     1     -11.948  12.786  66.052  1.00  0.00    -0.398 SA 
BRANCH   8   9
HETATM    9  S   UNL     1     -11.387  14.421  67.190  1.00  0.00    -0.358 SA 
BRANCH   9  10
HETATM   10  C   UNL     1     -10.874  15.687  66.053  1.00  0.00    -0.275 C  
HETATM   11  S   UNL     1     -11.421  15.853  64.472  1.00  0.00    -0.149 S  
BRANCH  10  12
HETATM   12  N   UNL     1     -10.052  16.639  66.675  1.00  0.00    -0.290 N  
BRANCH  12  13
HETATM   13  C   UNL     1     -10.622  17.646  67.582  1.00  0.00    -0.362 C  
HETATM   14  C   UNL     1     -10.610  19.070  67.046  1.00  0.00    -0.543 C  
ENDBRANCH  12  13
BRANCH  12  15
HETATM   15  C   UNL     1      -8.633  16.745  66.300  1.00  0.00    -0.305 C  
HETATM   16  C   UNL     1      -7.716  15.808  67.066  1.00  0.00    -0.267 C  
ENDBRANCH  12  15
ENDBRANCH  10  12
ENDBRANCH   9  10
ENDBRANCH   8   9
ENDBRANCH   6   8
ENDBRANCH   3   6
ENDBRANCH   2   3
TORSDOF 9
ENDMDL
MODEL      166
REMARK 921   NORMALIZED FREE ENERGY PREDICTED BY IDOCK:   -3.08 KCAL/MOL
REMARK 922        TOTAL FREE ENERGY PREDICTED BY IDOCK:   -5.22 KCAL/MOL
REMARK 923 INTER-LIGAND FREE ENERGY PREDICTED BY IDOCK:   -4.68 KCAL/MOL
REMARK 924 INTRA-LIGAND FREE ENERGY PREDICTED BY IDOCK:   -0.54 KCAL/MOL
REMARK 927      BINDING AFFINITY PREDICTED BY RF-SCORE:    0.00 PKD
ROOT
HETATM    1  C   UNL     1     -10.536   6.552  67.008  1.00  0.00    -0.364 C  
HETATM    2  C   UNL     1     -10.660   8.057  66.787  1.00  0.00    -0.155 C  
ENDROOT
BRANCH   2   3
HETATM    3  N   UNL     1      -9.397   8.692  66.354  1.00  0.00    -0.194 N  
BRANCH   3   4
HETATM    4  C   UNL     1      -8.125   7.964  66.577  1.00  0.00    -0.107 C  
HETATM    5  C   UNL     1      -7.385   8.176  67.895  1.00  0.00    -0.096 C  
ENDBRANCH   3   4
BRANCH   3   6
HETATM    6  C   UNL     1      -9.403  10.004  65.797  1.00  0.00    -0.189 C  
HETATM    7  S   UNL     1      -9.592  10.350  64.147  1.00  0.00    -0.326 S  
BRANCH   6   8
HETATM    8  S   UNL     1      -9.332  11.366  66.957  1.00  0.00    -0.177 SA 
BRANCH   8   9
HETATM    9  S   UNL     1     -11.294  11.586  67.581  1.00  0.00    -0.283 SA 
BRANCH   9  10
HETATM   10  C   UNL     1     -11.688  13.313  67.437  1.00  0.00    -0.373 C  
HETATM   11  S   UNL     1     -11.830  14.387  68.723  1.00  0.00    -0.309 S  
BRANCH  10  12
HETATM   12  N   UNL     1     -11.729  13.725  66.097  1.00  0.00    -0.352 N  
BRANCH  12  13
HETATM   13  C   UNL     1     -11.163  15.020  65.692  1.00  0.00    -0.327 C  
HETATM   14  C   UNL     1      -9.645  15.104  65.753  1.00  0.00    -0.344 C  
ENDBRANCH  12  13
BRANCH  12  15
HETATM   15  C   UNL     1     -12.484  12.941  65.107  1.00  0.00    -0.501 C  
HETATM   16  C   UNL     1     -12.018  13.135  63.674  1.00  0.00    -0.580 C  
ENDBRANCH  12  15
ENDBRANCH  10  12
ENDBRANCH   9  10
ENDBRANCH   8   9
ENDBRANCH   6   8
ENDBRANCH   3   6
ENDBRANCH   2   3
TORSDOF 9
ENDMDL
MODEL      167
REMARK 921   NORMALIZED FREE ENERGY PREDICTED BY IDOCK:   -3.08 KCAL/MOL
REMARK 922        TOTAL FREE ENERGY PREDICTED BY IDOCK:   -5.22 KCAL/MOL
REMARK 923 INTER-LIGAND FREE ENERGY PREDICTED BY IDOCK:   -5.28 KCAL/MOL
REMARK 924 INTRA-LIGAND FREE ENERGY PREDICTED BY IDOCK:    0.06 KCAL/MOL
REMARK 927      BINDING AFFINITY PREDICTED BY RF-SCORE:    0.00 PKD
ROOT
HETATM    1  C   UNL     1      -8.570  11.295  65.951  1.00  0.00    -0.096 C  
HETATM    2  C   UNL     1      -9.939  10.755  65.548  1.00  0.00    -0.263 C  
ENDROOT
BRANCH   2   3
HETATM    3  N   UNL     1     -10.957  11.814  65.373  1.00  0.00    -0.305 N  
BRANCH   3   4
HETATM    4  C   UNL     1     -11.308  12.240  63.997  1.00  0.00    -0.399 C  
HETATM    5  C   UNL     1     -12.672  11.843  63.437  1.00  0.00    -0.496 C  
ENDBRANCH   3   4
BRANCH   3   6
HETATM    6  C   UNL     1     -11.536  12.453  66.509  1.00  0.00    -0.371 C  
HETATM    7  S   UNL     1     -11.769  11.713  68.017  1.00  0.00    -0.237 S  
BRANCH   6   8
HETATM    8  S   UNL     1     -11.916  14.194  66.339  1.00  0.00    -0.439 SA 
BRANCH   8   9
HETATM    9  S   UNL     1     -10.188  15.000  65.533  1.00  0.00    -0.393 SA 
BRANCH   9  10
HETATM   10  C   UNL     1      -9.384  15.899  66.838  1.00  0.00    -0.225 C  
HETATM   11  S   UNL     1      -7.834  15.595  67.414  1.00  0.00    -0.202 S  
BRANCH  10  12
HETATM   12  N   UNL     1     -10.142  17.005  67.249  1.00  0.00    -0.287 N  
BRANCH  12  13
HETATM   13  C   UNL     1     -10.822  17.007  68.552  1.00  0.00    -0.310 C  
HETATM   14  C   UNL     1     -10.270  16.014  69.564  1.00  0.00    -0.274 C  
ENDBRANCH  12  13
BRANCH  12  15
HETATM   15  C   UNL     1     -10.403  18.109  66.312  1.00  0.00    -0.397 C  
HETATM   16  C   UNL     1     -10.605  19.458  66.982  1.00  0.00    -0.586 C  
ENDBRANCH  12  15
ENDBRANCH  10  12
ENDBRANCH   9  10
ENDBRANCH   8   9
ENDBRANCH   6   8
ENDBRANCH   3   6
ENDBRANCH   2   3
TORSDOF 9
ENDMDL
MODEL      168
REMARK 921   NORMALIZED FREE ENERGY PREDICTED BY IDOCK:   -3.07 KCAL/MOL
REMARK 922        TOTAL FREE ENERGY PREDICTED BY IDOCK:   -5.20 KCAL/MOL
REMARK 923 INTER-LIGAND FREE ENERGY PREDICTED BY IDOCK:   -4.75 KCAL/MOL
REMARK 924 INTRA-LIGAND FREE ENERGY PREDICTED BY IDOCK:   -0.45 KCAL/MOL
REMARK 927      BINDING AFFINITY PREDICTED BY RF-SCORE:    0.00 PKD
ROOT
HETATM    1  C   UNL     1     -10.910  19.490  67.325  1.00  0.00    -0.557 C  
HETATM    2  C   UNL     1     -10.102  19.157  66.074  1.00  0.00    -0.373 C  
ENDROOT
BRANCH   2   3
HETATM    3  N   UNL     1      -8.730  18.689  66.371  1.00  0.00    -0.297 N  
BRANCH   3   4
HETATM    4  C   UNL     1      -7.585  19.480  65.862  1.00  0.00    -0.292 C  
HETATM    5  C   UNL     1      -7.097  20.668  66.687  1.00  0.00    -0.299 C  
ENDBRANCH   3   4
BRANCH   3   6
HETATM    6  C   UNL     1      -8.523  17.466  67.075  1.00  0.00    -0.225 C  
HETATM    7  S   UNL     1      -7.751  17.339  68.579  1.00  0.00    -0.269 S  
BRANCH   6   8
HETATM    8  S   UNL     1      -9.250  15.996  66.355  1.00  0.00    -0.334 SA 
BRANCH   8   9
HETATM    9  S   UNL     1      -9.674  14.803  67.992  1.00  0.00    -0.217 SA 
BRANCH   9  10
HETATM   10  C   UNL     1     -10.764  13.520  67.424  1.00  0.00    -0.263 C  
HETATM   11  S   UNL     1     -12.000  13.721  66.302  1.00  0.00    -0.449 S  
BRANCH  10  12
HETATM   12  N   UNL     1     -10.383  12.262  67.916  1.00  0.00    -0.203 N  
BRANCH  12  13
HETATM   13  C   UNL     1      -8.969  11.953  68.173  1.00  0.00    -0.185 C  
HETATM   14  C   UNL     1      -8.267  11.191  67.060  1.00  0.00    -0.146 C  
ENDBRANCH  12  13
BRANCH  12  15
HETATM   15  C   UNL     1     -11.376  11.182  68.024  1.00  0.00    -0.312 C  
HETATM   16  C   UNL     1     -11.470  10.561  69.408  1.00  0.00    -0.329 C  
ENDBRANCH  12  15
ENDBRANCH  10  12
ENDBRANCH   9  10
ENDBRANCH   8   9
ENDBRANCH   6   8
ENDBRANCH   3   6
ENDBRANCH   2   3
TORSDOF 9
ENDMDL
MODEL      169
REMARK 921   NORMALIZED FREE ENERGY PREDICTED BY IDOCK:   -3.07 KCAL/MOL
REMARK 922        TOTAL FREE ENERGY PREDICTED BY IDOCK:   -5.20 KCAL/MOL
REMARK 923 INTER-LIGAND FREE ENERGY PREDICTED BY IDOCK:   -4.73 KCAL/MOL
REMARK 924 INTRA-LIGAND FREE ENERGY PREDICTED BY IDOCK:   -0.47 KCAL/MOL
REMARK 927      BINDING AFFINITY PREDICTED BY RF-SCORE:    0.00 PKD
ROOT
HETATM    1  C   UNL     1      -8.329   9.946  69.654  1.00  0.00    -0.181 C  
HETATM    2  C   UNL     1      -9.751   9.561  69.256  1.00  0.00    -0.176 C  
ENDROOT
BRANCH   2   3
HETATM    3  N   UNL     1     -10.451  10.616  68.492  1.00  0.00    -0.180 N  
BRANCH   3   4
HETATM    4  C   UNL     1     -11.269  11.605  69.234  1.00  0.00    -0.265 C  
HETATM    5  C   UNL     1     -12.144  11.110  70.383  1.00  0.00    -0.475 C  
ENDBRANCH   3   4
BRANCH   3   6
HETATM    6  C   UNL     1     -10.389  10.636  67.067  1.00  0.00    -0.231 C  
HETATM    7  S   UNL     1      -9.706   9.411  66.115  1.00  0.00    -0.279 S  
BRANCH   6   8
HETATM    8  S   UNL     1     -11.210  12.003  66.251  1.00  0.00    -0.349 SA 
BRANCH   8   9
HETATM    9  S   UNL     1      -9.860  13.563  66.422  1.00  0.00    -0.295 SA 
BRANCH   9  10
HETATM   10  C   UNL     1     -10.722  15.042  65.946  1.00  0.00    -0.331 C  
HETATM   11  S   UNL     1     -11.832  15.158  64.688  1.00  0.00    -0.253 S  
BRANCH  10  12
HETATM   12  N   UNL     1     -10.479  16.094  66.842  1.00  0.00    -0.302 N  
BRANCH  12  13
HETATM   13  C   UNL     1     -10.109  17.429  66.350  1.00  0.00    -0.327 C  
HETATM   14  C   UNL     1     -10.517  18.581  67.256  1.00  0.00    -0.455 C  
ENDBRANCH  12  13
BRANCH  12  15
HETATM   15  C   UNL     1     -10.430  15.833  68.289  1.00  0.00    -0.259 C  
HETATM   16  C   UNL     1     -11.769  15.454  68.898  1.00  0.00    -0.377 C  
ENDBRANCH  12  15
ENDBRANCH  10  12
ENDBRANCH   9  10
ENDBRANCH   8   9
ENDBRANCH   6   8
ENDBRANCH   3   6
ENDBRANCH   2   3
TORSDOF 9
ENDMDL
MODEL      170
REMARK 921   NORMALIZED FREE ENERGY PREDICTED BY IDOCK:   -3.07 KCAL/MOL
REMARK 922        TOTAL FREE ENERGY PREDICTED BY IDOCK:   -5.20 KCAL/MOL
REMARK 923 INTER-LIGAND FREE ENERGY PREDICTED BY IDOCK:   -4.39 KCAL/MOL
REMARK 924 INTRA-LIGAND FREE ENERGY PREDICTED BY IDOCK:   -0.80 KCAL/MOL
REMARK 927      BINDING AFFINITY PREDICTED BY RF-SCORE:    0.00 PKD
ROOT
HETATM    1  C   UNL     1     -11.720  15.838  69.042  1.00  0.00    -0.405 C  
HETATM    2  C   UNL     1     -10.307  16.410  69.105  1.00  0.00    -0.289 C  
ENDROOT
BRANCH   2   3
HETATM    3  N   UNL     1      -9.598  16.364  67.807  1.00  0.00    -0.230 N  
BRANCH   3   4
HETATM    4  C   UNL     1     -10.330  16.773  66.584  1.00  0.00    -0.297 C  
HETATM    5  C   UNL     1     -10.411  18.260  66.247  1.00  0.00    -0.422 C  
ENDBRANCH   3   4
BRANCH   3   6
HETATM    6  C   UNL     1      -8.262  15.873  67.732  1.00  0.00    -0.146 C  
HETATM    7  S   UNL     1      -6.982  16.673  66.959  1.00  0.00    -0.224 S  
BRANCH   6   8
HETATM    8  S   UNL     1      -7.913  14.366  68.635  1.00  0.00    -0.139 SA 
BRANCH   8   9
HETATM    9  S   UNL     1      -8.405  12.865  67.299  1.00  0.00    -0.165 SA 
BRANCH   9  10
HETATM   10  C   UNL     1     -10.157  12.601  67.445  1.00  0.00    -0.218 C  
HETATM   11  S   UNL     1     -10.939  12.003  68.808  1.00  0.00    -0.244 S  
BRANCH  10  12
HETATM   12  N   UNL     1     -10.849  13.090  66.327  1.00  0.00    -0.277 N  
BRANCH  12  13
HETATM   13  C   UNL     1     -12.245  13.537  66.443  1.00  0.00    -0.400 C  
HETATM   14  C   UNL     1     -12.805  14.215  65.203  1.00  0.00    -0.321 C  
ENDBRANCH  12  13
BRANCH  12  15
HETATM   15  C   UNL     1     -10.241  13.008  64.990  1.00  0.00    -0.269 C  
HETATM   16  C   UNL     1     -10.261  11.615  64.382  1.00  0.00    -0.346 C  
ENDBRANCH  12  15
ENDBRANCH  10  12
ENDBRANCH   9  10
ENDBRANCH   8   9
ENDBRANCH   6   8
ENDBRANCH   3   6
ENDBRANCH   2   3
TORSDOF 9
ENDMDL
MODEL      171
REMARK 921   NORMALIZED FREE ENERGY PREDICTED BY IDOCK:   -3.06 KCAL/MOL
REMARK 922        TOTAL FREE ENERGY PREDICTED BY IDOCK:   -5.19 KCAL/MOL
REMARK 923 INTER-LIGAND FREE ENERGY PREDICTED BY IDOCK:   -4.57 KCAL/MOL
REMARK 924 INTRA-LIGAND FREE ENERGY PREDICTED BY IDOCK:   -0.62 KCAL/MOL
REMARK 927      BINDING AFFINITY PREDICTED BY RF-SCORE:    0.00 PKD
ROOT
HETATM    1  C   UNL     1      -7.351  17.919  66.112  1.00  0.00    -0.327 C  
HETATM    2  C   UNL     1      -7.751  17.273  67.435  1.00  0.00    -0.176 C  
ENDROOT
BRANCH   2   3
HETATM    3  N   UNL     1      -9.137  17.589  67.845  1.00  0.00    -0.256 N  
BRANCH   3   4
HETATM    4  C   UNL     1      -9.448  18.969  68.287  1.00  0.00    -0.348 C  
HETATM    5  C   UNL     1     -10.512  19.755  67.526  1.00  0.00    -0.569 C  
ENDBRANCH   3   4
BRANCH   3   6
HETATM    6  C   UNL     1     -10.130  16.567  67.875  1.00  0.00    -0.256 C  
HETATM    7  S   UNL     1     -10.919  16.029  69.277  1.00  0.00    -0.332 S  
BRANCH   6   8
HETATM    8  S   UNL     1     -10.652  15.912  66.292  1.00  0.00    -0.271 SA 
BRANCH   8   9
HETATM    9  S   UNL     1     -11.658  14.172  66.784  1.00  0.00    -0.410 SA 
BRANCH   9  10
HETATM   10  C   UNL     1     -10.528  12.829  66.506  1.00  0.00    -0.263 C  
HETATM   11  S   UNL     1     -10.237  12.095  65.022  1.00  0.00    -0.279 S  
BRANCH  10  12
HETATM   12  N   UNL     1      -9.783  12.533  67.657  1.00  0.00    -0.192 N  
BRANCH  12  13
HETATM   13  C   UNL     1     -10.330  11.653  68.700  1.00  0.00    -0.215 C  
HETATM   14  C   UNL     1     -11.229  10.538  68.190  1.00  0.00    -0.357 C  
ENDBRANCH  12  13
BRANCH  12  15
HETATM   15  C   UNL     1      -8.513  13.230  67.913  1.00  0.00    -0.177 C  
HETATM   16  C   UNL     1      -7.290  12.519  67.358  1.00  0.00    -0.147 C  
ENDBRANCH  12  15
ENDBRANCH  10  12
ENDBRANCH   9  10
ENDBRANCH   8   9
ENDBRANCH   6   8
ENDBRANCH   3   6
ENDBRANCH   2   3
TORSDOF 9
ENDMDL
MODEL      172
REMARK 921   NORMALIZED FREE ENERGY PREDICTED BY IDOCK:   -3.06 KCAL/MOL
REMARK 922        TOTAL FREE ENERGY PREDICTED BY IDOCK:   -5.19 KCAL/MOL
REMARK 923 INTER-LIGAND FREE ENERGY PREDICTED BY IDOCK:   -5.05 KCAL/MOL
REMARK 924 INTRA-LIGAND FREE ENERGY PREDICTED BY IDOCK:   -0.13 KCAL/MOL
REMARK 927      BINDING AFFINITY PREDICTED BY RF-SCORE:    0.00 PKD
ROOT
HETATM    1  C   UNL     1     -12.458  12.047  63.460  1.00  0.00    -0.654 C  
HETATM    2  C   UNL     1     -11.007  12.498  63.599  1.00  0.00    -0.456 C  
ENDROOT
BRANCH   2   3
HETATM    3  N   UNL     1     -10.673  12.989  64.954  1.00  0.00    -0.315 N  
BRANCH   3   4
HETATM    4  C   UNL     1     -10.609  12.011  66.066  1.00  0.00    -0.268 C  
HETATM    5  C   UNL     1     -11.748  11.988  67.082  1.00  0.00    -0.344 C  
ENDBRANCH   3   4
BRANCH   3   6
HETATM    6  C   UNL     1     -10.484  14.382  65.190  1.00  0.00    -0.415 C  
HETATM    7  S   UNL     1     -11.422  15.613  64.496  1.00  0.00    -0.193 S  
BRANCH   6   8
HETATM    8  S   UNL     1      -9.245  14.826  66.405  1.00  0.00    -0.236 SA 
BRANCH   8   9
HETATM    9  S   UNL     1      -9.281  16.895  66.412  1.00  0.00    -0.275 SA 
BRANCH   9  10
HETATM   10  C   UNL     1      -8.838  17.411  68.054  1.00  0.00    -0.252 C  
HETATM   11  S   UNL     1      -8.142  18.888  68.455  1.00  0.00    -0.351 S  
BRANCH  10  12
HETATM   12  N   UNL     1      -9.271  16.490  69.020  1.00  0.00    -0.257 N  
BRANCH  12  13
HETATM   13  C   UNL     1     -10.577  16.648  69.676  1.00  0.00    -0.274 C  
HETATM   14  C   UNL     1     -11.621  15.614  69.281  1.00  0.00    -0.375 C  
ENDBRANCH  12  13
BRANCH  12  15
HETATM   15  C   UNL     1      -8.355  15.448  69.508  1.00  0.00    -0.204 C  
HETATM   16  C   UNL     1      -6.884  15.760  69.288  1.00  0.00    -0.184 C  
ENDBRANCH  12  15
ENDBRANCH  10  12
ENDBRANCH   9  10
ENDBRANCH   8   9
ENDBRANCH   6   8
ENDBRANCH   3   6
ENDBRANCH   2   3
TORSDOF 9
ENDMDL
MODEL      173
REMARK 921   NORMALIZED FREE ENERGY PREDICTED BY IDOCK:   -3.06 KCAL/MOL
REMARK 922        TOTAL FREE ENERGY PREDICTED BY IDOCK:   -5.18 KCAL/MOL
REMARK 923 INTER-LIGAND FREE ENERGY PREDICTED BY IDOCK:   -4.69 KCAL/MOL
REMARK 924 INTRA-LIGAND FREE ENERGY PREDICTED BY IDOCK:   -0.49 KCAL/MOL
REMARK 927      BINDING AFFINITY PREDICTED BY RF-SCORE:    0.00 PKD
ROOT
HETATM    1  C   UNL     1     -12.542  13.905  66.005  1.00  0.00    -0.467 C  
HETATM    2  C   UNL     1     -11.673  13.933  67.259  1.00  0.00    -0.386 C  
ENDROOT
BRANCH   2   3
HETATM    3  N   UNL     1     -10.384  13.226  67.094  1.00  0.00    -0.247 N  
BRANCH   3   4
HETATM    4  C   UNL     1      -9.136  14.026  67.054  1.00  0.00    -0.246 C  
HETATM    5  C   UNL     1      -9.182  15.415  66.423  1.00  0.00    -0.339 C  
ENDBRANCH   3   4
BRANCH   3   6
HETATM    6  C   UNL     1     -10.356  11.813  66.910  1.00  0.00    -0.217 C  
HETATM    7  S   UNL     1      -9.351  11.003  65.810  1.00  0.00    -0.218 S  
BRANCH   6   8
HETATM    8  S   UNL     1     -11.371  10.842  68.021  1.00  0.00    -0.286 SA 
BRANCH   8   9
HETATM    9  S   UNL     1     -10.072  10.314  69.543  1.00  0.00    -0.218 SA 
BRANCH   9  10
HETATM   10  C   UNL     1     -11.065   9.658  70.863  1.00  0.00    -0.352 C  
HETATM   11  S   UNL     1     -12.614  10.176  71.262  1.00  0.00    -0.440 S  
BRANCH  10  12
HETATM   12  N   UNL     1     -10.462   8.541  71.458  1.00  0.00    -0.227 N  
BRANCH  12  13
HETATM   13  C   UNL     1     -11.211   7.288  71.636  1.00  0.00    -0.245 C  
HETATM   14  C   UNL     1     -11.649   6.616  70.344  1.00  0.00    -0.457 C  
ENDBRANCH  12  13
BRANCH  12  15
HETATM   15  C   UNL     1      -9.125   8.659  72.062  1.00  0.00    -0.241 C  
HETATM   16  C   UNL     1      -8.144   7.589  71.613  1.00  0.00    -0.105 C  
ENDBRANCH  12  15
ENDBRANCH  10  12
ENDBRANCH   9  10
ENDBRANCH   8   9
ENDBRANCH   6   8
ENDBRANCH   3   6
ENDBRANCH   2   3
TORSDOF 9
ENDMDL
MODEL      174
REMARK 921   NORMALIZED FREE ENERGY PREDICTED BY IDOCK:   -3.05 KCAL/MOL
REMARK 922        TOTAL FREE ENERGY PREDICTED BY IDOCK:   -5.17 KCAL/MOL
REMARK 923 INTER-LIGAND FREE ENERGY PREDICTED BY IDOCK:   -4.71 KCAL/MOL
REMARK 924 INTRA-LIGAND FREE ENERGY PREDICTED BY IDOCK:   -0.46 KCAL/MOL
REMARK 927      BINDING AFFINITY PREDICTED BY RF-SCORE:    0.00 PKD
ROOT
HETATM    1  C   UNL     1     -10.664  13.501  66.223  1.00  0.00    -0.288 C  
HETATM    2  C   UNL     1     -11.917  13.569  67.092  1.00  0.00    -0.381 C  
ENDROOT
BRANCH   2   3
HETATM    3  N   UNL     1     -11.622  13.739  68.531  1.00  0.00    -0.314 N  
BRANCH   3   4
HETATM    4  C   UNL     1     -10.899  14.957  68.968  1.00  0.00    -0.245 C  
HETATM    5  C   UNL     1     -11.362  16.310  68.433  1.00  0.00    -0.312 C  
ENDBRANCH   3   4
BRANCH   3   6
HETATM    6  C   UNL     1     -11.971  12.719  69.464  1.00  0.00    -0.276 C  
HETATM    7  S   UNL     1     -12.680  12.998  70.978  1.00  0.00    -0.182 S  
BRANCH   6   8
HETATM    8  S   UNL     1     -11.748  11.028  68.918  1.00  0.00    -0.309 SA 
BRANCH   8   9
HETATM    9  S   UNL     1     -10.592  10.176  70.408  1.00  0.00    -0.136 SA 
BRANCH   9  10
HETATM   10  C   UNL     1     -11.603   8.952  71.207  1.00  0.00    -0.304 C  
HETATM   11  S   UNL     1     -13.158   9.209  71.794  1.00  0.00    -0.421 S  
BRANCH  10  12
HETATM   12  N   UNL     1     -11.008   7.683  71.167  1.00  0.00    -0.243 N  
BRANCH  12  13
HETATM   13  C   UNL     1     -10.280   7.232  69.972  1.00  0.00    -0.201 C  
HETATM   14  C   UNL     1     -11.105   6.413  68.991  1.00  0.00    -0.424 C  
ENDBRANCH  12  13
BRANCH  12  15
HETATM   15  C   UNL     1     -11.244   6.723  72.257  1.00  0.00    -0.259 C  
HETATM   16  C   UNL     1     -10.601   7.111  73.578  1.00  0.00    -0.416 C  
ENDBRANCH  12  15
ENDBRANCH  10  12
ENDBRANCH   9  10
ENDBRANCH   8   9
ENDBRANCH   6   8
ENDBRANCH   3   6
ENDBRANCH   2   3
TORSDOF 9
ENDMDL
MODEL      175
REMARK 921   NORMALIZED FREE ENERGY PREDICTED BY IDOCK:   -3.04 KCAL/MOL
REMARK 922        TOTAL FREE ENERGY PREDICTED BY IDOCK:   -5.16 KCAL/MOL
REMARK 923 INTER-LIGAND FREE ENERGY PREDICTED BY IDOCK:   -4.57 KCAL/MOL
REMARK 924 INTRA-LIGAND FREE ENERGY PREDICTED BY IDOCK:   -0.58 KCAL/MOL
REMARK 927      BINDING AFFINITY PREDICTED BY RF-SCORE:    0.00 PKD
ROOT
HETATM    1  C   UNL     1      -5.387  20.365  70.512  1.00  0.00    -0.325 C  
HETATM    2  C   UNL     1      -6.596  19.958  69.675  1.00  0.00    -0.338 C  
ENDROOT
BRANCH   2   3
HETATM    3  N   UNL     1      -6.340  18.786  68.809  1.00  0.00    -0.228 N  
BRANCH   3   4
HETATM    4  C   UNL     1      -5.308  17.807  69.227  1.00  0.00    -0.190 C  
HETATM    5  C   UNL     1      -5.731  16.638  70.113  1.00  0.00    -0.203 C  
ENDBRANCH   3   4
BRANCH   3   6
HETATM    6  C   UNL     1      -7.027  18.643  67.568  1.00  0.00    -0.206 C  
HETATM    7  S   UNL     1      -6.641  17.497  66.379  1.00  0.00    -0.270 S  
BRANCH   6   8
HETATM    8  S   UNL     1      -8.471  19.675  67.330  1.00  0.00    -0.315 SA 
BRANCH   8   9
HETATM    9  S   UNL     1      -9.910  18.792  68.529  1.00  0.00    -0.410 SA 
BRANCH   9  10
HETATM   10  C   UNL     1     -10.323  17.237  67.775  1.00  0.00    -0.356 C  
HETATM   11  S   UNL     1     -10.390  16.946  66.120  1.00  0.00    -0.281 S  
BRANCH  10  12
HETATM   12  N   UNL     1     -10.451  16.217  68.729  1.00  0.00    -0.263 N  
BRANCH  12  13
HETATM   13  C   UNL     1      -9.261  15.596  69.329  1.00  0.00    -0.269 C  
HETATM   14  C   UNL     1      -8.399  14.799  68.361  1.00  0.00    -0.154 C  
ENDBRANCH  12  13
BRANCH  12  15
HETATM   15  C   UNL     1     -11.773  15.643  69.022  1.00  0.00    -0.395 C  
HETATM   16  C   UNL     1     -11.780  14.129  69.146  1.00  0.00    -0.368 C  
ENDBRANCH  12  15
ENDBRANCH  10  12
ENDBRANCH   9  10
ENDBRANCH   8   9
ENDBRANCH   6   8
ENDBRANCH   3   6
ENDBRANCH   2   3
TORSDOF 9
ENDMDL
MODEL      176
REMARK 921   NORMALIZED FREE ENERGY PREDICTED BY IDOCK:   -3.04 KCAL/MOL
REMARK 922        TOTAL FREE ENERGY PREDICTED BY IDOCK:   -5.15 KCAL/MOL
REMARK 923 INTER-LIGAND FREE ENERGY PREDICTED BY IDOCK:   -4.68 KCAL/MOL
REMARK 924 INTRA-LIGAND FREE ENERGY PREDICTED BY IDOCK:   -0.47 KCAL/MOL
REMARK 927      BINDING AFFINITY PREDICTED BY RF-SCORE:    0.00 PKD
ROOT
HETATM    1  C   UNL     1     -10.606  20.004  65.950  1.00  0.00    -0.459 C  
HETATM    2  C   UNL     1     -10.119  19.919  67.394  1.00  0.00    -0.430 C  
ENDROOT
BRANCH   2   3
HETATM    3  N   UNL     1      -8.739  19.400  67.517  1.00  0.00    -0.298 N  
BRANCH   3   4
HETATM    4  C   UNL     1      -7.630  20.188  66.928  1.00  0.00    -0.292 C  
HETATM    5  C   UNL     1      -7.024  19.718  65.608  1.00  0.00    -0.329 C  
ENDBRANCH   3   4
BRANCH   3   6
HETATM    6  C   UNL     1      -8.497  18.136  68.131  1.00  0.00    -0.273 C  
HETATM    7  S   UNL     1      -7.021  17.667  68.821  1.00  0.00    -0.252 S  
BRANCH   6   8
HETATM    8  S   UNL     1      -9.903  17.038  68.282  1.00  0.00    -0.294 SA 
BRANCH   8   9
HETATM    9  S   UNL     1      -9.175  15.454  69.397  1.00  0.00    -0.243 SA 
BRANCH   9  10
HETATM   10  C   UNL     1      -8.584  14.240  68.240  1.00  0.00    -0.176 C  
HETATM   11  S   UNL     1      -6.982  13.764  68.065  1.00  0.00    -0.157 S  
BRANCH  10  12
HETATM   12  N   UNL     1      -9.642  13.604  67.573  1.00  0.00    -0.215 N  
BRANCH  12  13
HETATM   13  C   UNL     1      -9.700  13.587  66.104  1.00  0.00    -0.252 C  
HETATM   14  C   UNL     1     -10.102  14.907  65.464  1.00  0.00    -0.400 C  
ENDBRANCH  12  13
BRANCH  12  15
HETATM   15  C   UNL     1     -10.791  13.089  68.333  1.00  0.00    -0.258 C  
HETATM   16  C   UNL     1     -11.841  12.398  67.481  1.00  0.00    -0.354 C  
ENDBRANCH  12  15
ENDBRANCH  10  12
ENDBRANCH   9  10
ENDBRANCH   8   9
ENDBRANCH   6   8
ENDBRANCH   3   6
ENDBRANCH   2   3
TORSDOF 9
ENDMDL
MODEL      177
REMARK 921   NORMALIZED FREE ENERGY PREDICTED BY IDOCK:   -3.02 KCAL/MOL
REMARK 922        TOTAL FREE ENERGY PREDICTED BY IDOCK:   -5.13 KCAL/MOL
REMARK 923 INTER-LIGAND FREE ENERGY PREDICTED BY IDOCK:   -4.69 KCAL/MOL
REMARK 924 INTRA-LIGAND FREE ENERGY PREDICTED BY IDOCK:   -0.44 KCAL/MOL
REMARK 927      BINDING AFFINITY PREDICTED BY RF-SCORE:    0.00 PKD
ROOT
HETATM    1  C   UNL     1     -11.405   8.420  72.396  1.00  0.00    -0.448 C  
HETATM    2  C   UNL     1     -10.300   9.015  71.528  1.00  0.00    -0.342 C  
ENDROOT
BRANCH   2   3
HETATM    3  N   UNL     1     -10.408   8.639  70.102  1.00  0.00    -0.202 N  
BRANCH   3   4
HETATM    4  C   UNL     1     -10.146   7.231  69.718  1.00  0.00    -0.194 C  
HETATM    5  C   UNL     1     -11.337   6.306  69.483  1.00  0.00    -0.475 C  
ENDBRANCH   3   4
BRANCH   3   6
HETATM    6  C   UNL     1     -10.694   9.627  69.115  1.00  0.00    -0.217 C  
HETATM    7  S   UNL     1     -10.456   9.423  67.449  1.00  0.00    -0.265 S  
BRANCH   6   8
HETATM    8  S   UNL     1     -11.477  11.131  69.694  1.00  0.00    -0.333 SA 
BRANCH   8   9
HETATM    9  S   UNL     1     -11.779  12.226  67.964  1.00  0.00    -0.321 SA 
BRANCH   9  10
HETATM   10  C   UNL     1     -11.071  13.832  68.243  1.00  0.00    -0.255 C  
HETATM   11  S   UNL     1     -11.663  14.981  69.318  1.00  0.00    -0.331 S  
BRANCH  10  12
HETATM   12  N   UNL     1      -9.857  13.988  67.559  1.00  0.00    -0.232 N  
BRANCH  12  13
HETATM   13  C   UNL     1      -9.838  14.340  66.131  1.00  0.00    -0.316 C  
HETATM   14  C   UNL     1     -10.283  15.760  65.817  1.00  0.00    -0.394 C  
ENDBRANCH  12  13
BRANCH  12  15
HETATM   15  C   UNL     1      -8.589  13.641  68.219  1.00  0.00    -0.170 C  
HETATM   16  C   UNL     1      -7.377  14.368  67.661  1.00  0.00    -0.197 C  
ENDBRANCH  12  15
ENDBRANCH  10  12
ENDBRANCH   9  10
ENDBRANCH   8   9
ENDBRANCH   6   8
ENDBRANCH   3   6
ENDBRANCH   2   3
TORSDOF 9
ENDMDL
MODEL      178
REMARK 921   NORMALIZED FREE ENERGY PREDICTED BY IDOCK:   -3.02 KCAL/MOL
REMARK 922        TOTAL FREE ENERGY PREDICTED BY IDOCK:   -5.13 KCAL/MOL
REMARK 923 INTER-LIGAND FREE ENERGY PREDICTED BY IDOCK:   -4.61 KCAL/MOL
REMARK 924 INTRA-LIGAND FREE ENERGY PREDICTED BY IDOCK:   -0.52 KCAL/MOL
REMARK 927      BINDING AFFINITY PREDICTED BY RF-SCORE:    0.00 PKD
ROOT
HETATM    1  C   UNL     1     -12.282  12.551  63.658  1.00  0.00    -0.642 C  
HETATM    2  C   UNL     1     -12.501  12.898  65.128  1.00  0.00    -0.501 C  
ENDROOT
BRANCH   2   3
HETATM    3  N   UNL     1     -11.321  13.522  65.764  1.00  0.00    -0.303 N  
BRANCH   3   4
HETATM    4  C   UNL     1     -10.480  14.437  64.956  1.00  0.00    -0.430 C  
HETATM    5  C   UNL     1     -10.923  15.889  64.803  1.00  0.00    -0.392 C  
ENDBRANCH   3   4
BRANCH   3   6
HETATM    6  C   UNL     1     -10.967  13.194  67.106  1.00  0.00    -0.268 C  
HETATM    7  S   UNL     1     -10.064  14.192  68.137  1.00  0.00    -0.244 S  
BRANCH   6   8
HETATM    8  S   UNL     1     -11.647  11.672  67.762  1.00  0.00    -0.255 SA 
BRANCH   8   9
HETATM    9  S   UNL     1     -10.041  10.789  68.725  1.00  0.00    -0.198 SA 
BRANCH   9  10
HETATM   10  C   UNL     1      -8.956  10.177  67.458  1.00  0.00    -0.131 C  
HETATM   11  S   UNL     1      -7.779  11.079  66.666  1.00  0.00    -0.155 S  
BRANCH  10  12
HETATM   12  N   UNL     1      -9.093   8.791  67.285  1.00  0.00    -0.131 N  
BRANCH  12  13
HETATM   13  C   UNL     1     -10.378   8.209  66.872  1.00  0.00    -0.331 C  
HETATM   14  C   UNL     1     -10.669   6.829  67.441  1.00  0.00    -0.405 C  
ENDBRANCH  12  13
BRANCH  12  15
HETATM   15  C   UNL     1      -7.999   7.888  67.674  1.00  0.00    -0.124 C  
HETATM   16  C   UNL     1      -7.754   7.816  69.172  1.00  0.00    -0.101 C  
ENDBRANCH  12  15
ENDBRANCH  10  12
ENDBRANCH   9  10
ENDBRANCH   8   9
ENDBRANCH   6   8
ENDBRANCH   3   6
ENDBRANCH   2   3
TORSDOF 9
ENDMDL
MODEL      179
REMARK 921   NORMALIZED FREE ENERGY PREDICTED BY IDOCK:   -3.01 KCAL/MOL
REMARK 922        TOTAL FREE ENERGY PREDICTED BY IDOCK:   -5.11 KCAL/MOL
REMARK 923 INTER-LIGAND FREE ENERGY PREDICTED BY IDOCK:   -4.49 KCAL/MOL
REMARK 924 INTRA-LIGAND FREE ENERGY PREDICTED BY IDOCK:   -0.62 KCAL/MOL
REMARK 927      BINDING AFFINITY PREDICTED BY RF-SCORE:    0.00 PKD
ROOT
HETATM    1  C   UNL     1      -9.784   9.062  66.183  1.00  0.00    -0.354 C  
HETATM    2  C   UNL     1     -10.558   8.537  67.390  1.00  0.00    -0.234 C  
ENDROOT
BRANCH   2   3
HETATM    3  N   UNL     1     -10.037   9.037  68.681  1.00  0.00    -0.184 N  
BRANCH   3   4
HETATM    4  C   UNL     1      -8.617   8.780  69.021  1.00  0.00    -0.132 C  
HETATM    5  C   UNL     1      -7.724   9.969  69.365  1.00  0.00    -0.129 C  
ENDBRANCH   3   4
BRANCH   3   6
HETATM    6  C   UNL     1     -10.905   9.692  69.603  1.00  0.00    -0.244 C  
HETATM    7  S   UNL     1     -11.067   9.275  71.239  1.00  0.00    -0.384 S  
BRANCH   6   8
HETATM    8  S   UNL     1     -11.777  11.133  68.994  1.00  0.00    -0.354 SA 
BRANCH   8   9
HETATM    9  S   UNL     1     -10.275  12.326  68.214  1.00  0.00    -0.222 SA 
BRANCH   9  10
HETATM   10  C   UNL     1     -11.063  13.522  67.162  1.00  0.00    -0.293 C  
HETATM   11  S   UNL     1     -11.976  13.163  65.796  1.00  0.00    -0.446 S  
BRANCH  10  12
HETATM   12  N   UNL     1     -10.959  14.819  67.685  1.00  0.00    -0.282 N  
BRANCH  12  13
HETATM   13  C   UNL     1      -9.816  15.678  67.342  1.00  0.00    -0.225 C  
HETATM   14  C   UNL     1     -10.115  16.763  66.319  1.00  0.00    -0.338 C  
ENDBRANCH  12  13
BRANCH  12  15
HETATM   15  C   UNL     1     -11.906  15.278  68.713  1.00  0.00    -0.307 C  
HETATM   16  C   UNL     1     -11.254  15.989  69.887  1.00  0.00    -0.361 C  
ENDBRANCH  12  15
ENDBRANCH  10  12
ENDBRANCH   9  10
ENDBRANCH   8   9
ENDBRANCH   6   8
ENDBRANCH   3   6
ENDBRANCH   2   3
TORSDOF 9
ENDMDL
MODEL      180
REMARK 921   NORMALIZED FREE ENERGY PREDICTED BY IDOCK:   -3.00 KCAL/MOL
REMARK 922        TOTAL FREE ENERGY PREDICTED BY IDOCK:   -5.10 KCAL/MOL
REMARK 923 INTER-LIGAND FREE ENERGY PREDICTED BY IDOCK:   -4.68 KCAL/MOL
REMARK 924 INTRA-LIGAND FREE ENERGY PREDICTED BY IDOCK:   -0.42 KCAL/MOL
REMARK 927      BINDING AFFINITY PREDICTED BY RF-SCORE:    0.00 PKD
ROOT
HETATM    1  C   UNL     1      -9.616  10.589  65.254  1.00  0.00    -0.303 C  
HETATM    2  C   UNL     1      -9.781  11.006  66.713  1.00  0.00    -0.193 C  
ENDROOT
BRANCH   2   3
HETATM    3  N   UNL     1     -10.519  12.277  66.878  1.00  0.00    -0.216 N  
BRANCH   3   4
HETATM    4  C   UNL     1     -11.759  12.276  67.691  1.00  0.00    -0.334 C  
HETATM    5  C   UNL     1     -11.798  11.427  68.959  1.00  0.00    -0.415 C  
ENDBRANCH   3   4
BRANCH   3   6
HETATM    6  C   UNL     1     -10.079  13.458  66.212  1.00  0.00    -0.299 C  
HETATM    7  S   UNL     1     -10.751  14.065  64.779  1.00  0.00    -0.412 S  
BRANCH   6   8
HETATM    8  S   UNL     1      -8.810  14.415  67.038  1.00  0.00    -0.226 SA 
BRANCH   8   9
HETATM    9  S   UNL     1      -9.036  16.316  66.252  1.00  0.00    -0.339 SA 
BRANCH   9  10
HETATM   10  C   UNL     1      -9.360  17.402  67.621  1.00  0.00    -0.245 C  
HETATM   11  S   UNL     1     -10.495  17.128  68.831  1.00  0.00    -0.321 S  
BRANCH  10  12
HETATM   12  N   UNL     1      -8.450  18.469  67.662  1.00  0.00    -0.261 N  
BRANCH  12  13
HETATM   13  C   UNL     1      -7.455  18.565  68.741  1.00  0.00    -0.286 C  
HETATM   14  C   UNL     1      -6.346  17.526  68.684  1.00  0.00    -0.186 C  
ENDBRANCH  12  13
BRANCH  12  15
HETATM   15  C   UNL     1      -8.585  19.591  66.721  1.00  0.00    -0.318 C  
HETATM   16  C   UNL     1      -7.310  19.927  65.966  1.00  0.00    -0.324 C  
ENDBRANCH  12  15
ENDBRANCH  10  12
ENDBRANCH   9  10
ENDBRANCH   8   9
ENDBRANCH   6   8
ENDBRANCH   3   6
ENDBRANCH   2   3
TORSDOF 9
ENDMDL
MODEL      181
REMARK 921   NORMALIZED FREE ENERGY PREDICTED BY IDOCK:   -3.00 KCAL/MOL
REMARK 922        TOTAL FREE ENERGY PREDICTED BY IDOCK:   -5.09 KCAL/MOL
REMARK 923 INTER-LIGAND FREE ENERGY PREDICTED BY IDOCK:   -4.57 KCAL/MOL
REMARK 924 INTRA-LIGAND FREE ENERGY PREDICTED BY IDOCK:   -0.52 KCAL/MOL
REMARK 927      BINDING AFFINITY PREDICTED BY RF-SCORE:    0.00 PKD
ROOT
HETATM    1  C   UNL     1      -8.014   9.228  70.511  1.00  0.00    -0.188 C  
HETATM    2  C   UNL     1      -8.832   8.044  70.005  1.00  0.00    -0.143 C  
ENDROOT
BRANCH   2   3
HETATM    3  N   UNL     1     -10.203   8.414  69.590  1.00  0.00    -0.204 N  
BRANCH   3   4
HETATM    4  C   UNL     1     -11.327   8.118  70.510  1.00  0.00    -0.221 C  
HETATM    5  C   UNL     1     -11.492   8.979  71.759  1.00  0.00    -0.442 C  
ENDBRANCH   3   4
BRANCH   3   6
HETATM    6  C   UNL     1     -10.437   8.982  68.303  1.00  0.00    -0.200 C  
HETATM    7  S   UNL     1     -10.278   8.147  66.836  1.00  0.00    -0.309 S  
BRANCH   6   8
HETATM    8  S   UNL     1     -11.065  10.659  68.273  1.00  0.00    -0.291 SA 
BRANCH   8   9
HETATM    9  S   UNL     1      -9.603  11.715  67.258  1.00  0.00    -0.175 SA 
BRANCH   9  10
HETATM   10  C   UNL     1     -10.369  12.377  65.797  1.00  0.00    -0.263 C  
HETATM   11  S   UNL     1     -10.646  11.525  64.374  1.00  0.00    -0.357 S  
BRANCH  10  12
HETATM   12  N   UNL     1     -10.856  13.675  66.011  1.00  0.00    -0.275 N  
BRANCH  12  13
HETATM   13  C   UNL     1     -12.108  13.894  66.751  1.00  0.00    -0.439 C  
HETATM   14  C   UNL     1     -11.930  14.427  68.165  1.00  0.00    -0.320 C  
ENDBRANCH  12  13
BRANCH  12  15
HETATM   15  C   UNL     1     -10.209  14.823  65.357  1.00  0.00    -0.387 C  
HETATM   16  C   UNL     1      -9.114  15.473  66.184  1.00  0.00    -0.359 C  
ENDBRANCH  12  15
ENDBRANCH  10  12
ENDBRANCH   9  10
ENDBRANCH   8   9
ENDBRANCH   6   8
ENDBRANCH   3   6
ENDBRANCH   2   3
TORSDOF 9
ENDMDL
MODEL      182
REMARK 921   NORMALIZED FREE ENERGY PREDICTED BY IDOCK:   -2.98 KCAL/MOL
REMARK 922        TOTAL FREE ENERGY PREDICTED BY IDOCK:   -5.06 KCAL/MOL
REMARK 923 INTER-LIGAND FREE ENERGY PREDICTED BY IDOCK:   -4.22 KCAL/MOL
REMARK 924 INTRA-LIGAND FREE ENERGY PREDICTED BY IDOCK:   -0.84 KCAL/MOL
REMARK 927      BINDING AFFINITY PREDICTED BY RF-SCORE:    0.00 PKD
ROOT
HETATM    1  C   UNL     1      -7.752  13.944  68.743  1.00  0.00    -0.096 C  
HETATM    2  C   UNL     1      -7.676  13.123  67.459  1.00  0.00    -0.166 C  
ENDROOT
BRANCH   2   3
HETATM    3  N   UNL     1      -8.469  11.876  67.513  1.00  0.00    -0.153 N  
BRANCH   3   4
HETATM    4  C   UNL     1      -7.830  10.653  68.055  1.00  0.00    -0.105 C  
HETATM    5  C   UNL     1      -8.200  10.203  69.466  1.00  0.00    -0.176 C  
ENDBRANCH   3   4
BRANCH   3   6
HETATM    6  C   UNL     1      -9.795  11.842  66.992  1.00  0.00    -0.197 C  
HETATM    7  S   UNL     1     -10.213  11.256  65.456  1.00  0.00    -0.271 S  
BRANCH   6   8
HETATM    8  S   UNL     1     -11.105  12.340  68.107  1.00  0.00    -0.261 SA 
BRANCH   8   9
HETATM    9  S   UNL     1     -12.136  13.785  67.042  1.00  0.00    -0.354 SA 
BRANCH   9  10
HETATM   10  C   UNL     1     -10.983  15.093  66.702  1.00  0.00    -0.318 C  
HETATM   11  S   UNL     1     -10.172  15.319  65.246  1.00  0.00    -0.340 S  
BRANCH  10  12
HETATM   12  N   UNL     1     -10.926  16.020  67.753  1.00  0.00    -0.326 N  
BRANCH  12  13
HETATM   13  C   UNL     1      -9.909  17.082  67.764  1.00  0.00    -0.271 C  
HETATM   14  C   UNL     1     -10.441  18.480  67.488  1.00  0.00    -0.453 C  
ENDBRANCH  12  13
BRANCH  12  15
HETATM   15  C   UNL     1     -11.778  15.842  68.939  1.00  0.00    -0.370 C  
HETATM   16  C   UNL     1     -11.008  15.628  70.231  1.00  0.00    -0.363 C  
ENDBRANCH  12  15
ENDBRANCH  10  12
ENDBRANCH   9  10
ENDBRANCH   8   9
ENDBRANCH   6   8
ENDBRANCH   3   6
ENDBRANCH   2   3
TORSDOF 9
ENDMDL
MODEL      183
REMARK 921   NORMALIZED FREE ENERGY PREDICTED BY IDOCK:   -2.97 KCAL/MOL
REMARK 922        TOTAL FREE ENERGY PREDICTED BY IDOCK:   -5.04 KCAL/MOL
REMARK 923 INTER-LIGAND FREE ENERGY PREDICTED BY IDOCK:   -4.61 KCAL/MOL
REMARK 924 INTRA-LIGAND FREE ENERGY PREDICTED BY IDOCK:   -0.43 KCAL/MOL
REMARK 927      BINDING AFFINITY PREDICTED BY RF-SCORE:    0.00 PKD
ROOT
HETATM    1  C   UNL     1     -10.704  15.239  69.908  1.00  0.00    -0.300 C  
HETATM    2  C   UNL     1     -12.032  14.624  69.477  1.00  0.00    -0.319 C  
ENDROOT
BRANCH   2   3
HETATM    3  N   UNL     1     -12.321  13.332  70.137  1.00  0.00    -0.276 N  
BRANCH   3   4
HETATM    4  C   UNL     1     -12.951  13.346  71.478  1.00  0.00    -0.341 C  
HETATM    5  C   UNL     1     -13.958  14.448  71.798  1.00  0.00    -0.537 C  
ENDBRANCH   3   4
BRANCH   3   6
HETATM    6  C   UNL     1     -11.938  12.106  69.519  1.00  0.00    -0.275 C  
HETATM    7  S   UNL     1     -11.334  11.969  67.940  1.00  0.00    -0.330 S  
BRANCH   6   8
HETATM    8  S   UNL     1     -11.988  10.642  70.549  1.00  0.00    -0.379 SA 
BRANCH   8   9
HETATM    9  S   UNL     1     -10.613   9.370  69.668  1.00  0.00    -0.231 SA 
BRANCH   9  10
HETATM   10  C   UNL     1     -10.189   8.149  70.887  1.00  0.00    -0.189 C  
HETATM   11  S   UNL     1     -10.066   8.428  72.541  1.00  0.00    -0.250 S  
BRANCH  10  12
HETATM   12  N   UNL     1     -10.105   6.866  70.326  1.00  0.00    -0.182 N  
BRANCH  12  13
HETATM   13  C   UNL     1     -11.196   6.336  69.495  1.00  0.00    -0.430 C  
HETATM   14  C   UNL     1     -10.780   5.887  68.103  1.00  0.00    -0.329 C  
ENDBRANCH  12  13
BRANCH  12  15
HETATM   15  C   UNL     1      -8.998   5.970  70.696  1.00  0.00    -0.146 C  
HETATM   16  C   UNL     1      -7.619   6.516  70.366  1.00  0.00    -0.096 C  
ENDBRANCH  12  15
ENDBRANCH  10  12
ENDBRANCH   9  10
ENDBRANCH   8   9
ENDBRANCH   6   8
ENDBRANCH   3   6
ENDBRANCH   2   3
TORSDOF 9
ENDMDL
MODEL      184
REMARK 921   NORMALIZED FREE ENERGY PREDICTED BY IDOCK:   -2.97 KCAL/MOL
REMARK 922        TOTAL FREE ENERGY PREDICTED BY IDOCK:   -5.04 KCAL/MOL
REMARK 923 INTER-LIGAND FREE ENERGY PREDICTED BY IDOCK:   -4.52 KCAL/MOL
REMARK 924 INTRA-LIGAND FREE ENERGY PREDICTED BY IDOCK:   -0.53 KCAL/MOL
REMARK 927      BINDING AFFINITY PREDICTED BY RF-SCORE:    0.00 PKD
ROOT
HETATM    1  C   UNL     1     -10.372   5.077  66.914  1.00  0.00    -0.267 C  
HETATM    2  C   UNL     1     -10.932   6.479  67.141  1.00  0.00    -0.408 C  
ENDROOT
BRANCH   2   3
HETATM    3  N   UNL     1     -10.705   6.984  68.513  1.00  0.00    -0.200 N  
BRANCH   3   4
HETATM    4  C   UNL     1     -11.406   6.321  69.638  1.00  0.00    -0.422 C  
HETATM    5  C   UNL     1     -10.807   6.434  71.038  1.00  0.00    -0.314 C  
ENDBRANCH   3   4
BRANCH   3   6
HETATM    6  C   UNL     1      -9.880   8.126  68.733  1.00  0.00    -0.176 C  
HETATM    7  S   UNL     1      -8.185   8.117  68.676  1.00  0.00    -0.126 S  
BRANCH   6   8
HETATM    8  S   UNL     1     -10.724   9.690  68.957  1.00  0.00    -0.185 SA 
BRANCH   8   9
HETATM    9  S   UNL     1     -10.783  10.496  67.052  1.00  0.00    -0.220 SA 
BRANCH   9  10
HETATM   10  C   UNL     1     -10.445  12.233  67.219  1.00  0.00    -0.218 C  
HETATM   11  S   UNL     1      -8.931  12.905  67.508  1.00  0.00    -0.204 S  
BRANCH  10  12
HETATM   12  N   UNL     1     -11.578  13.010  66.935  1.00  0.00    -0.346 N  
BRANCH  12  13
HETATM   13  C   UNL     1     -12.148  13.906  67.953  1.00  0.00    -0.283 C  
HETATM   14  C   UNL     1     -12.134  13.355  69.371  1.00  0.00    -0.321 C  
ENDBRANCH  12  13
BRANCH  12  15
HETATM   15  C   UNL     1     -12.309  12.816  65.673  1.00  0.00    -0.382 C  
HETATM   16  C   UNL     1     -11.827  13.699  64.534  1.00  0.00    -0.445 C  
ENDBRANCH  12  15
ENDBRANCH  10  12
ENDBRANCH   9  10
ENDBRANCH   8   9
ENDBRANCH   6   8
ENDBRANCH   3   6
ENDBRANCH   2   3
TORSDOF 9
ENDMDL
MODEL      185
REMARK 921   NORMALIZED FREE ENERGY PREDICTED BY IDOCK:   -2.97 KCAL/MOL
REMARK 922        TOTAL FREE ENERGY PREDICTED BY IDOCK:   -5.04 KCAL/MOL
REMARK 923 INTER-LIGAND FREE ENERGY PREDICTED BY IDOCK:   -4.52 KCAL/MOL
REMARK 924 INTRA-LIGAND FREE ENERGY PREDICTED BY IDOCK:   -0.52 KCAL/MOL
REMARK 927      BINDING AFFINITY PREDICTED BY RF-SCORE:    0.00 PKD
ROOT
HETATM    1  C   UNL     1      -8.856   9.537  64.602  1.00  0.00    -0.250 C  
HETATM    2  C   UNL     1     -10.135   9.851  65.373  1.00  0.00    -0.200 C  
ENDROOT
BRANCH   2   3
HETATM    3  N   UNL     1     -10.120   9.344  66.763  1.00  0.00    -0.240 N  
BRANCH   3   4
HETATM    4  C   UNL     1      -9.594   7.982  67.015  1.00  0.00    -0.196 C  
HETATM    5  C   UNL     1     -10.564   6.804  66.955  1.00  0.00    -0.405 C  
ENDBRANCH   3   4
BRANCH   3   6
HETATM    6  C   UNL     1     -10.663  10.129  67.822  1.00  0.00    -0.277 C  
HETATM    7  S   UNL     1     -10.542   9.743  69.469  1.00  0.00    -0.247 S  
BRANCH   6   8
HETATM    8  S   UNL     1     -11.407  11.691  67.359  1.00  0.00    -0.287 SA 
BRANCH   8   9
HETATM    9  S   UNL     1      -9.998  13.097  67.925  1.00  0.00    -0.239 SA 
BRANCH   9  10
HETATM   10  C   UNL     1     -10.531  14.656  67.258  1.00  0.00    -0.266 C  
HETATM   11  S   UNL     1     -10.869  14.955  65.639  1.00  0.00    -0.360 S  
BRANCH  10  12
HETATM   12  N   UNL     1     -10.781  15.593  68.271  1.00  0.00    -0.272 N  
BRANCH  12  13
HETATM   13  C   UNL     1     -10.067  16.878  68.298  1.00  0.00    -0.302 C  
HETATM   14  C   UNL     1      -8.551  16.769  68.245  1.00  0.00    -0.226 C  
ENDBRANCH  12  13
BRANCH  12  15
HETATM   15  C   UNL     1     -11.641  15.236  69.410  1.00  0.00    -0.330 C  
HETATM   16  C   UNL     1     -11.339  16.010  70.683  1.00  0.00    -0.424 C  
ENDBRANCH  12  15
ENDBRANCH  10  12
ENDBRANCH   9  10
ENDBRANCH   8   9
ENDBRANCH   6   8
ENDBRANCH   3   6
ENDBRANCH   2   3
TORSDOF 9
ENDMDL
MODEL      186
REMARK 921   NORMALIZED FREE ENERGY PREDICTED BY IDOCK:   -2.96 KCAL/MOL
REMARK 922        TOTAL FREE ENERGY PREDICTED BY IDOCK:   -5.03 KCAL/MOL
REMARK 923 INTER-LIGAND FREE ENERGY PREDICTED BY IDOCK:   -4.46 KCAL/MOL
REMARK 924 INTRA-LIGAND FREE ENERGY PREDICTED BY IDOCK:   -0.57 KCAL/MOL
REMARK 927      BINDING AFFINITY PREDICTED BY RF-SCORE:    0.00 PKD
ROOT
HETATM    1  C   UNL     1      -9.349   3.256  69.067  1.00  0.00    -0.234 C  
HETATM    2  C   UNL     1      -9.909   4.599  69.526  1.00  0.00    -0.216 C  
ENDROOT
BRANCH   2   3
HETATM    3  N   UNL     1      -9.436   5.740  68.711  1.00  0.00    -0.121 N  
BRANCH   3   4
HETATM    4  C   UNL     1      -9.410   5.595  67.236  1.00  0.00    -0.113 C  
HETATM    5  C   UNL     1     -10.730   5.676  66.473  1.00  0.00    -0.296 C  
ENDBRANCH   3   4
BRANCH   3   6
HETATM    6  C   UNL     1      -8.955   6.925  69.341  1.00  0.00    -0.138 C  
HETATM    7  S   UNL     1      -7.529   7.020  70.255  1.00  0.00    -0.087 S  
BRANCH   6   8
HETATM    8  S   UNL     1      -9.872   8.429  69.022  1.00  0.00    -0.188 SA 
BRANCH   8   9
HETATM    9  S   UNL     1      -9.833   9.426  70.835  1.00  0.00    -0.219 SA 
BRANCH   9  10
HETATM   10  C   UNL     1     -11.070   8.671  71.863  1.00  0.00    -0.346 C  
HETATM   11  S   UNL     1     -10.782   7.487  73.021  1.00  0.00    -0.397 S  
BRANCH  10  12
HETATM   12  N   UNL     1     -12.322   9.285  71.701  1.00  0.00    -0.348 N  
BRANCH  12  13
HETATM   13  C   UNL     1     -12.431  10.620  71.094  1.00  0.00    -0.418 C  
HETATM   14  C   UNL     1     -13.271  11.614  71.881  1.00  0.00    -0.475 C  
ENDBRANCH  12  13
BRANCH  12  15
HETATM   15  C   UNL     1     -13.525   8.671  72.284  1.00  0.00    -0.374 C  
HETATM   16  C   UNL     1     -14.282   7.761  71.333  1.00  0.00    -0.489 C  
ENDBRANCH  12  15
ENDBRANCH  10  12
ENDBRANCH   9  10
ENDBRANCH   8   9
ENDBRANCH   6   8
ENDBRANCH   3   6
ENDBRANCH   2   3
TORSDOF 9
ENDMDL
MODEL      187
REMARK 921   NORMALIZED FREE ENERGY PREDICTED BY IDOCK:   -2.96 KCAL/MOL
REMARK 922        TOTAL FREE ENERGY PREDICTED BY IDOCK:   -5.03 KCAL/MOL
REMARK 923 INTER-LIGAND FREE ENERGY PREDICTED BY IDOCK:   -4.57 KCAL/MOL
REMARK 924 INTRA-LIGAND FREE ENERGY PREDICTED BY IDOCK:   -0.46 KCAL/MOL
REMARK 927      BINDING AFFINITY PREDICTED BY RF-SCORE:    0.00 PKD
ROOT
HETATM    1  C   UNL     1     -10.898  15.990  67.874  1.00  0.00    -0.333 C  
HETATM    2  C   UNL     1     -11.876  14.834  68.072  1.00  0.00    -0.294 C  
ENDROOT
BRANCH   2   3
HETATM    3  N   UNL     1     -11.747  13.777  67.045  1.00  0.00    -0.367 N  
BRANCH   3   4
HETATM    4  C   UNL     1     -12.528  13.907  65.792  1.00  0.00    -0.495 C  
HETATM    5  C   UNL     1     -12.569  12.720  64.833  1.00  0.00    -0.541 C  
ENDBRANCH   3   4
BRANCH   3   6
HETATM    6  C   UNL     1     -10.939  12.628  67.290  1.00  0.00    -0.256 C  
HETATM    7  S   UNL     1      -9.335  12.449  66.771  1.00  0.00    -0.223 S  
BRANCH   6   8
HETATM    8  S   UNL     1     -11.653  11.357  68.330  1.00  0.00    -0.309 SA 
BRANCH   8   9
HETATM    9  S   UNL     1     -10.006  10.392  69.130  1.00  0.00    -0.228 SA 
BRANCH   9  10
HETATM   10  C   UNL     1     -10.040   8.724  68.516  1.00  0.00    -0.189 C  
HETATM   11  S   UNL     1     -10.231   8.286  66.905  1.00  0.00    -0.312 S  
BRANCH  10  12
HETATM   12  N   UNL     1      -9.741   7.796  69.525  1.00  0.00    -0.164 N  
BRANCH  12  13
HETATM   13  C   UNL     1      -8.491   7.896  70.292  1.00  0.00    -0.128 C  
HETATM   14  C   UNL     1      -7.257   7.369  69.575  1.00  0.00    -0.082 C  
ENDBRANCH  12  13
BRANCH  12  15
HETATM   15  C   UNL     1     -10.597   6.614  69.717  1.00  0.00    -0.228 C  
HETATM   16  C   UNL     1     -11.805   6.860  70.604  1.00  0.00    -0.418 C  
ENDBRANCH  12  15
ENDBRANCH  10  12
ENDBRANCH   9  10
ENDBRANCH   8   9
ENDBRANCH   6   8
ENDBRANCH   3   6
ENDBRANCH   2   3
TORSDOF 9
ENDMDL
MODEL      188
REMARK 921   NORMALIZED FREE ENERGY PREDICTED BY IDOCK:   -2.96 KCAL/MOL
REMARK 922        TOTAL FREE ENERGY PREDICTED BY IDOCK:   -5.03 KCAL/MOL
REMARK 923 INTER-LIGAND FREE ENERGY PREDICTED BY IDOCK:   -4.38 KCAL/MOL
REMARK 924 INTRA-LIGAND FREE ENERGY PREDICTED BY IDOCK:   -0.65 KCAL/MOL
REMARK 927      BINDING AFFINITY PREDICTED BY RF-SCORE:    0.00 PKD
ROOT
HETATM    1  C   UNL     1     -13.843   9.090  72.210  1.00  0.00    -0.547 C  
HETATM    2  C   UNL     1     -12.564   9.833  71.835  1.00  0.00    -0.391 C  
ENDROOT
BRANCH   2   3
HETATM    3  N   UNL     1     -11.600   8.998  71.086  1.00  0.00    -0.288 N  
BRANCH   3   4
HETATM    4  C   UNL     1     -11.598   7.534  71.320  1.00  0.00    -0.281 C  
HETATM    5  C   UNL     1     -11.653   6.604  70.111  1.00  0.00    -0.446 C  
ENDBRANCH   3   4
BRANCH   3   6
HETATM    6  C   UNL     1     -10.652   9.603  70.209  1.00  0.00    -0.278 C  
HETATM    7  S   UNL     1      -8.976   9.355  70.283  1.00  0.00    -0.250 S  
BRANCH   6   8
HETATM    8  S   UNL     1     -11.317  10.587  68.869  1.00  0.00    -0.230 SA 
BRANCH   8   9
HETATM    9  S   UNL     1      -9.640  11.164  67.802  1.00  0.00    -0.175 SA 
BRANCH   9  10
HETATM   10  C   UNL     1      -9.958  10.778  66.097  1.00  0.00    -0.232 C  
HETATM   11  S   UNL     1     -10.901  11.697  65.051  1.00  0.00    -0.269 S  
BRANCH  10  12
HETATM   12  N   UNL     1      -9.206   9.674  65.668  1.00  0.00    -0.197 N  
BRANCH  12  13
HETATM   13  C   UNL     1      -8.835   9.522  64.253  1.00  0.00    -0.213 C  
HETATM   14  C   UNL     1      -7.350   9.669  63.961  1.00  0.00    -0.121 C  
ENDBRANCH  12  13
BRANCH  12  15
HETATM   15  C   UNL     1      -8.919   8.571  66.597  1.00  0.00    -0.148 C  
HETATM   16  C   UNL     1     -10.064   7.588  66.768  1.00  0.00    -0.313 C  
ENDBRANCH  12  15
ENDBRANCH  10  12
ENDBRANCH   9  10
ENDBRANCH   8   9
ENDBRANCH   6   8
ENDBRANCH   3   6
ENDBRANCH   2   3
TORSDOF 9
ENDMDL
MODEL      189
REMARK 921   NORMALIZED FREE ENERGY PREDICTED BY IDOCK:   -2.95 KCAL/MOL
REMARK 922        TOTAL FREE ENERGY PREDICTED BY IDOCK:   -5.02 KCAL/MOL
REMARK 923 INTER-LIGAND FREE ENERGY PREDICTED BY IDOCK:   -4.55 KCAL/MOL
REMARK 924 INTRA-LIGAND FREE ENERGY PREDICTED BY IDOCK:   -0.48 KCAL/MOL
REMARK 927      BINDING AFFINITY PREDICTED BY RF-SCORE:    0.00 PKD
ROOT
HETATM    1  C   UNL     1     -10.293  19.766  66.174  1.00  0.00    -0.627 C  
HETATM    2  C   UNL     1     -10.335  19.121  67.557  1.00  0.00    -0.432 C  
ENDROOT
BRANCH   2   3
HETATM    3  N   UNL     1      -9.301  18.081  67.749  1.00  0.00    -0.260 N  
BRANCH   3   4
HETATM    4  C   UNL     1      -7.920  18.506  68.083  1.00  0.00    -0.289 C  
HETATM    5  C   UNL     1      -7.727  19.568  69.162  1.00  0.00    -0.271 C  
ENDBRANCH   3   4
BRANCH   3   6
HETATM    6  C   UNL     1      -9.617  16.705  67.549  1.00  0.00    -0.242 C  
HETATM    7  S   UNL     1      -9.976  16.006  66.046  1.00  0.00    -0.363 S  
BRANCH   6   8
HETATM    8  S   UNL     1      -9.494  15.641  68.984  1.00  0.00    -0.261 SA 
BRANCH   8   9
HETATM    9  S   UNL     1      -8.687  13.889  68.232  1.00  0.00    -0.179 SA 
BRANCH   9  10
HETATM   10  C   UNL     1     -10.022  12.722  68.106  1.00  0.00    -0.229 C  
HETATM   11  S   UNL     1     -11.656  13.096  68.242  1.00  0.00    -0.357 S  
BRANCH  10  12
HETATM   12  N   UNL     1      -9.563  11.450  67.731  1.00  0.00    -0.169 N  
BRANCH  12  13
HETATM   13  C   UNL     1      -9.378  11.106  66.314  1.00  0.00    -0.195 C  
HETATM   14  C   UNL     1      -9.801   9.695  65.937  1.00  0.00    -0.358 C  
ENDBRANCH  12  13
BRANCH  12  15
HETATM   15  C   UNL     1      -9.419  10.391  68.742  1.00  0.00    -0.175 C  
HETATM   16  C   UNL     1      -8.000  10.208  69.253  1.00  0.00    -0.138 C  
ENDBRANCH  12  15
ENDBRANCH  10  12
ENDBRANCH   9  10
ENDBRANCH   8   9
ENDBRANCH   6   8
ENDBRANCH   3   6
ENDBRANCH   2   3
TORSDOF 9
ENDMDL
MODEL      190
REMARK 921   NORMALIZED FREE ENERGY PREDICTED BY IDOCK:   -2.95 KCAL/MOL
REMARK 922        TOTAL FREE ENERGY PREDICTED BY IDOCK:   -5.02 KCAL/MOL
REMARK 923 INTER-LIGAND FREE ENERGY PREDICTED BY IDOCK:   -4.36 KCAL/MOL
REMARK 924 INTRA-LIGAND FREE ENERGY PREDICTED BY IDOCK:   -0.66 KCAL/MOL
REMARK 927      BINDING AFFINITY PREDICTED BY RF-SCORE:    0.00 PKD
ROOT
HETATM    1  C   UNL     1     -11.783  11.127  68.263  1.00  0.00    -0.323 C  
HETATM    2  C   UNL     1     -10.402  10.588  67.899  1.00  0.00    -0.192 C  
ENDROOT
BRANCH   2   3
HETATM    3  N   UNL     1      -9.656  11.468  66.974  1.00  0.00    -0.184 N  
BRANCH   3   4
HETATM    4  C   UNL     1     -10.307  11.884  65.709  1.00  0.00    -0.248 C  
HETATM    5  C   UNL     1     -10.366  10.883  64.558  1.00  0.00    -0.417 C  
ENDBRANCH   3   4
BRANCH   3   6
HETATM    6  C   UNL     1      -8.314  11.850  67.268  1.00  0.00    -0.169 C  
HETATM    7  S   UNL     1      -6.936  11.146  66.574  1.00  0.00    -0.095 S  
BRANCH   6   8
HETATM    8  S   UNL     1      -8.104  13.259  68.354  1.00  0.00    -0.103 SA 
BRANCH   8   9
HETATM    9  S   UNL     1      -8.463  14.886  67.126  1.00  0.00    -0.226 SA 
BRANCH   9  10
HETATM   10  C   UNL     1     -10.128  15.417  67.450  1.00  0.00    -0.233 C  
HETATM   11  S   UNL     1     -11.140  14.775  68.629  1.00  0.00    -0.277 S  
BRANCH  10  12
HETATM   12  N   UNL     1     -10.466  16.550  66.695  1.00  0.00    -0.290 N  
BRANCH  12  13
HETATM   13  C   UNL     1     -10.608  16.464  65.234  1.00  0.00    -0.299 C  
HETATM   14  C   UNL     1     -11.404  15.267  64.738  1.00  0.00    -0.396 C  
ENDBRANCH  12  13
BRANCH  12  15
HETATM   15  C   UNL     1     -10.522  17.873  67.336  1.00  0.00    -0.383 C  
HETATM   16  C   UNL     1     -10.449  19.038  66.364  1.00  0.00    -0.524 C  
ENDBRANCH  12  15
ENDBRANCH  10  12
ENDBRANCH   9  10
ENDBRANCH   8   9
ENDBRANCH   6   8
ENDBRANCH   3   6
ENDBRANCH   2   3
TORSDOF 9
ENDMDL
MODEL      191
REMARK 921   NORMALIZED FREE ENERGY PREDICTED BY IDOCK:   -2.93 KCAL/MOL
REMARK 922        TOTAL FREE ENERGY PREDICTED BY IDOCK:   -4.99 KCAL/MOL
REMARK 923 INTER-LIGAND FREE ENERGY PREDICTED BY IDOCK:   -4.48 KCAL/MOL
REMARK 924 INTRA-LIGAND FREE ENERGY PREDICTED BY IDOCK:   -0.52 KCAL/MOL
REMARK 927      BINDING AFFINITY PREDICTED BY RF-SCORE:    0.00 PKD
ROOT
HETATM    1  C   UNL     1      -7.725   7.357  68.009  1.00  0.00    -0.116 C  
HETATM    2  C   UNL     1      -8.155   8.742  68.483  1.00  0.00    -0.116 C  
ENDROOT
BRANCH   2   3
HETATM    3  N   UNL     1      -9.592   9.016  68.264  1.00  0.00    -0.143 N  
BRANCH   3   4
HETATM    4  C   UNL     1     -10.184   8.686  66.946  1.00  0.00    -0.296 C  
HETATM    5  C   UNL     1      -9.778   9.523  65.735  1.00  0.00    -0.357 C  
ENDBRANCH   3   4
BRANCH   3   6
HETATM    6  C   UNL     1     -10.370   9.644  69.281  1.00  0.00    -0.209 C  
HETATM    7  S   UNL     1     -10.219   9.333  70.941  1.00  0.00    -0.309 S  
BRANCH   6   8
HETATM    8  S   UNL     1     -11.486  10.939  68.747  1.00  0.00    -0.316 SA 
BRANCH   8   9
HETATM    9  S   UNL     1     -10.228  12.517  68.288  1.00  0.00    -0.234 SA 
BRANCH   9  10
HETATM   10  C   UNL     1     -11.255  13.833  67.678  1.00  0.00    -0.293 C  
HETATM   11  S   UNL     1     -12.040  13.842  66.191  1.00  0.00    -0.462 S  
BRANCH  10  12
HETATM   12  N   UNL     1     -11.460  14.822  68.650  1.00  0.00    -0.287 N  
BRANCH  12  13
HETATM   13  C   UNL     1     -11.971  14.471  69.983  1.00  0.00    -0.330 C  
HETATM   14  C   UNL     1     -12.648  15.610  70.730  1.00  0.00    -0.482 C  
ENDBRANCH  12  13
BRANCH  12  15
HETATM   15  C   UNL     1     -11.323  16.244  68.296  1.00  0.00    -0.280 C  
HETATM   16  C   UNL     1      -9.892  16.687  68.047  1.00  0.00    -0.245 C  
ENDBRANCH  12  15
ENDBRANCH  10  12
ENDBRANCH   9  10
ENDBRANCH   8   9
ENDBRANCH   6   8
ENDBRANCH   3   6
ENDBRANCH   2   3
TORSDOF 9
ENDMDL
MODEL      192
REMARK 921   NORMALIZED FREE ENERGY PREDICTED BY IDOCK:   -2.93 KCAL/MOL
REMARK 922        TOTAL FREE ENERGY PREDICTED BY IDOCK:   -4.99 KCAL/MOL
REMARK 923 INTER-LIGAND FREE ENERGY PREDICTED BY IDOCK:   -4.46 KCAL/MOL
REMARK 924 INTRA-LIGAND FREE ENERGY PREDICTED BY IDOCK:   -0.52 KCAL/MOL
REMARK 927      BINDING AFFINITY PREDICTED BY RF-SCORE:    0.00 PKD
ROOT
HETATM    1  C   UNL     1      -7.934   9.717  69.551  1.00  0.00    -0.125 C  
HETATM    2  C   UNL     1      -9.116   9.871  68.598  1.00  0.00    -0.132 C  
ENDROOT
BRANCH   2   3
HETATM    3  N   UNL     1      -9.029  11.079  67.749  1.00  0.00    -0.138 N  
BRANCH   3   4
HETATM    4  C   UNL     1      -7.705  11.714  67.552  1.00  0.00    -0.136 C  
HETATM    5  C   UNL     1      -7.479  13.116  68.111  1.00  0.00    -0.131 C  
ENDBRANCH   3   4
BRANCH   3   6
HETATM    6  C   UNL     1     -10.209  11.653  67.190  1.00  0.00    -0.213 C  
HETATM    7  S   UNL     1     -10.636  11.573  65.551  1.00  0.00    -0.275 S  
BRANCH   6   8
HETATM    8  S   UNL     1     -11.362  12.392  68.344  1.00  0.00    -0.311 SA 
BRANCH   8   9
HETATM    9  S   UNL     1     -12.000  14.105  67.373  1.00  0.00    -0.361 SA 
BRANCH   9  10
HETATM   10  C   UNL     1     -11.493  15.482  68.376  1.00  0.00    -0.363 C  
HETATM   11  S   UNL     1     -11.665  15.584  70.045  1.00  0.00    -0.374 S  
BRANCH  10  12
HETATM   12  N   UNL     1     -10.790  16.437  67.626  1.00  0.00    -0.312 N  
BRANCH  12  13
HETATM   13  C   UNL     1     -10.306  16.122  66.274  1.00  0.00    -0.328 C  
HETATM   14  C   UNL     1      -8.802  15.928  66.161  1.00  0.00    -0.363 C  
ENDBRANCH  12  13
BRANCH  12  15
HETATM   15  C   UNL     1     -10.385  17.708  68.245  1.00  0.00    -0.384 C  
HETATM   16  C   UNL     1     -10.675  18.934  67.395  1.00  0.00    -0.519 C  
ENDBRANCH  12  15
ENDBRANCH  10  12
ENDBRANCH   9  10
ENDBRANCH   8   9
ENDBRANCH   6   8
ENDBRANCH   3   6
ENDBRANCH   2   3
TORSDOF 9
ENDMDL
MODEL      193
REMARK 921   NORMALIZED FREE ENERGY PREDICTED BY IDOCK:   -2.92 KCAL/MOL
REMARK 922        TOTAL FREE ENERGY PREDICTED BY IDOCK:   -4.97 KCAL/MOL
REMARK 923 INTER-LIGAND FREE ENERGY PREDICTED BY IDOCK:   -4.51 KCAL/MOL
REMARK 924 INTRA-LIGAND FREE ENERGY PREDICTED BY IDOCK:   -0.46 KCAL/MOL
REMARK 927      BINDING AFFINITY PREDICTED BY RF-SCORE:    0.00 PKD
ROOT
HETATM    1  C   UNL     1     -10.649  15.541  65.363  1.00  0.00    -0.428 C  
HETATM    2  C   UNL     1     -11.463  14.575  66.219  1.00  0.00    -0.358 C  
ENDROOT
BRANCH   2   3
HETATM    3  N   UNL     1     -11.222  13.154  65.888  1.00  0.00    -0.286 N  
BRANCH   3   4
HETATM    4  C   UNL     1     -12.145  12.479  64.944  1.00  0.00    -0.440 C  
HETATM    5  C   UNL     1     -11.971  12.731  63.449  1.00  0.00    -0.613 C  
ENDBRANCH   3   4
BRANCH   3   6
HETATM    6  C   UNL     1     -10.162  12.437  66.517  1.00  0.00    -0.227 C  
HETATM    7  S   UNL     1      -9.388  12.918  67.947  1.00  0.00    -0.214 S  
BRANCH   6   8
HETATM    8  S   UNL     1      -9.727  10.857  65.795  1.00  0.00    -0.238 SA 
BRANCH   8   9
HETATM    9  S   UNL     1     -10.736   9.482  66.968  1.00  0.00    -0.065 SA 
BRANCH   9  10
HETATM   10  C   UNL     1      -9.503   8.462  67.740  1.00  0.00    -0.149 C  
HETATM   11  S   UNL     1      -7.948   8.956  68.146  1.00  0.00    -0.102 S  
BRANCH  10  12
HETATM   12  N   UNL     1     -10.023   7.213  68.111  1.00  0.00    -0.147 N  
BRANCH  12  13
HETATM   13  C   UNL     1     -11.050   6.553  67.291  1.00  0.00    -0.350 C  
HETATM   14  C   UNL     1     -10.543   5.406  66.431  1.00  0.00    -0.322 C  
ENDBRANCH  12  13
BRANCH  12  15
HETATM   15  C   UNL     1      -9.668   6.624  69.412  1.00  0.00    -0.147 C  
HETATM   16  C   UNL     1     -10.801   5.861  70.078  1.00  0.00    -0.421 C  
ENDBRANCH  12  15
ENDBRANCH  10  12
ENDBRANCH   9  10
ENDBRANCH   8   9
ENDBRANCH   6   8
ENDBRANCH   3   6
ENDBRANCH   2   3
TORSDOF 9
ENDMDL
MODEL      194
REMARK 921   NORMALIZED FREE ENERGY PREDICTED BY IDOCK:   -2.91 KCAL/MOL
REMARK 922        TOTAL FREE ENERGY PREDICTED BY IDOCK:   -4.96 KCAL/MOL
REMARK 923 INTER-LIGAND FREE ENERGY PREDICTED BY IDOCK:   -4.58 KCAL/MOL
REMARK 924 INTRA-LIGAND FREE ENERGY PREDICTED BY IDOCK:   -0.38 KCAL/MOL
REMARK 927      BINDING AFFINITY PREDICTED BY RF-SCORE:    0.00 PKD
ROOT
HETATM    1  C   UNL     1      -9.308   9.459  70.228  1.00  0.00    -0.294 C  
HETATM    2  C   UNL     1     -10.626   9.148  69.524  1.00  0.00    -0.223 C  
ENDROOT
BRANCH   2   3
HETATM    3  N   UNL     1     -10.729   9.757  68.180  1.00  0.00    -0.237 N  
BRANCH   3   4
HETATM    4  C   UNL     1     -10.412   8.922  66.997  1.00  0.00    -0.256 C  
HETATM    5  C   UNL     1     -10.531   7.406  67.123  1.00  0.00    -0.403 C  
ENDBRANCH   3   4
BRANCH   3   6
HETATM    6  C   UNL     1     -11.062  11.136  68.037  1.00  0.00    -0.276 C  
HETATM    7  S   UNL     1     -11.768  12.088  69.250  1.00  0.00    -0.332 S  
BRANCH   6   8
HETATM    8  S   UNL     1     -10.573  11.921  66.504  1.00  0.00    -0.253 SA 
BRANCH   8   9
HETATM    9  S   UNL     1      -9.239  13.386  67.103  1.00  0.00    -0.247 SA 
BRANCH   9  10
HETATM   10  C   UNL     1      -9.735  14.892  66.300  1.00  0.00    -0.296 C  
HETATM   11  S   UNL     1     -10.833  15.001  65.032  1.00  0.00    -0.423 S  
BRANCH  10  12
HETATM   12  N   UNL     1      -9.208  16.020  66.945  1.00  0.00    -0.213 N  
BRANCH  12  13
HETATM   13  C   UNL     1      -8.320  16.949  66.230  1.00  0.00    -0.296 C  
HETATM   14  C   UNL     1      -6.890  16.993  66.747  1.00  0.00    -0.265 C  
ENDBRANCH  12  13
BRANCH  12  15
HETATM   15  C   UNL     1      -9.403  16.201  68.392  1.00  0.00    -0.206 C  
HETATM   16  C   UNL     1     -10.366  17.319  68.755  1.00  0.00    -0.358 C  
ENDBRANCH  12  15
ENDBRANCH  10  12
ENDBRANCH   9  10
ENDBRANCH   8   9
ENDBRANCH   6   8
ENDBRANCH   3   6
ENDBRANCH   2   3
TORSDOF 9
ENDMDL
MODEL      195
REMARK 921   NORMALIZED FREE ENERGY PREDICTED BY IDOCK:   -2.91 KCAL/MOL
REMARK 922        TOTAL FREE ENERGY PREDICTED BY IDOCK:   -4.96 KCAL/MOL
REMARK 923 INTER-LIGAND FREE ENERGY PREDICTED BY IDOCK:   -4.55 KCAL/MOL
REMARK 924 INTRA-LIGAND FREE ENERGY PREDICTED BY IDOCK:   -0.41 KCAL/MOL
REMARK 927      BINDING AFFINITY PREDICTED BY RF-SCORE:    0.00 PKD
ROOT
HETATM    1  C   UNL     1     -12.003  13.554  68.161  1.00  0.00    -0.376 C  
HETATM    2  C   UNL     1     -12.064  12.656  66.929  1.00  0.00    -0.143 C  
ENDROOT
BRANCH   2   3
HETATM    3  N   UNL     1     -10.741  12.139  66.515  1.00  0.00    -0.247 N  
BRANCH   3   4
HETATM    4  C   UNL     1     -10.583  11.616  65.137  1.00  0.00    -0.290 C  
HETATM    5  C   UNL     1     -10.804  12.569  63.966  1.00  0.00    -0.446 C  
ENDBRANCH   3   4
BRANCH   3   6
HETATM    6  C   UNL     1      -9.664  12.088  67.447  1.00  0.00    -0.182 C  
HETATM    7  S   UNL     1      -9.500  10.924  68.670  1.00  0.00    -0.191 S  
BRANCH   6   8
HETATM    8  S   UNL     1      -8.342  13.272  67.207  1.00  0.00    -0.149 SA 
BRANCH   8   9
HETATM    9  S   UNL     1      -8.918  14.896  68.353  1.00  0.00    -0.189 SA 
BRANCH   9  10
HETATM   10  C   UNL     1      -9.419  16.172  67.222  1.00  0.00    -0.226 C  
HETATM   11  S   UNL     1     -10.284  15.926  65.801  1.00  0.00    -0.384 S  
BRANCH  10  12
HETATM   12  N   UNL     1      -9.133  17.450  67.724  1.00  0.00    -0.240 N  
BRANCH  12  13
HETATM   13  C   UNL     1     -10.213  18.339  68.176  1.00  0.00    -0.387 C  
HETATM   14  C   UNL     1     -10.493  19.522  67.261  1.00  0.00    -0.590 C  
ENDBRANCH  12  13
BRANCH  12  15
HETATM   15  C   UNL     1      -7.763  17.981  67.652  1.00  0.00    -0.215 C  
HETATM   16  C   UNL     1      -6.958  17.466  66.470  1.00  0.00    -0.295 C  
ENDBRANCH  12  15
ENDBRANCH  10  12
ENDBRANCH   9  10
ENDBRANCH   8   9
ENDBRANCH   6   8
ENDBRANCH   3   6
ENDBRANCH   2   3
TORSDOF 9
ENDMDL
MODEL      196
REMARK 921   NORMALIZED FREE ENERGY PREDICTED BY IDOCK:   -2.91 KCAL/MOL
REMARK 922        TOTAL FREE ENERGY PREDICTED BY IDOCK:   -4.96 KCAL/MOL
REMARK 923 INTER-LIGAND FREE ENERGY PREDICTED BY IDOCK:   -4.51 KCAL/MOL
REMARK 924 INTRA-LIGAND FREE ENERGY PREDICTED BY IDOCK:   -0.45 KCAL/MOL
REMARK 927      BINDING AFFINITY PREDICTED BY RF-SCORE:    0.00 PKD
ROOT
HETATM    1  C   UNL     1      -8.259   5.615  70.158  1.00  0.00    -0.114 C  
HETATM    2  C   UNL     1      -8.982   6.881  70.610  1.00  0.00    -0.151 C  
ENDROOT
BRANCH   2   3
HETATM    3  N   UNL     1     -10.205   7.167  69.829  1.00  0.00    -0.202 N  
BRANCH   3   4
HETATM    4  C   UNL     1     -11.448   6.431  70.162  1.00  0.00    -0.417 C  
HETATM    5  C   UNL     1     -12.262   6.886  71.371  1.00  0.00    -0.418 C  
ENDBRANCH   3   4
BRANCH   3   6
HETATM    6  C   UNL     1     -10.165   8.083  68.737  1.00  0.00    -0.206 C  
HETATM    7  S   UNL     1     -10.379   7.654  67.111  1.00  0.00    -0.338 S  
BRANCH   6   8
HETATM    8  S   UNL     1     -10.002   9.817  69.154  1.00  0.00    -0.202 SA 
BRANCH   8   9
HETATM    9  S   UNL     1     -11.062  10.785  67.663  1.00  0.00    -0.300 SA 
BRANCH   9  10
HETATM   10  C   UNL     1      -9.866  11.582  66.617  1.00  0.00    -0.202 C  
HETATM   11  S   UNL     1      -8.241  11.164  66.506  1.00  0.00    -0.162 S  
BRANCH  10  12
HETATM   12  N   UNL     1     -10.466  12.525  65.770  1.00  0.00    -0.265 N  
BRANCH  12  13
HETATM   13  C   UNL     1     -10.367  12.393  64.309  1.00  0.00    -0.362 C  
HETATM   14  C   UNL     1     -11.665  12.639  63.555  1.00  0.00    -0.604 C  
ENDBRANCH  12  13
BRANCH  12  15
HETATM   15  C   UNL     1     -11.062  13.747  66.332  1.00  0.00    -0.308 C  
HETATM   16  C   UNL     1     -10.055  14.703  66.948  1.00  0.00    -0.255 C  
ENDBRANCH  12  15
ENDBRANCH  10  12
ENDBRANCH   9  10
ENDBRANCH   8   9
ENDBRANCH   6   8
ENDBRANCH   3   6
ENDBRANCH   2   3
TORSDOF 9
ENDMDL
MODEL      197
REMARK 921   NORMALIZED FREE ENERGY PREDICTED BY IDOCK:   -2.90 KCAL/MOL
REMARK 922        TOTAL FREE ENERGY PREDICTED BY IDOCK:   -4.94 KCAL/MOL
REMARK 923 INTER-LIGAND FREE ENERGY PREDICTED BY IDOCK:   -4.51 KCAL/MOL
REMARK 924 INTRA-LIGAND FREE ENERGY PREDICTED BY IDOCK:   -0.43 KCAL/MOL
REMARK 927      BINDING AFFINITY PREDICTED BY RF-SCORE:    0.00 PKD
ROOT
HETATM    1  C   UNL     1      -7.034  17.775  68.901  1.00  0.00    -0.250 C  
HETATM    2  C   UNL     1      -6.518  16.371  69.207  1.00  0.00    -0.197 C  
ENDROOT
BRANCH   2   3
HETATM    3  N   UNL     1      -7.164  15.319  68.393  1.00  0.00    -0.110 N  
BRANCH   3   4
HETATM    4  C   UNL     1      -6.394  14.092  68.079  1.00  0.00    -0.149 C  
HETATM    5  C   UNL     1      -6.807  12.783  68.746  1.00  0.00    -0.096 C  
ENDBRANCH   3   4
BRANCH   3   6
HETATM    6  C   UNL     1      -8.475  15.517  67.869  1.00  0.00    -0.143 C  
HETATM    7  S   UNL     1      -8.816  15.989  66.276  1.00  0.00    -0.339 S  
BRANCH   6   8
HETATM    8  S   UNL     1      -9.840  15.108  68.954  1.00  0.00    -0.237 SA 
BRANCH   8   9
HETATM    9  S   UNL     1     -11.405  14.722  67.656  1.00  0.00    -0.349 SA 
BRANCH   9  10
HETATM   10  C   UNL     1     -11.431  12.964  67.392  1.00  0.00    -0.336 C  
HETATM   11  S   UNL     1     -11.608  11.803  68.595  1.00  0.00    -0.332 S  
BRANCH  10  12
HETATM   12  N   UNL     1     -11.430  12.647  66.025  1.00  0.00    -0.347 N  
BRANCH  12  13
HETATM   13  C   UNL     1     -10.215  12.135  65.373  1.00  0.00    -0.270 C  
HETATM   14  C   UNL     1     -10.124  10.620  65.289  1.00  0.00    -0.363 C  
ENDBRANCH  12  13
BRANCH  12  15
HETATM   15  C   UNL     1     -12.597  12.975  65.191  1.00  0.00    -0.469 C  
HETATM   16  C   UNL     1     -12.273  13.175  63.721  1.00  0.00    -0.528 C  
ENDBRANCH  12  15
ENDBRANCH  10  12
ENDBRANCH   9  10
ENDBRANCH   8   9
ENDBRANCH   6   8
ENDBRANCH   3   6
ENDBRANCH   2   3
TORSDOF 9
ENDMDL
MODEL      198
REMARK 921   NORMALIZED FREE ENERGY PREDICTED BY IDOCK:   -2.90 KCAL/MOL
REMARK 922        TOTAL FREE ENERGY PREDICTED BY IDOCK:   -4.93 KCAL/MOL
REMARK 923 INTER-LIGAND FREE ENERGY PREDICTED BY IDOCK:   -4.36 KCAL/MOL
REMARK 924 INTRA-LIGAND FREE ENERGY PREDICTED BY IDOCK:   -0.57 KCAL/MOL
REMARK 927      BINDING AFFINITY PREDICTED BY RF-SCORE:    0.00 PKD
ROOT
HETATM    1  C   UNL     1      -9.155  15.842  66.106  1.00  0.00    -0.377 C  
HETATM    2  C   UNL     1     -10.579  15.373  65.824  1.00  0.00    -0.348 C  
ENDROOT
BRANCH   2   3
HETATM    3  N   UNL     1     -11.035  14.303  66.738  1.00  0.00    -0.299 N  
BRANCH   3   4
HETATM    4  C   UNL     1     -11.963  14.658  67.838  1.00  0.00    -0.264 C  
HETATM    5  C   UNL     1     -11.444  15.537  68.974  1.00  0.00    -0.361 C  
ENDBRANCH   3   4
BRANCH   3   6
HETATM    6  C   UNL     1     -10.537  12.975  66.598  1.00  0.00    -0.266 C  
HETATM    7  S   UNL     1     -10.517  12.100  65.145  1.00  0.00    -0.291 S  
BRANCH   6   8
HETATM    8  S   UNL     1      -9.769  12.252  68.046  1.00  0.00    -0.209 SA 
BRANCH   8   9
HETATM    9  S   UNL     1     -11.190  10.918  68.744  1.00  0.00    -0.295 SA 
BRANCH   9  10
HETATM   10  C   UNL     1     -10.545   9.287  68.461  1.00  0.00    -0.183 C  
HETATM   11  S   UNL     1     -10.142   8.648  66.959  1.00  0.00    -0.296 S  
BRANCH  10  12
HETATM   12  N   UNL     1     -10.268   8.624  69.666  1.00  0.00    -0.203 N  
BRANCH  12  13
HETATM   13  C   UNL     1      -8.921   8.105  69.946  1.00  0.00    -0.143 C  
HETATM   14  C   UNL     1      -8.808   6.588  69.952  1.00  0.00    -0.143 C  
ENDBRANCH  12  13
BRANCH  12  15
HETATM   15  C   UNL     1     -11.361   8.295  70.595  1.00  0.00    -0.244 C  
HETATM   16  C   UNL     1     -11.105   8.719  72.031  1.00  0.00    -0.441 C  
ENDBRANCH  12  15
ENDBRANCH  10  12
ENDBRANCH   9  10
ENDBRANCH   8   9
ENDBRANCH   6   8
ENDBRANCH   3   6
ENDBRANCH   2   3
TORSDOF 9
ENDMDL
MODEL      199
REMARK 921   NORMALIZED FREE ENERGY PREDICTED BY IDOCK:   -2.89 KCAL/MOL
REMARK 922        TOTAL FREE ENERGY PREDICTED BY IDOCK:   -4.93 KCAL/MOL
REMARK 923 INTER-LIGAND FREE ENERGY PREDICTED BY IDOCK:   -4.39 KCAL/MOL
REMARK 924 INTRA-LIGAND FREE ENERGY PREDICTED BY IDOCK:   -0.54 KCAL/MOL
REMARK 927      BINDING AFFINITY PREDICTED BY RF-SCORE:    0.00 PKD
ROOT
HETATM    1  C   UNL     1     -10.622  12.331  64.007  1.00  0.00    -0.434 C  
HETATM    2  C   UNL     1     -10.735  13.759  64.534  1.00  0.00    -0.390 C  
ENDROOT
BRANCH   2   3
HETATM    3  N   UNL     1     -10.610  13.852  66.005  1.00  0.00    -0.288 N  
BRANCH   3   4
HETATM    4  C   UNL     1     -11.781  13.494  66.840  1.00  0.00    -0.384 C  
HETATM    5  C   UNL     1     -12.097  14.355  68.060  1.00  0.00    -0.266 C  
ENDBRANCH   3   4
BRANCH   3   6
HETATM    6  C   UNL     1      -9.409  14.341  66.596  1.00  0.00    -0.284 C  
HETATM    7  S   UNL     1      -8.702  15.842  66.245  1.00  0.00    -0.293 S  
BRANCH   6   8
HETATM    8  S   UNL     1      -8.687  13.333  67.889  1.00  0.00    -0.203 SA 
BRANCH   8   9
HETATM    9  S   UNL     1      -8.710  11.422  67.095  1.00  0.00    -0.160 SA 
BRANCH   9  10
HETATM   10  C   UNL     1      -8.809  10.297  68.467  1.00  0.00    -0.127 C  
HETATM   11  S   UNL     1      -7.669  10.159  69.695  1.00  0.00    -0.164 S  
BRANCH  10  12
HETATM   12  N   UNL     1     -10.038   9.621  68.494  1.00  0.00    -0.169 N  
BRANCH  12  13
HETATM   13  C   UNL     1     -10.095   8.160  68.334  1.00  0.00    -0.200 C  
HETATM   14  C   UNL     1     -10.434   7.682  66.930  1.00  0.00    -0.388 C  
ENDBRANCH  12  13
BRANCH  12  15
HETATM   15  C   UNL     1     -11.298  10.380  68.516  1.00  0.00    -0.220 C  
HETATM   16  C   UNL     1     -11.591  11.058  69.844  1.00  0.00    -0.416 C  
ENDBRANCH  12  15
ENDBRANCH  10  12
ENDBRANCH   9  10
ENDBRANCH   8   9
ENDBRANCH   6   8
ENDBRANCH   3   6
ENDBRANCH   2   3
TORSDOF 9
ENDMDL
MODEL      200
REMARK 921   NORMALIZED FREE ENERGY PREDICTED BY IDOCK:   -2.88 KCAL/MOL
REMARK 922        TOTAL FREE ENERGY PREDICTED BY IDOCK:   -4.91 KCAL/MOL
REMARK 923 INTER-LIGAND FREE ENERGY PREDICTED BY IDOCK:   -4.61 KCAL/MOL
REMARK 924 INTRA-LIGAND FREE ENERGY PREDICTED BY IDOCK:   -0.30 KCAL/MOL
REMARK 927      BINDING AFFINITY PREDICTED BY RF-SCORE:    0.00 PKD
ROOT
HETATM    1  C   UNL     1      -9.741  11.443  63.117  1.00  0.00    -0.413 C  
HETATM    2  C   UNL     1     -10.201  10.593  64.298  1.00  0.00    -0.320 C  
ENDROOT
BRANCH   2   3
HETATM    3  N   UNL     1      -9.735  11.106  65.605  1.00  0.00    -0.215 N  
BRANCH   3   4
HETATM    4  C   UNL     1      -8.424  10.644  66.121  1.00  0.00    -0.159 C  
HETATM    5  C   UNL     1      -7.457   9.968  65.153  1.00  0.00    -0.139 C  
ENDBRANCH   3   4
BRANCH   3   6
HETATM    6  C   UNL     1     -10.563  11.973  66.376  1.00  0.00    -0.243 C  
HETATM    7  S   UNL     1     -11.888  12.837  65.765  1.00  0.00    -0.449 S  
BRANCH   6   8
HETATM    8  S   UNL     1     -10.234  12.036  68.136  1.00  0.00    -0.206 SA 
BRANCH   8   9
HETATM    9  S   UNL     1     -11.768  10.921  68.965  1.00  0.00    -0.297 SA 
BRANCH   9  10
HETATM   10  C   UNL     1     -11.029   9.451  69.637  1.00  0.00    -0.197 C  
HETATM   11  S   UNL     1      -9.821   8.545  68.897  1.00  0.00    -0.181 S  
BRANCH  10  12
HETATM   12  N   UNL     1     -11.470   9.202  70.945  1.00  0.00    -0.282 N  
BRANCH  12  13
HETATM   13  C   UNL     1     -11.019   8.008  71.675  1.00  0.00    -0.239 C  
HETATM   14  C   UNL     1      -9.923   8.259  72.699  1.00  0.00    -0.357 C  
ENDBRANCH  12  13
BRANCH  12  15
HETATM   15  C   UNL     1     -12.516  10.045  71.544  1.00  0.00    -0.419 C  
HETATM   16  C   UNL     1     -13.728   9.274  72.040  1.00  0.00    -0.493 C  
ENDBRANCH  12  15
ENDBRANCH  10  12
ENDBRANCH   9  10
ENDBRANCH   8   9
ENDBRANCH   6   8
ENDBRANCH   3   6
ENDBRANCH   2   3
TORSDOF 9
ENDMDL
MODEL      201
REMARK 921   NORMALIZED FREE ENERGY PREDICTED BY IDOCK:   -2.88 KCAL/MOL
REMARK 922        TOTAL FREE ENERGY PREDICTED BY IDOCK:   -4.90 KCAL/MOL
REMARK 923 INTER-LIGAND FREE ENERGY PREDICTED BY IDOCK:   -4.67 KCAL/MOL
REMARK 924 INTRA-LIGAND FREE ENERGY PREDICTED BY IDOCK:   -0.23 KCAL/MOL
REMARK 927      BINDING AFFINITY PREDICTED BY RF-SCORE:    0.00 PKD
ROOT
HETATM    1  C   UNL     1      -9.039  13.285  66.687  1.00  0.00    -0.181 C  
HETATM    2  C   UNL     1     -10.053  14.104  67.481  1.00  0.00    -0.236 C  
ENDROOT
BRANCH   2   3
HETATM    3  N   UNL     1     -11.376  13.453  67.588  1.00  0.00    -0.276 N  
BRANCH   3   4
HETATM    4  C   UNL     1     -12.312  13.556  66.443  1.00  0.00    -0.357 C  
HETATM    5  C   UNL     1     -12.106  12.630  65.248  1.00  0.00    -0.519 C  
ENDBRANCH   3   4
BRANCH   3   6
HETATM    6  C   UNL     1     -11.762  12.799  68.795  1.00  0.00    -0.323 C  
HETATM    7  S   UNL     1     -12.174  13.595  70.234  1.00  0.00    -0.332 S  
BRANCH   6   8
HETATM    8  S   UNL     1     -11.937  11.018  68.718  1.00  0.00    -0.102 SA 
BRANCH   8   9
HETATM    9  S   UNL     1     -10.016  10.319  69.042  1.00  0.00    -0.225 SA 
BRANCH   9  10
HETATM   10  C   UNL     1     -10.167   8.826  69.994  1.00  0.00    -0.198 C  
HETATM   11  S   UNL     1      -9.939   8.706  71.655  1.00  0.00    -0.310 S  
BRANCH  10  12
HETATM   12  N   UNL     1     -10.646   7.762  69.215  1.00  0.00    -0.216 N  
BRANCH  12  13
HETATM   13  C   UNL     1     -11.377   6.647  69.836  1.00  0.00    -0.364 C  
HETATM   14  C   UNL     1     -10.509   5.475  70.270  1.00  0.00    -0.365 C  
ENDBRANCH  12  13
BRANCH  12  15
HETATM   15  C   UNL     1     -10.282   7.666  67.793  1.00  0.00    -0.201 C  
HETATM   16  C   UNL     1     -11.024   6.580  67.033  1.00  0.00    -0.466 C  
ENDBRANCH  12  15
ENDBRANCH  10  12
ENDBRANCH   9  10
ENDBRANCH   8   9
ENDBRANCH   6   8
ENDBRANCH   3   6
ENDBRANCH   2   3
TORSDOF 9
ENDMDL
MODEL      202
REMARK 921   NORMALIZED FREE ENERGY PREDICTED BY IDOCK:   -2.85 KCAL/MOL
REMARK 922        TOTAL FREE ENERGY PREDICTED BY IDOCK:   -4.87 KCAL/MOL
REMARK 923 INTER-LIGAND FREE ENERGY PREDICTED BY IDOCK:   -4.35 KCAL/MOL
REMARK 924 INTRA-LIGAND FREE ENERGY PREDICTED BY IDOCK:   -0.52 KCAL/MOL
REMARK 927      BINDING AFFINITY PREDICTED BY RF-SCORE:    0.00 PKD
ROOT
HETATM    1  C   UNL     1     -13.313   9.471  71.594  1.00  0.00    -0.485 C  
HETATM    2  C   UNL     1     -11.816   9.710  71.418  1.00  0.00    -0.406 C  
ENDROOT
BRANCH   2   3
HETATM    3  N   UNL     1     -11.068   8.488  71.048  1.00  0.00    -0.251 N  
BRANCH   3   4
HETATM    4  C   UNL     1     -11.825   7.230  70.838  1.00  0.00    -0.316 C  
HETATM    5  C   UNL     1     -11.459   6.351  69.645  1.00  0.00    -0.446 C  
ENDBRANCH   3   4
BRANCH   3   6
HETATM    6  C   UNL     1      -9.645   8.511  70.963  1.00  0.00    -0.192 C  
HETATM    7  S   UNL     1      -8.612   7.458  71.798  1.00  0.00    -0.115 S  
BRANCH   6   8
HETATM    8  S   UNL     1      -8.934   9.661  69.788  1.00  0.00    -0.224 SA 
BRANCH   8   9
HETATM    9  S   UNL     1      -9.804   9.127  67.988  1.00  0.00    -0.176 SA 
BRANCH   9  10
HETATM   10  C   UNL     1     -10.591  10.585  67.346  1.00  0.00    -0.263 C  
HETATM   11  S   UNL     1     -11.779  11.476  68.136  1.00  0.00    -0.246 S  
BRANCH  10  12
HETATM   12  N   UNL     1     -10.002  11.005  66.144  1.00  0.00    -0.222 N  
BRANCH  12  13
HETATM   13  C   UNL     1     -10.792  11.719  65.129  1.00  0.00    -0.297 C  
HETATM   14  C   UNL     1     -10.511  13.210  65.032  1.00  0.00    -0.358 C  
ENDBRANCH  12  13
BRANCH  12  15
HETATM   15  C   UNL     1      -8.630  10.592  65.812  1.00  0.00    -0.181 C  
HETATM   16  C   UNL     1      -8.408  10.304  64.337  1.00  0.00    -0.166 C  
ENDBRANCH  12  15
ENDBRANCH  10  12
ENDBRANCH   9  10
ENDBRANCH   8   9
ENDBRANCH   6   8
ENDBRANCH   3   6
ENDBRANCH   2   3
TORSDOF 9
ENDMDL
MODEL      203
REMARK 921   NORMALIZED FREE ENERGY PREDICTED BY IDOCK:   -2.85 KCAL/MOL
REMARK 922        TOTAL FREE ENERGY PREDICTED BY IDOCK:   -4.86 KCAL/MOL
REMARK 923 INTER-LIGAND FREE ENERGY PREDICTED BY IDOCK:   -4.43 KCAL/MOL
REMARK 924 INTRA-LIGAND FREE ENERGY PREDICTED BY IDOCK:   -0.43 KCAL/MOL
REMARK 927      BINDING AFFINITY PREDICTED BY RF-SCORE:    0.00 PKD
ROOT
HETATM    1  C   UNL     1     -11.142  10.640  67.848  1.00  0.00    -0.371 C  
HETATM    2  C   UNL     1     -11.857  11.944  68.191  1.00  0.00    -0.270 C  
ENDROOT
BRANCH   2   3
HETATM    3  N   UNL     1     -11.947  12.197  69.646  1.00  0.00    -0.303 N  
BRANCH   3   4
HETATM    4  C   UNL     1     -11.793  11.052  70.576  1.00  0.00    -0.367 C  
HETATM    5  C   UNL     1     -13.038  10.263  70.971  1.00  0.00    -0.458 C  
ENDBRANCH   3   4
BRANCH   3   6
HETATM    6  C   UNL     1     -12.243  13.504  70.133  1.00  0.00    -0.330 C  
HETATM    7  S   UNL     1     -12.732  13.854  71.719  1.00  0.00    -0.271 S  
BRANCH   6   8
HETATM    8  S   UNL     1     -11.945  14.863  69.006  1.00  0.00    -0.235 SA 
BRANCH   8   9
HETATM    9  S   UNL     1     -10.168  15.683  69.679  1.00  0.00    -0.300 SA 
BRANCH   9  10
HETATM   10  C   UNL     1      -9.047  15.681  68.300  1.00  0.00    -0.187 C  
HETATM   11  S   UNL     1      -9.278  14.844  66.861  1.00  0.00    -0.260 S  
BRANCH  10  12
HETATM   12  N   UNL     1      -7.993  16.588  68.489  1.00  0.00    -0.204 N  
BRANCH  12  13
HETATM   13  C   UNL     1      -7.747  17.667  67.521  1.00  0.00    -0.201 C  
HETATM   14  C   UNL     1      -8.867  18.690  67.405  1.00  0.00    -0.284 C  
ENDBRANCH  12  13
BRANCH  12  15
HETATM   15  C   UNL     1      -7.020  16.371  69.571  1.00  0.00    -0.156 C  
HETATM   16  C   UNL     1      -5.813  17.293  69.515  1.00  0.00    -0.232 C  
ENDBRANCH  12  15
ENDBRANCH  10  12
ENDBRANCH   9  10
ENDBRANCH   8   9
ENDBRANCH   6   8
ENDBRANCH   3   6
ENDBRANCH   2   3
TORSDOF 9
ENDMDL
MODEL      204
REMARK 921   NORMALIZED FREE ENERGY PREDICTED BY IDOCK:   -2.85 KCAL/MOL
REMARK 922        TOTAL FREE ENERGY PREDICTED BY IDOCK:   -4.86 KCAL/MOL
REMARK 923 INTER-LIGAND FREE ENERGY PREDICTED BY IDOCK:   -4.34 KCAL/MOL
REMARK 924 INTRA-LIGAND FREE ENERGY PREDICTED BY IDOCK:   -0.52 KCAL/MOL
REMARK 927      BINDING AFFINITY PREDICTED BY RF-SCORE:    0.00 PKD
ROOT
HETATM    1  C   UNL     1      -9.587  10.574  63.880  1.00  0.00    -0.363 C  
HETATM    2  C   UNL     1     -10.829  11.404  64.193  1.00  0.00    -0.365 C  
ENDROOT
BRANCH   2   3
HETATM    3  N   UNL     1     -10.567  12.522  65.125  1.00  0.00    -0.285 N  
BRANCH   3   4
HETATM    4  C   UNL     1     -10.628  13.908  64.605  1.00  0.00    -0.412 C  
HETATM    5  C   UNL     1     -11.995  14.571  64.458  1.00  0.00    -0.482 C  
ENDBRANCH   3   4
BRANCH   3   6
HETATM    6  C   UNL     1     -10.198  12.260  66.478  1.00  0.00    -0.214 C  
HETATM    7  S   UNL     1      -9.034  13.136  67.346  1.00  0.00    -0.211 S  
BRANCH   6   8
HETATM    8  S   UNL     1     -11.136  10.996  67.332  1.00  0.00    -0.279 SA 
BRANCH   8   9
HETATM    9  S   UNL     1     -11.041  11.569  69.318  1.00  0.00    -0.229 SA 
BRANCH   9  10
HETATM   10  C   UNL     1     -10.945  10.077  70.279  1.00  0.00    -0.316 C  
HETATM   11  S   UNL     1     -12.167   9.474  71.263  1.00  0.00    -0.369 S  
BRANCH  10  12
HETATM   12  N   UNL     1      -9.766   9.364  70.012  1.00  0.00    -0.208 N  
BRANCH  12  13
HETATM   13  C   UNL     1      -8.499  10.071  69.775  1.00  0.00    -0.172 C  
HETATM   14  C   UNL     1      -7.623   9.468  68.687  1.00  0.00    -0.080 C  
ENDBRANCH  12  13
BRANCH  12  15
HETATM   15  C   UNL     1      -9.816   7.909  69.802  1.00  0.00    -0.179 C  
HETATM   16  C   UNL     1     -10.575   7.486  68.556  1.00  0.00    -0.172 C  
ENDBRANCH  12  15
ENDBRANCH  10  12
ENDBRANCH   9  10
ENDBRANCH   8   9
ENDBRANCH   6   8
ENDBRANCH   3   6
ENDBRANCH   2   3
TORSDOF 9
ENDMDL
MODEL      205
REMARK 921   NORMALIZED FREE ENERGY PREDICTED BY IDOCK:   -2.84 KCAL/MOL
REMARK 922        TOTAL FREE ENERGY PREDICTED BY IDOCK:   -4.85 KCAL/MOL
REMARK 923 INTER-LIGAND FREE ENERGY PREDICTED BY IDOCK:   -4.23 KCAL/MOL
REMARK 924 INTRA-LIGAND FREE ENERGY PREDICTED BY IDOCK:   -0.63 KCAL/MOL
REMARK 927      BINDING AFFINITY PREDICTED BY RF-SCORE:    0.00 PKD
ROOT
HETATM    1  C   UNL     1     -11.696  11.206  68.354  1.00  0.00    -0.349 C  
HETATM    2  C   UNL     1     -10.260  10.699  68.458  1.00  0.00    -0.175 C  
ENDROOT
BRANCH   2   3
HETATM    3  N   UNL     1      -9.525  10.753  67.175  1.00  0.00    -0.159 N  
BRANCH   3   4
HETATM    4  C   UNL     1     -10.138  10.126  65.980  1.00  0.00    -0.248 C  
HETATM    5  C   UNL     1     -10.578  11.028  64.830  1.00  0.00    -0.350 C  
ENDBRANCH   3   4
BRANCH   3   6
HETATM    6  C   UNL     1      -8.227  11.339  67.113  1.00  0.00    -0.149 C  
HETATM    7  S   UNL     1      -6.954  10.760  66.153  1.00  0.00    -0.097 S  
BRANCH   6   8
HETATM    8  S   UNL     1      -7.992  12.862  68.024  1.00  0.00    -0.170 SA 
BRANCH   8   9
HETATM    9  S   UNL     1      -9.222  14.213  67.051  1.00  0.00    -0.247 SA 
BRANCH   9  10
HETATM   10  C   UNL     1      -9.076  15.758  67.918  1.00  0.00    -0.186 C  
HETATM   11  S   UNL     1      -7.661  16.361  68.597  1.00  0.00    -0.210 S  
BRANCH  10  12
HETATM   12  N   UNL     1     -10.262  16.503  67.851  1.00  0.00    -0.264 N  
BRANCH  12  13
HETATM   13  C   UNL     1     -11.461  16.076  68.587  1.00  0.00    -0.377 C  
HETATM   14  C   UNL     1     -11.286  15.984  70.096  1.00  0.00    -0.369 C  
ENDBRANCH  12  13
BRANCH  12  15
HETATM   15  C   UNL     1     -10.372  17.631  66.912  1.00  0.00    -0.329 C  
HETATM   16  C   UNL     1     -10.625  18.972  67.579  1.00  0.00    -0.546 C  
ENDBRANCH  12  15
ENDBRANCH  10  12
ENDBRANCH   9  10
ENDBRANCH   8   9
ENDBRANCH   6   8
ENDBRANCH   3   6
ENDBRANCH   2   3
TORSDOF 9
ENDMDL
MODEL      206
REMARK 921   NORMALIZED FREE ENERGY PREDICTED BY IDOCK:   -2.84 KCAL/MOL
REMARK 922        TOTAL FREE ENERGY PREDICTED BY IDOCK:   -4.85 KCAL/MOL
REMARK 923 INTER-LIGAND FREE ENERGY PREDICTED BY IDOCK:   -4.47 KCAL/MOL
REMARK 924 INTRA-LIGAND FREE ENERGY PREDICTED BY IDOCK:   -0.38 KCAL/MOL
REMARK 927      BINDING AFFINITY PREDICTED BY RF-SCORE:    0.00 PKD
ROOT
HETATM    1  C   UNL     1      -7.912  11.008  68.507  1.00  0.00    -0.137 C  
HETATM    2  C   UNL     1      -7.967  11.559  67.085  1.00  0.00    -0.160 C  
ENDROOT
BRANCH   2   3
HETATM    3  N   UNL     1      -9.239  12.248  66.773  1.00  0.00    -0.206 N  
BRANCH   3   4
HETATM    4  C   UNL     1     -10.182  11.603  65.828  1.00  0.00    -0.240 C  
HETATM    5  C   UNL     1     -10.005  10.118  65.523  1.00  0.00    -0.363 C  
ENDBRANCH   3   4
BRANCH   3   6
HETATM    6  C   UNL     1      -9.515  13.535  67.322  1.00  0.00    -0.230 C  
HETATM    7  S   UNL     1     -11.006  14.004  67.977  1.00  0.00    -0.259 S  
BRANCH   6   8
HETATM    8  S   UNL     1      -8.134  14.671  67.427  1.00  0.00    -0.202 SA 
BRANCH   8   9
HETATM    9  S   UNL     1      -8.784  16.335  66.383  1.00  0.00    -0.340 SA 
BRANCH   9  10
HETATM   10  C   UNL     1      -8.130  17.757  67.224  1.00  0.00    -0.211 C  
HETATM   11  S   UNL     1      -7.242  17.719  68.651  1.00  0.00    -0.265 S  
BRANCH  10  12
HETATM   12  N   UNL     1      -8.315  18.931  66.478  1.00  0.00    -0.294 N  
BRANCH  12  13
HETATM   13  C   UNL     1      -9.665  19.375  66.099  1.00  0.00    -0.359 C  
HETATM   14  C   UNL     1     -10.597  19.658  67.268  1.00  0.00    -0.598 C  
ENDBRANCH  12  13
BRANCH  12  15
HETATM   15  C   UNL     1      -7.154  19.644  65.924  1.00  0.00    -0.292 C  
HETATM   16  C   UNL     1      -6.143  18.744  65.233  1.00  0.00    -0.314 C  
ENDBRANCH  12  15
ENDBRANCH  10  12
ENDBRANCH   9  10
ENDBRANCH   8   9
ENDBRANCH   6   8
ENDBRANCH   3   6
ENDBRANCH   2   3
TORSDOF 9
ENDMDL
MODEL      207
REMARK 921   NORMALIZED FREE ENERGY PREDICTED BY IDOCK:   -2.84 KCAL/MOL
REMARK 922        TOTAL FREE ENERGY PREDICTED BY IDOCK:   -4.85 KCAL/MOL
REMARK 923 INTER-LIGAND FREE ENERGY PREDICTED BY IDOCK:   -4.34 KCAL/MOL
REMARK 924 INTRA-LIGAND FREE ENERGY PREDICTED BY IDOCK:   -0.51 KCAL/MOL
REMARK 927      BINDING AFFINITY PREDICTED BY RF-SCORE:    0.00 PKD
ROOT
HETATM    1  C   UNL     1     -11.794  12.866  63.982  1.00  0.00    -0.512 C  
HETATM    2  C   UNL     1     -12.417  13.301  65.306  1.00  0.00    -0.489 C  
ENDROOT
BRANCH   2   3
HETATM    3  N   UNL     1     -11.416  13.660  66.334  1.00  0.00    -0.326 N  
BRANCH   3   4
HETATM    4  C   UNL     1     -10.327  14.597  65.966  1.00  0.00    -0.305 C  
HETATM    5  C   UNL     1     -10.698  15.920  65.301  1.00  0.00    -0.442 C  
ENDBRANCH   3   4
BRANCH   3   6
HETATM    6  C   UNL     1     -11.465  13.063  67.627  1.00  0.00    -0.324 C  
HETATM    7  S   UNL     1     -11.811  13.897  69.062  1.00  0.00    -0.372 S  
BRANCH   6   8
HETATM    8  S   UNL     1     -11.268  11.284  67.694  1.00  0.00    -0.290 SA 
BRANCH   8   9
HETATM    9  S   UNL     1      -9.484  10.947  66.700  1.00  0.00    -0.183 SA 
BRANCH   9  10
HETATM   10  C   UNL     1      -8.508   9.888  67.742  1.00  0.00    -0.118 C  
HETATM   11  S   UNL     1      -7.858  10.322  69.231  1.00  0.00    -0.154 S  
BRANCH  10  12
HETATM   12  N   UNL     1      -8.456   8.578  67.244  1.00  0.00    -0.122 N  
BRANCH  12  13
HETATM   13  C   UNL     1      -7.229   7.777  67.364  1.00  0.00    -0.091 C  
HETATM   14  C   UNL     1      -6.116   8.163  66.402  1.00  0.00    -0.045 C  
ENDBRANCH  12  13
BRANCH  12  15
HETATM   15  C   UNL     1      -9.574   8.046  66.450  1.00  0.00    -0.197 C  
HETATM   16  C   UNL     1     -10.526   7.158  67.233  1.00  0.00    -0.372 C  
ENDBRANCH  12  15
ENDBRANCH  10  12
ENDBRANCH   9  10
ENDBRANCH   8   9
ENDBRANCH   6   8
ENDBRANCH   3   6
ENDBRANCH   2   3
TORSDOF 9
ENDMDL
MODEL      208
REMARK 921   NORMALIZED FREE ENERGY PREDICTED BY IDOCK:   -2.84 KCAL/MOL
REMARK 922        TOTAL FREE ENERGY PREDICTED BY IDOCK:   -4.84 KCAL/MOL
REMARK 923 INTER-LIGAND FREE ENERGY PREDICTED BY IDOCK:   -4.28 KCAL/MOL
REMARK 924 INTRA-LIGAND FREE ENERGY PREDICTED BY IDOCK:   -0.56 KCAL/MOL
REMARK 927      BINDING AFFINITY PREDICTED BY RF-SCORE:    0.00 PKD
ROOT
HETATM    1  C   UNL     1     -12.100  13.883  64.445  1.00  0.00    -0.477 C  
HETATM    2  C   UNL     1     -12.147  12.662  65.360  1.00  0.00    -0.462 C  
ENDROOT
BRANCH   2   3
HETATM    3  N   UNL     1     -10.866  12.397  66.050  1.00  0.00    -0.265 N  
BRANCH   3   4
HETATM    4  C   UNL     1      -9.741  11.834  65.265  1.00  0.00    -0.211 C  
HETATM    5  C   UNL     1      -9.989  10.574  64.439  1.00  0.00    -0.410 C  
ENDBRANCH   3   4
BRANCH   3   6
HETATM    6  C   UNL     1     -10.743  12.619  67.453  1.00  0.00    -0.229 C  
HETATM    7  S   UNL     1     -11.614  13.783  68.325  1.00  0.00    -0.359 S  
BRANCH   6   8
HETATM    8  S   UNL     1      -9.681  11.490  68.350  1.00  0.00    -0.198 SA 
BRANCH   8   9
HETATM    9  S   UNL     1     -10.704   9.692  68.283  1.00  0.00    -0.186 SA 
BRANCH   9  10
HETATM   10  C   UNL     1      -9.925   8.614  69.462  1.00  0.00    -0.196 C  
HETATM   11  S   UNL     1      -9.463   9.048  71.019  1.00  0.00    -0.277 S  
BRANCH  10  12
HETATM   12  N   UNL     1      -9.863   7.293  68.993  1.00  0.00    -0.162 N  
BRANCH  12  13
HETATM   13  C   UNL     1     -11.062   6.629  68.459  1.00  0.00    -0.206 C  
HETATM   14  C   UNL     1     -10.953   6.179  67.010  1.00  0.00    -0.414 C  
ENDBRANCH  12  13
BRANCH  12  15
HETATM   15  C   UNL     1      -8.639   6.500  69.181  1.00  0.00    -0.129 C  
HETATM   16  C   UNL     1      -7.483   6.920  68.289  1.00  0.00    -0.099 C  
ENDBRANCH  12  15
ENDBRANCH  10  12
ENDBRANCH   9  10
ENDBRANCH   8   9
ENDBRANCH   6   8
ENDBRANCH   3   6
ENDBRANCH   2   3
TORSDOF 9
ENDMDL
MODEL      209
REMARK 921   NORMALIZED FREE ENERGY PREDICTED BY IDOCK:   -2.83 KCAL/MOL
REMARK 922        TOTAL FREE ENERGY PREDICTED BY IDOCK:   -4.84 KCAL/MOL
REMARK 923 INTER-LIGAND FREE ENERGY PREDICTED BY IDOCK:   -4.26 KCAL/MOL
REMARK 924 INTRA-LIGAND FREE ENERGY PREDICTED BY IDOCK:   -0.58 KCAL/MOL
REMARK 927      BINDING AFFINITY PREDICTED BY RF-SCORE:    0.00 PKD
ROOT
HETATM    1  C   UNL     1      -9.372   9.489  65.177  1.00  0.00    -0.316 C  
HETATM    2  C   UNL     1     -10.041   8.881  66.407  1.00  0.00    -0.263 C  
ENDROOT
BRANCH   2   3
HETATM    3  N   UNL     1      -9.117   8.704  67.549  1.00  0.00    -0.133 N  
BRANCH   3   4
HETATM    4  C   UNL     1      -8.253   7.501  67.581  1.00  0.00    -0.118 C  
HETATM    5  C   UNL     1      -8.775   6.211  66.953  1.00  0.00    -0.109 C  
ENDBRANCH   3   4
BRANCH   3   6
HETATM    6  C   UNL     1      -9.112   9.641  68.624  1.00  0.00    -0.132 C  
HETATM    7  S   UNL     1      -7.855   9.809  69.750  1.00  0.00    -0.172 S  
BRANCH   6   8
HETATM    8  S   UNL     1     -10.482  10.792  68.687  1.00  0.00    -0.206 SA 
BRANCH   8   9
HETATM    9  S   UNL     1      -9.800  12.431  67.622  1.00  0.00    -0.202 SA 
BRANCH   9  10
HETATM   10  C   UNL     1     -11.162  13.566  67.499  1.00  0.00    -0.283 C  
HETATM   11  S   UNL     1     -11.843  14.410  68.784  1.00  0.00    -0.309 S  
BRANCH  10  12
HETATM   12  N   UNL     1     -11.524  13.797  66.164  1.00  0.00    -0.328 N  
BRANCH  12  13
HETATM   13  C   UNL     1     -11.373  15.131  65.564  1.00  0.00    -0.274 C  
HETATM   14  C   UNL     1     -10.021  15.788  65.798  1.00  0.00    -0.389 C  
ENDBRANCH  12  13
BRANCH  12  15
HETATM   15  C   UNL     1     -12.213  12.749  65.395  1.00  0.00    -0.478 C  
HETATM   16  C   UNL     1     -11.849  12.719  63.920  1.00  0.00    -0.541 C  
ENDBRANCH  12  15
ENDBRANCH  10  12
ENDBRANCH   9  10
ENDBRANCH   8   9
ENDBRANCH   6   8
ENDBRANCH   3   6
ENDBRANCH   2   3
TORSDOF 9
ENDMDL
MODEL      210
REMARK 921   NORMALIZED FREE ENERGY PREDICTED BY IDOCK:   -2.83 KCAL/MOL
REMARK 922        TOTAL FREE ENERGY PREDICTED BY IDOCK:   -4.83 KCAL/MOL
REMARK 923 INTER-LIGAND FREE ENERGY PREDICTED BY IDOCK:   -4.26 KCAL/MOL
REMARK 924 INTRA-LIGAND FREE ENERGY PREDICTED BY IDOCK:   -0.57 KCAL/MOL
REMARK 927      BINDING AFFINITY PREDICTED BY RF-SCORE:    0.00 PKD
ROOT
HETATM    1  C   UNL     1     -12.748  13.822  65.401  1.00  0.00    -0.513 C  
HETATM    2  C   UNL     1     -12.032  12.696  66.141  1.00  0.00    -0.395 C  
ENDROOT
BRANCH   2   3
HETATM    3  N   UNL     1     -11.693  13.037  67.540  1.00  0.00    -0.358 N  
BRANCH   3   4
HETATM    4  C   UNL     1     -11.894  14.433  67.998  1.00  0.00    -0.325 C  
HETATM    5  C   UNL     1     -10.777  15.108  68.789  1.00  0.00    -0.239 C  
ENDBRANCH   3   4
BRANCH   3   6
HETATM    6  C   UNL     1     -11.124  12.056  68.404  1.00  0.00    -0.245 C  
HETATM    7  S   UNL     1     -11.797  11.565  69.881  1.00  0.00    -0.361 S  
BRANCH   6   8
HETATM    8  S   UNL     1      -9.665  11.210  67.801  1.00  0.00    -0.174 SA 
BRANCH   8   9
HETATM    9  S   UNL     1     -10.398   9.411  67.088  1.00  0.00    -0.251 SA 
BRANCH   9  10
HETATM   10  C   UNL     1      -9.117   8.697  66.083  1.00  0.00    -0.201 C  
HETATM   11  S   UNL     1      -8.587   7.104  66.171  1.00  0.00    -0.149 S  
BRANCH  10  12
HETATM   12  N   UNL     1      -8.685   9.586  65.088  1.00  0.00    -0.160 N  
BRANCH  12  13
HETATM   13  C   UNL     1      -9.651  10.237  64.190  1.00  0.00    -0.315 C  
HETATM   14  C   UNL     1      -9.287  10.188  62.714  1.00  0.00    -0.323 C  
ENDBRANCH  12  13
BRANCH  12  15
HETATM   15  C   UNL     1      -7.248   9.753  64.821  1.00  0.00    -0.130 C  
HETATM   16  C   UNL     1      -6.479  10.415  65.952  1.00  0.00    -0.123 C  
ENDBRANCH  12  15
ENDBRANCH  10  12
ENDBRANCH   9  10
ENDBRANCH   8   9
ENDBRANCH   6   8
ENDBRANCH   3   6
ENDBRANCH   2   3
TORSDOF 9
ENDMDL
MODEL      211
REMARK 921   NORMALIZED FREE ENERGY PREDICTED BY IDOCK:   -2.82 KCAL/MOL
REMARK 922        TOTAL FREE ENERGY PREDICTED BY IDOCK:   -4.82 KCAL/MOL
REMARK 923 INTER-LIGAND FREE ENERGY PREDICTED BY IDOCK:   -4.19 KCAL/MOL
REMARK 924 INTRA-LIGAND FREE ENERGY PREDICTED BY IDOCK:   -0.63 KCAL/MOL
REMARK 927      BINDING AFFINITY PREDICTED BY RF-SCORE:    0.00 PKD
ROOT
HETATM    1  C   UNL     1      -6.914  11.020  66.493  1.00  0.00    -0.138 C  
HETATM    2  C   UNL     1      -7.932  10.527  65.469  1.00  0.00    -0.145 C  
ENDROOT
BRANCH   2   3
HETATM    3  N   UNL     1      -9.305  10.427  66.010  1.00  0.00    -0.171 N  
BRANCH   3   4
HETATM    4  C   UNL     1      -9.572   9.448  67.091  1.00  0.00    -0.154 C  
HETATM    5  C   UNL     1     -10.447   8.237  66.778  1.00  0.00    -0.313 C  
ENDBRANCH   3   4
BRANCH   3   6
HETATM    6  C   UNL     1     -10.358  11.211  65.453  1.00  0.00    -0.271 C  
HETATM    7  S   UNL     1     -10.735  11.286  63.802  1.00  0.00    -0.334 S  
BRANCH   6   8
HETATM    8  S   UNL     1     -11.420  12.064  66.616  1.00  0.00    -0.311 SA 
BRANCH   8   9
HETATM    9  S   UNL     1     -10.124  13.307  67.646  1.00  0.00    -0.233 SA 
BRANCH   9  10
HETATM   10  C   UNL     1     -10.878  14.916  67.686  1.00  0.00    -0.286 C  
HETATM   11  S   UNL     1     -11.990  15.440  68.833  1.00  0.00    -0.212 S  
BRANCH  10  12
HETATM   12  N   UNL     1     -10.327  15.769  66.719  1.00  0.00    -0.287 N  
BRANCH  12  13
HETATM   13  C   UNL     1     -10.297  15.378  65.301  1.00  0.00    -0.390 C  
HETATM   14  C   UNL     1     -11.630  15.491  64.578  1.00  0.00    -0.283 C  
ENDBRANCH  12  13
BRANCH  12  15
HETATM   15  C   UNL     1      -9.625  16.995  67.130  1.00  0.00    -0.253 C  
HETATM   16  C   UNL     1     -10.220  18.273  66.564  1.00  0.00    -0.409 C  
ENDBRANCH  12  15
ENDBRANCH  10  12
ENDBRANCH   9  10
ENDBRANCH   8   9
ENDBRANCH   6   8
ENDBRANCH   3   6
ENDBRANCH   2   3
TORSDOF 9
ENDMDL
MODEL      212
REMARK 921   NORMALIZED FREE ENERGY PREDICTED BY IDOCK:   -2.82 KCAL/MOL
REMARK 922        TOTAL FREE ENERGY PREDICTED BY IDOCK:   -4.81 KCAL/MOL
REMARK 923 INTER-LIGAND FREE ENERGY PREDICTED BY IDOCK:   -4.39 KCAL/MOL
REMARK 924 INTRA-LIGAND FREE ENERGY PREDICTED BY IDOCK:   -0.43 KCAL/MOL
REMARK 927      BINDING AFFINITY PREDICTED BY RF-SCORE:    0.00 PKD
ROOT
HETATM    1  C   UNL     1      -7.260  11.684  66.986  1.00  0.00    -0.143 C  
HETATM    2  C   UNL     1      -7.418  10.676  65.851  1.00  0.00    -0.131 C  
ENDROOT
BRANCH   2   3
HETATM    3  N   UNL     1      -8.744  10.022  65.829  1.00  0.00    -0.140 N  
BRANCH   3   4
HETATM    4  C   UNL     1      -9.913  10.805  65.362  1.00  0.00    -0.271 C  
HETATM    5  C   UNL     1     -10.108  10.999  63.861  1.00  0.00    -0.414 C  
ENDBRANCH   3   4
BRANCH   3   6
HETATM    6  C   UNL     1      -8.899   8.689  66.310  1.00  0.00    -0.157 C  
HETATM    7  S   UNL     1      -7.682   7.509  66.288  1.00  0.00    -0.092 S  
BRANCH   6   8
HETATM    8  S   UNL     1     -10.457   8.302  67.104  1.00  0.00    -0.275 SA 
BRANCH   8   9
HETATM    9  S   UNL     1     -10.207   8.984  69.042  1.00  0.00    -0.208 SA 
BRANCH   9  10
HETATM   10  C   UNL     1     -11.139   7.896  70.093  1.00  0.00    -0.201 C  
HETATM   11  S   UNL     1     -11.292   6.235  69.881  1.00  0.00    -0.374 S  
BRANCH  10  12
HETATM   12  N   UNL     1     -11.627   8.564  71.226  1.00  0.00    -0.274 N  
BRANCH  12  13
HETATM   13  C   UNL     1     -11.899  10.008  71.187  1.00  0.00    -0.393 C  
HETATM   14  C   UNL     1     -13.167  10.441  71.907  1.00  0.00    -0.535 C  
ENDBRANCH  12  13
BRANCH  12  15
HETATM   15  C   UNL     1     -11.718   7.861  72.515  1.00  0.00    -0.367 C  
HETATM   16  C   UNL     1     -10.376   7.615  73.185  1.00  0.00    -0.411 C  
ENDBRANCH  12  15
ENDBRANCH  10  12
ENDBRANCH   9  10
ENDBRANCH   8   9
ENDBRANCH   6   8
ENDBRANCH   3   6
ENDBRANCH   2   3
TORSDOF 9
ENDMDL
MODEL      213
REMARK 921   NORMALIZED FREE ENERGY PREDICTED BY IDOCK:   -2.79 KCAL/MOL
REMARK 922        TOTAL FREE ENERGY PREDICTED BY IDOCK:   -4.78 KCAL/MOL
REMARK 923 INTER-LIGAND FREE ENERGY PREDICTED BY IDOCK:   -4.44 KCAL/MOL
REMARK 924 INTRA-LIGAND FREE ENERGY PREDICTED BY IDOCK:   -0.33 KCAL/MOL
REMARK 927      BINDING AFFINITY PREDICTED BY RF-SCORE:    0.00 PKD
ROOT
HETATM    1  C   UNL     1      -7.648  13.209  67.366  1.00  0.00    -0.137 C  
HETATM    2  C   UNL     1      -9.000  13.917  67.390  1.00  0.00    -0.210 C  
ENDROOT
BRANCH   2   3
HETATM    3  N   UNL     1      -9.917  13.465  66.322  1.00  0.00    -0.291 N  
BRANCH   3   4
HETATM    4  C   UNL     1     -10.269  14.414  65.240  1.00  0.00    -0.389 C  
HETATM    5  C   UNL     1     -11.737  14.782  65.042  1.00  0.00    -0.364 C  
ENDBRANCH   3   4
BRANCH   3   6
HETATM    6  C   UNL     1     -10.500  12.164  66.376  1.00  0.00    -0.230 C  
HETATM    7  S   UNL     1     -10.228  10.939  65.236  1.00  0.00    -0.283 S  
BRANCH   6   8
HETATM    8  S   UNL     1     -11.481  11.787  67.826  1.00  0.00    -0.303 SA 
BRANCH   8   9
HETATM    9  S   UNL     1     -10.159  10.793  69.070  1.00  0.00    -0.196 SA 
BRANCH   9  10
HETATM   10  C   UNL     1     -11.119  10.120  70.406  1.00  0.00    -0.324 C  
HETATM   11  S   UNL     1     -12.532  10.791  71.021  1.00  0.00    -0.442 S  
BRANCH  10  12
HETATM   12  N   UNL     1     -10.638   8.865  70.808  1.00  0.00    -0.211 N  
BRANCH  12  13
HETATM   13  C   UNL     1     -11.027   7.645  70.085  1.00  0.00    -0.246 C  
HETATM   14  C   UNL     1     -10.132   7.284  68.910  1.00  0.00    -0.180 C  
ENDBRANCH  12  13
BRANCH  12  15
HETATM   15  C   UNL     1      -9.870   8.734  72.056  1.00  0.00    -0.306 C  
HETATM   16  C   UNL     1     -10.197   7.486  72.859  1.00  0.00    -0.331 C  
ENDBRANCH  12  15
ENDBRANCH  10  12
ENDBRANCH   9  10
ENDBRANCH   8   9
ENDBRANCH   6   8
ENDBRANCH   3   6
ENDBRANCH   2   3
TORSDOF 9
ENDMDL
MODEL      214
REMARK 921   NORMALIZED FREE ENERGY PREDICTED BY IDOCK:   -2.79 KCAL/MOL
REMARK 922        TOTAL FREE ENERGY PREDICTED BY IDOCK:   -4.77 KCAL/MOL
REMARK 923 INTER-LIGAND FREE ENERGY PREDICTED BY IDOCK:   -4.24 KCAL/MOL
REMARK 924 INTRA-LIGAND FREE ENERGY PREDICTED BY IDOCK:   -0.53 KCAL/MOL
REMARK 927      BINDING AFFINITY PREDICTED BY RF-SCORE:    0.00 PKD
ROOT
HETATM    1  C   UNL     1     -10.596  15.781  65.269  1.00  0.00    -0.446 C  
HETATM    2  C   UNL     1     -10.533  17.291  65.484  1.00  0.00    -0.122 C  
ENDROOT
BRANCH   2   3
HETATM    3  N   UNL     1      -9.902  17.674  66.766  1.00  0.00    -0.290 N  
BRANCH   3   4
HETATM    4  C   UNL     1     -10.662  18.540  67.699  1.00  0.00    -0.364 C  
HETATM    5  C   UNL     1     -10.147  19.952  67.965  1.00  0.00    -0.572 C  
ENDBRANCH   3   4
BRANCH   3   6
HETATM    6  C   UNL     1      -8.567  17.271  67.061  1.00  0.00    -0.227 C  
HETATM    7  S   UNL     1      -7.221  17.606  66.086  1.00  0.00    -0.291 S  
BRANCH   6   8
HETATM    8  S   UNL     1      -8.305  16.467  68.640  1.00  0.00    -0.231 SA 
BRANCH   8   9
HETATM    9  S   UNL     1      -9.567  14.828  68.574  1.00  0.00    -0.222 SA 
BRANCH   9  10
HETATM   10  C   UNL     1      -8.545  13.404  68.276  1.00  0.00    -0.169 C  
HETATM   11  S   UNL     1      -6.876  13.431  68.075  1.00  0.00    -0.153 S  
BRANCH  10  12
HETATM   12  N   UNL     1      -9.279  12.212  68.370  1.00  0.00    -0.183 N  
BRANCH  12  13
HETATM   13  C   UNL     1      -8.597  10.910  68.378  1.00  0.00    -0.146 C  
HETATM   14  C   UNL     1      -8.986   9.991  69.526  1.00  0.00    -0.220 C  
ENDBRANCH  12  13
BRANCH  12  15
HETATM   15  C   UNL     1     -10.748  12.242  68.295  1.00  0.00    -0.221 C  
HETATM   16  C   UNL     1     -11.314  11.744  66.976  1.00  0.00    -0.387 C  
ENDBRANCH  12  15
ENDBRANCH  10  12
ENDBRANCH   9  10
ENDBRANCH   8   9
ENDBRANCH   6   8
ENDBRANCH   3   6
ENDBRANCH   2   3
TORSDOF 9
ENDMDL
MODEL      215
REMARK 921   NORMALIZED FREE ENERGY PREDICTED BY IDOCK:   -2.79 KCAL/MOL
REMARK 922        TOTAL FREE ENERGY PREDICTED BY IDOCK:   -4.77 KCAL/MOL
REMARK 923 INTER-LIGAND FREE ENERGY PREDICTED BY IDOCK:   -4.31 KCAL/MOL
REMARK 924 INTRA-LIGAND FREE ENERGY PREDICTED BY IDOCK:   -0.46 KCAL/MOL
REMARK 927      BINDING AFFINITY PREDICTED BY RF-SCORE:    0.00 PKD
ROOT
HETATM    1  C   UNL     1     -10.327  18.055  67.668  1.00  0.00    -0.397 C  
HETATM    2  C   UNL     1     -10.689  16.578  67.791  1.00  0.00    -0.329 C  
ENDROOT
BRANCH   2   3
HETATM    3  N   UNL     1      -9.946  15.713  66.849  1.00  0.00    -0.243 N  
BRANCH   3   4
HETATM    4  C   UNL     1     -10.257  15.808  65.403  1.00  0.00    -0.349 C  
HETATM    5  C   UNL     1     -11.603  15.281  64.911  1.00  0.00    -0.289 C  
ENDBRANCH   3   4
BRANCH   3   6
HETATM    6  C   UNL     1      -9.000  14.763  67.335  1.00  0.00    -0.192 C  
HETATM    7  S   UNL     1      -7.338  15.056  67.501  1.00  0.00    -0.204 S  
BRANCH   6   8
HETATM    8  S   UNL     1      -9.661  13.206  67.923  1.00  0.00    -0.224 SA 
BRANCH   8   9
HETATM    9  S   UNL     1      -8.463  11.786  67.011  1.00  0.00    -0.178 SA 
BRANCH   9  10
HETATM   10  C   UNL     1      -9.552  10.576  66.298  1.00  0.00    -0.187 C  
HETATM   11  S   UNL     1     -10.408   9.412  67.159  1.00  0.00    -0.251 S  
BRANCH  10  12
HETATM   12  N   UNL     1      -9.737  10.791  64.925  1.00  0.00    -0.250 N  
BRANCH  12  13
HETATM   13  C   UNL     1      -9.107   9.904  63.934  1.00  0.00    -0.259 C  
HETATM   14  C   UNL     1      -7.630   9.627  64.170  1.00  0.00    -0.128 C  
ENDBRANCH  12  13
BRANCH  12  15
HETATM   15  C   UNL     1     -10.426  12.002  64.454  1.00  0.00    -0.312 C  
HETATM   16  C   UNL     1     -11.696  11.728  63.666  1.00  0.00    -0.517 C  
ENDBRANCH  12  15
ENDBRANCH  10  12
ENDBRANCH   9  10
ENDBRANCH   8   9
ENDBRANCH   6   8
ENDBRANCH   3   6
ENDBRANCH   2   3
TORSDOF 9
ENDMDL
MODEL      216
REMARK 921   NORMALIZED FREE ENERGY PREDICTED BY IDOCK:   -2.79 KCAL/MOL
REMARK 922        TOTAL FREE ENERGY PREDICTED BY IDOCK:   -4.77 KCAL/MOL
REMARK 923 INTER-LIGAND FREE ENERGY PREDICTED BY IDOCK:   -4.27 KCAL/MOL
REMARK 924 INTRA-LIGAND FREE ENERGY PREDICTED BY IDOCK:   -0.50 KCAL/MOL
REMARK 927      BINDING AFFINITY PREDICTED BY RF-SCORE:    0.00 PKD
ROOT
HETATM    1  C   UNL     1      -9.074  17.246  66.449  1.00  0.00    -0.281 C  
HETATM    2  C   UNL     1     -10.462  16.775  66.021  1.00  0.00    -0.293 C  
ENDROOT
BRANCH   2   3
HETATM    3  N   UNL     1     -10.656  15.316  66.170  1.00  0.00    -0.303 N  
BRANCH   3   4
HETATM    4  C   UNL     1     -11.471  14.602  65.159  1.00  0.00    -0.375 C  
HETATM    5  C   UNL     1     -12.762  13.925  65.610  1.00  0.00    -0.534 C  
ENDBRANCH   3   4
BRANCH   3   6
HETATM    6  C   UNL     1     -10.124  14.630  67.301  1.00  0.00    -0.236 C  
HETATM    7  S   UNL     1     -10.828  14.623  68.844  1.00  0.00    -0.258 S  
BRANCH   6   8
HETATM    8  S   UNL     1      -8.681  13.610  67.011  1.00  0.00    -0.150 SA 
BRANCH   8   9
HETATM    9  S   UNL     1      -9.009  11.943  68.193  1.00  0.00    -0.187 SA 
BRANCH   9  10
HETATM   10  C   UNL     1     -10.093  10.872  67.279  1.00  0.00    -0.191 C  
HETATM   11  S   UNL     1     -10.409  10.984  65.632  1.00  0.00    -0.234 S  
BRANCH  10  12
HETATM   12  N   UNL     1     -10.558   9.810  68.070  1.00  0.00    -0.230 N  
BRANCH  12  13
HETATM   13  C   UNL     1     -11.006  10.043  69.452  1.00  0.00    -0.244 C  
HETATM   14  C   UNL     1     -12.253  10.903  69.584  1.00  0.00    -0.354 C  
ENDBRANCH  12  13
BRANCH  12  15
HETATM   15  C   UNL     1     -10.450   8.426  67.584  1.00  0.00    -0.239 C  
HETATM   16  C   UNL     1      -9.730   7.487  68.537  1.00  0.00    -0.159 C  
ENDBRANCH  12  15
ENDBRANCH  10  12
ENDBRANCH   9  10
ENDBRANCH   8   9
ENDBRANCH   6   8
ENDBRANCH   3   6
ENDBRANCH   2   3
TORSDOF 9
ENDMDL
MODEL      217
REMARK 921   NORMALIZED FREE ENERGY PREDICTED BY IDOCK:   -2.78 KCAL/MOL
REMARK 922        TOTAL FREE ENERGY PREDICTED BY IDOCK:   -4.76 KCAL/MOL
REMARK 923 INTER-LIGAND FREE ENERGY PREDICTED BY IDOCK:   -4.25 KCAL/MOL
REMARK 924 INTRA-LIGAND FREE ENERGY PREDICTED BY IDOCK:   -0.51 KCAL/MOL
REMARK 927      BINDING AFFINITY PREDICTED BY RF-SCORE:    0.00 PKD
ROOT
HETATM    1  C   UNL     1     -10.052  18.646  67.575  1.00  0.00    -0.397 C  
HETATM    2  C   UNL     1     -10.777  17.335  67.866  1.00  0.00    -0.351 C  
ENDROOT
BRANCH   2   3
HETATM    3  N   UNL     1     -10.241  16.187  67.103  1.00  0.00    -0.275 N  
BRANCH   3   4
HETATM    4  C   UNL     1     -10.109  16.314  65.632  1.00  0.00    -0.312 C  
HETATM    5  C   UNL     1     -11.285  15.891  64.756  1.00  0.00    -0.364 C  
ENDBRANCH   3   4
BRANCH   3   6
HETATM    6  C   UNL     1      -9.923  14.966  67.766  1.00  0.00    -0.222 C  
HETATM    7  S   UNL     1      -8.608  14.753  68.816  1.00  0.00    -0.157 S  
BRANCH   6   8
HETATM    8  S   UNL     1     -11.082  13.617  67.556  1.00  0.00    -0.286 SA 
BRANCH   8   9
HETATM    9  S   UNL     1     -10.094  11.987  68.363  1.00  0.00    -0.197 SA 
BRANCH   9  10
HETATM   10  C   UNL     1      -9.097  11.296  67.065  1.00  0.00    -0.163 C  
HETATM   11  S   UNL     1      -7.447  11.553  66.865  1.00  0.00    -0.124 S  
BRANCH  10  12
HETATM   12  N   UNL     1      -9.821  10.379  66.289  1.00  0.00    -0.208 N  
BRANCH  12  13
HETATM   13  C   UNL     1      -9.753  10.419  64.820  1.00  0.00    -0.320 C  
HETATM   14  C   UNL     1     -10.710  11.400  64.162  1.00  0.00    -0.434 C  
ENDBRANCH  12  13
BRANCH  12  15
HETATM   15  C   UNL     1     -10.785   9.471  66.929  1.00  0.00    -0.114 C  
HETATM   16  C   UNL     1     -10.180   8.167  67.419  1.00  0.00    -0.327 C  
ENDBRANCH  12  15
ENDBRANCH  10  12
ENDBRANCH   9  10
ENDBRANCH   8   9
ENDBRANCH   6   8
ENDBRANCH   3   6
ENDBRANCH   2   3
TORSDOF 9
ENDMDL
MODEL      218
REMARK 921   NORMALIZED FREE ENERGY PREDICTED BY IDOCK:   -2.78 KCAL/MOL
REMARK 922        TOTAL FREE ENERGY PREDICTED BY IDOCK:   -4.75 KCAL/MOL
REMARK 923 INTER-LIGAND FREE ENERGY PREDICTED BY IDOCK:   -4.26 KCAL/MOL
REMARK 924 INTRA-LIGAND FREE ENERGY PREDICTED BY IDOCK:   -0.49 KCAL/MOL
REMARK 927      BINDING AFFINITY PREDICTED BY RF-SCORE:    0.00 PKD
ROOT
HETATM    1  C   UNL     1     -11.068   5.069  73.443  1.00  0.00    -0.404 C  
HETATM    2  C   UNL     1     -10.513   6.482  73.292  1.00  0.00    -0.258 C  
ENDROOT
BRANCH   2   3
HETATM    3  N   UNL     1     -10.560   6.984  71.901  1.00  0.00    -0.213 N  
BRANCH   3   4
HETATM    4  C   UNL     1      -9.912   6.182  70.835  1.00  0.00    -0.185 C  
HETATM    5  C   UNL     1     -10.703   5.885  69.564  1.00  0.00    -0.414 C  
ENDBRANCH   3   4
BRANCH   3   6
HETATM    6  C   UNL     1     -11.159   8.244  71.609  1.00  0.00    -0.265 C  
HETATM    7  S   UNL     1     -12.731   8.692  72.061  1.00  0.00    -0.401 S  
BRANCH   6   8
HETATM    8  S   UNL     1     -10.111   9.463  70.820  1.00  0.00    -0.289 SA 
BRANCH   8   9
HETATM    9  S   UNL     1     -11.212  10.069  69.175  1.00  0.00    -0.097 SA 
BRANCH   9  10
HETATM   10  C   UNL     1     -10.095  10.945  68.105  1.00  0.00    -0.173 C  
HETATM   11  S   UNL     1      -8.714  10.295  67.400  1.00  0.00    -0.128 S  
BRANCH  10  12
HETATM   12  N   UNL     1     -10.577  12.224  67.790  1.00  0.00    -0.214 N  
BRANCH  12  13
HETATM   13  C   UNL     1     -10.469  12.752  66.422  1.00  0.00    -0.250 C  
HETATM   14  C   UNL     1     -11.472  12.176  65.433  1.00  0.00    -0.387 C  
ENDBRANCH  12  13
BRANCH  12  15
HETATM   15  C   UNL     1     -11.047  13.119  68.859  1.00  0.00    -0.266 C  
HETATM   16  C   UNL     1     -12.156  14.066  68.435  1.00  0.00    -0.318 C  
ENDBRANCH  12  15
ENDBRANCH  10  12
ENDBRANCH   9  10
ENDBRANCH   8   9
ENDBRANCH   6   8
ENDBRANCH   3   6
ENDBRANCH   2   3
TORSDOF 9
ENDMDL
MODEL      219
REMARK 921   NORMALIZED FREE ENERGY PREDICTED BY IDOCK:   -2.77 KCAL/MOL
REMARK 922        TOTAL FREE ENERGY PREDICTED BY IDOCK:   -4.74 KCAL/MOL
REMARK 923 INTER-LIGAND FREE ENERGY PREDICTED BY IDOCK:   -4.22 KCAL/MOL
REMARK 924 INTRA-LIGAND FREE ENERGY PREDICTED BY IDOCK:   -0.52 KCAL/MOL
REMARK 927      BINDING AFFINITY PREDICTED BY RF-SCORE:    0.00 PKD
ROOT
HETATM    1  C   UNL     1      -8.832   9.598  63.149  1.00  0.00    -0.254 C  
HETATM    2  C   UNL     1      -8.649  10.193  64.543  1.00  0.00    -0.189 C  
ENDROOT
BRANCH   2   3
HETATM    3  N   UNL     1      -9.836  10.932  65.024  1.00  0.00    -0.258 N  
BRANCH   3   4
HETATM    4  C   UNL     1     -10.886  11.303  64.045  1.00  0.00    -0.344 C  
HETATM    5  C   UNL     1     -11.196  12.783  63.836  1.00  0.00    -0.491 C  
ENDBRANCH   3   4
BRANCH   3   6
HETATM    6  C   UNL     1      -9.931  11.333  66.389  1.00  0.00    -0.215 C  
HETATM    7  S   UNL     1     -11.107  10.778  67.478  1.00  0.00    -0.270 S  
BRANCH   6   8
HETATM    8  S   UNL     1      -8.629  12.399  67.001  1.00  0.00    -0.170 SA 
BRANCH   8   9
HETATM    9  S   UNL     1      -9.460  14.293  66.915  1.00  0.00    -0.272 SA 
BRANCH   9  10
HETATM   10  C   UNL     1      -8.689  15.251  68.197  1.00  0.00    -0.162 C  
HETATM   11  S   UNL     1      -7.388  14.749  69.137  1.00  0.00    -0.155 S  
BRANCH  10  12
HETATM   12  N   UNL     1      -9.201  16.556  68.248  1.00  0.00    -0.208 N  
BRANCH  12  13
HETATM   13  C   UNL     1     -10.631  16.792  68.497  1.00  0.00    -0.354 C  
HETATM   14  C   UNL     1     -11.161  16.199  69.794  1.00  0.00    -0.350 C  
ENDBRANCH  12  13
BRANCH  12  15
HETATM   15  C   UNL     1      -8.347  17.698  67.888  1.00  0.00    -0.235 C  
HETATM   16  C   UNL     1      -8.061  17.817  66.401  1.00  0.00    -0.296 C  
ENDBRANCH  12  15
ENDBRANCH  10  12
ENDBRANCH   9  10
ENDBRANCH   8   9
ENDBRANCH   6   8
ENDBRANCH   3   6
ENDBRANCH   2   3
TORSDOF 9
ENDMDL
MODEL      220
REMARK 921   NORMALIZED FREE ENERGY PREDICTED BY IDOCK:   -2.76 KCAL/MOL
REMARK 922        TOTAL FREE ENERGY PREDICTED BY IDOCK:   -4.72 KCAL/MOL
REMARK 923 INTER-LIGAND FREE ENERGY PREDICTED BY IDOCK:   -4.18 KCAL/MOL
REMARK 924 INTRA-LIGAND FREE ENERGY PREDICTED BY IDOCK:   -0.55 KCAL/MOL
REMARK 927      BINDING AFFINITY PREDICTED BY RF-SCORE:    0.00 PKD
ROOT
HETATM    1  C   UNL     1      -9.277  15.199  69.186  1.00  0.00    -0.215 C  
HETATM    2  C   UNL     1      -8.872  14.428  67.932  1.00  0.00    -0.179 C  
ENDROOT
BRANCH   2   3
HETATM    3  N   UNL     1      -9.433  14.998  66.688  1.00  0.00    -0.250 N  
BRANCH   3   4
HETATM    4  C   UNL     1     -10.252  14.125  65.815  1.00  0.00    -0.332 C  
HETATM    5  C   UNL     1     -11.693  13.830  66.225  1.00  0.00    -0.400 C  
ENDBRANCH   3   4
BRANCH   3   6
HETATM    6  C   UNL     1      -9.131  16.339  66.309  1.00  0.00    -0.331 C  
HETATM    7  S   UNL     1     -10.276  17.471  65.775  1.00  0.00    -0.074 S  
BRANCH   6   8
HETATM    8  S   UNL     1      -7.439  16.875  66.546  1.00  0.00    -0.295 SA 
BRANCH   8   9
HETATM    9  S   UNL     1      -7.401  18.770  65.715  1.00  0.00    -0.080 SA 
BRANCH   9  10
HETATM   10  C   UNL     1      -6.770  19.866  66.963  1.00  0.00    -0.208 C  
HETATM   11  S   UNL     1      -5.460  20.903  66.775  1.00  0.00    -0.217 S  
BRANCH  10  12
HETATM   12  N   UNL     1      -7.589  19.878  68.103  1.00  0.00    -0.295 N  
BRANCH  12  13
HETATM   13  C   UNL     1      -7.029  19.592  69.432  1.00  0.00    -0.320 C  
HETATM   14  C   UNL     1      -6.132  18.366  69.499  1.00  0.00    -0.260 C  
ENDBRANCH  12  13
BRANCH  12  15
HETATM   15  C   UNL     1      -9.047  20.013  67.962  1.00  0.00    -0.257 C  
HETATM   16  C   UNL     1      -9.845  19.254  69.008  1.00  0.00    -0.466 C  
ENDBRANCH  12  15
ENDBRANCH  10  12
ENDBRANCH   9  10
ENDBRANCH   8   9
ENDBRANCH   6   8
ENDBRANCH   3   6
ENDBRANCH   2   3
TORSDOF 9
ENDMDL
MODEL      221
REMARK 921   NORMALIZED FREE ENERGY PREDICTED BY IDOCK:   -2.76 KCAL/MOL
REMARK 922        TOTAL FREE ENERGY PREDICTED BY IDOCK:   -4.72 KCAL/MOL
REMARK 923 INTER-LIGAND FREE ENERGY PREDICTED BY IDOCK:   -4.23 KCAL/MOL
REMARK 924 INTRA-LIGAND FREE ENERGY PREDICTED BY IDOCK:   -0.49 KCAL/MOL
REMARK 927      BINDING AFFINITY PREDICTED BY RF-SCORE:    0.00 PKD
ROOT
HETATM    1  C   UNL     1      -9.473  16.137  69.159  1.00  0.00    -0.251 C  
HETATM    2  C   UNL     1     -10.897  16.045  68.618  1.00  0.00    -0.301 C  
ENDROOT
BRANCH   2   3
HETATM    3  N   UNL     1     -11.481  14.691  68.735  1.00  0.00    -0.281 N  
BRANCH   3   4
HETATM    4  C   UNL     1     -12.150  14.315  70.003  1.00  0.00    -0.340 C  
HETATM    5  C   UNL     1     -12.810  15.414  70.832  1.00  0.00    -0.536 C  
ENDBRANCH   3   4
BRANCH   3   6
HETATM    6  C   UNL     1     -11.341  13.751  67.672  1.00  0.00    -0.304 C  
HETATM    7  S   UNL     1     -12.295  13.732  66.270  1.00  0.00    -0.399 S  
BRANCH   6   8
HETATM    8  S   UNL     1      -9.974  12.601  67.797  1.00  0.00    -0.224 SA 
BRANCH   8   9
HETATM    9  S   UNL     1     -10.839  10.886  68.566  1.00  0.00    -0.242 SA 
BRANCH   9  10
HETATM   10  C   UNL     1      -9.515   9.753  68.913  1.00  0.00    -0.161 C  
HETATM   11  S   UNL     1      -7.974  10.188  69.426  1.00  0.00    -0.165 S  
BRANCH  10  12
HETATM   12  N   UNL     1      -9.944   8.419  68.848  1.00  0.00    -0.182 N  
BRANCH  12  13
HETATM   13  C   UNL     1      -9.836   7.537  70.019  1.00  0.00    -0.180 C  
HETATM   14  C   UNL     1      -8.840   6.397  69.872  1.00  0.00    -0.142 C  
ENDBRANCH  12  13
BRANCH  12  15
HETATM   15  C   UNL     1     -10.356   7.839  67.560  1.00  0.00    -0.264 C  
HETATM   16  C   UNL     1      -9.344   8.024  66.443  1.00  0.00    -0.259 C  
ENDBRANCH  12  15
ENDBRANCH  10  12
ENDBRANCH   9  10
ENDBRANCH   8   9
ENDBRANCH   6   8
ENDBRANCH   3   6
ENDBRANCH   2   3
TORSDOF 9
ENDMDL
MODEL      222
REMARK 921   NORMALIZED FREE ENERGY PREDICTED BY IDOCK:   -2.76 KCAL/MOL
REMARK 922        TOTAL FREE ENERGY PREDICTED BY IDOCK:   -4.72 KCAL/MOL
REMARK 923 INTER-LIGAND FREE ENERGY PREDICTED BY IDOCK:   -4.12 KCAL/MOL
REMARK 924 INTRA-LIGAND FREE ENERGY PREDICTED BY IDOCK:   -0.60 KCAL/MOL
REMARK 927      BINDING AFFINITY PREDICTED BY RF-SCORE:    0.00 PKD
ROOT
HETATM    1  C   UNL     1      -8.404  15.446  69.306  1.00  0.00    -0.254 C  
HETATM    2  C   UNL     1      -9.663  16.235  68.958  1.00  0.00    -0.252 C  
ENDROOT
BRANCH   2   3
HETATM    3  N   UNL     1     -10.796  15.378  68.548  1.00  0.00    -0.253 N  
BRANCH   3   4
HETATM    4  C   UNL     1     -11.574  14.680  69.599  1.00  0.00    -0.307 C  
HETATM    5  C   UNL     1     -12.501  15.506  70.488  1.00  0.00    -0.472 C  
ENDBRANCH   3   4
BRANCH   3   6
HETATM    6  C   UNL     1     -11.086  15.179  67.167  1.00  0.00    -0.335 C  
HETATM    7  S   UNL     1     -10.362  16.037  65.896  1.00  0.00    -0.384 S  
BRANCH   6   8
HETATM    8  S   UNL     1     -12.203  13.836  66.770  1.00  0.00    -0.340 SA 
BRANCH   8   9
HETATM    9  S   UNL     1     -10.941  12.300  66.193  1.00  0.00    -0.307 SA 
BRANCH   9  10
HETATM   10  C   UNL     1     -10.554  11.375  67.660  1.00  0.00    -0.202 C  
HETATM   11  S   UNL     1     -11.648  10.971  68.872  1.00  0.00    -0.325 S  
BRANCH  10  12
HETATM   12  N   UNL     1      -9.240  10.884  67.631  1.00  0.00    -0.151 N  
BRANCH  12  13
HETATM   13  C   UNL     1      -8.978   9.454  67.413  1.00  0.00    -0.124 C  
HETATM   14  C   UNL     1      -8.534   8.689  68.651  1.00  0.00    -0.130 C  
ENDBRANCH  12  13
BRANCH  12  15
HETATM   15  C   UNL     1      -8.116  11.765  67.982  1.00  0.00    -0.145 C  
HETATM   16  C   UNL     1      -6.912  11.633  67.064  1.00  0.00    -0.144 C  
ENDBRANCH  12  15
ENDBRANCH  10  12
ENDBRANCH   9  10
ENDBRANCH   8   9
ENDBRANCH   6   8
ENDBRANCH   3   6
ENDBRANCH   2   3
TORSDOF 9
ENDMDL
MODEL      223
REMARK 921   NORMALIZED FREE ENERGY PREDICTED BY IDOCK:   -2.76 KCAL/MOL
REMARK 922        TOTAL FREE ENERGY PREDICTED BY IDOCK:   -4.72 KCAL/MOL
REMARK 923 INTER-LIGAND FREE ENERGY PREDICTED BY IDOCK:   -4.22 KCAL/MOL
REMARK 924 INTRA-LIGAND FREE ENERGY PREDICTED BY IDOCK:   -0.50 KCAL/MOL
REMARK 927      BINDING AFFINITY PREDICTED BY RF-SCORE:    0.00 PKD
ROOT
HETATM    1  C   UNL     1     -12.724   9.953  71.434  1.00  0.00    -0.503 C  
HETATM    2  C   UNL     1     -12.202   8.552  71.739  1.00  0.00    -0.334 C  
ENDROOT
BRANCH   2   3
HETATM    3  N   UNL     1     -11.401   7.973  70.639  1.00  0.00    -0.268 N  
BRANCH   3   4
HETATM    4  C   UNL     1     -11.672   6.575  70.225  1.00  0.00    -0.366 C  
HETATM    5  C   UNL     1     -10.499   5.712  69.765  1.00  0.00    -0.377 C  
ENDBRANCH   3   4
BRANCH   3   6
HETATM    6  C   UNL     1     -10.350   8.725  70.039  1.00  0.00    -0.203 C  
HETATM    7  S   UNL     1      -8.844   9.022  70.759  1.00  0.00    -0.247 S  
BRANCH   6   8
HETATM    8  S   UNL     1     -10.621   9.275  68.356  1.00  0.00    -0.152 SA 
BRANCH   8   9
HETATM    9  S   UNL     1     -10.455  11.335  68.477  1.00  0.00    -0.205 SA 
BRANCH   9  10
HETATM   10  C   UNL     1      -9.889  11.899  66.890  1.00  0.00    -0.202 C  
HETATM   11  S   UNL     1     -10.381  11.279  65.406  1.00  0.00    -0.277 S  
BRANCH  10  12
HETATM   12  N   UNL     1      -9.078  13.038  67.005  1.00  0.00    -0.224 N  
BRANCH  12  13
HETATM   13  C   UNL     1      -9.508  14.327  66.443  1.00  0.00    -0.275 C  
HETATM   14  C   UNL     1     -10.461  15.122  67.322  1.00  0.00    -0.271 C  
ENDBRANCH  12  13
BRANCH  12  15
HETATM   15  C   UNL     1      -7.714  12.920  67.543  1.00  0.00    -0.174 C  
HETATM   16  C   UNL     1      -6.963  11.688  67.069  1.00  0.00    -0.144 C  
ENDBRANCH  12  15
ENDBRANCH  10  12
ENDBRANCH   9  10
ENDBRANCH   8   9
ENDBRANCH   6   8
ENDBRANCH   3   6
ENDBRANCH   2   3
TORSDOF 9
ENDMDL
MODEL      224
REMARK 921   NORMALIZED FREE ENERGY PREDICTED BY IDOCK:   -2.75 KCAL/MOL
REMARK 922        TOTAL FREE ENERGY PREDICTED BY IDOCK:   -4.72 KCAL/MOL
REMARK 923 INTER-LIGAND FREE ENERGY PREDICTED BY IDOCK:   -4.21 KCAL/MOL
REMARK 924 INTRA-LIGAND FREE ENERGY PREDICTED BY IDOCK:   -0.50 KCAL/MOL
REMARK 927      BINDING AFFINITY PREDICTED BY RF-SCORE:    0.00 PKD
ROOT
HETATM    1  C   UNL     1     -10.233  11.478  63.478  1.00  0.00    -0.462 C  
HETATM    2  C   UNL     1     -10.642  10.976  64.860  1.00  0.00    -0.258 C  
ENDROOT
BRANCH   2   3
HETATM    3  N   UNL     1      -9.490  10.698  65.745  1.00  0.00    -0.190 N  
BRANCH   3   4
HETATM    4  C   UNL     1      -8.579   9.582  65.394  1.00  0.00    -0.155 C  
HETATM    5  C   UNL     1      -7.128   9.908  65.049  1.00  0.00    -0.131 C  
ENDBRANCH   3   4
BRANCH   3   6
HETATM    6  C   UNL     1      -9.305  11.447  66.944  1.00  0.00    -0.181 C  
HETATM    7  S   UNL     1      -9.600  13.110  67.098  1.00  0.00    -0.243 S  
BRANCH   6   8
HETATM    8  S   UNL     1      -8.850  10.517  68.405  1.00  0.00    -0.147 SA 
BRANCH   8   9
HETATM    9  S   UNL     1     -10.601   9.552  68.941  1.00  0.00    -0.197 SA 
BRANCH   9  10
HETATM   10  C   UNL     1     -10.209   8.508  70.326  1.00  0.00    -0.193 C  
HETATM   11  S   UNL     1      -8.887   8.703  71.346  1.00  0.00    -0.231 S  
BRANCH  10  12
HETATM   12  N   UNL     1     -11.222   7.569  70.568  1.00  0.00    -0.270 N  
BRANCH  12  13
HETATM   13  C   UNL     1     -12.036   7.640  71.790  1.00  0.00    -0.305 C  
HETATM   14  C   UNL     1     -12.563   9.026  72.129  1.00  0.00    -0.461 C  
ENDBRANCH  12  13
BRANCH  12  15
HETATM   15  C   UNL     1     -11.374   6.403  69.683  1.00  0.00    -0.412 C  
HETATM   16  C   UNL     1     -10.298   5.345  69.859  1.00  0.00    -0.377 C  
ENDBRANCH  12  15
ENDBRANCH  10  12
ENDBRANCH   9  10
ENDBRANCH   8   9
ENDBRANCH   6   8
ENDBRANCH   3   6
ENDBRANCH   2   3
TORSDOF 9
ENDMDL
MODEL      225
REMARK 921   NORMALIZED FREE ENERGY PREDICTED BY IDOCK:   -2.75 KCAL/MOL
REMARK 922        TOTAL FREE ENERGY PREDICTED BY IDOCK:   -4.72 KCAL/MOL
REMARK 923 INTER-LIGAND FREE ENERGY PREDICTED BY IDOCK:   -4.23 KCAL/MOL
REMARK 924 INTRA-LIGAND FREE ENERGY PREDICTED BY IDOCK:   -0.49 KCAL/MOL
REMARK 927      BINDING AFFINITY PREDICTED BY RF-SCORE:    0.00 PKD
ROOT
HETATM    1  C   UNL     1     -10.710  17.116  68.022  1.00  0.00    -0.372 C  
HETATM    2  C   UNL     1     -11.219  15.680  67.931  1.00  0.00    -0.328 C  
ENDROOT
BRANCH   2   3
HETATM    3  N   UNL     1     -10.557  14.890  66.870  1.00  0.00    -0.294 N  
BRANCH   3   4
HETATM    4  C   UNL     1     -10.410  15.493  65.524  1.00  0.00    -0.394 C  
HETATM    5  C   UNL     1     -11.587  15.411  64.556  1.00  0.00    -0.296 C  
ENDBRANCH   3   4
BRANCH   3   6
HETATM    6  C   UNL     1     -10.132  13.553  67.125  1.00  0.00    -0.245 C  
HETATM    7  S   UNL     1      -8.723  13.134  67.971  1.00  0.00    -0.197 S  
BRANCH   6   8
HETATM    8  S   UNL     1     -11.249  12.249  66.617  1.00  0.00    -0.335 SA 
BRANCH   8   9
HETATM    9  S   UNL     1     -10.245  10.512  67.128  1.00  0.00    -0.235 SA 
BRANCH   9  10
HETATM   10  C   UNL     1     -10.864  10.009  68.716  1.00  0.00    -0.219 C  
HETATM   11  S   UNL     1     -11.944  10.886  69.660  1.00  0.00    -0.336 S  
BRANCH  10  12
HETATM   12  N   UNL     1     -10.457   8.707  69.041  1.00  0.00    -0.216 N  
BRANCH  12  13
HETATM   13  C   UNL     1      -9.898   8.403  70.366  1.00  0.00    -0.181 C  
HETATM   14  C   UNL     1      -8.767   9.320  70.809  1.00  0.00    -0.272 C  
ENDBRANCH  12  13
BRANCH  12  15
HETATM   15  C   UNL     1     -10.432   7.662  68.006  1.00  0.00    -0.189 C  
HETATM   16  C   UNL     1      -9.107   6.926  67.897  1.00  0.00    -0.122 C  
ENDBRANCH  12  15
ENDBRANCH  10  12
ENDBRANCH   9  10
ENDBRANCH   8   9
ENDBRANCH   6   8
ENDBRANCH   3   6
ENDBRANCH   2   3
TORSDOF 9
ENDMDL
MODEL      226
REMARK 921   NORMALIZED FREE ENERGY PREDICTED BY IDOCK:   -2.75 KCAL/MOL
REMARK 922        TOTAL FREE ENERGY PREDICTED BY IDOCK:   -4.71 KCAL/MOL
REMARK 923 INTER-LIGAND FREE ENERGY PREDICTED BY IDOCK:   -4.80 KCAL/MOL
REMARK 924 INTRA-LIGAND FREE ENERGY PREDICTED BY IDOCK:    0.09 KCAL/MOL
REMARK 927      BINDING AFFINITY PREDICTED BY RF-SCORE:    0.00 PKD
ROOT
HETATM    1  C   UNL     1     -10.927  10.557  68.713  1.00  0.00    -0.296 C  
HETATM    2  C   UNL     1     -12.222  11.265  69.102  1.00  0.00    -0.183 C  
ENDROOT
BRANCH   2   3
HETATM    3  N   UNL     1     -12.302  11.586  70.544  1.00  0.00    -0.354 N  
BRANCH   3   4
HETATM    4  C   UNL     1     -12.175  10.482  71.524  1.00  0.00    -0.286 C  
HETATM    5  C   UNL     1     -13.390   9.595  71.784  1.00  0.00    -0.505 C  
ENDBRANCH   3   4
BRANCH   3   6
HETATM    6  C   UNL     1     -12.564  12.921  70.972  1.00  0.00    -0.287 C  
HETATM    7  S   UNL     1     -13.720  13.351  72.135  1.00  0.00    -0.521 S  
BRANCH   6   8
HETATM    8  S   UNL     1     -11.495  14.196  70.309  1.00  0.00    -0.056 SA 
BRANCH   8   9
HETATM    9  S   UNL     1     -12.047  14.318  68.318  1.00  0.00    -0.154 SA 
BRANCH   9  10
HETATM   10  C   UNL     1     -11.038  15.582  67.582  1.00  0.00    -0.311 C  
HETATM   11  S   UNL     1     -10.779  17.115  68.222  1.00  0.00    -0.322 S  
BRANCH  10  12
HETATM   12  N   UNL     1     -10.350  15.104  66.456  1.00  0.00    -0.275 N  
BRANCH  12  13
HETATM   13  C   UNL     1      -9.064  15.694  66.056  1.00  0.00    -0.311 C  
HETATM   14  C   UNL     1      -7.882  15.309  66.933  1.00  0.00    -0.152 C  
ENDBRANCH  12  13
BRANCH  12  15
HETATM   15  C   UNL     1     -10.985  14.119  65.567  1.00  0.00    -0.310 C  
HETATM   16  C   UNL     1     -11.986  14.716  64.592  1.00  0.00    -0.472 C  
ENDBRANCH  12  15
ENDBRANCH  10  12
ENDBRANCH   9  10
ENDBRANCH   8   9
ENDBRANCH   6   8
ENDBRANCH   3   6
ENDBRANCH   2   3
TORSDOF 9
ENDMDL
MODEL      227
REMARK 921   NORMALIZED FREE ENERGY PREDICTED BY IDOCK:   -2.74 KCAL/MOL
REMARK 922        TOTAL FREE ENERGY PREDICTED BY IDOCK:   -4.70 KCAL/MOL
REMARK 923 INTER-LIGAND FREE ENERGY PREDICTED BY IDOCK:   -4.28 KCAL/MOL
REMARK 924 INTRA-LIGAND FREE ENERGY PREDICTED BY IDOCK:   -0.42 KCAL/MOL
REMARK 927      BINDING AFFINITY PREDICTED BY RF-SCORE:    0.00 PKD
ROOT
HETATM    1  C   UNL     1     -11.734  14.567  68.251  1.00  0.00    -0.368 C  
HETATM    2  C   UNL     1     -12.254  14.000  66.933  1.00  0.00    -0.380 C  
ENDROOT
BRANCH   2   3
HETATM    3  N   UNL     1     -11.253  14.036  65.844  1.00  0.00    -0.305 N  
BRANCH   3   4
HETATM    4  C   UNL     1     -11.049  15.309  65.111  1.00  0.00    -0.404 C  
HETATM    5  C   UNL     1     -10.085  16.339  65.695  1.00  0.00    -0.340 C  
ENDBRANCH   3   4
BRANCH   3   6
HETATM    6  C   UNL     1     -10.552  12.853  65.470  1.00  0.00    -0.279 C  
HETATM    7  S   UNL     1     -10.460  12.246  63.889  1.00  0.00    -0.453 S  
BRANCH   6   8
HETATM    8  S   UNL     1      -9.608  12.042  66.758  1.00  0.00    -0.213 SA 
BRANCH   8   9
HETATM    9  S   UNL     1     -10.839  10.497  67.374  1.00  0.00    -0.276 SA 
BRANCH   9  10
HETATM   10  C   UNL     1     -10.325  10.055  69.017  1.00  0.00    -0.206 C  
HETATM   11  S   UNL     1     -11.256  10.229  70.406  1.00  0.00    -0.335 S  
BRANCH  10  12
HETATM   12  N   UNL     1      -9.085   9.399  69.012  1.00  0.00    -0.139 N  
BRANCH  12  13
HETATM   13  C   UNL     1      -8.056   9.729  70.010  1.00  0.00    -0.189 C  
HETATM   14  C   UNL     1      -7.062  10.795  69.574  1.00  0.00    -0.132 C  
ENDBRANCH  12  13
BRANCH  12  15
HETATM   15  C   UNL     1      -8.736   8.489  67.910  1.00  0.00    -0.138 C  
HETATM   16  C   UNL     1      -8.177   7.151  68.362  1.00  0.00    -0.125 C  
ENDBRANCH  12  15
ENDBRANCH  10  12
ENDBRANCH   9  10
ENDBRANCH   8   9
ENDBRANCH   6   8
ENDBRANCH   3   6
ENDBRANCH   2   3
TORSDOF 9
ENDMDL
MODEL      228
REMARK 921   NORMALIZED FREE ENERGY PREDICTED BY IDOCK:   -2.74 KCAL/MOL
REMARK 922        TOTAL FREE ENERGY PREDICTED BY IDOCK:   -4.69 KCAL/MOL
REMARK 923 INTER-LIGAND FREE ENERGY PREDICTED BY IDOCK:   -4.30 KCAL/MOL
REMARK 924 INTRA-LIGAND FREE ENERGY PREDICTED BY IDOCK:   -0.39 KCAL/MOL
REMARK 927      BINDING AFFINITY PREDICTED BY RF-SCORE:    0.00 PKD
ROOT
HETATM    1  C   UNL     1      -6.987  15.023  69.490  1.00  0.00    -0.187 C  
HETATM    2  C   UNL     1      -7.543  16.425  69.251  1.00  0.00    -0.180 C  
ENDROOT
BRANCH   2   3
HETATM    3  N   UNL     1      -8.990  16.436  68.945  1.00  0.00    -0.251 N  
BRANCH   3   4
HETATM    4  C   UNL     1      -9.865  15.445  69.615  1.00  0.00    -0.258 C  
HETATM    5  C   UNL     1     -10.922  15.950  70.594  1.00  0.00    -0.312 C  
ENDBRANCH   3   4
BRANCH   3   6
HETATM    6  C   UNL     1      -9.514  17.341  67.975  1.00  0.00    -0.271 C  
HETATM    7  S   UNL     1      -8.875  18.876  67.644  1.00  0.00    -0.291 S  
BRANCH   6   8
HETATM    8  S   UNL     1     -10.862  16.735  66.965  1.00  0.00     0.028 SA 
BRANCH   8   9
HETATM    9  S   UNL     1      -9.960  15.356  65.712  1.00  0.00    -0.374 SA 
BRANCH   9  10
HETATM   10  C   UNL     1     -10.954  13.884  65.767  1.00  0.00    -0.285 C  
HETATM   11  S   UNL     1     -12.633  13.842  65.680  1.00  0.00    -0.473 S  
BRANCH  10  12
HETATM   12  N   UNL     1     -10.165  12.725  65.747  1.00  0.00    -0.285 N  
BRANCH  12  13
HETATM   13  C   UNL     1     -10.399  11.674  64.746  1.00  0.00    -0.282 C  
HETATM   14  C   UNL     1     -10.675  12.180  63.339  1.00  0.00    -0.461 C  
ENDBRANCH  12  13
BRANCH  12  15
HETATM   15  C   UNL     1      -9.200  12.471  66.828  1.00  0.00    -0.217 C  
HETATM   16  C   UNL     1      -9.838  12.216  68.183  1.00  0.00    -0.207 C  
ENDBRANCH  12  15
ENDBRANCH  10  12
ENDBRANCH   9  10
ENDBRANCH   8   9
ENDBRANCH   6   8
ENDBRANCH   3   6
ENDBRANCH   2   3
TORSDOF 9
ENDMDL
MODEL      229
REMARK 921   NORMALIZED FREE ENERGY PREDICTED BY IDOCK:   -2.73 KCAL/MOL
REMARK 922        TOTAL FREE ENERGY PREDICTED BY IDOCK:   -4.69 KCAL/MOL
REMARK 923 INTER-LIGAND FREE ENERGY PREDICTED BY IDOCK:   -4.29 KCAL/MOL
REMARK 924 INTRA-LIGAND FREE ENERGY PREDICTED BY IDOCK:   -0.40 KCAL/MOL
REMARK 927      BINDING AFFINITY PREDICTED BY RF-SCORE:    0.00 PKD
ROOT
HETATM    1  C   UNL     1     -12.437  11.939  63.374  1.00  0.00    -0.582 C  
HETATM    2  C   UNL     1     -11.043  12.415  63.774  1.00  0.00    -0.445 C  
ENDROOT
BRANCH   2   3
HETATM    3  N   UNL     1     -10.684  12.069  65.166  1.00  0.00    -0.278 N  
BRANCH   3   4
HETATM    4  C   UNL     1     -10.203  10.696  65.454  1.00  0.00    -0.273 C  
HETATM    5  C   UNL     1      -9.485   9.929  64.346  1.00  0.00    -0.304 C  
ENDBRANCH   3   4
BRANCH   3   6
HETATM    6  C   UNL     1     -10.862  13.018  66.215  1.00  0.00    -0.278 C  
HETATM    7  S   UNL     1     -12.171  14.090  66.333  1.00  0.00    -0.422 S  
BRANCH   6   8
HETATM    8  S   UNL     1      -9.672  12.965  67.552  1.00  0.00    -0.211 SA 
BRANCH   8   9
HETATM    9  S   UNL     1     -10.485  14.218  68.986  1.00  0.00    -0.159 SA 
BRANCH   9  10
HETATM   10  C   UNL     1      -9.727  15.811  68.764  1.00  0.00    -0.213 C  
HETATM   11  S   UNL     1     -10.518  17.289  68.894  1.00  0.00    -0.283 S  
BRANCH  10  12
HETATM   12  N   UNL     1      -8.337  15.705  68.607  1.00  0.00    -0.166 N  
BRANCH  12  13
HETATM   13  C   UNL     1      -7.671  16.265  67.422  1.00  0.00    -0.160 C  
HETATM   14  C   UNL     1      -8.464  16.154  66.129  1.00  0.00    -0.288 C  
ENDBRANCH  12  13
BRANCH  12  15
HETATM   15  C   UNL     1      -7.549  14.890  69.544  1.00  0.00    -0.137 C  
HETATM   16  C   UNL     1      -6.275  14.315  68.948  1.00  0.00    -0.089 C  
ENDBRANCH  12  15
ENDBRANCH  10  12
ENDBRANCH   9  10
ENDBRANCH   8   9
ENDBRANCH   6   8
ENDBRANCH   3   6
ENDBRANCH   2   3
TORSDOF 9
ENDMDL
MODEL      230
REMARK 921   NORMALIZED FREE ENERGY PREDICTED BY IDOCK:   -2.73 KCAL/MOL
REMARK 922        TOTAL FREE ENERGY PREDICTED BY IDOCK:   -4.68 KCAL/MOL
REMARK 923 INTER-LIGAND FREE ENERGY PREDICTED BY IDOCK:   -4.23 KCAL/MOL
REMARK 924 INTRA-LIGAND FREE ENERGY PREDICTED BY IDOCK:   -0.45 KCAL/MOL
REMARK 927      BINDING AFFINITY PREDICTED BY RF-SCORE:    0.00 PKD
ROOT
HETATM    1  C   UNL     1     -13.105  10.013  71.516  1.00  0.00    -0.531 C  
HETATM    2  C   UNL     1     -11.627   9.841  71.173  1.00  0.00    -0.392 C  
ENDROOT
BRANCH   2   3
HETATM    3  N   UNL     1     -11.156   8.444  71.297  1.00  0.00    -0.246 N  
BRANCH   3   4
HETATM    4  C   UNL     1     -11.930   7.373  70.626  1.00  0.00    -0.176 C  
HETATM    5  C   UNL     1     -11.199   6.099  70.208  1.00  0.00    -0.439 C  
ENDBRANCH   3   4
BRANCH   3   6
HETATM    6  C   UNL     1     -10.020   8.136  72.102  1.00  0.00    -0.247 C  
HETATM    7  S   UNL     1     -10.082   7.303  73.578  1.00  0.00    -0.348 S  
BRANCH   6   8
HETATM    8  S   UNL     1      -8.419   8.557  71.419  1.00  0.00    -0.186 SA 
BRANCH   8   9
HETATM    9  S   UNL     1      -8.839   9.072  69.459  1.00  0.00    -0.152 SA 
BRANCH   9  10
HETATM   10  C   UNL     1      -8.486   7.642  68.465  1.00  0.00    -0.129 C  
HETATM   11  S   UNL     1      -7.424   6.406  68.883  1.00  0.00    -0.089 S  
BRANCH  10  12
HETATM   12  N   UNL     1      -9.313   7.581  67.334  1.00  0.00    -0.137 N  
BRANCH  12  13
HETATM   13  C   UNL     1     -10.307   8.632  67.073  1.00  0.00    -0.298 C  
HETATM   14  C   UNL     1      -9.968   9.560  65.916  1.00  0.00    -0.342 C  
ENDBRANCH  12  13
BRANCH  12  15
HETATM   15  C   UNL     1      -9.310   6.381  66.482  1.00  0.00    -0.155 C  
HETATM   16  C   UNL     1     -10.569   5.538  66.592  1.00  0.00    -0.365 C  
ENDBRANCH  12  15
ENDBRANCH  10  12
ENDBRANCH   9  10
ENDBRANCH   8   9
ENDBRANCH   6   8
ENDBRANCH   3   6
ENDBRANCH   2   3
TORSDOF 9
ENDMDL
MODEL      231
REMARK 921   NORMALIZED FREE ENERGY PREDICTED BY IDOCK:   -2.73 KCAL/MOL
REMARK 922        TOTAL FREE ENERGY PREDICTED BY IDOCK:   -4.68 KCAL/MOL
REMARK 923 INTER-LIGAND FREE ENERGY PREDICTED BY IDOCK:   -4.01 KCAL/MOL
REMARK 924 INTRA-LIGAND FREE ENERGY PREDICTED BY IDOCK:   -0.68 KCAL/MOL
REMARK 927      BINDING AFFINITY PREDICTED BY RF-SCORE:    0.00 PKD
ROOT
HETATM    1  C   UNL     1     -11.544  12.387  64.040  1.00  0.00    -0.488 C  
HETATM    2  C   UNL     1     -10.613  13.474  64.571  1.00  0.00    -0.424 C  
ENDROOT
BRANCH   2   3
HETATM    3  N   UNL     1     -10.564  13.533  66.048  1.00  0.00    -0.281 N  
BRANCH   3   4
HETATM    4  C   UNL     1     -11.809  13.277  66.810  1.00  0.00    -0.394 C  
HETATM    5  C   UNL     1     -12.019  14.012  68.131  1.00  0.00    -0.382 C  
ENDBRANCH   3   4
BRANCH   3   6
HETATM    6  C   UNL     1      -9.357  13.895  66.715  1.00  0.00    -0.275 C  
HETATM    7  S   UNL     1      -8.667  15.444  66.688  1.00  0.00    -0.294 S  
BRANCH   6   8
HETATM    8  S   UNL     1      -8.608  12.639  67.749  1.00  0.00    -0.192 SA 
BRANCH   8   9
HETATM    9  S   UNL     1      -7.877  11.256  66.393  1.00  0.00    -0.058 SA 
BRANCH   9  10
HETATM   10  C   UNL     1      -9.099   9.973  66.259  1.00  0.00    -0.151 C  
HETATM   11  S   UNL     1     -10.484   9.847  67.204  1.00  0.00    -0.227 S  
BRANCH  10  12
HETATM   12  N   UNL     1      -8.853   9.137  65.160  1.00  0.00    -0.198 N  
BRANCH  12  13
HETATM   13  C   UNL     1      -8.408   7.749  65.357  1.00  0.00    -0.136 C  
HETATM   14  C   UNL     1      -7.296   7.572  66.379  1.00  0.00    -0.083 C  
ENDBRANCH  12  13
BRANCH  12  15
HETATM   15  C   UNL     1      -8.877   9.686  63.795  1.00  0.00    -0.231 C  
HETATM   16  C   UNL     1      -8.353   8.734  62.733  1.00  0.00    -0.192 C  
ENDBRANCH  12  15
ENDBRANCH  10  12
ENDBRANCH   9  10
ENDBRANCH   8   9
ENDBRANCH   6   8
ENDBRANCH   3   6
ENDBRANCH   2   3
TORSDOF 9
ENDMDL
MODEL      232
REMARK 921   NORMALIZED FREE ENERGY PREDICTED BY IDOCK:   -2.73 KCAL/MOL
REMARK 922        TOTAL FREE ENERGY PREDICTED BY IDOCK:   -4.68 KCAL/MOL
REMARK 923 INTER-LIGAND FREE ENERGY PREDICTED BY IDOCK:   -4.29 KCAL/MOL
REMARK 924 INTRA-LIGAND FREE ENERGY PREDICTED BY IDOCK:   -0.39 KCAL/MOL
REMARK 927      BINDING AFFINITY PREDICTED BY RF-SCORE:    0.00 PKD
ROOT
HETATM    1  C   UNL     1     -10.614   5.852  66.713  1.00  0.00    -0.368 C  
HETATM    2  C   UNL     1     -10.968   7.245  67.225  1.00  0.00    -0.214 C  
ENDROOT
BRANCH   2   3
HETATM    3  N   UNL     1      -9.975   7.787  68.178  1.00  0.00    -0.171 N  
BRANCH   3   4
HETATM    4  C   UNL     1     -10.195   7.577  69.629  1.00  0.00    -0.205 C  
HETATM    5  C   UNL     1     -11.345   6.673  70.067  1.00  0.00    -0.440 C  
ENDBRANCH   3   4
BRANCH   3   6
HETATM    6  C   UNL     1      -8.867   8.552  67.707  1.00  0.00    -0.137 C  
HETATM    7  S   UNL     1      -7.564   7.920  66.826  1.00  0.00    -0.099 S  
BRANCH   6   8
HETATM    8  S   UNL     1      -8.948  10.322  67.971  1.00  0.00    -0.133 SA 
BRANCH   8   9
HETATM    9  S   UNL     1     -10.670  10.891  66.973  1.00  0.00    -0.263 SA 
BRANCH   9  10
HETATM   10  C   UNL     1     -10.180  11.366  65.332  1.00  0.00    -0.270 C  
HETATM   11  S   UNL     1      -9.135  10.498  64.341  1.00  0.00    -0.241 S  
BRANCH  10  12
HETATM   12  N   UNL     1     -10.884  12.494  64.888  1.00  0.00    -0.283 N  
BRANCH  12  13
HETATM   13  C   UNL     1     -10.202  13.786  64.718  1.00  0.00    -0.335 C  
HETATM   14  C   UNL     1      -9.669  14.403  66.003  1.00  0.00    -0.320 C  
ENDBRANCH  12  13
BRANCH  12  15
HETATM   15  C   UNL     1     -12.347  12.441  64.744  1.00  0.00    -0.423 C  
HETATM   16  C   UNL     1     -12.821  11.947  63.388  1.00  0.00    -0.393 C  
ENDBRANCH  12  15
ENDBRANCH  10  12
ENDBRANCH   9  10
ENDBRANCH   8   9
ENDBRANCH   6   8
ENDBRANCH   3   6
ENDBRANCH   2   3
TORSDOF 9
ENDMDL
MODEL      233
REMARK 921   NORMALIZED FREE ENERGY PREDICTED BY IDOCK:   -2.72 KCAL/MOL
REMARK 922        TOTAL FREE ENERGY PREDICTED BY IDOCK:   -4.66 KCAL/MOL
REMARK 923 INTER-LIGAND FREE ENERGY PREDICTED BY IDOCK:   -4.03 KCAL/MOL
REMARK 924 INTRA-LIGAND FREE ENERGY PREDICTED BY IDOCK:   -0.63 KCAL/MOL
REMARK 927      BINDING AFFINITY PREDICTED BY RF-SCORE:    0.00 PKD
ROOT
HETATM    1  C   UNL     1      -7.347  10.110  65.999  1.00  0.00    -0.118 C  
HETATM    2  C   UNL     1      -7.793   9.742  67.411  1.00  0.00    -0.099 C  
ENDROOT
BRANCH   2   3
HETATM    3  N   UNL     1      -9.203   9.300  67.484  1.00  0.00    -0.124 N  
BRANCH   3   4
HETATM    4  C   UNL     1      -9.684   8.302  66.499  1.00  0.00    -0.253 C  
HETATM    5  C   UNL     1     -10.411   7.063  67.015  1.00  0.00    -0.386 C  
ENDBRANCH   3   4
BRANCH   3   6
HETATM    6  C   UNL     1     -10.090   9.876  68.439  1.00  0.00    -0.167 C  
HETATM    7  S   UNL     1      -9.921   9.734  70.121  1.00  0.00    -0.243 S  
BRANCH   6   8
HETATM    8  S   UNL     1     -11.393  10.921  67.792  1.00  0.00    -0.234 SA 
BRANCH   8   9
HETATM    9  S   UNL     1     -11.115  12.721  68.776  1.00  0.00    -0.263 SA 
BRANCH   9  10
HETATM   10  C   UNL     1     -10.176  13.763  67.685  1.00  0.00    -0.242 C  
HETATM   11  S   UNL     1      -8.556  13.547  67.289  1.00  0.00    -0.202 S  
BRANCH  10  12
HETATM   12  N   UNL     1     -10.986  14.725  67.064  1.00  0.00    -0.316 N  
BRANCH  12  13
HETATM   13  C   UNL     1     -10.764  16.160  67.299  1.00  0.00    -0.277 C  
HETATM   14  C   UNL     1     -10.551  16.544  68.755  1.00  0.00    -0.322 C  
ENDBRANCH  12  13
BRANCH  12  15
HETATM   15  C   UNL     1     -12.172  14.309  66.299  1.00  0.00    -0.410 C  
HETATM   16  C   UNL     1     -11.855  13.511  65.046  1.00  0.00    -0.377 C  
ENDBRANCH  12  15
ENDBRANCH  10  12
ENDBRANCH   9  10
ENDBRANCH   8   9
ENDBRANCH   6   8
ENDBRANCH   3   6
ENDBRANCH   2   3
TORSDOF 9
ENDMDL
MODEL      234
REMARK 921   NORMALIZED FREE ENERGY PREDICTED BY IDOCK:   -2.72 KCAL/MOL
REMARK 922        TOTAL FREE ENERGY PREDICTED BY IDOCK:   -4.66 KCAL/MOL
REMARK 923 INTER-LIGAND FREE ENERGY PREDICTED BY IDOCK:   -4.26 KCAL/MOL
REMARK 924 INTRA-LIGAND FREE ENERGY PREDICTED BY IDOCK:   -0.40 KCAL/MOL
REMARK 927      BINDING AFFINITY PREDICTED BY RF-SCORE:    0.00 PKD
ROOT
HETATM    1  C   UNL     1     -10.082   5.129  66.779  1.00  0.00    -0.264 C  
HETATM    2  C   UNL     1     -11.043   6.252  67.159  1.00  0.00    -0.303 C  
ENDROOT
BRANCH   2   3
HETATM    3  N   UNL     1     -10.504   7.155  68.200  1.00  0.00    -0.196 N  
BRANCH   3   4
HETATM    4  C   UNL     1     -10.826   6.873  69.619  1.00  0.00    -0.259 C  
HETATM    5  C   UNL     1      -9.791   6.139  70.469  1.00  0.00    -0.214 C  
ENDBRANCH   3   4
BRANCH   3   6
HETATM    6  C   UNL     1      -9.749   8.307  67.833  1.00  0.00    -0.161 C  
HETATM    7  S   UNL     1      -8.068   8.452  68.001  1.00  0.00    -0.124 S  
BRANCH   6   8
HETATM    8  S   UNL     1     -10.648   9.629  67.025  1.00  0.00    -0.154 SA 
BRANCH   8   9
HETATM    9  S   UNL     1      -9.203  10.592  65.899  1.00  0.00    -0.191 SA 
BRANCH   9  10
HETATM   10  C   UNL     1      -9.403  12.334  66.188  1.00  0.00    -0.176 C  
HETATM   11  S   UNL     1      -8.561  13.232  67.334  1.00  0.00    -0.213 S  
BRANCH  10  12
HETATM   12  N   UNL     1     -10.255  12.921  65.241  1.00  0.00    -0.290 N  
BRANCH  12  13
HETATM   13  C   UNL     1     -10.625  12.200  64.014  1.00  0.00    -0.389 C  
HETATM   14  C   UNL     1     -12.121  12.074  63.771  1.00  0.00    -0.599 C  
ENDBRANCH  12  13
BRANCH  12  15
HETATM   15  C   UNL     1     -10.659  14.328  65.384  1.00  0.00    -0.354 C  
HETATM   16  C   UNL     1     -11.743  14.562  66.422  1.00  0.00    -0.372 C  
ENDBRANCH  12  15
ENDBRANCH  10  12
ENDBRANCH   9  10
ENDBRANCH   8   9
ENDBRANCH   6   8
ENDBRANCH   3   6
ENDBRANCH   2   3
TORSDOF 9
ENDMDL
MODEL      235
REMARK 921   NORMALIZED FREE ENERGY PREDICTED BY IDOCK:   -2.70 KCAL/MOL
REMARK 922        TOTAL FREE ENERGY PREDICTED BY IDOCK:   -4.63 KCAL/MOL
REMARK 923 INTER-LIGAND FREE ENERGY PREDICTED BY IDOCK:   -4.14 KCAL/MOL
REMARK 924 INTRA-LIGAND FREE ENERGY PREDICTED BY IDOCK:   -0.50 KCAL/MOL
REMARK 927      BINDING AFFINITY PREDICTED BY RF-SCORE:    0.00 PKD
ROOT
HETATM    1  C   UNL     1      -9.295   8.069  73.012  1.00  0.00    -0.344 C  
HETATM    2  C   UNL     1     -10.557   8.334  72.194  1.00  0.00    -0.310 C  
ENDROOT
BRANCH   2   3
HETATM    3  N   UNL     1     -10.317   9.182  71.006  1.00  0.00    -0.267 N  
BRANCH   3   4
HETATM    4  C   UNL     1     -11.288  10.258  70.695  1.00  0.00    -0.347 C  
HETATM    5  C   UNL     1     -12.668  10.203  71.345  1.00  0.00    -0.530 C  
ENDBRANCH   3   4
BRANCH   3   6
HETATM    6  C   UNL     1      -9.210   8.921  70.146  1.00  0.00    -0.180 C  
HETATM    7  S   UNL     1      -7.691   9.663  70.277  1.00  0.00    -0.169 S  
BRANCH   6   8
HETATM    8  S   UNL     1      -9.430   7.623  68.932  1.00  0.00    -0.149 SA 
BRANCH   8   9
HETATM    9  S   UNL     1     -10.389   8.572  67.362  1.00  0.00    -0.291 SA 
BRANCH   9  10
HETATM   10  C   UNL     1      -9.278   9.825  66.765  1.00  0.00    -0.148 C  
HETATM   11  S   UNL     1      -7.802   9.537  66.014  1.00  0.00    -0.101 S  
BRANCH  10  12
HETATM   12  N   UNL     1      -9.843  11.105  66.860  1.00  0.00    -0.191 N  
BRANCH  12  13
HETATM   13  C   UNL     1      -9.002  12.307  66.759  1.00  0.00    -0.209 C  
HETATM   14  C   UNL     1      -8.239  12.663  68.025  1.00  0.00    -0.167 C  
ENDBRANCH  12  13
BRANCH  12  15
HETATM   15  C   UNL     1     -11.260  11.261  67.227  1.00  0.00    -0.296 C  
HETATM   16  C   UNL     1     -11.731  12.704  67.287  1.00  0.00    -0.435 C  
ENDBRANCH  12  15
ENDBRANCH  10  12
ENDBRANCH   9  10
ENDBRANCH   8   9
ENDBRANCH   6   8
ENDBRANCH   3   6
ENDBRANCH   2   3
TORSDOF 9
ENDMDL
MODEL      236
REMARK 921   NORMALIZED FREE ENERGY PREDICTED BY IDOCK:   -2.69 KCAL/MOL
REMARK 922        TOTAL FREE ENERGY PREDICTED BY IDOCK:   -4.63 KCAL/MOL
REMARK 923 INTER-LIGAND FREE ENERGY PREDICTED BY IDOCK:   -4.14 KCAL/MOL
REMARK 924 INTRA-LIGAND FREE ENERGY PREDICTED BY IDOCK:   -0.49 KCAL/MOL
REMARK 927      BINDING AFFINITY PREDICTED BY RF-SCORE:    0.00 PKD
ROOT
HETATM    1  C   UNL     1      -8.919   9.113  70.735  1.00  0.00    -0.296 C  
HETATM    2  C   UNL     1     -10.246   8.577  70.204  1.00  0.00    -0.195 C  
ENDROOT
BRANCH   2   3
HETATM    3  N   UNL     1     -10.774   9.353  69.060  1.00  0.00    -0.214 N  
BRANCH   3   4
HETATM    4  C   UNL     1     -10.376   8.955  67.689  1.00  0.00    -0.251 C  
HETATM    5  C   UNL     1     -10.533   7.493  67.280  1.00  0.00    -0.391 C  
ENDBRANCH   3   4
BRANCH   3   6
HETATM    6  C   UNL     1     -11.594  10.498  69.284  1.00  0.00    -0.236 C  
HETATM    7  S   UNL     1     -12.318  10.891  70.765  1.00  0.00    -0.414 S  
BRANCH   6   8
HETATM    8  S   UNL     1     -11.747  11.649  67.920  1.00  0.00    -0.206 SA 
BRANCH   8   9
HETATM    9  S   UNL     1      -9.943  12.663  67.924  1.00  0.00    -0.234 SA 
BRANCH   9  10
HETATM   10  C   UNL     1     -10.298  14.342  68.383  1.00  0.00    -0.244 C  
HETATM   11  S   UNL     1     -11.461  14.819  69.500  1.00  0.00    -0.316 S  
BRANCH  10  12
HETATM   12  N   UNL     1      -9.388  15.240  67.807  1.00  0.00    -0.195 N  
BRANCH  12  13
HETATM   13  C   UNL     1      -9.856  16.481  67.171  1.00  0.00    -0.255 C  
HETATM   14  C   UNL     1     -10.393  16.313  65.758  1.00  0.00    -0.393 C  
ENDBRANCH  12  13
BRANCH  12  15
HETATM   15  C   UNL     1      -7.968  14.874  67.684  1.00  0.00    -0.169 C  
HETATM   16  C   UNL     1      -7.042  15.661  68.596  1.00  0.00    -0.127 C  
ENDBRANCH  12  15
ENDBRANCH  10  12
ENDBRANCH   9  10
ENDBRANCH   8   9
ENDBRANCH   6   8
ENDBRANCH   3   6
ENDBRANCH   2   3
TORSDOF 9
ENDMDL
MODEL      237
REMARK 921   NORMALIZED FREE ENERGY PREDICTED BY IDOCK:   -2.69 KCAL/MOL
REMARK 922        TOTAL FREE ENERGY PREDICTED BY IDOCK:   -4.62 KCAL/MOL
REMARK 923 INTER-LIGAND FREE ENERGY PREDICTED BY IDOCK:   -3.97 KCAL/MOL
REMARK 924 INTRA-LIGAND FREE ENERGY PREDICTED BY IDOCK:   -0.65 KCAL/MOL
REMARK 927      BINDING AFFINITY PREDICTED BY RF-SCORE:    0.00 PKD
ROOT
HETATM    1  C   UNL     1     -10.164  17.881  68.655  1.00  0.00    -0.387 C  
HETATM    2  C   UNL     1     -10.860  16.754  67.896  1.00  0.00    -0.311 C  
ENDROOT
BRANCH   2   3
HETATM    3  N   UNL     1     -11.012  15.518  68.694  1.00  0.00    -0.264 N  
BRANCH   3   4
HETATM    4  C   UNL     1     -11.997  15.506  69.802  1.00  0.00    -0.364 C  
HETATM    5  C   UNL     1     -11.477  15.474  71.237  1.00  0.00    -0.462 C  
ENDBRANCH   3   4
BRANCH   3   6
HETATM    6  C   UNL     1     -10.180  14.389  68.439  1.00  0.00    -0.243 C  
HETATM    7  S   UNL     1      -8.493  14.451  68.281  1.00  0.00    -0.171 S  
BRANCH   6   8
HETATM    8  S   UNL     1     -10.987  12.790  68.416  1.00  0.00    -0.268 SA 
BRANCH   8   9
HETATM    9  S   UNL     1      -9.930  11.725  66.990  1.00  0.00    -0.206 SA 
BRANCH   9  10
HETATM   10  C   UNL     1      -8.878  10.594  67.869  1.00  0.00    -0.131 C  
HETATM   11  S   UNL     1      -7.202  10.695  67.956  1.00  0.00    -0.088 S  
BRANCH  10  12
HETATM   12  N   UNL     1      -9.622   9.670  68.617  1.00  0.00    -0.148 N  
BRANCH  12  13
HETATM   13  C   UNL     1     -10.660   8.848  67.976  1.00  0.00    -0.168 C  
HETATM   14  C   UNL     1     -10.140   7.828  66.974  1.00  0.00    -0.343 C  
ENDBRANCH  12  13
BRANCH  12  15
HETATM   15  C   UNL     1      -9.489   9.628  70.081  1.00  0.00    -0.253 C  
HETATM   16  C   UNL     1      -8.963   8.308  70.620  1.00  0.00    -0.161 C  
ENDBRANCH  12  15
ENDBRANCH  10  12
ENDBRANCH   9  10
ENDBRANCH   8   9
ENDBRANCH   6   8
ENDBRANCH   3   6
ENDBRANCH   2   3
TORSDOF 9
ENDMDL
MODEL      238
REMARK 921   NORMALIZED FREE ENERGY PREDICTED BY IDOCK:   -2.69 KCAL/MOL
REMARK 922        TOTAL FREE ENERGY PREDICTED BY IDOCK:   -4.61 KCAL/MOL
REMARK 923 INTER-LIGAND FREE ENERGY PREDICTED BY IDOCK:   -4.06 KCAL/MOL
REMARK 924 INTRA-LIGAND FREE ENERGY PREDICTED BY IDOCK:   -0.55 KCAL/MOL
REMARK 927      BINDING AFFINITY PREDICTED BY RF-SCORE:    0.00 PKD
ROOT
HETATM    1  C   UNL     1      -5.894  11.005  68.641  1.00  0.00    -0.043 C  
HETATM    2  C   UNL     1      -6.933   9.887  68.614  1.00  0.00    -0.062 C  
ENDROOT
BRANCH   2   3
HETATM    3  N   UNL     1      -7.293   9.457  67.245  1.00  0.00    -0.087 N  
BRANCH   3   4
HETATM    4  C   UNL     1      -6.218   8.968  66.349  1.00  0.00    -0.064 C  
HETATM    5  C   UNL     1      -5.935   9.739  65.062  1.00  0.00    -0.089 C  
ENDBRANCH   3   4
BRANCH   3   6
HETATM    6  C   UNL     1      -8.636   9.576  66.782  1.00  0.00    -0.127 C  
HETATM    7  S   UNL     1      -9.762   8.308  66.752  1.00  0.00    -0.261 S  
BRANCH   6   8
HETATM    8  S   UNL     1      -9.182  11.220  66.327  1.00  0.00    -0.204 SA 
BRANCH   8   9
HETATM    9  S   UNL     1     -11.076  11.357  67.151  1.00  0.00    -0.298 SA 
BRANCH   9  10
HETATM   10  C   UNL     1     -11.551  13.067  67.065  1.00  0.00    -0.360 C  
HETATM   11  S   UNL     1     -11.839  14.064  68.388  1.00  0.00    -0.353 S  
BRANCH  10  12
HETATM   12  N   UNL     1     -11.521  13.546  65.747  1.00  0.00    -0.310 N  
BRANCH  12  13
HETATM   13  C   UNL     1     -10.607  14.632  65.362  1.00  0.00    -0.374 C  
HETATM   14  C   UNL     1     -11.270  15.812  64.670  1.00  0.00    -0.373 C  
ENDBRANCH  12  13
BRANCH  12  15
HETATM   15  C   UNL     1     -12.520  13.082  64.771  1.00  0.00    -0.427 C  
HETATM   16  C   UNL     1     -11.925  12.417  63.541  1.00  0.00    -0.627 C  
ENDBRANCH  12  15
ENDBRANCH  10  12
ENDBRANCH   9  10
ENDBRANCH   8   9
ENDBRANCH   6   8
ENDBRANCH   3   6
ENDBRANCH   2   3
TORSDOF 9
ENDMDL
MODEL      239
REMARK 921   NORMALIZED FREE ENERGY PREDICTED BY IDOCK:   -2.68 KCAL/MOL
REMARK 922        TOTAL FREE ENERGY PREDICTED BY IDOCK:   -4.61 KCAL/MOL
REMARK 923 INTER-LIGAND FREE ENERGY PREDICTED BY IDOCK:   -4.03 KCAL/MOL
REMARK 924 INTRA-LIGAND FREE ENERGY PREDICTED BY IDOCK:   -0.58 KCAL/MOL
REMARK 927      BINDING AFFINITY PREDICTED BY RF-SCORE:    0.00 PKD
ROOT
HETATM    1  C   UNL     1      -8.313   8.007  67.034  1.00  0.00    -0.116 C  
HETATM    2  C   UNL     1      -8.347   9.530  67.121  1.00  0.00    -0.131 C  
ENDROOT
BRANCH   2   3
HETATM    3  N   UNL     1      -9.575  10.122  66.546  1.00  0.00    -0.179 N  
BRANCH   3   4
HETATM    4  C   UNL     1      -9.780  10.043  65.080  1.00  0.00    -0.317 C  
HETATM    5  C   UNL     1      -8.612  10.391  64.161  1.00  0.00    -0.186 C  
ENDBRANCH   3   4
BRANCH   3   6
HETATM    6  C   UNL     1     -10.502  10.810  67.381  1.00  0.00    -0.225 C  
HETATM    7  S   UNL     1     -10.836  10.402  68.993  1.00  0.00    -0.250 S  
BRANCH   6   8
HETATM    8  S   UNL     1     -11.259  12.281  66.693  1.00  0.00    -0.335 SA 
BRANCH   8   9
HETATM    9  S   UNL     1      -9.685  13.615  66.529  1.00  0.00    -0.292 SA 
BRANCH   9  10
HETATM   10  C   UNL     1     -10.216  15.133  67.285  1.00  0.00    -0.243 C  
HETATM   11  S   UNL     1     -11.173  15.249  68.663  1.00  0.00    -0.315 S  
BRANCH  10  12
HETATM   12  N   UNL     1      -9.622  16.249  66.678  1.00  0.00    -0.233 N  
BRANCH  12  13
HETATM   13  C   UNL     1     -10.447  17.283  66.036  1.00  0.00    -0.282 C  
HETATM   14  C   UNL     1     -10.411  18.643  66.717  1.00  0.00    -0.454 C  
ENDBRANCH  12  13
BRANCH  12  15
HETATM   15  C   UNL     1      -8.160  16.317  66.531  1.00  0.00    -0.302 C  
HETATM   16  C   UNL     1      -7.418  16.609  67.824  1.00  0.00    -0.169 C  
ENDBRANCH  12  15
ENDBRANCH  10  12
ENDBRANCH   9  10
ENDBRANCH   8   9
ENDBRANCH   6   8
ENDBRANCH   3   6
ENDBRANCH   2   3
TORSDOF 9
ENDMDL
MODEL      240
REMARK 921   NORMALIZED FREE ENERGY PREDICTED BY IDOCK:   -2.68 KCAL/MOL
REMARK 922        TOTAL FREE ENERGY PREDICTED BY IDOCK:   -4.61 KCAL/MOL
REMARK 923 INTER-LIGAND FREE ENERGY PREDICTED BY IDOCK:   -4.11 KCAL/MOL
REMARK 924 INTRA-LIGAND FREE ENERGY PREDICTED BY IDOCK:   -0.50 KCAL/MOL
REMARK 927      BINDING AFFINITY PREDICTED BY RF-SCORE:    0.00 PKD
ROOT
HETATM    1  C   UNL     1      -7.702   9.665  66.014  1.00  0.00    -0.102 C  
HETATM    2  C   UNL     1      -7.629   8.887  67.326  1.00  0.00    -0.089 C  
ENDROOT
BRANCH   2   3
HETATM    3  N   UNL     1      -8.901   8.220  67.682  1.00  0.00    -0.136 N  
BRANCH   3   4
HETATM    4  C   UNL     1      -9.556   7.356  66.671  1.00  0.00    -0.190 C  
HETATM    5  C   UNL     1     -10.941   6.795  66.980  1.00  0.00    -0.439 C  
ENDBRANCH   3   4
BRANCH   3   6
HETATM    6  C   UNL     1      -9.511   8.461  68.948  1.00  0.00    -0.147 C  
HETATM    7  S   UNL     1      -9.663   7.306  70.180  1.00  0.00    -0.171 S  
BRANCH   6   8
HETATM    8  S   UNL     1     -10.029  10.143  69.278  1.00  0.00    -0.231 SA 
BRANCH   8   9
HETATM    9  S   UNL     1     -10.930  10.738  67.512  1.00  0.00    -0.310 SA 
BRANCH   9  10
HETATM   10  C   UNL     1     -10.213  12.304  67.072  1.00  0.00    -0.215 C  
HETATM   11  S   UNL     1      -8.971  13.072  67.905  1.00  0.00    -0.209 S  
BRANCH  10  12
HETATM   12  N   UNL     1     -10.709  12.774  65.847  1.00  0.00    -0.267 N  
BRANCH  12  13
HETATM   13  C   UNL     1     -10.320  12.131  64.583  1.00  0.00    -0.297 C  
HETATM   14  C   UNL     1     -11.463  11.890  63.609  1.00  0.00    -0.551 C  
ENDBRANCH  12  13
BRANCH  12  15
HETATM   15  C   UNL     1     -11.494  14.017  65.797  1.00  0.00    -0.318 C  
HETATM   16  C   UNL     1     -10.781  15.176  65.122  1.00  0.00    -0.442 C  
ENDBRANCH  12  15
ENDBRANCH  10  12
ENDBRANCH   9  10
ENDBRANCH   8   9
ENDBRANCH   6   8
ENDBRANCH   3   6
ENDBRANCH   2   3
TORSDOF 9
ENDMDL
MODEL      241
REMARK 921   NORMALIZED FREE ENERGY PREDICTED BY IDOCK:   -2.68 KCAL/MOL
REMARK 922        TOTAL FREE ENERGY PREDICTED BY IDOCK:   -4.61 KCAL/MOL
REMARK 923 INTER-LIGAND FREE ENERGY PREDICTED BY IDOCK:   -4.04 KCAL/MOL
REMARK 924 INTRA-LIGAND FREE ENERGY PREDICTED BY IDOCK:   -0.57 KCAL/MOL
REMARK 927      BINDING AFFINITY PREDICTED BY RF-SCORE:    0.00 PKD
ROOT
HETATM    1  C   UNL     1      -6.918   9.104  70.534  1.00  0.00    -0.082 C  
HETATM    2  C   UNL     1      -7.935   8.642  69.494  1.00  0.00    -0.097 C  
ENDROOT
BRANCH   2   3
HETATM    3  N   UNL     1      -8.635   9.759  68.824  1.00  0.00    -0.122 N  
BRANCH   3   4
HETATM    4  C   UNL     1      -7.848  10.677  67.967  1.00  0.00    -0.105 C  
HETATM    5  C   UNL     1      -7.597  12.099  68.462  1.00  0.00    -0.124 C  
ENDBRANCH   3   4
BRANCH   3   6
HETATM    6  C   UNL     1     -10.025   9.980  69.054  1.00  0.00    -0.196 C  
HETATM    7  S   UNL     1     -10.800   9.770  70.547  1.00  0.00    -0.342 S  
BRANCH   6   8
HETATM    8  S   UNL     1     -10.966  10.647  67.684  1.00  0.00    -0.313 SA 
BRANCH   8   9
HETATM    9  S   UNL     1     -11.784  12.388  68.448  1.00  0.00    -0.323 SA 
BRANCH   9  10
HETATM   10  C   UNL     1     -11.556  13.647  67.215  1.00  0.00    -0.356 C  
HETATM   11  S   UNL     1     -12.283  13.666  65.699  1.00  0.00    -0.481 S  
BRANCH  10  12
HETATM   12  N   UNL     1     -10.800  14.722  67.707  1.00  0.00    -0.272 N  
BRANCH  12  13
HETATM   13  C   UNL     1     -11.355  15.629  68.722  1.00  0.00    -0.349 C  
HETATM   14  C   UNL     1     -10.429  15.925  69.891  1.00  0.00    -0.311 C  
ENDBRANCH  12  13
BRANCH  12  15
HETATM   15  C   UNL     1      -9.504  15.052  67.094  1.00  0.00    -0.216 C  
HETATM   16  C   UNL     1      -9.495  16.363  66.326  1.00  0.00    -0.347 C  
ENDBRANCH  12  15
ENDBRANCH  10  12
ENDBRANCH   9  10
ENDBRANCH   8   9
ENDBRANCH   6   8
ENDBRANCH   3   6
ENDBRANCH   2   3
TORSDOF 9
ENDMDL
MODEL      242
REMARK 921   NORMALIZED FREE ENERGY PREDICTED BY IDOCK:   -2.67 KCAL/MOL
REMARK 922        TOTAL FREE ENERGY PREDICTED BY IDOCK:   -4.58 KCAL/MOL
REMARK 923 INTER-LIGAND FREE ENERGY PREDICTED BY IDOCK:   -4.10 KCAL/MOL
REMARK 924 INTRA-LIGAND FREE ENERGY PREDICTED BY IDOCK:   -0.49 KCAL/MOL
REMARK 927      BINDING AFFINITY PREDICTED BY RF-SCORE:    0.00 PKD
ROOT
HETATM    1  C   UNL     1     -10.962  15.642  64.950  1.00  0.00    -0.447 C  
HETATM    2  C   UNL     1     -10.641  17.027  65.504  1.00  0.00    -0.173 C  
ENDROOT
BRANCH   2   3
HETATM    3  N   UNL     1     -10.081  16.995  66.873  1.00  0.00    -0.289 N  
BRANCH   3   4
HETATM    4  C   UNL     1     -10.604  17.953  67.876  1.00  0.00    -0.376 C  
HETATM    5  C   UNL     1     -10.058  19.378  67.875  1.00  0.00    -0.503 C  
ENDBRANCH   3   4
BRANCH   3   6
HETATM    6  C   UNL     1      -9.015  16.104  67.194  1.00  0.00    -0.200 C  
HETATM    7  S   UNL     1      -7.427  16.253  66.619  1.00  0.00    -0.136 S  
BRANCH   6   8
HETATM    8  S   UNL     1      -9.378  14.823  68.392  1.00  0.00    -0.202 SA 
BRANCH   8   9
HETATM    9  S   UNL     1      -8.874  13.072  67.409  1.00  0.00    -0.213 SA 
BRANCH   9  10
HETATM   10  C   UNL     1     -10.316  12.033  67.439  1.00  0.00    -0.207 C  
HETATM   11  S   UNL     1     -11.856  12.494  66.945  1.00  0.00    -0.254 S  
BRANCH  10  12
HETATM   12  N   UNL     1      -9.996  10.714  67.794  1.00  0.00    -0.164 N  
BRANCH  12  13
HETATM   13  C   UNL     1     -10.670   9.578  67.148  1.00  0.00    -0.182 C  
HETATM   14  C   UNL     1      -9.876   8.911  66.035  1.00  0.00    -0.277 C  
ENDBRANCH  12  13
BRANCH  12  15
HETATM   15  C   UNL     1      -9.101  10.453  68.931  1.00  0.00    -0.173 C  
HETATM   16  C   UNL     1      -9.775   9.767  70.108  1.00  0.00    -0.299 C  
ENDBRANCH  12  15
ENDBRANCH  10  12
ENDBRANCH   9  10
ENDBRANCH   8   9
ENDBRANCH   6   8
ENDBRANCH   3   6
ENDBRANCH   2   3
TORSDOF 9
ENDMDL
MODEL      243
REMARK 921   NORMALIZED FREE ENERGY PREDICTED BY IDOCK:   -2.66 KCAL/MOL
REMARK 922        TOTAL FREE ENERGY PREDICTED BY IDOCK:   -4.58 KCAL/MOL
REMARK 923 INTER-LIGAND FREE ENERGY PREDICTED BY IDOCK:   -4.30 KCAL/MOL
REMARK 924 INTRA-LIGAND FREE ENERGY PREDICTED BY IDOCK:   -0.28 KCAL/MOL
REMARK 927      BINDING AFFINITY PREDICTED BY RF-SCORE:    0.00 PKD
ROOT
HETATM    1  C   UNL     1      -8.849  13.704  67.295  1.00  0.00    -0.227 C  
HETATM    2  C   UNL     1      -9.720  12.630  66.651  1.00  0.00    -0.249 C  
ENDROOT
BRANCH   2   3
HETATM    3  N   UNL     1     -11.121  12.649  67.126  1.00  0.00    -0.268 N  
BRANCH   3   4
HETATM    4  C   UNL     1     -12.159  13.242  66.249  1.00  0.00    -0.414 C  
HETATM    5  C   UNL     1     -12.292  12.718  64.821  1.00  0.00    -0.540 C  
ENDBRANCH   3   4
BRANCH   3   6
HETATM    6  C   UNL     1     -11.448  12.167  68.427  1.00  0.00    -0.304 C  
HETATM    7  S   UNL     1     -11.993  13.138  69.706  1.00  0.00    -0.273 S  
BRANCH   6   8
HETATM    8  S   UNL     1     -11.390  10.393  68.660  1.00  0.00    -0.171 SA 
BRANCH   8   9
HETATM    9  S   UNL     1     -11.724  10.150  70.689  1.00  0.00    -0.361 SA 
BRANCH   9  10
HETATM   10  C   UNL     1     -11.108   8.540  71.122  1.00  0.00    -0.260 C  
HETATM   11  S   UNL     1     -11.924   7.090  70.879  1.00  0.00    -0.349 S  
BRANCH  10  12
HETATM   12  N   UNL     1      -9.779   8.597  71.568  1.00  0.00    -0.235 N  
BRANCH  12  13
HETATM   13  C   UNL     1      -8.666   8.650  70.608  1.00  0.00    -0.165 C  
HETATM   14  C   UNL     1      -7.285   8.759  71.235  1.00  0.00    -0.105 C  
ENDBRANCH  12  13
BRANCH  12  15
HETATM   15  C   UNL     1      -9.474   8.439  72.998  1.00  0.00    -0.167 C  
HETATM   16  C   UNL     1      -9.399   6.994  73.462  1.00  0.00    -0.211 C  
ENDBRANCH  12  15
ENDBRANCH  10  12
ENDBRANCH   9  10
ENDBRANCH   8   9
ENDBRANCH   6   8
ENDBRANCH   3   6
ENDBRANCH   2   3
TORSDOF 9
ENDMDL
MODEL      244
REMARK 921   NORMALIZED FREE ENERGY PREDICTED BY IDOCK:   -2.66 KCAL/MOL
REMARK 922        TOTAL FREE ENERGY PREDICTED BY IDOCK:   -4.58 KCAL/MOL
REMARK 923 INTER-LIGAND FREE ENERGY PREDICTED BY IDOCK:   -4.10 KCAL/MOL
REMARK 924 INTRA-LIGAND FREE ENERGY PREDICTED BY IDOCK:   -0.48 KCAL/MOL
REMARK 927      BINDING AFFINITY PREDICTED BY RF-SCORE:    0.00 PKD
ROOT
HETATM    1  C   UNL     1      -7.526   9.481  69.522  1.00  0.00    -0.092 C  
HETATM    2  C   UNL     1      -8.501   8.310  69.606  1.00  0.00    -0.125 C  
ENDROOT
BRANCH   2   3
HETATM    3  N   UNL     1      -9.592   8.383  68.610  1.00  0.00    -0.148 N  
BRANCH   3   4
HETATM    4  C   UNL     1      -9.741   7.274  67.638  1.00  0.00    -0.142 C  
HETATM    5  C   UNL     1     -11.046   6.482  67.631  1.00  0.00    -0.380 C  
ENDBRANCH   3   4
BRANCH   3   6
HETATM    6  C   UNL     1     -10.437   9.531  68.550  1.00  0.00    -0.217 C  
HETATM    7  S   UNL     1     -11.279  10.178  69.871  1.00  0.00    -0.298 S  
BRANCH   6   8
HETATM    8  S   UNL     1     -10.491  10.401  66.986  1.00  0.00    -0.245 SA 
BRANCH   8   9
HETATM    9  S   UNL     1      -9.672  12.252  67.422  1.00  0.00    -0.187 SA 
BRANCH   9  10
HETATM   10  C   UNL     1     -10.808  13.473  66.809  1.00  0.00    -0.282 C  
HETATM   11  S   UNL     1     -11.903  13.240  65.554  1.00  0.00    -0.395 S  
BRANCH  10  12
HETATM   12  N   UNL     1     -10.793  14.634  67.596  1.00  0.00    -0.277 N  
BRANCH  12  13
HETATM   13  C   UNL     1     -10.646  15.960  66.976  1.00  0.00    -0.306 C  
HETATM   14  C   UNL     1      -9.499  16.079  65.985  1.00  0.00    -0.384 C  
ENDBRANCH  12  13
BRANCH  12  15
HETATM   15  C   UNL     1     -10.759  14.531  69.063  1.00  0.00    -0.251 C  
HETATM   16  C   UNL     1     -12.121  14.643  69.726  1.00  0.00    -0.371 C  
ENDBRANCH  12  15
ENDBRANCH  10  12
ENDBRANCH   9  10
ENDBRANCH   8   9
ENDBRANCH   6   8
ENDBRANCH   3   6
ENDBRANCH   2   3
TORSDOF 9
ENDMDL
MODEL      245
REMARK 921   NORMALIZED FREE ENERGY PREDICTED BY IDOCK:   -2.66 KCAL/MOL
REMARK 922        TOTAL FREE ENERGY PREDICTED BY IDOCK:   -4.57 KCAL/MOL
REMARK 923 INTER-LIGAND FREE ENERGY PREDICTED BY IDOCK:   -3.96 KCAL/MOL
REMARK 924 INTRA-LIGAND FREE ENERGY PREDICTED BY IDOCK:   -0.61 KCAL/MOL
REMARK 927      BINDING AFFINITY PREDICTED BY RF-SCORE:    0.00 PKD
ROOT
HETATM    1  C   UNL     1      -5.773  13.785  71.277  1.00  0.00    -0.210 C  
HETATM    2  C   UNL     1      -5.409  13.965  69.805  1.00  0.00    -0.094 C  
ENDROOT
BRANCH   2   3
HETATM    3  N   UNL     1      -6.575  14.266  68.946  1.00  0.00    -0.090 N  
BRANCH   3   4
HETATM    4  C   UNL     1      -6.859  13.374  67.797  1.00  0.00    -0.160 C  
HETATM    5  C   UNL     1      -6.002  12.123  67.617  1.00  0.00    -0.106 C  
ENDBRANCH   3   4
BRANCH   3   6
HETATM    6  C   UNL     1      -7.366  15.428  69.186  1.00  0.00    -0.175 C  
HETATM    7  S   UNL     1      -9.043  15.419  69.433  1.00  0.00    -0.227 S  
BRANCH   6   8
HETATM    8  S   UNL     1      -6.480  16.975  69.357  1.00  0.00    -0.218 SA 
BRANCH   8   9
HETATM    9  S   UNL     1      -7.786  18.380  68.579  1.00  0.00    -0.302 SA 
BRANCH   9  10
HETATM   10  C   UNL     1      -7.925  18.043  66.839  1.00  0.00    -0.231 C  
HETATM   11  S   UNL     1      -6.663  18.116  65.731  1.00  0.00    -0.226 S  
BRANCH  10  12
HETATM   12  N   UNL     1      -9.200  17.560  66.506  1.00  0.00    -0.265 N  
BRANCH  12  13
HETATM   13  C   UNL     1      -9.359  16.262  65.835  1.00  0.00    -0.264 C  
HETATM   14  C   UNL     1     -10.778  15.941  65.390  1.00  0.00    -0.415 C  
ENDBRANCH  12  13
BRANCH  12  15
HETATM   15  C   UNL     1     -10.381  18.420  66.675  1.00  0.00    -0.396 C  
HETATM   16  C   UNL     1     -10.299  19.743  65.934  1.00  0.00    -0.582 C  
ENDBRANCH  12  15
ENDBRANCH  10  12
ENDBRANCH   9  10
ENDBRANCH   8   9
ENDBRANCH   6   8
ENDBRANCH   3   6
ENDBRANCH   2   3
TORSDOF 9
ENDMDL
MODEL      246
REMARK 921   NORMALIZED FREE ENERGY PREDICTED BY IDOCK:   -2.65 KCAL/MOL
REMARK 922        TOTAL FREE ENERGY PREDICTED BY IDOCK:   -4.57 KCAL/MOL
REMARK 923 INTER-LIGAND FREE ENERGY PREDICTED BY IDOCK:   -4.65 KCAL/MOL
REMARK 924 INTRA-LIGAND FREE ENERGY PREDICTED BY IDOCK:    0.08 KCAL/MOL
REMARK 927      BINDING AFFINITY PREDICTED BY RF-SCORE:    0.00 PKD
ROOT
HETATM    1  C   UNL     1     -10.970  11.606  63.475  1.00  0.00    -0.485 C  
HETATM    2  C   UNL     1     -10.305  12.836  64.085  1.00  0.00    -0.376 C  
ENDROOT
BRANCH   2   3
HETATM    3  N   UNL     1     -10.628  13.027  65.516  1.00  0.00    -0.277 N  
BRANCH   3   4
HETATM    4  C   UNL     1     -12.032  12.852  65.956  1.00  0.00    -0.446 C  
HETATM    5  C   UNL     1     -12.991  14.032  65.818  1.00  0.00    -0.297 C  
ENDBRANCH   3   4
BRANCH   3   6
HETATM    6  C   UNL     1      -9.617  13.435  66.435  1.00  0.00    -0.257 C  
HETATM    7  S   UNL     1      -9.028  15.018  66.581  1.00  0.00    -0.272 S  
BRANCH   6   8
HETATM    8  S   UNL     1      -9.037  12.194  67.588  1.00  0.00    -0.190 SA 
BRANCH   8   9
HETATM    9  S   UNL     1      -9.280  10.413  66.561  1.00  0.00    -0.163 SA 
BRANCH   9  10
HETATM   10  C   UNL     1     -10.183   9.321  67.633  1.00  0.00    -0.230 C  
HETATM   11  S   UNL     1     -10.416   7.676  67.372  1.00  0.00    -0.297 S  
BRANCH  10  12
HETATM   12  N   UNL     1     -10.570   9.963  68.819  1.00  0.00    -0.214 N  
BRANCH  12  13
HETATM   13  C   UNL     1     -11.827  10.722  68.887  1.00  0.00    -0.216 C  
HETATM   14  C   UNL     1     -11.860  11.812  69.948  1.00  0.00    -0.423 C  
ENDBRANCH  12  13
BRANCH  12  15
HETATM   15  C   UNL     1      -9.643  10.023  69.961  1.00  0.00    -0.156 C  
HETATM   16  C   UNL     1      -9.932   9.004  71.050  1.00  0.00    -0.349 C  
ENDBRANCH  12  15
ENDBRANCH  10  12
ENDBRANCH   9  10
ENDBRANCH   8   9
ENDBRANCH   6   8
ENDBRANCH   3   6
ENDBRANCH   2   3
TORSDOF 9
ENDMDL
MODEL      247
REMARK 921   NORMALIZED FREE ENERGY PREDICTED BY IDOCK:   -2.64 KCAL/MOL
REMARK 922        TOTAL FREE ENERGY PREDICTED BY IDOCK:   -4.54 KCAL/MOL
REMARK 923 INTER-LIGAND FREE ENERGY PREDICTED BY IDOCK:   -3.89 KCAL/MOL
REMARK 924 INTRA-LIGAND FREE ENERGY PREDICTED BY IDOCK:   -0.66 KCAL/MOL
REMARK 927      BINDING AFFINITY PREDICTED BY RF-SCORE:    0.00 PKD
ROOT
HETATM    1  C   UNL     1     -10.747  11.641  63.455  1.00  0.00    -0.495 C  
HETATM    2  C   UNL     1     -10.200  12.727  64.377  1.00  0.00    -0.319 C  
ENDROOT
BRANCH   2   3
HETATM    3  N   UNL     1     -10.648  12.584  65.780  1.00  0.00    -0.264 N  
BRANCH   3   4
HETATM    4  C   UNL     1     -12.095  12.704  66.078  1.00  0.00    -0.364 C  
HETATM    5  C   UNL     1     -12.859  13.897  65.509  1.00  0.00    -0.471 C  
ENDBRANCH   3   4
BRANCH   3   6
HETATM    6  C   UNL     1      -9.696  12.401  66.825  1.00  0.00    -0.223 C  
HETATM    7  S   UNL     1      -8.518  13.538  67.266  1.00  0.00    -0.171 S  
BRANCH   6   8
HETATM    8  S   UNL     1      -9.863  10.912  67.807  1.00  0.00    -0.178 SA 
BRANCH   8   9
HETATM    9  S   UNL     1      -9.905   9.396  66.399  1.00  0.00    -0.282 SA 
BRANCH   9  10
HETATM   10  C   UNL     1      -9.714   7.867  67.284  1.00  0.00    -0.176 C  
HETATM   11  S   UNL     1     -10.810   6.592  67.271  1.00  0.00    -0.395 S  
BRANCH  10  12
HETATM   12  N   UNL     1      -8.455   7.778  67.897  1.00  0.00    -0.122 N  
BRANCH  12  13
HETATM   13  C   UNL     1      -7.227   8.050  67.134  1.00  0.00    -0.087 C  
HETATM   14  C   UNL     1      -6.352   9.156  67.703  1.00  0.00    -0.059 C  
ENDBRANCH  12  13
BRANCH  12  15
HETATM   15  C   UNL     1      -8.336   7.252  69.266  1.00  0.00    -0.132 C  
HETATM   16  C   UNL     1      -9.026   8.101  70.320  1.00  0.00    -0.146 C  
ENDBRANCH  12  15
ENDBRANCH  10  12
ENDBRANCH   9  10
ENDBRANCH   8   9
ENDBRANCH   6   8
ENDBRANCH   3   6
ENDBRANCH   2   3
TORSDOF 9
ENDMDL
MODEL      248
REMARK 921   NORMALIZED FREE ENERGY PREDICTED BY IDOCK:   -2.64 KCAL/MOL
REMARK 922        TOTAL FREE ENERGY PREDICTED BY IDOCK:   -4.54 KCAL/MOL
REMARK 923 INTER-LIGAND FREE ENERGY PREDICTED BY IDOCK:   -4.39 KCAL/MOL
REMARK 924 INTRA-LIGAND FREE ENERGY PREDICTED BY IDOCK:   -0.15 KCAL/MOL
REMARK 927      BINDING AFFINITY PREDICTED BY RF-SCORE:    0.00 PKD
ROOT
HETATM    1  C   UNL     1     -12.483  11.972  63.378  1.00  0.00    -0.625 C  
HETATM    2  C   UNL     1     -10.990  11.755  63.605  1.00  0.00    -0.439 C  
ENDROOT
BRANCH   2   3
HETATM    3  N   UNL     1     -10.586  11.895  65.021  1.00  0.00    -0.277 N  
BRANCH   3   4
HETATM    4  C   UNL     1     -10.174  10.680  65.763  1.00  0.00    -0.252 C  
HETATM    5  C   UNL     1      -8.684  10.429  65.979  1.00  0.00    -0.163 C  
ENDBRANCH   3   4
BRANCH   3   6
HETATM    6  C   UNL     1     -10.659  13.162  65.670  1.00  0.00    -0.277 C  
HETATM    7  S   UNL     1     -10.750  14.653  64.867  1.00  0.00    -0.395 S  
BRANCH   6   8
HETATM    8  S   UNL     1     -10.788  13.139  67.456  1.00  0.00    -0.259 SA 
BRANCH   8   9
HETATM    9  S   UNL     1     -12.067  14.710  67.878  1.00  0.00    -0.061 SA 
BRANCH   9  10
HETATM   10  C   UNL     1     -11.051  16.081  68.372  1.00  0.00    -0.351 C  
HETATM   11  S   UNL     1     -10.806  17.483  67.476  1.00  0.00    -0.096 S  
BRANCH  10  12
HETATM   12  N   UNL     1     -10.577  15.928  69.684  1.00  0.00    -0.276 N  
BRANCH  12  13
HETATM   13  C   UNL     1      -9.250  15.348  69.939  1.00  0.00     0.049 C  
HETATM   14  C   UNL     1      -8.174  15.746  68.940  1.00  0.00    -0.210 C  
ENDBRANCH  12  13
BRANCH  12  15
HETATM   15  C   UNL     1     -11.466  16.192  70.825  1.00  0.00    -0.378 C  
HETATM   16  C   UNL     1     -11.388  15.150  71.928  1.00  0.00    -0.381 C  
ENDBRANCH  12  15
ENDBRANCH  10  12
ENDBRANCH   9  10
ENDBRANCH   8   9
ENDBRANCH   6   8
ENDBRANCH   3   6
ENDBRANCH   2   3
TORSDOF 9
ENDMDL
MODEL      249
REMARK 921   NORMALIZED FREE ENERGY PREDICTED BY IDOCK:   -2.63 KCAL/MOL
REMARK 922        TOTAL FREE ENERGY PREDICTED BY IDOCK:   -4.53 KCAL/MOL
REMARK 923 INTER-LIGAND FREE ENERGY PREDICTED BY IDOCK:   -3.99 KCAL/MOL
REMARK 924 INTRA-LIGAND FREE ENERGY PREDICTED BY IDOCK:   -0.54 KCAL/MOL
REMARK 927      BINDING AFFINITY PREDICTED BY RF-SCORE:    0.00 PKD
ROOT
HETATM    1  C   UNL     1     -12.252  13.497  70.515  1.00  0.00    -0.433 C  
HETATM    2  C   UNL     1     -12.022  12.289  69.611  1.00  0.00    -0.279 C  
ENDROOT
BRANCH   2   3
HETATM    3  N   UNL     1     -11.128  12.575  68.467  1.00  0.00    -0.246 N  
BRANCH   3   4
HETATM    4  C   UNL     1     -11.319  13.840  67.718  1.00  0.00    -0.303 C  
HETATM    5  C   UNL     1     -12.276  13.844  66.528  1.00  0.00    -0.482 C  
ENDBRANCH   3   4
BRANCH   3   6
HETATM    6  C   UNL     1     -10.151  11.621  68.060  1.00  0.00    -0.189 C  
HETATM    7  S   UNL     1      -8.621  12.011  67.441  1.00  0.00    -0.180 S  
BRANCH   6   8
HETATM    8  S   UNL     1     -10.545   9.899  68.352  1.00  0.00    -0.227 SA 
BRANCH   8   9
HETATM    9  S   UNL     1      -8.745   9.076  68.959  1.00  0.00    -0.140 SA 
BRANCH   9  10
HETATM   10  C   UNL     1      -9.051   8.256  70.506  1.00  0.00    -0.147 C  
HETATM   11  S   UNL     1      -8.218   8.541  71.938  1.00  0.00    -0.115 S  
BRANCH  10  12
HETATM   12  N   UNL     1     -10.182   7.429  70.438  1.00  0.00    -0.197 N  
BRANCH  12  13
HETATM   13  C   UNL     1     -11.342   7.670  71.309  1.00  0.00    -0.264 C  
HETATM   14  C   UNL     1     -11.650   6.549  72.290  1.00  0.00    -0.330 C  
ENDBRANCH  12  13
BRANCH  12  15
HETATM   15  C   UNL     1     -10.156   6.211  69.613  1.00  0.00    -0.179 C  
HETATM   16  C   UNL     1     -11.271   6.134  68.583  1.00  0.00    -0.275 C  
ENDBRANCH  12  15
ENDBRANCH  10  12
ENDBRANCH   9  10
ENDBRANCH   8   9
ENDBRANCH   6   8
ENDBRANCH   3   6
ENDBRANCH   2   3
TORSDOF 9
ENDMDL
MODEL      250
REMARK 921   NORMALIZED FREE ENERGY PREDICTED BY IDOCK:   -2.63 KCAL/MOL
REMARK 922        TOTAL FREE ENERGY PREDICTED BY IDOCK:   -4.52 KCAL/MOL
REMARK 923 INTER-LIGAND FREE ENERGY PREDICTED BY IDOCK:   -3.95 KCAL/MOL
REMARK 924 INTRA-LIGAND FREE ENERGY PREDICTED BY IDOCK:   -0.58 KCAL/MOL
REMARK 927      BINDING AFFINITY PREDICTED BY RF-SCORE:    0.00 PKD
ROOT
HETATM    1  C   UNL     1     -12.020  11.129  69.949  1.00  0.00    -0.439 C  
HETATM    2  C   UNL     1     -12.017  10.031  71.008  1.00  0.00    -0.376 C  
ENDROOT
BRANCH   2   3
HETATM    3  N   UNL     1     -10.868   9.106  70.889  1.00  0.00    -0.253 N  
BRANCH   3   4
HETATM    4  C   UNL     1      -9.650   9.575  70.188  1.00  0.00    -0.248 C  
HETATM    5  C   UNL     1      -8.289   9.279  70.813  1.00  0.00    -0.230 C  
ENDBRANCH   3   4
BRANCH   3   6
HETATM    6  C   UNL     1     -10.963   7.772  71.383  1.00  0.00    -0.235 C  
HETATM    7  S   UNL     1     -10.848   7.338  73.018  1.00  0.00    -0.362 S  
BRANCH   6   8
HETATM    8  S   UNL     1     -11.358   6.502  70.182  1.00  0.00    -0.414 SA 
BRANCH   8   9
HETATM    9  S   UNL     1      -9.686   5.282  70.187  1.00  0.00    -0.215 SA 
BRANCH   9  10
HETATM   10  C   UNL     1      -9.184   5.092  68.493  1.00  0.00    -0.116 C  
HETATM   11  S   UNL     1      -9.341   3.686  67.585  1.00  0.00    -0.191 S  
BRANCH  10  12
HETATM   12  N   UNL     1      -8.764   6.310  67.938  1.00  0.00    -0.115 N  
BRANCH  12  13
HETATM   13  C   UNL     1      -9.428   6.862  66.748  1.00  0.00    -0.165 C  
HETATM   14  C   UNL     1     -10.329   8.058  67.014  1.00  0.00    -0.414 C  
ENDBRANCH  12  13
BRANCH  12  15
HETATM   15  C   UNL     1      -7.549   6.969  68.441  1.00  0.00    -0.111 C  
HETATM   16  C   UNL     1      -6.645   7.520  67.351  1.00  0.00    -0.062 C  
ENDBRANCH  12  15
ENDBRANCH  10  12
ENDBRANCH   9  10
ENDBRANCH   8   9
ENDBRANCH   6   8
ENDBRANCH   3   6
ENDBRANCH   2   3
TORSDOF 9
ENDMDL
MODEL      251
REMARK 921   NORMALIZED FREE ENERGY PREDICTED BY IDOCK:   -2.63 KCAL/MOL
REMARK 922        TOTAL FREE ENERGY PREDICTED BY IDOCK:   -4.52 KCAL/MOL
REMARK 923 INTER-LIGAND FREE ENERGY PREDICTED BY IDOCK:   -4.10 KCAL/MOL
REMARK 924 INTRA-LIGAND FREE ENERGY PREDICTED BY IDOCK:   -0.43 KCAL/MOL
REMARK 927      BINDING AFFINITY PREDICTED BY RF-SCORE:    0.00 PKD
ROOT
HETATM    1  C   UNL     1     -12.078  13.975  64.383  1.00  0.00    -0.486 C  
HETATM    2  C   UNL     1     -12.376  13.844  65.874  1.00  0.00    -0.483 C  
ENDROOT
BRANCH   2   3
HETATM    3  N   UNL     1     -11.204  13.420  66.670  1.00  0.00    -0.302 N  
BRANCH   3   4
HETATM    4  C   UNL     1      -9.852  13.813  66.206  1.00  0.00    -0.303 C  
HETATM    5  C   UNL     1      -9.286  15.154  66.665  1.00  0.00    -0.298 C  
ENDBRANCH   3   4
BRANCH   3   6
HETATM    6  C   UNL     1     -11.375  12.596  67.820  1.00  0.00    -0.297 C  
HETATM    7  S   UNL     1     -11.891  13.151  69.337  1.00  0.00    -0.310 S  
BRANCH   6   8
HETATM    8  S   UNL     1     -11.141  10.836  67.584  1.00  0.00    -0.300 SA 
BRANCH   8   9
HETATM    9  S   UNL     1      -9.333  10.448  68.512  1.00  0.00    -0.167 SA 
BRANCH   9  10
HETATM   10  C   UNL     1      -9.387   8.758  69.059  1.00  0.00    -0.145 C  
HETATM   11  S   UNL     1     -10.075   7.483  68.205  1.00  0.00    -0.188 S  
BRANCH  10  12
HETATM   12  N   UNL     1      -8.654   8.572  70.240  1.00  0.00    -0.131 N  
BRANCH  12  13
HETATM   13  C   UNL     1      -9.082   7.585  71.242  1.00  0.00    -0.141 C  
HETATM   14  C   UNL     1      -9.720   8.175  72.490  1.00  0.00    -0.357 C  
ENDBRANCH  12  13
BRANCH  12  15
HETATM   15  C   UNL     1      -7.541   9.476  70.567  1.00  0.00    -0.149 C  
HETATM   16  C   UNL     1      -6.176   8.810  70.562  1.00  0.00    -0.037 C  
ENDBRANCH  12  15
ENDBRANCH  10  12
ENDBRANCH   9  10
ENDBRANCH   8   9
ENDBRANCH   6   8
ENDBRANCH   3   6
ENDBRANCH   2   3
TORSDOF 9
ENDMDL
MODEL      252
REMARK 921   NORMALIZED FREE ENERGY PREDICTED BY IDOCK:   -2.62 KCAL/MOL
REMARK 922        TOTAL FREE ENERGY PREDICTED BY IDOCK:   -4.52 KCAL/MOL
REMARK 923 INTER-LIGAND FREE ENERGY PREDICTED BY IDOCK:   -4.09 KCAL/MOL
REMARK 924 INTRA-LIGAND FREE ENERGY PREDICTED BY IDOCK:   -0.43 KCAL/MOL
REMARK 927      BINDING AFFINITY PREDICTED BY RF-SCORE:    0.00 PKD
ROOT
HETATM    1  C   UNL     1      -6.498  11.906  69.275  1.00  0.00    -0.111 C  
HETATM    2  C   UNL     1      -6.594  12.161  67.773  1.00  0.00    -0.100 C  
ENDROOT
BRANCH   2   3
HETATM    3  N   UNL     1      -7.977  12.401  67.307  1.00  0.00    -0.177 N  
BRANCH   3   4
HETATM    4  C   UNL     1      -8.646  11.351  66.503  1.00  0.00    -0.175 C  
HETATM    5  C   UNL     1      -7.998   9.971  66.422  1.00  0.00    -0.116 C  
ENDBRANCH   3   4
BRANCH   3   6
HETATM    6  C   UNL     1      -8.622  13.644  67.573  1.00  0.00    -0.197 C  
HETATM    7  S   UNL     1     -10.268  13.817  67.940  1.00  0.00    -0.251 S  
BRANCH   6   8
HETATM    8  S   UNL     1      -7.569  15.092  67.642  1.00  0.00    -0.195 SA 
BRANCH   8   9
HETATM    9  S   UNL     1      -8.437  16.398  66.292  1.00  0.00    -0.301 SA 
BRANCH   9  10
HETATM   10  C   UNL     1      -7.550  17.933  66.419  1.00  0.00    -0.273 C  
HETATM   11  S   UNL     1      -6.065  18.259  65.702  1.00  0.00    -0.238 S  
BRANCH  10  12
HETATM   12  N   UNL     1      -8.306  18.913  67.078  1.00  0.00    -0.270 N  
BRANCH  12  13
HETATM   13  C   UNL     1      -8.340  18.973  68.547  1.00  0.00    -0.352 C  
HETATM   14  C   UNL     1      -7.066  19.492  69.196  1.00  0.00    -0.392 C  
ENDBRANCH  12  13
BRANCH  12  15
HETATM   15  C   UNL     1      -9.204  19.792  66.313  1.00  0.00    -0.388 C  
HETATM   16  C   UNL     1     -10.670  19.660  66.687  1.00  0.00    -0.552 C  
ENDBRANCH  12  15
ENDBRANCH  10  12
ENDBRANCH   9  10
ENDBRANCH   8   9
ENDBRANCH   6   8
ENDBRANCH   3   6
ENDBRANCH   2   3
TORSDOF 9
ENDMDL
MODEL      253
REMARK 921   NORMALIZED FREE ENERGY PREDICTED BY IDOCK:   -2.62 KCAL/MOL
REMARK 922        TOTAL FREE ENERGY PREDICTED BY IDOCK:   -4.52 KCAL/MOL
REMARK 923 INTER-LIGAND FREE ENERGY PREDICTED BY IDOCK:   -4.04 KCAL/MOL
REMARK 924 INTRA-LIGAND FREE ENERGY PREDICTED BY IDOCK:   -0.48 KCAL/MOL
REMARK 927      BINDING AFFINITY PREDICTED BY RF-SCORE:    0.00 PKD
ROOT
HETATM    1  C   UNL     1      -8.013  15.525  69.271  1.00  0.00    -0.238 C  
HETATM    2  C   UNL     1      -9.144  16.511  68.989  1.00  0.00    -0.229 C  
ENDROOT
BRANCH   2   3
HETATM    3  N   UNL     1     -10.333  15.879  68.378  1.00  0.00    -0.234 N  
BRANCH   3   4
HETATM    4  C   UNL     1     -10.994  14.766  69.099  1.00  0.00    -0.267 C  
HETATM    5  C   UNL     1     -11.884  15.099  70.294  1.00  0.00    -0.352 C  
ENDBRANCH   3   4
BRANCH   3   6
HETATM    6  C   UNL     1     -10.788  16.293  67.092  1.00  0.00    -0.190 C  
HETATM    7  S   UNL     1     -10.536  17.833  66.429  1.00  0.00    -0.244 S  
BRANCH   6   8
HETATM    8  S   UNL     1     -11.566  15.038  66.078  1.00  0.00    -0.073 SA 
BRANCH   8   9
HETATM    9  S   UNL     1      -9.979  13.888  65.412  1.00  0.00    -0.194 SA 
BRANCH   9  10
HETATM   10  C   UNL     1     -10.675  12.414  64.703  1.00  0.00    -0.305 C  
HETATM   11  S   UNL     1     -12.254  12.254  64.150  1.00  0.00    -0.443 S  
BRANCH  10  12
HETATM   12  N   UNL     1      -9.702  11.419  64.520  1.00  0.00    -0.241 N  
BRANCH  12  13
HETATM   13  C   UNL     1      -9.442  10.860  63.185  1.00  0.00    -0.341 C  
HETATM   14  C   UNL     1      -8.548   9.630  63.170  1.00  0.00    -0.208 C  
ENDBRANCH  12  13
BRANCH  12  15
HETATM   15  C   UNL     1      -9.046  10.806  65.685  1.00  0.00    -0.194 C  
HETATM   16  C   UNL     1      -9.972   9.970  66.552  1.00  0.00    -0.286 C  
ENDBRANCH  12  15
ENDBRANCH  10  12
ENDBRANCH   9  10
ENDBRANCH   8   9
ENDBRANCH   6   8
ENDBRANCH   3   6
ENDBRANCH   2   3
TORSDOF 9
ENDMDL
MODEL      254
REMARK 921   NORMALIZED FREE ENERGY PREDICTED BY IDOCK:   -2.62 KCAL/MOL
REMARK 922        TOTAL FREE ENERGY PREDICTED BY IDOCK:   -4.51 KCAL/MOL
REMARK 923 INTER-LIGAND FREE ENERGY PREDICTED BY IDOCK:   -4.02 KCAL/MOL
REMARK 924 INTRA-LIGAND FREE ENERGY PREDICTED BY IDOCK:   -0.49 KCAL/MOL
REMARK 927      BINDING AFFINITY PREDICTED BY RF-SCORE:    0.00 PKD
ROOT
HETATM    1  C   UNL     1      -7.027   8.061  67.332  1.00  0.00    -0.075 C  
HETATM    2  C   UNL     1      -7.951   9.268  67.473  1.00  0.00    -0.099 C  
ENDROOT
BRANCH   2   3
HETATM    3  N   UNL     1      -9.341   8.994  67.046  1.00  0.00    -0.144 N  
BRANCH   3   4
HETATM    4  C   UNL     1      -9.665   7.653  66.504  1.00  0.00    -0.181 C  
HETATM    5  C   UNL     1     -10.936   6.960  66.988  1.00  0.00    -0.404 C  
ENDBRANCH   3   4
BRANCH   3   6
HETATM    6  C   UNL     1     -10.326  10.023  67.095  1.00  0.00    -0.241 C  
HETATM    7  S   UNL     1     -11.121  10.531  68.504  1.00  0.00    -0.276 S  
BRANCH   6   8
HETATM    8  S   UNL     1     -10.632  10.909  65.569  1.00  0.00    -0.116 SA 
BRANCH   8   9
HETATM    9  S   UNL     1      -9.700  12.734  65.862  1.00  0.00    -0.143 SA 
BRANCH   9  10
HETATM   10  C   UNL     1     -10.988  13.946  66.040  1.00  0.00    -0.285 C  
HETATM   11  S   UNL     1     -12.578  13.756  65.530  1.00  0.00    -0.477 S  
BRANCH  10  12
HETATM   12  N   UNL     1     -10.561  15.047  66.796  1.00  0.00    -0.295 N  
BRANCH  12  13
HETATM   13  C   UNL     1     -10.582  15.003  68.266  1.00  0.00    -0.247 C  
HETATM   14  C   UNL     1     -11.787  15.674  68.909  1.00  0.00    -0.368 C  
ENDBRANCH  12  13
BRANCH  12  15
HETATM   15  C   UNL     1     -10.241  16.320  66.131  1.00  0.00    -0.346 C  
HETATM   16  C   UNL     1      -8.773  16.704  66.196  1.00  0.00    -0.322 C  
ENDBRANCH  12  15
ENDBRANCH  10  12
ENDBRANCH   9  10
ENDBRANCH   8   9
ENDBRANCH   6   8
ENDBRANCH   3   6
ENDBRANCH   2   3
TORSDOF 9
ENDMDL
MODEL      255
REMARK 921   NORMALIZED FREE ENERGY PREDICTED BY IDOCK:   -2.62 KCAL/MOL
REMARK 922        TOTAL FREE ENERGY PREDICTED BY IDOCK:   -4.51 KCAL/MOL
REMARK 923 INTER-LIGAND FREE ENERGY PREDICTED BY IDOCK:   -4.73 KCAL/MOL
REMARK 924 INTRA-LIGAND FREE ENERGY PREDICTED BY IDOCK:    0.23 KCAL/MOL
REMARK 927      BINDING AFFINITY PREDICTED BY RF-SCORE:    0.00 PKD
ROOT
HETATM    1  C   UNL     1     -10.905  15.488  70.301  1.00  0.00    -0.358 C  
HETATM    2  C   UNL     1     -12.218  14.842  69.868  1.00  0.00    -0.309 C  
ENDROOT
BRANCH   2   3
HETATM    3  N   UNL     1     -12.410  13.482  70.416  1.00  0.00    -0.341 N  
BRANCH   3   4
HETATM    4  C   UNL     1     -13.117  13.332  71.710  1.00  0.00    -0.379 C  
HETATM    5  C   UNL     1     -14.309  14.241  71.999  1.00  0.00    -0.629 C  
ENDBRANCH   3   4
BRANCH   3   6
HETATM    6  C   UNL     1     -11.866  12.350  69.741  1.00  0.00    -0.317 C  
HETATM    7  S   UNL     1     -10.798  12.432  68.426  1.00  0.00    -0.249 S  
BRANCH   6   8
HETATM    8  S   UNL     1     -12.256  10.744  70.432  1.00  0.00    -0.375 SA 
BRANCH   8   9
HETATM    9  S   UNL     1     -10.440   9.750  70.425  1.00  0.00    -0.293 SA 
BRANCH   9  10
HETATM   10  C   UNL     1     -10.648   8.294  71.421  1.00  0.00    -0.223 C  
HETATM   11  S   UNL     1     -11.974   7.969  72.404  1.00  0.00    -0.323 S  
BRANCH  10  12
HETATM   12  N   UNL     1      -9.632   7.356  71.186  1.00  0.00    -0.160 N  
BRANCH  12  13
HETATM   13  C   UNL     1      -8.603   7.093  72.203  1.00  0.00    -0.110 C  
HETATM   14  C   UNL     1      -8.396   8.214  73.210  1.00  0.00    -0.277 C  
ENDBRANCH  12  13
BRANCH  12  15
HETATM   15  C   UNL     1      -9.485   6.745  69.856  1.00  0.00    -0.156 C  
HETATM   16  C   UNL     1     -10.645   7.021  68.914  1.00  0.00    -0.233 C  
ENDBRANCH  12  15
ENDBRANCH  10  12
ENDBRANCH   9  10
ENDBRANCH   8   9
ENDBRANCH   6   8
ENDBRANCH   3   6
ENDBRANCH   2   3
TORSDOF 9
ENDMDL
MODEL      256
REMARK 921   NORMALIZED FREE ENERGY PREDICTED BY IDOCK:   -2.61 KCAL/MOL
REMARK 922        TOTAL FREE ENERGY PREDICTED BY IDOCK:   -4.49 KCAL/MOL
REMARK 923 INTER-LIGAND FREE ENERGY PREDICTED BY IDOCK:   -3.96 KCAL/MOL
REMARK 924 INTRA-LIGAND FREE ENERGY PREDICTED BY IDOCK:   -0.54 KCAL/MOL
REMARK 927      BINDING AFFINITY PREDICTED BY RF-SCORE:    0.00 PKD
ROOT
HETATM    1  C   UNL     1      -6.544  11.301  69.826  1.00  0.00    -0.130 C  
HETATM    2  C   UNL     1      -7.593  10.200  69.707  1.00  0.00    -0.170 C  
ENDROOT
BRANCH   2   3
HETATM    3  N   UNL     1      -7.892   9.824  68.307  1.00  0.00    -0.088 N  
BRANCH   3   4
HETATM    4  C   UNL     1      -6.817   9.205  67.495  1.00  0.00    -0.077 C  
HETATM    5  C   UNL     1      -6.768   9.509  66.000  1.00  0.00    -0.082 C  
ENDBRANCH   3   4
BRANCH   3   6
HETATM    6  C   UNL     1      -9.166  10.115  67.739  1.00  0.00    -0.137 C  
HETATM    7  S   UNL     1     -10.382   8.966  67.459  1.00  0.00    -0.269 S  
BRANCH   6   8
HETATM    8  S   UNL     1      -9.527  11.841  67.426  1.00  0.00    -0.175 SA 
BRANCH   8   9
HETATM    9  S   UNL     1     -11.511  12.039  67.981  1.00  0.00    -0.344 SA 
BRANCH   9  10
HETATM   10  C   UNL     1     -11.750  13.740  68.437  1.00  0.00    -0.358 C  
HETATM   11  S   UNL     1     -12.229  14.281  69.955  1.00  0.00    -0.362 S  
BRANCH  10  12
HETATM   12  N   UNL     1     -11.350  14.611  67.413  1.00  0.00    -0.342 N  
BRANCH  12  13
HETATM   13  C   UNL     1     -11.849  14.437  66.041  1.00  0.00    -0.372 C  
HETATM   14  C   UNL     1     -10.780  14.477  64.961  1.00  0.00    -0.444 C  
ENDBRANCH  12  13
BRANCH  12  15
HETATM   15  C   UNL     1     -10.298  15.609  67.663  1.00  0.00    -0.275 C  
HETATM   16  C   UNL     1     -10.822  17.000  67.976  1.00  0.00    -0.330 C  
ENDBRANCH  12  15
ENDBRANCH  10  12
ENDBRANCH   9  10
ENDBRANCH   8   9
ENDBRANCH   6   8
ENDBRANCH   3   6
ENDBRANCH   2   3
TORSDOF 9
ENDMDL
MODEL      257
REMARK 921   NORMALIZED FREE ENERGY PREDICTED BY IDOCK:   -2.61 KCAL/MOL
REMARK 922        TOTAL FREE ENERGY PREDICTED BY IDOCK:   -4.49 KCAL/MOL
REMARK 923 INTER-LIGAND FREE ENERGY PREDICTED BY IDOCK:   -3.71 KCAL/MOL
REMARK 924 INTRA-LIGAND FREE ENERGY PREDICTED BY IDOCK:   -0.78 KCAL/MOL
REMARK 927      BINDING AFFINITY PREDICTED BY RF-SCORE:    0.00 PKD
ROOT
HETATM    1  C   UNL     1      -9.126  17.331  66.320  1.00  0.00    -0.245 C  
HETATM    2  C   UNL     1     -10.529  16.813  66.013  1.00  0.00    -0.293 C  
ENDROOT
BRANCH   2   3
HETATM    3  N   UNL     1     -10.668  15.352  66.203  1.00  0.00    -0.310 N  
BRANCH   3   4
HETATM    4  C   UNL     1     -11.524  14.593  65.261  1.00  0.00    -0.361 C  
HETATM    5  C   UNL     1     -12.677  13.769  65.828  1.00  0.00    -0.494 C  
ENDBRANCH   3   4
BRANCH   3   6
HETATM    6  C   UNL     1     -10.042  14.707  67.309  1.00  0.00    -0.236 C  
HETATM    7  S   UNL     1     -10.579  14.808  68.915  1.00  0.00    -0.256 S  
BRANCH   6   8
HETATM    8  S   UNL     1      -8.672  13.618  66.929  1.00  0.00    -0.085 SA 
BRANCH   8   9
HETATM    9  S   UNL     1      -8.725  12.209  68.444  1.00  0.00    -0.097 SA 
BRANCH   9  10
HETATM   10  C   UNL     1     -10.024  11.067  68.038  1.00  0.00    -0.173 C  
HETATM   11  S   UNL     1     -11.434  10.842  68.926  1.00  0.00    -0.314 S  
BRANCH  10  12
HETATM   12  N   UNL     1      -9.808  10.460  66.791  1.00  0.00    -0.187 N  
BRANCH  12  13
HETATM   13  C   UNL     1      -8.549   9.756  66.507  1.00  0.00    -0.127 C  
HETATM   14  C   UNL     1      -8.352   8.460  67.278  1.00  0.00    -0.123 C  
ENDBRANCH  12  13
BRANCH  12  15
HETATM   15  C   UNL     1     -10.771  10.661  65.697  1.00  0.00    -0.034 C  
HETATM   16  C   UNL     1     -10.154  11.204  64.419  1.00  0.00    -0.377 C  
ENDBRANCH  12  15
ENDBRANCH  10  12
ENDBRANCH   9  10
ENDBRANCH   8   9
ENDBRANCH   6   8
ENDBRANCH   3   6
ENDBRANCH   2   3
TORSDOF 9
ENDMDL
MODEL      258
REMARK 921   NORMALIZED FREE ENERGY PREDICTED BY IDOCK:   -2.60 KCAL/MOL
REMARK 922        TOTAL FREE ENERGY PREDICTED BY IDOCK:   -4.49 KCAL/MOL
REMARK 923 INTER-LIGAND FREE ENERGY PREDICTED BY IDOCK:   -4.33 KCAL/MOL
REMARK 924 INTRA-LIGAND FREE ENERGY PREDICTED BY IDOCK:   -0.16 KCAL/MOL
REMARK 927      BINDING AFFINITY PREDICTED BY RF-SCORE:    0.00 PKD
ROOT
HETATM    1  C   UNL     1      -9.370   6.348  70.091  1.00  0.00    -0.164 C  
HETATM    2  C   UNL     1      -9.060   7.493  71.050  1.00  0.00    -0.148 C  
ENDROOT
BRANCH   2   3
HETATM    3  N   UNL     1     -10.240   8.327  71.368  1.00  0.00    -0.197 N  
BRANCH   3   4
HETATM    4  C   UNL     1     -11.116   7.916  72.490  1.00  0.00    -0.362 C  
HETATM    5  C   UNL     1     -11.138   6.446  72.898  1.00  0.00    -0.259 C  
ENDBRANCH   3   4
BRANCH   3   6
HETATM    6  C   UNL     1     -10.558   9.461  70.565  1.00  0.00    -0.271 C  
HETATM    7  S   UNL     1     -11.924  10.442  70.780  1.00  0.00    -0.390 S  
BRANCH   6   8
HETATM    8  S   UNL     1      -9.347   9.933  69.332  1.00  0.00    -0.225 SA 
BRANCH   8   9
HETATM    9  S   UNL     1     -10.470  10.884  67.877  1.00  0.00    -0.209 SA 
BRANCH   9  10
HETATM   10  C   UNL     1      -9.607  12.381  67.460  1.00  0.00    -0.185 C  
HETATM   11  S   UNL     1      -7.936  12.559  67.415  1.00  0.00    -0.178 S  
BRANCH  10  12
HETATM   12  N   UNL     1     -10.489  13.382  67.024  1.00  0.00    -0.256 N  
BRANCH  12  13
HETATM   13  C   UNL     1     -11.775  13.596  67.703  1.00  0.00    -0.363 C  
HETATM   14  C   UNL     1     -11.677  14.274  69.062  1.00  0.00    -0.352 C  
ENDBRANCH  12  13
BRANCH  12  15
HETATM   15  C   UNL     1     -10.211  14.120  65.782  1.00  0.00    -0.332 C  
HETATM   16  C   UNL     1     -10.687  13.417  64.522  1.00  0.00    -0.434 C  
ENDBRANCH  12  15
ENDBRANCH  10  12
ENDBRANCH   9  10
ENDBRANCH   8   9
ENDBRANCH   6   8
ENDBRANCH   3   6
ENDBRANCH   2   3
TORSDOF 9
ENDMDL
MODEL      259
REMARK 921   NORMALIZED FREE ENERGY PREDICTED BY IDOCK:   -2.60 KCAL/MOL
REMARK 922        TOTAL FREE ENERGY PREDICTED BY IDOCK:   -4.48 KCAL/MOL
REMARK 923 INTER-LIGAND FREE ENERGY PREDICTED BY IDOCK:   -4.13 KCAL/MOL
REMARK 924 INTRA-LIGAND FREE ENERGY PREDICTED BY IDOCK:   -0.35 KCAL/MOL
REMARK 927      BINDING AFFINITY PREDICTED BY RF-SCORE:    0.00 PKD
ROOT
HETATM    1  C   UNL     1     -11.605  10.054  70.875  1.00  0.00    -0.463 C  
HETATM    2  C   UNL     1     -10.587   9.090  71.477  1.00  0.00    -0.345 C  
ENDROOT
BRANCH   2   3
HETATM    3  N   UNL     1      -9.667   8.509  70.475  1.00  0.00    -0.173 N  
BRANCH   3   4
HETATM    4  C   UNL     1      -8.226   8.850  70.554  1.00  0.00    -0.145 C  
HETATM    5  C   UNL     1      -7.759  10.182  69.972  1.00  0.00    -0.150 C  
ENDBRANCH   3   4
BRANCH   3   6
HETATM    6  C   UNL     1     -10.172   7.695  69.419  1.00  0.00    -0.206 C  
HETATM    7  S   UNL     1     -11.251   6.404  69.628  1.00  0.00    -0.413 S  
BRANCH   6   8
HETATM    8  S   UNL     1      -9.715   8.172  67.754  1.00  0.00    -0.165 SA 
BRANCH   8   9
HETATM    9  S   UNL     1     -10.778   9.919  67.433  1.00  0.00    -0.218 SA 
BRANCH   9  10
HETATM   10  C   UNL     1      -9.787  10.934  66.362  1.00  0.00    -0.207 C  
HETATM   11  S   UNL     1      -8.655  12.068  66.871  1.00  0.00    -0.174 S  
BRANCH  10  12
HETATM   12  N   UNL     1      -9.951  10.578  65.015  1.00  0.00    -0.301 N  
BRANCH  12  13
HETATM   13  C   UNL     1      -8.993   9.679  64.353  1.00  0.00    -0.234 C  
HETATM   14  C   UNL     1      -8.306  10.265  63.129  1.00  0.00    -0.167 C  
ENDBRANCH  12  13
BRANCH  12  15
HETATM   15  C   UNL     1     -10.989  11.229  64.201  1.00  0.00    -0.305 C  
HETATM   16  C   UNL     1     -10.796  12.725  64.027  1.00  0.00    -0.458 C  
ENDBRANCH  12  15
ENDBRANCH  10  12
ENDBRANCH   9  10
ENDBRANCH   8   9
ENDBRANCH   6   8
ENDBRANCH   3   6
ENDBRANCH   2   3
TORSDOF 9
ENDMDL
MODEL      260
REMARK 921   NORMALIZED FREE ENERGY PREDICTED BY IDOCK:   -2.59 KCAL/MOL
REMARK 922        TOTAL FREE ENERGY PREDICTED BY IDOCK:   -4.47 KCAL/MOL
REMARK 923 INTER-LIGAND FREE ENERGY PREDICTED BY IDOCK:   -3.95 KCAL/MOL
REMARK 924 INTRA-LIGAND FREE ENERGY PREDICTED BY IDOCK:   -0.52 KCAL/MOL
REMARK 927      BINDING AFFINITY PREDICTED BY RF-SCORE:    0.00 PKD
ROOT
HETATM    1  C   UNL     1     -13.464  10.130  72.035  1.00  0.00    -0.418 C  
HETATM    2  C   UNL     1     -12.081  10.279  71.407  1.00  0.00    -0.362 C  
ENDROOT
BRANCH   2   3
HETATM    3  N   UNL     1     -11.297   9.024  71.414  1.00  0.00    -0.295 N  
BRANCH   3   4
HETATM    4  C   UNL     1     -12.012   7.743  71.628  1.00  0.00    -0.297 C  
HETATM    5  C   UNL     1     -11.666   6.558  70.731  1.00  0.00    -0.427 C  
ENDBRANCH   3   4
BRANCH   3   6
HETATM    6  C   UNL     1      -9.878   9.060  71.283  1.00  0.00    -0.306 C  
HETATM    7  S   UNL     1      -8.791   8.351  72.374  1.00  0.00    -0.207 S  
BRANCH   6   8
HETATM    8  S   UNL     1      -9.232   9.803  69.787  1.00  0.00    -0.226 SA 
BRANCH   8   9
HETATM    9  S   UNL     1     -10.624   9.295  68.343  1.00  0.00    -0.152 SA 
BRANCH   9  10
HETATM   10  C   UNL     1      -9.750   9.196  66.798  1.00  0.00    -0.210 C  
HETATM   11  S   UNL     1      -9.397  10.500  65.797  1.00  0.00    -0.202 S  
BRANCH  10  12
HETATM   12  N   UNL     1      -9.252   7.906  66.568  1.00  0.00    -0.181 N  
BRANCH  12  13
HETATM   13  C   UNL     1      -9.544   6.809  67.502  1.00  0.00    -0.127 C  
HETATM   14  C   UNL     1     -10.476   5.736  66.959  1.00  0.00    -0.342 C  
ENDBRANCH  12  13
BRANCH  12  15
HETATM   15  C   UNL     1      -8.293   7.670  65.477  1.00  0.00    -0.135 C  
HETATM   16  C   UNL     1      -6.997   7.013  65.919  1.00  0.00    -0.064 C  
ENDBRANCH  12  15
ENDBRANCH  10  12
ENDBRANCH   9  10
ENDBRANCH   8   9
ENDBRANCH   6   8
ENDBRANCH   3   6
ENDBRANCH   2   3
TORSDOF 9
ENDMDL
MODEL      261
REMARK 921   NORMALIZED FREE ENERGY PREDICTED BY IDOCK:   -2.57 KCAL/MOL
REMARK 922        TOTAL FREE ENERGY PREDICTED BY IDOCK:   -4.44 KCAL/MOL
REMARK 923 INTER-LIGAND FREE ENERGY PREDICTED BY IDOCK:   -4.35 KCAL/MOL
REMARK 924 INTRA-LIGAND FREE ENERGY PREDICTED BY IDOCK:   -0.10 KCAL/MOL
REMARK 927      BINDING AFFINITY PREDICTED BY RF-SCORE:    0.00 PKD
ROOT
HETATM    1  C   UNL     1      -9.741   5.024  69.935  1.00  0.00    -0.266 C  
HETATM    2  C   UNL     1      -9.384   6.296  70.700  1.00  0.00    -0.162 C  
ENDROOT
BRANCH   2   3
HETATM    3  N   UNL     1     -10.568   7.076  71.122  1.00  0.00    -0.216 N  
BRANCH   3   4
HETATM    4  C   UNL     1     -11.421   6.539  72.209  1.00  0.00    -0.289 C  
HETATM    5  C   UNL     1     -10.815   5.525  73.176  1.00  0.00    -0.328 C  
ENDBRANCH   3   4
BRANCH   3   6
HETATM    6  C   UNL     1     -10.913   8.284  70.448  1.00  0.00    -0.239 C  
HETATM    7  S   UNL     1     -11.763   9.572  71.150  1.00  0.00    -0.391 S  
BRANCH   6   8
HETATM    8  S   UNL     1     -10.280   8.479  68.784  1.00  0.00    -0.198 SA 
BRANCH   8   9
HETATM    9  S   UNL     1      -9.711  10.467  68.702  1.00  0.00    -0.181 SA 
BRANCH   9  10
HETATM   10  C   UNL     1     -10.307  11.109  67.155  1.00  0.00    -0.212 C  
HETATM   11  S   UNL     1     -10.145  10.352  65.662  1.00  0.00    -0.249 S  
BRANCH  10  12
HETATM   12  N   UNL     1     -11.069  12.272  67.337  1.00  0.00    -0.266 N  
BRANCH  12  13
HETATM   13  C   UNL     1     -11.910  12.797  66.251  1.00  0.00    -0.423 C  
HETATM   14  C   UNL     1     -11.399  14.077  65.607  1.00  0.00    -0.313 C  
ENDBRANCH  12  13
BRANCH  12  15
HETATM   15  C   UNL     1     -10.910  13.075  68.560  1.00  0.00    -0.258 C  
HETATM   16  C   UNL     1     -12.118  13.930  68.904  1.00  0.00    -0.355 C  
ENDBRANCH  12  15
ENDBRANCH  10  12
ENDBRANCH   9  10
ENDBRANCH   8   9
ENDBRANCH   6   8
ENDBRANCH   3   6
ENDBRANCH   2   3
TORSDOF 9
ENDMDL
MODEL      262
REMARK 921   NORMALIZED FREE ENERGY PREDICTED BY IDOCK:   -2.57 KCAL/MOL
REMARK 922        TOTAL FREE ENERGY PREDICTED BY IDOCK:   -4.44 KCAL/MOL
REMARK 923 INTER-LIGAND FREE ENERGY PREDICTED BY IDOCK:   -3.82 KCAL/MOL
REMARK 924 INTRA-LIGAND FREE ENERGY PREDICTED BY IDOCK:   -0.62 KCAL/MOL
REMARK 927      BINDING AFFINITY PREDICTED BY RF-SCORE:    0.00 PKD
ROOT
HETATM    1  C   UNL     1     -11.836  12.185  69.887  1.00  0.00    -0.392 C  
HETATM    2  C   UNL     1     -12.025  11.205  68.733  1.00  0.00    -0.268 C  
ENDROOT
BRANCH   2   3
HETATM    3  N   UNL     1     -10.959  11.293  67.710  1.00  0.00    -0.232 N  
BRANCH   3   4
HETATM    4  C   UNL     1     -10.835  12.542  66.922  1.00  0.00    -0.248 C  
HETATM    5  C   UNL     1     -12.021  12.986  66.070  1.00  0.00    -0.498 C  
ENDBRANCH   3   4
BRANCH   3   6
HETATM    6  C   UNL     1     -10.117  10.172  67.449  1.00  0.00    -0.205 C  
HETATM    7  S   UNL     1      -9.703   9.617  65.901  1.00  0.00    -0.286 S  
BRANCH   6   8
HETATM    8  S   UNL     1      -9.356   9.395  68.872  1.00  0.00    -0.157 SA 
BRANCH   8   9
HETATM    9  S   UNL     1      -8.428   7.722  68.083  1.00  0.00    -0.124 SA 
BRANCH   9  10
HETATM   10  C   UNL     1      -9.604   6.393  68.173  1.00  0.00    -0.115 C  
HETATM   11  S   UNL     1     -10.821   6.094  67.051  1.00  0.00    -0.326 S  
BRANCH  10  12
HETATM   12  N   UNL     1      -9.314   5.515  69.228  1.00  0.00    -0.115 N  
BRANCH  12  13
HETATM   13  C   UNL     1      -9.624   5.883  70.617  1.00  0.00    -0.173 C  
HETATM   14  C   UNL     1     -11.069   6.288  70.865  1.00  0.00    -0.366 C  
ENDBRANCH  12  13
BRANCH  12  15
HETATM   15  C   UNL     1      -8.546   4.286  68.975  1.00  0.00    -0.083 C  
HETATM   16  C   UNL     1      -9.381   3.016  68.994  1.00  0.00    -0.226 C  
ENDBRANCH  12  15
ENDBRANCH  10  12
ENDBRANCH   9  10
ENDBRANCH   8   9
ENDBRANCH   6   8
ENDBRANCH   3   6
ENDBRANCH   2   3
TORSDOF 9
ENDMDL
MODEL      263
REMARK 921   NORMALIZED FREE ENERGY PREDICTED BY IDOCK:   -2.57 KCAL/MOL
REMARK 922        TOTAL FREE ENERGY PREDICTED BY IDOCK:   -4.44 KCAL/MOL
REMARK 923 INTER-LIGAND FREE ENERGY PREDICTED BY IDOCK:   -3.89 KCAL/MOL
REMARK 924 INTRA-LIGAND FREE ENERGY PREDICTED BY IDOCK:   -0.54 KCAL/MOL
REMARK 927      BINDING AFFINITY PREDICTED BY RF-SCORE:    0.00 PKD
ROOT
HETATM    1  C   UNL     1     -12.882  10.652  71.826  1.00  0.00    -0.549 C  
HETATM    2  C   UNL     1     -12.964   9.297  71.127  1.00  0.00    -0.203 C  
ENDROOT
BRANCH   2   3
HETATM    3  N   UNL     1     -11.690   8.547  71.155  1.00  0.00    -0.279 N  
BRANCH   3   4
HETATM    4  C   UNL     1     -11.042   8.298  72.464  1.00  0.00    -0.368 C  
HETATM    5  C   UNL     1      -9.517   8.274  72.530  1.00  0.00    -0.356 C  
ENDBRANCH   3   4
BRANCH   3   6
HETATM    6  C   UNL     1     -11.070   8.133  69.939  1.00  0.00    -0.102 C  
HETATM    7  S   UNL     1     -10.223   9.162  68.890  1.00  0.00    -0.211 S  
BRANCH   6   8
HETATM    8  S   UNL     1     -11.096   6.378  69.586  1.00  0.00    -0.423 SA 
BRANCH   8   9
HETATM    9  S   UNL     1     -10.884   6.285  67.529  1.00  0.00    -0.353 SA 
BRANCH   9  10
HETATM   10  C   UNL     1      -9.301   5.543  67.209  1.00  0.00    -0.114 C  
HETATM   11  S   UNL     1      -7.812   6.262  67.509  1.00  0.00    -0.106 S  
BRANCH  10  12
HETATM   12  N   UNL     1      -9.430   4.206  66.802  1.00  0.00    -0.180 N  
BRANCH  12  13
HETATM   13  C   UNL     1      -9.880   3.875  65.441  1.00  0.00    -0.167 C  
HETATM   14  C   UNL     1      -9.082   4.533  64.326  1.00  0.00    -0.138 C  
ENDBRANCH  12  13
BRANCH  12  15
HETATM   15  C   UNL     1      -9.275   3.119  67.780  1.00  0.00    -0.196 C  
HETATM   16  C   UNL     1      -9.013   1.757  67.160  1.00  0.00    -0.147 C  
ENDBRANCH  12  15
ENDBRANCH  10  12
ENDBRANCH   9  10
ENDBRANCH   8   9
ENDBRANCH   6   8
ENDBRANCH   3   6
ENDBRANCH   2   3
TORSDOF 9
ENDMDL
MODEL      264
REMARK 921   NORMALIZED FREE ENERGY PREDICTED BY IDOCK:   -2.56 KCAL/MOL
REMARK 922        TOTAL FREE ENERGY PREDICTED BY IDOCK:   -4.42 KCAL/MOL
REMARK 923 INTER-LIGAND FREE ENERGY PREDICTED BY IDOCK:   -3.67 KCAL/MOL
REMARK 924 INTRA-LIGAND FREE ENERGY PREDICTED BY IDOCK:   -0.75 KCAL/MOL
REMARK 927      BINDING AFFINITY PREDICTED BY RF-SCORE:    0.00 PKD
ROOT
HETATM    1  C   UNL     1     -12.034  14.137  68.661  1.00  0.00    -0.373 C  
HETATM    2  C   UNL     1     -10.516  14.129  68.827  1.00  0.00    -0.247 C  
ENDROOT
BRANCH   2   3
HETATM    3  N   UNL     1      -9.818  15.007  67.863  1.00  0.00    -0.216 N  
BRANCH   3   4
HETATM    4  C   UNL     1     -10.617  15.694  66.821  1.00  0.00    -0.307 C  
HETATM    5  C   UNL     1     -10.452  15.254  65.369  1.00  0.00    -0.422 C  
ENDBRANCH   3   4
BRANCH   3   6
HETATM    6  C   UNL     1      -8.398  15.133  67.901  1.00  0.00    -0.149 C  
HETATM    7  S   UNL     1      -7.546  16.554  67.540  1.00  0.00    -0.157 S  
BRANCH   6   8
HETATM    8  S   UNL     1      -7.485  13.712  68.496  1.00  0.00    -0.119 SA 
BRANCH   8   9
HETATM    9  S   UNL     1      -7.699  12.318  66.980  1.00  0.00    -0.031 SA 
BRANCH   9  10
HETATM   10  C   UNL     1      -8.497  10.900  67.695  1.00  0.00    -0.123 C  
HETATM   11  S   UNL     1      -8.204  10.294  69.236  1.00  0.00    -0.162 S  
BRANCH  10  12
HETATM   12  N   UNL     1      -9.525  10.415  66.872  1.00  0.00    -0.166 N  
BRANCH  12  13
HETATM   13  C   UNL     1     -10.773  11.174  66.703  1.00  0.00    -0.269 C  
HETATM   14  C   UNL     1     -11.054  11.635  65.281  1.00  0.00    -0.298 C  
ENDBRANCH  12  13
BRANCH  12  15
HETATM   15  C   UNL     1      -9.434   9.064  66.298  1.00  0.00    -0.242 C  
HETATM   16  C   UNL     1     -10.435   8.076  66.871  1.00  0.00    -0.387 C  
ENDBRANCH  12  15
ENDBRANCH  10  12
ENDBRANCH   9  10
ENDBRANCH   8   9
ENDBRANCH   6   8
ENDBRANCH   3   6
ENDBRANCH   2   3
TORSDOF 9
ENDMDL
MODEL      265
REMARK 921   NORMALIZED FREE ENERGY PREDICTED BY IDOCK:   -2.55 KCAL/MOL
REMARK 922        TOTAL FREE ENERGY PREDICTED BY IDOCK:   -4.41 KCAL/MOL
REMARK 923 INTER-LIGAND FREE ENERGY PREDICTED BY IDOCK:   -4.00 KCAL/MOL
REMARK 924 INTRA-LIGAND FREE ENERGY PREDICTED BY IDOCK:   -0.41 KCAL/MOL
REMARK 927      BINDING AFFINITY PREDICTED BY RF-SCORE:    0.00 PKD
ROOT
HETATM    1  C   UNL     1     -11.686  15.858  69.006  1.00  0.00    -0.377 C  
HETATM    2  C   UNL     1     -10.338  16.571  68.952  1.00  0.00    -0.292 C  
ENDROOT
BRANCH   2   3
HETATM    3  N   UNL     1     -10.032  17.146  67.624  1.00  0.00    -0.274 N  
BRANCH   3   4
HETATM    4  C   UNL     1     -10.731  18.386  67.211  1.00  0.00    -0.353 C  
HETATM    5  C   UNL     1     -10.416  19.682  67.953  1.00  0.00    -0.556 C  
ENDBRANCH   3   4
BRANCH   3   6
HETATM    6  C   UNL     1      -9.134  16.480  66.740  1.00  0.00    -0.237 C  
HETATM    7  S   UNL     1      -7.530  16.954  66.457  1.00  0.00    -0.295 S  
BRANCH   6   8
HETATM    8  S   UNL     1      -9.728  14.968  65.987  1.00  0.00    -0.338 SA 
BRANCH   8   9
HETATM    9  S   UNL     1      -8.557  13.495  66.849  1.00  0.00    -0.027 SA 
BRANCH   9  10
HETATM   10  C   UNL     1      -9.246  11.934  66.350  1.00  0.00    -0.215 C  
HETATM   11  S   UNL     1      -9.716  11.534  64.786  1.00  0.00    -0.185 S  
BRANCH  10  12
HETATM   12  N   UNL     1      -9.225  11.001  67.397  1.00  0.00    -0.151 N  
BRANCH  12  13
HETATM   13  C   UNL     1      -9.802  11.330  68.709  1.00  0.00    -0.184 C  
HETATM   14  C   UNL     1     -11.161  12.012  68.657  1.00  0.00    -0.309 C  
ENDBRANCH  12  13
BRANCH  12  15
HETATM   15  C   UNL     1      -8.478   9.742  67.248  1.00  0.00    -0.125 C  
HETATM   16  C   UNL     1      -6.969   9.916  67.205  1.00  0.00    -0.084 C  
ENDBRANCH  12  15
ENDBRANCH  10  12
ENDBRANCH   9  10
ENDBRANCH   8   9
ENDBRANCH   6   8
ENDBRANCH   3   6
ENDBRANCH   2   3
TORSDOF 9
ENDMDL
MODEL      266
REMARK 921   NORMALIZED FREE ENERGY PREDICTED BY IDOCK:   -2.55 KCAL/MOL
REMARK 922        TOTAL FREE ENERGY PREDICTED BY IDOCK:   -4.41 KCAL/MOL
REMARK 923 INTER-LIGAND FREE ENERGY PREDICTED BY IDOCK:   -4.14 KCAL/MOL
REMARK 924 INTRA-LIGAND FREE ENERGY PREDICTED BY IDOCK:   -0.27 KCAL/MOL
REMARK 927      BINDING AFFINITY PREDICTED BY RF-SCORE:    0.00 PKD
ROOT
HETATM    1  C   UNL     1      -7.439  17.908  66.352  1.00  0.00    -0.308 C  
HETATM    2  C   UNL     1      -8.321  17.918  67.597  1.00  0.00    -0.234 C  
ENDROOT
BRANCH   2   3
HETATM    3  N   UNL     1      -9.751  17.675  67.302  1.00  0.00    -0.277 N  
BRANCH   3   4
HETATM    4  C   UNL     1     -10.639  18.843  67.094  1.00  0.00    -0.458 C  
HETATM    5  C   UNL     1     -10.052  20.102  66.461  1.00  0.00    -0.577 C  
ENDBRANCH   3   4
BRANCH   3   6
HETATM    6  C   UNL     1     -10.269  16.347  67.287  1.00  0.00    -0.278 C  
HETATM    7  S   UNL     1     -11.221  15.670  68.516  1.00  0.00    -0.359 S  
BRANCH   6   8
HETATM    8  S   UNL     1      -9.983  15.395  65.798  1.00  0.00    -0.374 SA 
BRANCH   8   9
HETATM    9  S   UNL     1     -10.017  13.432  66.453  1.00  0.00    -0.298 SA 
BRANCH   9  10
HETATM   10  C   UNL     1      -8.379  13.055  67.032  1.00  0.00    -0.095 C  
HETATM   11  S   UNL     1      -7.393  14.100  67.905  1.00  0.00    -0.176 S  
BRANCH  10  12
HETATM   12  N   UNL     1      -8.045  11.712  66.800  1.00  0.00    -0.163 N  
BRANCH  12  13
HETATM   13  C   UNL     1      -9.049  10.765  66.294  1.00  0.00    -0.175 C  
HETATM   14  C   UNL     1      -8.866  10.353  64.842  1.00  0.00    -0.209 C  
ENDBRANCH  12  13
BRANCH  12  15
HETATM   15  C   UNL     1      -6.731  11.197  67.215  1.00  0.00    -0.091 C  
HETATM   16  C   UNL     1      -6.791   9.888  67.984  1.00  0.00    -0.072 C  
ENDBRANCH  12  15
ENDBRANCH  10  12
ENDBRANCH   9  10
ENDBRANCH   8   9
ENDBRANCH   6   8
ENDBRANCH   3   6
ENDBRANCH   2   3
TORSDOF 9
ENDMDL
MODEL      267
REMARK 921   NORMALIZED FREE ENERGY PREDICTED BY IDOCK:   -2.55 KCAL/MOL
REMARK 922        TOTAL FREE ENERGY PREDICTED BY IDOCK:   -4.41 KCAL/MOL
REMARK 923 INTER-LIGAND FREE ENERGY PREDICTED BY IDOCK:   -3.91 KCAL/MOL
REMARK 924 INTRA-LIGAND FREE ENERGY PREDICTED BY IDOCK:   -0.50 KCAL/MOL
REMARK 927      BINDING AFFINITY PREDICTED BY RF-SCORE:    0.00 PKD
ROOT
HETATM    1  C   UNL     1      -9.707   6.576  74.563  1.00  0.00    -0.331 C  
HETATM    2  C   UNL     1     -10.520   6.112  73.357  1.00  0.00    -0.253 C  
ENDROOT
BRANCH   2   3
HETATM    3  N   UNL     1      -9.850   6.373  72.064  1.00  0.00    -0.157 N  
BRANCH   3   4
HETATM    4  C   UNL     1      -8.441   5.943  71.896  1.00  0.00    -0.126 C  
HETATM    5  C   UNL     1      -7.606   6.597  70.798  1.00  0.00    -0.092 C  
ENDBRANCH   3   4
BRANCH   3   6
HETATM    6  C   UNL     1     -10.528   7.083  71.031  1.00  0.00    -0.212 C  
HETATM    7  S   UNL     1     -11.286   6.356  69.699  1.00  0.00    -0.413 S  
BRANCH   6   8
HETATM    8  S   UNL     1     -10.685   8.854  71.247  1.00  0.00    -0.316 SA 
BRANCH   8   9
HETATM    9  S   UNL     1      -9.968   9.633  69.469  1.00  0.00    -0.224 SA 
BRANCH   9  10
HETATM   10  C   UNL     1     -10.909  11.104  69.137  1.00  0.00    -0.238 C  
HETATM   11  S   UNL     1     -12.062  11.772  70.162  1.00  0.00    -0.282 S  
BRANCH  10  12
HETATM   12  N   UNL     1     -10.475  11.742  67.965  1.00  0.00    -0.193 N  
BRANCH  12  13
HETATM   13  C   UNL     1      -9.271  11.279  67.259  1.00  0.00    -0.166 C  
HETATM   14  C   UNL     1      -8.107  12.258  67.268  1.00  0.00    -0.182 C  
ENDBRANCH  12  13
BRANCH  12  15
HETATM   15  C   UNL     1     -11.124  12.985  67.519  1.00  0.00    -0.268 C  
HETATM   16  C   UNL     1     -12.003  12.821  66.291  1.00  0.00    -0.460 C  
ENDBRANCH  12  15
ENDBRANCH  10  12
ENDBRANCH   9  10
ENDBRANCH   8   9
ENDBRANCH   6   8
ENDBRANCH   3   6
ENDBRANCH   2   3
TORSDOF 9
ENDMDL
MODEL      268
REMARK 921   NORMALIZED FREE ENERGY PREDICTED BY IDOCK:   -2.55 KCAL/MOL
REMARK 922        TOTAL FREE ENERGY PREDICTED BY IDOCK:   -4.41 KCAL/MOL
REMARK 923 INTER-LIGAND FREE ENERGY PREDICTED BY IDOCK:   -3.89 KCAL/MOL
REMARK 924 INTRA-LIGAND FREE ENERGY PREDICTED BY IDOCK:   -0.52 KCAL/MOL
REMARK 927      BINDING AFFINITY PREDICTED BY RF-SCORE:    0.00 PKD
ROOT
HETATM    1  C   UNL     1     -10.753  13.007  66.389  1.00  0.00    -0.295 C  
HETATM    2  C   UNL     1     -11.880  12.495  67.282  1.00  0.00    -0.311 C  
ENDROOT
BRANCH   2   3
HETATM    3  N   UNL     1     -11.552  12.542  68.724  1.00  0.00    -0.299 N  
BRANCH   3   4
HETATM    4  C   UNL     1     -11.064  13.818  69.298  1.00  0.00    -0.208 C  
HETATM    5  C   UNL     1     -11.989  15.032  69.269  1.00  0.00    -0.322 C  
ENDBRANCH   3   4
BRANCH   3   6
HETATM    6  C   UNL     1     -11.642  11.365  69.522  1.00  0.00    -0.331 C  
HETATM    7  S   UNL     1     -12.628  11.202  70.893  1.00  0.00    -0.367 S  
BRANCH   6   8
HETATM    8  S   UNL     1     -10.738   9.933  68.940  1.00  0.00    -0.212 SA 
BRANCH   8   9
HETATM    9  S   UNL     1      -9.748   9.255  70.627  1.00  0.00    -0.278 SA 
BRANCH   9  10
HETATM   10  C   UNL     1     -10.466   7.685  71.048  1.00  0.00    -0.211 C  
HETATM   11  S   UNL     1     -12.113   7.349  71.089  1.00  0.00    -0.314 S  
BRANCH  10  12
HETATM   12  N   UNL     1      -9.485   6.694  71.206  1.00  0.00    -0.163 N  
BRANCH  12  13
HETATM   13  C   UNL     1      -9.227   6.097  72.525  1.00  0.00    -0.137 C  
HETATM   14  C   UNL     1      -9.447   7.032  73.705  1.00  0.00    -0.239 C  
ENDBRANCH  12  13
BRANCH  12  15
HETATM   15  C   UNL     1      -8.590   6.356  70.089  1.00  0.00    -0.135 C  
HETATM   16  C   UNL     1      -7.113   6.406  70.439  1.00  0.00    -0.068 C  
ENDBRANCH  12  15
ENDBRANCH  10  12
ENDBRANCH   9  10
ENDBRANCH   8   9
ENDBRANCH   6   8
ENDBRANCH   3   6
ENDBRANCH   2   3
TORSDOF 9
ENDMDL
MODEL      269
REMARK 921   NORMALIZED FREE ENERGY PREDICTED BY IDOCK:   -2.55 KCAL/MOL
REMARK 922        TOTAL FREE ENERGY PREDICTED BY IDOCK:   -4.41 KCAL/MOL
REMARK 923 INTER-LIGAND FREE ENERGY PREDICTED BY IDOCK:   -3.96 KCAL/MOL
REMARK 924 INTRA-LIGAND FREE ENERGY PREDICTED BY IDOCK:   -0.45 KCAL/MOL
REMARK 927      BINDING AFFINITY PREDICTED BY RF-SCORE:    0.00 PKD
ROOT
HETATM    1  C   UNL     1      -7.810  17.742  68.470  1.00  0.00    -0.290 C  
HETATM    2  C   UNL     1      -7.387  16.306  68.767  1.00  0.00    -0.191 C  
ENDROOT
BRANCH   2   3
HETATM    3  N   UNL     1      -8.108  15.303  67.953  1.00  0.00    -0.133 N  
BRANCH   3   4
HETATM    4  C   UNL     1      -7.388  14.076  67.537  1.00  0.00    -0.170 C  
HETATM    5  C   UNL     1      -7.614  12.794  68.333  1.00  0.00    -0.133 C  
ENDBRANCH   3   4
BRANCH   3   6
HETATM    6  C   UNL     1      -9.446  15.549  67.526  1.00  0.00    -0.208 C  
HETATM    7  S   UNL     1      -9.891  15.977  65.946  1.00  0.00    -0.344 S  
BRANCH   6   8
HETATM    8  S   UNL     1     -10.737  15.253  68.732  1.00  0.00    -0.252 SA 
BRANCH   8   9
HETATM    9  S   UNL     1     -12.119  14.106  67.704  1.00  0.00    -0.210 SA 
BRANCH   9  10
HETATM   10  C   UNL     1     -11.347  12.538  67.381  1.00  0.00    -0.313 C  
HETATM   11  S   UNL     1     -10.461  12.157  66.004  1.00  0.00    -0.257 S  
BRANCH  10  12
HETATM   12  N   UNL     1     -11.438  11.680  68.486  1.00  0.00    -0.270 N  
BRANCH  12  13
HETATM   13  C   UNL     1     -11.141  10.246  68.350  1.00  0.00    -0.247 C  
HETATM   14  C   UNL     1      -9.768   9.826  68.852  1.00  0.00    -0.172 C  
ENDBRANCH  12  13
BRANCH  12  15
HETATM   15  C   UNL     1     -11.990  12.171  69.758  1.00  0.00    -0.302 C  
HETATM   16  C   UNL     1     -12.472  11.073  70.692  1.00  0.00    -0.465 C  
ENDBRANCH  12  15
ENDBRANCH  10  12
ENDBRANCH   9  10
ENDBRANCH   8   9
ENDBRANCH   6   8
ENDBRANCH   3   6
ENDBRANCH   2   3
TORSDOF 9
ENDMDL
MODEL      270
REMARK 921   NORMALIZED FREE ENERGY PREDICTED BY IDOCK:   -2.55 KCAL/MOL
REMARK 922        TOTAL FREE ENERGY PREDICTED BY IDOCK:   -4.40 KCAL/MOL
REMARK 923 INTER-LIGAND FREE ENERGY PREDICTED BY IDOCK:   -4.19 KCAL/MOL
REMARK 924 INTRA-LIGAND FREE ENERGY PREDICTED BY IDOCK:   -0.22 KCAL/MOL
REMARK 927      BINDING AFFINITY PREDICTED BY RF-SCORE:    0.00 PKD
ROOT
HETATM    1  C   UNL     1      -9.686  11.674  63.563  1.00  0.00    -0.342 C  
HETATM    2  C   UNL     1     -11.032  11.417  64.234  1.00  0.00    -0.321 C  
ENDROOT
BRANCH   2   3
HETATM    3  N   UNL     1     -11.246  12.232  65.450  1.00  0.00    -0.317 N  
BRANCH   3   4
HETATM    4  C   UNL     1     -12.364  13.205  65.464  1.00  0.00    -0.474 C  
HETATM    5  C   UNL     1     -12.243  14.465  64.611  1.00  0.00    -0.479 C  
ENDBRANCH   3   4
BRANCH   3   6
HETATM    6  C   UNL     1     -10.351  12.126  66.554  1.00  0.00    -0.213 C  
HETATM    7  S   UNL     1      -9.882  13.421  67.543  1.00  0.00    -0.232 S  
BRANCH   6   8
HETATM    8  S   UNL     1      -9.800  10.476  66.981  1.00  0.00    -0.189 SA 
BRANCH   8   9
HETATM    9  S   UNL     1      -9.874  10.450  69.049  1.00  0.00    -0.221 SA 
BRANCH   9  10
HETATM   10  C   UNL     1      -8.856   9.095  69.583  1.00  0.00    -0.151 C  
HETATM   11  S   UNL     1      -7.407   9.240  70.422  1.00  0.00    -0.126 S  
BRANCH  10  12
HETATM   12  N   UNL     1      -9.476   7.858  69.349  1.00  0.00    -0.156 N  
BRANCH  12  13
HETATM   13  C   UNL     1      -8.933   6.922  68.353  1.00  0.00    -0.121 C  
HETATM   14  C   UNL     1      -7.906   7.522  67.405  1.00  0.00    -0.118 C  
ENDBRANCH  12  13
BRANCH  12  15
HETATM   15  C   UNL     1     -10.771   7.552  69.977  1.00  0.00    -0.240 C  
HETATM   16  C   UNL     1     -11.202   6.102  69.836  1.00  0.00    -0.484 C  
ENDBRANCH  12  15
ENDBRANCH  10  12
ENDBRANCH   9  10
ENDBRANCH   8   9
ENDBRANCH   6   8
ENDBRANCH   3   6
ENDBRANCH   2   3
TORSDOF 9
ENDMDL
MODEL      271
REMARK 921   NORMALIZED FREE ENERGY PREDICTED BY IDOCK:   -2.55 KCAL/MOL
REMARK 922        TOTAL FREE ENERGY PREDICTED BY IDOCK:   -4.40 KCAL/MOL
REMARK 923 INTER-LIGAND FREE ENERGY PREDICTED BY IDOCK:   -3.81 KCAL/MOL
REMARK 924 INTRA-LIGAND FREE ENERGY PREDICTED BY IDOCK:   -0.59 KCAL/MOL
REMARK 927      BINDING AFFINITY PREDICTED BY RF-SCORE:    0.00 PKD
ROOT
HETATM    1  C   UNL     1      -6.964   9.153  63.329  1.00  0.00    -0.089 C  
HETATM    2  C   UNL     1      -8.277   8.720  63.974  1.00  0.00    -0.161 C  
ENDROOT
BRANCH   2   3
HETATM    3  N   UNL     1      -8.346   9.024  65.420  1.00  0.00    -0.136 N  
BRANCH   3   4
HETATM    4  C   UNL     1      -7.087   9.045  66.202  1.00  0.00    -0.086 C  
HETATM    5  C   UNL     1      -6.811  10.242  67.107  1.00  0.00    -0.082 C  
ENDBRANCH   3   4
BRANCH   3   6
HETATM    6  C   UNL     1      -9.607   9.225  66.055  1.00  0.00    -0.270 C  
HETATM    7  S   UNL     1     -10.384   8.084  67.040  1.00  0.00    -0.340 S  
BRANCH   6   8
HETATM    8  S   UNL     1     -10.336  10.852  65.886  1.00  0.00    -0.228 SA 
BRANCH   8   9
HETATM    9  S   UNL     1     -10.454  11.545  67.833  1.00  0.00    -0.192 SA 
BRANCH   9  10
HETATM   10  C   UNL     1     -10.058  13.277  67.787  1.00  0.00    -0.229 C  
HETATM   11  S   UNL     1      -8.504  13.919  67.811  1.00  0.00    -0.199 S  
BRANCH  10  12
HETATM   12  N   UNL     1     -11.201  14.064  67.579  1.00  0.00    -0.298 N  
BRANCH  12  13
HETATM   13  C   UNL     1     -12.153  14.308  68.673  1.00  0.00    -0.260 C  
HETATM   14  C   UNL     1     -11.914  15.591  69.455  1.00  0.00    -0.358 C  
ENDBRANCH  12  13
BRANCH  12  15
HETATM   15  C   UNL     1     -11.547  14.518  66.224  1.00  0.00    -0.360 C  
HETATM   16  C   UNL     1     -12.756  13.821  65.624  1.00  0.00    -0.523 C  
ENDBRANCH  12  15
ENDBRANCH  10  12
ENDBRANCH   9  10
ENDBRANCH   8   9
ENDBRANCH   6   8
ENDBRANCH   3   6
ENDBRANCH   2   3
TORSDOF 9
ENDMDL
MODEL      272
REMARK 921   NORMALIZED FREE ENERGY PREDICTED BY IDOCK:   -2.54 KCAL/MOL
REMARK 922        TOTAL FREE ENERGY PREDICTED BY IDOCK:   -4.39 KCAL/MOL
REMARK 923 INTER-LIGAND FREE ENERGY PREDICTED BY IDOCK:   -3.85 KCAL/MOL
REMARK 924 INTRA-LIGAND FREE ENERGY PREDICTED BY IDOCK:   -0.54 KCAL/MOL
REMARK 927      BINDING AFFINITY PREDICTED BY RF-SCORE:    0.00 PKD
ROOT
HETATM    1  C   UNL     1     -10.612  17.153  67.306  1.00  0.00    -0.270 C  
HETATM    2  C   UNL     1     -10.711  15.674  67.668  1.00  0.00    -0.302 C  
ENDROOT
BRANCH   2   3
HETATM    3  N   UNL     1     -10.091  14.782  66.663  1.00  0.00    -0.257 N  
BRANCH   3   4
HETATM    4  C   UNL     1     -10.550  14.872  65.256  1.00  0.00    -0.401 C  
HETATM    5  C   UNL     1     -11.997  14.503  64.938  1.00  0.00    -0.425 C  
ENDBRANCH   3   4
BRANCH   3   6
HETATM    6  C   UNL     1      -9.121  13.815  67.058  1.00  0.00    -0.246 C  
HETATM    7  S   UNL     1      -7.586  14.185  67.676  1.00  0.00    -0.188 S  
BRANCH   6   8
HETATM    8  S   UNL     1      -9.636  12.100  67.006  1.00  0.00    -0.210 SA 
BRANCH   8   9
HETATM    9  S   UNL     1      -8.981  11.334  68.814  1.00  0.00    -0.056 SA 
BRANCH   9  10
HETATM   10  C   UNL     1      -9.700   9.717  68.977  1.00  0.00    -0.177 C  
HETATM   11  S   UNL     1     -10.747   9.238  70.203  1.00  0.00    -0.248 S  
BRANCH  10  12
HETATM   12  N   UNL     1      -9.406   8.907  67.871  1.00  0.00    -0.141 N  
BRANCH  12  13
HETATM   13  C   UNL     1      -8.015   8.685  67.450  1.00  0.00    -0.102 C  
HETATM   14  C   UNL     1      -7.778   8.775  65.950  1.00  0.00    -0.094 C  
ENDBRANCH  12  13
BRANCH  12  15
HETATM   15  C   UNL     1     -10.493   8.401  67.018  1.00  0.00    -0.305 C  
HETATM   16  C   UNL     1     -10.820   6.933  67.233  1.00  0.00    -0.426 C  
ENDBRANCH  12  15
ENDBRANCH  10  12
ENDBRANCH   9  10
ENDBRANCH   8   9
ENDBRANCH   6   8
ENDBRANCH   3   6
ENDBRANCH   2   3
TORSDOF 9
ENDMDL
MODEL      273
REMARK 921   NORMALIZED FREE ENERGY PREDICTED BY IDOCK:   -2.53 KCAL/MOL
REMARK 922        TOTAL FREE ENERGY PREDICTED BY IDOCK:   -4.38 KCAL/MOL
REMARK 923 INTER-LIGAND FREE ENERGY PREDICTED BY IDOCK:   -3.84 KCAL/MOL
REMARK 924 INTRA-LIGAND FREE ENERGY PREDICTED BY IDOCK:   -0.55 KCAL/MOL
REMARK 927      BINDING AFFINITY PREDICTED BY RF-SCORE:    0.00 PKD
ROOT
HETATM    1  C   UNL     1     -12.269  14.590  64.388  1.00  0.00    -0.480 C  
HETATM    2  C   UNL     1     -12.623  13.893  65.700  1.00  0.00    -0.517 C  
ENDROOT
BRANCH   2   3
HETATM    3  N   UNL     1     -11.438  13.525  66.504  1.00  0.00    -0.326 N  
BRANCH   3   4
HETATM    4  C   UNL     1     -10.512  14.599  66.936  1.00  0.00    -0.270 C  
HETATM    5  C   UNL     1     -10.609  15.112  68.371  1.00  0.00    -0.238 C  
ENDBRANCH   3   4
BRANCH   3   6
HETATM    6  C   UNL     1     -11.163  12.157  66.798  1.00  0.00    -0.322 C  
HETATM    7  S   UNL     1     -11.525  11.395  68.269  1.00  0.00    -0.304 S  
BRANCH   6   8
HETATM    8  S   UNL     1     -10.505  11.169  65.457  1.00  0.00    -0.233 SA 
BRANCH   8   9
HETATM    9  S   UNL     1      -8.781  10.343  66.253  1.00  0.00    -0.158 SA 
BRANCH   9  10
HETATM   10  C   UNL     1      -9.064   8.594  66.387  1.00  0.00    -0.174 C  
HETATM   11  S   UNL     1     -10.349   7.877  67.201  1.00  0.00    -0.345 S  
BRANCH  10  12
HETATM   12  N   UNL     1      -8.160   7.862  65.603  1.00  0.00    -0.122 N  
BRANCH  12  13
HETATM   13  C   UNL     1      -7.294   6.841  66.211  1.00  0.00    -0.073 C  
HETATM   14  C   UNL     1      -6.477   7.322  67.401  1.00  0.00    -0.059 C  
ENDBRANCH  12  13
BRANCH  12  15
HETATM   15  C   UNL     1      -7.950   8.219  64.191  1.00  0.00    -0.148 C  
HETATM   16  C   UNL     1      -6.522   8.029  63.708  1.00  0.00    -0.067 C  
ENDBRANCH  12  15
ENDBRANCH  10  12
ENDBRANCH   9  10
ENDBRANCH   8   9
ENDBRANCH   6   8
ENDBRANCH   3   6
ENDBRANCH   2   3
TORSDOF 9
ENDMDL
MODEL      274
REMARK 921   NORMALIZED FREE ENERGY PREDICTED BY IDOCK:   -2.53 KCAL/MOL
REMARK 922        TOTAL FREE ENERGY PREDICTED BY IDOCK:   -4.38 KCAL/MOL
REMARK 923 INTER-LIGAND FREE ENERGY PREDICTED BY IDOCK:   -3.88 KCAL/MOL
REMARK 924 INTRA-LIGAND FREE ENERGY PREDICTED BY IDOCK:   -0.50 KCAL/MOL
REMARK 927      BINDING AFFINITY PREDICTED BY RF-SCORE:    0.00 PKD
ROOT
HETATM    1  C   UNL     1      -8.342   7.842  74.238  1.00  0.00    -0.297 C  
HETATM    2  C   UNL     1      -9.720   7.257  73.941  1.00  0.00    -0.277 C  
ENDROOT
BRANCH   2   3
HETATM    3  N   UNL     1      -9.851   6.737  72.562  1.00  0.00    -0.164 N  
BRANCH   3   4
HETATM    4  C   UNL     1      -9.097   5.517  72.190  1.00  0.00    -0.143 C  
HETATM    5  C   UNL     1      -8.255   5.541  70.916  1.00  0.00    -0.118 C  
ENDBRANCH   3   4
BRANCH   3   6
HETATM    6  C   UNL     1     -10.634   7.439  71.599  1.00  0.00    -0.205 C  
HETATM    7  S   UNL     1     -11.882   6.748  70.683  1.00  0.00    -0.345 S  
BRANCH   6   8
HETATM    8  S   UNL     1     -10.339   9.200  71.460  1.00  0.00    -0.297 SA 
BRANCH   8   9
HETATM    9  S   UNL     1      -9.229   9.379  69.722  1.00  0.00    -0.212 SA 
BRANCH   9  10
HETATM   10  C   UNL     1     -10.331   9.992  68.469  1.00  0.00    -0.193 C  
HETATM   11  S   UNL     1     -11.642  11.009  68.741  1.00  0.00    -0.314 S  
BRANCH  10  12
HETATM   12  N   UNL     1      -9.896   9.643  67.182  1.00  0.00    -0.176 N  
BRANCH  12  13
HETATM   13  C   UNL     1      -9.310   8.320  66.921  1.00  0.00    -0.176 C  
HETATM   14  C   UNL     1     -10.296   7.163  66.962  1.00  0.00    -0.368 C  
ENDBRANCH  12  13
BRANCH  12  15
HETATM   15  C   UNL     1      -9.870  10.653  66.113  1.00  0.00    -0.217 C  
HETATM   16  C   UNL     1      -9.615  10.085  64.727  1.00  0.00    -0.374 C  
ENDBRANCH  12  15
ENDBRANCH  10  12
ENDBRANCH   9  10
ENDBRANCH   8   9
ENDBRANCH   6   8
ENDBRANCH   3   6
ENDBRANCH   2   3
TORSDOF 9
ENDMDL
MODEL      275
REMARK 921   NORMALIZED FREE ENERGY PREDICTED BY IDOCK:   -2.53 KCAL/MOL
REMARK 922        TOTAL FREE ENERGY PREDICTED BY IDOCK:   -4.37 KCAL/MOL
REMARK 923 INTER-LIGAND FREE ENERGY PREDICTED BY IDOCK:   -3.98 KCAL/MOL
REMARK 924 INTRA-LIGAND FREE ENERGY PREDICTED BY IDOCK:   -0.39 KCAL/MOL
REMARK 927      BINDING AFFINITY PREDICTED BY RF-SCORE:    0.00 PKD
ROOT
HETATM    1  C   UNL     1      -7.985  13.791  68.564  1.00  0.00    -0.131 C  
HETATM    2  C   UNL     1      -7.839  12.386  67.985  1.00  0.00    -0.141 C  
ENDROOT
BRANCH   2   3
HETATM    3  N   UNL     1      -8.894  12.043  67.007  1.00  0.00    -0.190 N  
BRANCH   3   4
HETATM    4  C   UNL     1      -8.704  10.850  66.148  1.00  0.00    -0.184 C  
HETATM    5  C   UNL     1      -8.876   9.468  66.774  1.00  0.00    -0.145 C  
ENDBRANCH   3   4
BRANCH   3   6
HETATM    6  C   UNL     1     -10.034  12.885  66.852  1.00  0.00    -0.238 C  
HETATM    7  S   UNL     1     -11.474  12.730  67.734  1.00  0.00    -0.347 S  
BRANCH   6   8
HETATM    8  S   UNL     1      -9.858  14.270  65.730  1.00  0.00    -0.247 SA 
BRANCH   8   9
HETATM    9  S   UNL     1     -11.267  15.630  66.401  1.00  0.00     0.064 SA 
BRANCH   9  10
HETATM   10  C   UNL     1     -10.504  16.555  67.713  1.00  0.00    -0.308 C  
HETATM   11  S   UNL     1     -10.715  16.265  69.356  1.00  0.00    -0.338 S  
BRANCH  10  12
HETATM   12  N   UNL     1      -9.574  17.482  67.220  1.00  0.00    -0.267 N  
BRANCH  12  13
HETATM   13  C   UNL     1      -8.182  17.475  67.695  1.00  0.00    -0.215 C  
HETATM   14  C   UNL     1      -7.834  18.586  68.673  1.00  0.00    -0.338 C  
ENDBRANCH  12  13
BRANCH  12  15
HETATM   15  C   UNL     1     -10.018  18.577  66.344  1.00  0.00    -0.379 C  
HETATM   16  C   UNL     1     -10.769  19.684  67.065  1.00  0.00    -0.575 C  
ENDBRANCH  12  15
ENDBRANCH  10  12
ENDBRANCH   9  10
ENDBRANCH   8   9
ENDBRANCH   6   8
ENDBRANCH   3   6
ENDBRANCH   2   3
TORSDOF 9
ENDMDL
MODEL      276
REMARK 921   NORMALIZED FREE ENERGY PREDICTED BY IDOCK:   -2.53 KCAL/MOL
REMARK 922        TOTAL FREE ENERGY PREDICTED BY IDOCK:   -4.37 KCAL/MOL
REMARK 923 INTER-LIGAND FREE ENERGY PREDICTED BY IDOCK:   -4.25 KCAL/MOL
REMARK 924 INTRA-LIGAND FREE ENERGY PREDICTED BY IDOCK:   -0.12 KCAL/MOL
REMARK 927      BINDING AFFINITY PREDICTED BY RF-SCORE:    0.00 PKD
ROOT
HETATM    1  C   UNL     1      -8.628  11.294  66.463  1.00  0.00    -0.170 C  
HETATM    2  C   UNL     1     -10.137  11.081  66.377  1.00  0.00    -0.229 C  
ENDROOT
BRANCH   2   3
HETATM    3  N   UNL     1     -10.883  12.312  66.035  1.00  0.00    -0.265 N  
BRANCH   3   4
HETATM    4  C   UNL     1     -11.634  12.354  64.758  1.00  0.00    -0.341 C  
HETATM    5  C   UNL     1     -11.253  11.369  63.656  1.00  0.00    -0.366 C  
ENDBRANCH   3   4
BRANCH   3   6
HETATM    6  C   UNL     1     -10.822  13.452  66.889  1.00  0.00    -0.277 C  
HETATM    7  S   UNL     1     -10.996  13.405  68.575  1.00  0.00    -0.278 S  
BRANCH   6   8
HETATM    8  S   UNL     1     -10.406  15.011  66.111  1.00  0.00    -0.318 SA 
BRANCH   8   9
HETATM    9  S   UNL     1      -8.511  15.430  66.830  1.00  0.00    -0.265 SA 
BRANCH   9  10
HETATM   10  C   UNL     1      -8.572  17.071  67.511  1.00  0.00    -0.205 C  
HETATM   11  S   UNL     1      -9.806  17.677  68.479  1.00  0.00    -0.362 S  
BRANCH  10  12
HETATM   12  N   UNL     1      -7.384  17.777  67.266  1.00  0.00    -0.185 N  
BRANCH  12  13
HETATM   13  C   UNL     1      -6.505  18.176  68.375  1.00  0.00    -0.208 C  
HETATM   14  C   UNL     1      -7.058  19.279  69.265  1.00  0.00    -0.333 C  
ENDBRANCH  12  13
BRANCH  12  15
HETATM   15  C   UNL     1      -7.086  18.271  65.913  1.00  0.00    -0.256 C  
HETATM   16  C   UNL     1      -5.754  18.993  65.794  1.00  0.00    -0.193 C  
ENDBRANCH  12  15
ENDBRANCH  10  12
ENDBRANCH   9  10
ENDBRANCH   8   9
ENDBRANCH   6   8
ENDBRANCH   3   6
ENDBRANCH   2   3
TORSDOF 9
ENDMDL
MODEL      277
REMARK 921   NORMALIZED FREE ENERGY PREDICTED BY IDOCK:   -2.52 KCAL/MOL
REMARK 922        TOTAL FREE ENERGY PREDICTED BY IDOCK:   -4.36 KCAL/MOL
REMARK 923 INTER-LIGAND FREE ENERGY PREDICTED BY IDOCK:   -3.87 KCAL/MOL
REMARK 924 INTRA-LIGAND FREE ENERGY PREDICTED BY IDOCK:   -0.49 KCAL/MOL
REMARK 927      BINDING AFFINITY PREDICTED BY RF-SCORE:    0.00 PKD
ROOT
HETATM    1  C   UNL     1      -6.611   5.677  67.666  1.00  0.00    -0.053 C  
HETATM    2  C   UNL     1      -7.328   7.024  67.655  1.00  0.00    -0.096 C  
ENDROOT
BRANCH   2   3
HETATM    3  N   UNL     1      -8.742   6.931  67.230  1.00  0.00    -0.119 N  
BRANCH   3   4
HETATM    4  C   UNL     1      -9.128   5.859  66.282  1.00  0.00    -0.149 C  
HETATM    5  C   UNL     1     -10.433   5.106  66.527  1.00  0.00    -0.346 C  
ENDBRANCH   3   4
BRANCH   3   6
HETATM    6  C   UNL     1      -9.693   7.895  67.675  1.00  0.00    -0.156 C  
HETATM    7  S   UNL     1     -10.370   7.936  69.229  1.00  0.00    -0.217 S  
BRANCH   6   8
HETATM    8  S   UNL     1     -10.086   9.217  66.532  1.00  0.00    -0.264 SA 
BRANCH   8   9
HETATM    9  S   UNL     1      -9.331  10.908  67.456  1.00  0.00    -0.155 SA 
BRANCH   9  10
HETATM   10  C   UNL     1     -10.725  11.912  67.908  1.00  0.00    -0.204 C  
HETATM   11  S   UNL     1     -11.685  11.686  69.270  1.00  0.00    -0.349 S  
BRANCH  10  12
HETATM   12  N   UNL     1     -10.857  13.025  67.064  1.00  0.00    -0.258 N  
BRANCH  12  13
HETATM   13  C   UNL     1     -12.145  13.724  66.938  1.00  0.00    -0.413 C  
HETATM   14  C   UNL     1     -12.767  13.674  65.551  1.00  0.00    -0.514 C  
ENDBRANCH  12  13
BRANCH  12  15
HETATM   15  C   UNL     1      -9.753  13.407  66.170  1.00  0.00    -0.250 C  
HETATM   16  C   UNL     1      -9.392  14.882  66.222  1.00  0.00    -0.329 C  
ENDBRANCH  12  15
ENDBRANCH  10  12
ENDBRANCH   9  10
ENDBRANCH   8   9
ENDBRANCH   6   8
ENDBRANCH   3   6
ENDBRANCH   2   3
TORSDOF 9
ENDMDL
MODEL      278
REMARK 921   NORMALIZED FREE ENERGY PREDICTED BY IDOCK:   -2.52 KCAL/MOL
REMARK 922        TOTAL FREE ENERGY PREDICTED BY IDOCK:   -4.36 KCAL/MOL
REMARK 923 INTER-LIGAND FREE ENERGY PREDICTED BY IDOCK:   -4.02 KCAL/MOL
REMARK 924 INTRA-LIGAND FREE ENERGY PREDICTED BY IDOCK:   -0.33 KCAL/MOL
REMARK 927      BINDING AFFINITY PREDICTED BY RF-SCORE:    0.00 PKD
ROOT
HETATM    1  C   UNL     1      -6.348  11.278  66.412  1.00  0.00    -0.091 C  
HETATM    2  C   UNL     1      -6.360  12.302  67.543  1.00  0.00    -0.139 C  
ENDROOT
BRANCH   2   3
HETATM    3  N   UNL     1      -7.498  13.245  67.466  1.00  0.00    -0.161 N  
BRANCH   3   4
HETATM    4  C   UNL     1      -7.238  14.689  67.682  1.00  0.00    -0.186 C  
HETATM    5  C   UNL     1      -7.719  15.330  68.981  1.00  0.00    -0.183 C  
ENDBRANCH   3   4
BRANCH   3   6
HETATM    6  C   UNL     1      -8.822  12.761  67.256  1.00  0.00    -0.198 C  
HETATM    7  S   UNL     1      -9.808  13.187  65.944  1.00  0.00    -0.186 S  
BRANCH   6   8
HETATM    8  S   UNL     1      -9.412  11.521  68.406  1.00  0.00    -0.185 SA 
BRANCH   8   9
HETATM    9  S   UNL     1     -11.472  11.667  68.275  1.00  0.00    -0.318 SA 
BRANCH   9  10
HETATM   10  C   UNL     1     -12.073  11.954  69.923  1.00  0.00    -0.272 C  
HETATM   11  S   UNL     1     -12.388  10.761  71.064  1.00  0.00    -0.413 S  
BRANCH  10  12
HETATM   12  N   UNL     1     -12.122  13.323  70.224  1.00  0.00    -0.355 N  
BRANCH  12  13
HETATM   13  C   UNL     1     -11.224  14.273  69.550  1.00  0.00    -0.243 C  
HETATM   14  C   UNL     1     -11.897  15.173  68.525  1.00  0.00    -0.307 C  
ENDBRANCH  12  13
BRANCH  12  15
HETATM   15  C   UNL     1     -12.957  13.805  71.335  1.00  0.00    -0.355 C  
HETATM   16  C   UNL     1     -12.341  14.945  72.127  1.00  0.00    -0.430 C  
ENDBRANCH  12  15
ENDBRANCH  10  12
ENDBRANCH   9  10
ENDBRANCH   8   9
ENDBRANCH   6   8
ENDBRANCH   3   6
ENDBRANCH   2   3
TORSDOF 9
ENDMDL
MODEL      279
REMARK 921   NORMALIZED FREE ENERGY PREDICTED BY IDOCK:   -2.52 KCAL/MOL
REMARK 922        TOTAL FREE ENERGY PREDICTED BY IDOCK:   -4.36 KCAL/MOL
REMARK 923 INTER-LIGAND FREE ENERGY PREDICTED BY IDOCK:   -3.97 KCAL/MOL
REMARK 924 INTRA-LIGAND FREE ENERGY PREDICTED BY IDOCK:   -0.38 KCAL/MOL
REMARK 927      BINDING AFFINITY PREDICTED BY RF-SCORE:    0.00 PKD
ROOT
HETATM    1  C   UNL     1      -7.718  12.190  66.961  1.00  0.00    -0.112 C  
HETATM    2  C   UNL     1      -8.091  13.629  67.304  1.00  0.00    -0.139 C  
ENDROOT
BRANCH   2   3
HETATM    3  N   UNL     1      -9.402  14.041  66.758  1.00  0.00    -0.269 N  
BRANCH   3   4
HETATM    4  C   UNL     1      -9.462  15.234  65.880  1.00  0.00    -0.316 C  
HETATM    5  C   UNL     1      -8.704  16.489  66.304  1.00  0.00    -0.369 C  
ENDBRANCH   3   4
BRANCH   3   6
HETATM    6  C   UNL     1     -10.588  13.341  67.126  1.00  0.00    -0.258 C  
HETATM    7  S   UNL     1     -11.791  12.843  66.039  1.00  0.00    -0.445 S  
BRANCH   6   8
HETATM    8  S   UNL     1     -10.729  12.856  68.844  1.00  0.00    -0.102 SA 
BRANCH   8   9
HETATM    9  S   UNL     1     -11.954  11.188  68.788  1.00  0.00    -0.157 SA 
BRANCH   9  10
HETATM   10  C   UNL     1     -10.905   9.791  68.461  1.00  0.00    -0.188 C  
HETATM   11  S   UNL     1     -10.149   9.465  66.995  1.00  0.00    -0.257 S  
BRANCH  10  12
HETATM   12  N   UNL     1     -10.654   9.049  69.625  1.00  0.00    -0.223 N  
BRANCH  12  13
HETATM   13  C   UNL     1     -10.373   7.608  69.551  1.00  0.00    -0.217 C  
HETATM   14  C   UNL     1      -9.004   7.196  70.070  1.00  0.00    -0.142 C  
ENDBRANCH  12  13
BRANCH  12  15
HETATM   15  C   UNL     1     -10.832   9.669  70.947  1.00  0.00    -0.339 C  
HETATM   16  C   UNL     1     -11.513   8.773  71.968  1.00  0.00    -0.441 C  
ENDBRANCH  12  15
ENDBRANCH  10  12
ENDBRANCH   9  10
ENDBRANCH   8   9
ENDBRANCH   6   8
ENDBRANCH   3   6
ENDBRANCH   2   3
TORSDOF 9
ENDMDL
MODEL      280
REMARK 921   NORMALIZED FREE ENERGY PREDICTED BY IDOCK:   -2.50 KCAL/MOL
REMARK 922        TOTAL FREE ENERGY PREDICTED BY IDOCK:   -4.34 KCAL/MOL
REMARK 923 INTER-LIGAND FREE ENERGY PREDICTED BY IDOCK:   -4.00 KCAL/MOL
REMARK 924 INTRA-LIGAND FREE ENERGY PREDICTED BY IDOCK:   -0.34 KCAL/MOL
REMARK 927      BINDING AFFINITY PREDICTED BY RF-SCORE:    0.00 PKD
ROOT
HETATM    1  C   UNL     1     -10.538  17.090  67.463  1.00  0.00    -0.310 C  
HETATM    2  C   UNL     1     -10.895  15.632  67.741  1.00  0.00    -0.307 C  
ENDROOT
BRANCH   2   3
HETATM    3  N   UNL     1     -10.428  14.704  66.688  1.00  0.00    -0.274 N  
BRANCH   3   4
HETATM    4  C   UNL     1     -11.229  14.578  65.447  1.00  0.00    -0.342 C  
HETATM    5  C   UNL     1     -12.631  13.981  65.543  1.00  0.00    -0.543 C  
ENDBRANCH   3   4
BRANCH   3   6
HETATM    6  C   UNL     1      -9.268  13.902  66.897  1.00  0.00    -0.259 C  
HETATM    7  S   UNL     1      -7.799  14.476  67.521  1.00  0.00    -0.202 S  
BRANCH   6   8
HETATM    8  S   UNL     1      -9.444  12.147  66.588  1.00  0.00    -0.227 SA 
BRANCH   8   9
HETATM    9  S   UNL     1      -8.486  11.265  68.198  1.00  0.00    -0.152 SA 
BRANCH   9  10
HETATM   10  C   UNL     1      -9.748  10.504  69.191  1.00  0.00    -0.211 C  
HETATM   11  S   UNL     1     -11.316  11.080  69.381  1.00  0.00    -0.312 S  
BRANCH  10  12
HETATM   12  N   UNL     1      -9.329   9.265  69.699  1.00  0.00    -0.169 N  
BRANCH  12  13
HETATM   13  C   UNL     1      -9.808   8.008  69.103  1.00  0.00    -0.178 C  
HETATM   14  C   UNL     1      -9.907   8.017  67.585  1.00  0.00    -0.214 C  
ENDBRANCH  12  13
BRANCH  12  15
HETATM   15  C   UNL     1      -8.536   9.204  70.936  1.00  0.00    -0.206 C  
HETATM   16  C   UNL     1      -7.043   9.042  70.710  1.00  0.00    -0.092 C  
ENDBRANCH  12  15
ENDBRANCH  10  12
ENDBRANCH   9  10
ENDBRANCH   8   9
ENDBRANCH   6   8
ENDBRANCH   3   6
ENDBRANCH   2   3
TORSDOF 9
ENDMDL
MODEL      281
REMARK 921   NORMALIZED FREE ENERGY PREDICTED BY IDOCK:   -2.50 KCAL/MOL
REMARK 922        TOTAL FREE ENERGY PREDICTED BY IDOCK:   -4.34 KCAL/MOL
REMARK 923 INTER-LIGAND FREE ENERGY PREDICTED BY IDOCK:   -3.76 KCAL/MOL
REMARK 924 INTRA-LIGAND FREE ENERGY PREDICTED BY IDOCK:   -0.58 KCAL/MOL
REMARK 927      BINDING AFFINITY PREDICTED BY RF-SCORE:    0.00 PKD
ROOT
HETATM    1  C   UNL     1     -11.754  12.295  63.507  1.00  0.00    -0.584 C  
HETATM    2  C   UNL     1     -11.506  12.480  65.001  1.00  0.00    -0.326 C  
ENDROOT
BRANCH   2   3
HETATM    3  N   UNL     1     -10.537  11.510  65.558  1.00  0.00    -0.274 N  
BRANCH   3   4
HETATM    4  C   UNL     1      -9.892  10.544  64.638  1.00  0.00    -0.340 C  
HETATM    5  C   UNL     1      -8.373  10.577  64.495  1.00  0.00    -0.108 C  
ENDBRANCH   3   4
BRANCH   3   6
HETATM    6  C   UNL     1     -10.285  11.468  66.961  1.00  0.00    -0.214 C  
HETATM    7  S   UNL     1      -9.676  12.763  67.871  1.00  0.00    -0.222 S  
BRANCH   6   8
HETATM    8  S   UNL     1     -10.775   9.973  67.816  1.00  0.00    -0.280 SA 
BRANCH   8   9
HETATM    9  S   UNL     1      -8.978   9.042  68.251  1.00  0.00    -0.133 SA 
BRANCH   9  10
HETATM   10  C   UNL     1      -9.087   7.389  67.610  1.00  0.00    -0.125 C  
HETATM   11  S   UNL     1      -8.863   6.953  66.002  1.00  0.00    -0.100 S  
BRANCH  10  12
HETATM   12  N   UNL     1      -9.244   6.445  68.636  1.00  0.00    -0.126 N  
BRANCH  12  13
HETATM   13  C   UNL     1     -10.034   6.764  69.835  1.00  0.00    -0.172 C  
HETATM   14  C   UNL     1     -11.489   6.325  69.778  1.00  0.00    -0.449 C  
ENDBRANCH  12  13
BRANCH  12  15
HETATM   15  C   UNL     1      -8.486   5.185  68.602  1.00  0.00    -0.088 C  
HETATM   16  C   UNL     1      -9.311   3.973  68.206  1.00  0.00    -0.216 C  
ENDBRANCH  12  15
ENDBRANCH  10  12
ENDBRANCH   9  10
ENDBRANCH   8   9
ENDBRANCH   6   8
ENDBRANCH   3   6
ENDBRANCH   2   3
TORSDOF 9
ENDMDL
MODEL      282
REMARK 921   NORMALIZED FREE ENERGY PREDICTED BY IDOCK:   -2.50 KCAL/MOL
REMARK 922        TOTAL FREE ENERGY PREDICTED BY IDOCK:   -4.34 KCAL/MOL
REMARK 923 INTER-LIGAND FREE ENERGY PREDICTED BY IDOCK:   -3.86 KCAL/MOL
REMARK 924 INTRA-LIGAND FREE ENERGY PREDICTED BY IDOCK:   -0.47 KCAL/MOL
REMARK 927      BINDING AFFINITY PREDICTED BY RF-SCORE:    0.00 PKD
ROOT
HETATM    1  C   UNL     1      -8.780   9.525  63.367  1.00  0.00    -0.235 C  
HETATM    2  C   UNL     1      -8.550  10.220  64.706  1.00  0.00    -0.184 C  
ENDROOT
BRANCH   2   3
HETATM    3  N   UNL     1      -9.720  10.997  65.170  1.00  0.00    -0.238 N  
BRANCH   3   4
HETATM    4  C   UNL     1     -10.809  11.283  64.206  1.00  0.00    -0.328 C  
HETATM    5  C   UNL     1     -10.914  12.690  63.623  1.00  0.00    -0.464 C  
ENDBRANCH   3   4
BRANCH   3   6
HETATM    6  C   UNL     1      -9.762  11.512  66.499  1.00  0.00    -0.203 C  
HETATM    7  S   UNL     1      -8.849  12.829  67.052  1.00  0.00    -0.196 S  
BRANCH   6   8
HETATM    8  S   UNL     1     -10.966  10.777  67.603  1.00  0.00    -0.319 SA 
BRANCH   8   9
HETATM    9  S   UNL     1      -9.989   9.120  68.366  1.00  0.00    -0.188 SA 
BRANCH   9  10
HETATM   10  C   UNL     1     -10.488   8.966  70.065  1.00  0.00    -0.213 C  
HETATM   11  S   UNL     1     -11.393  10.098  70.917  1.00  0.00    -0.288 S  
BRANCH  10  12
HETATM   12  N   UNL     1     -10.159   7.707  70.589  1.00  0.00    -0.187 N  
BRANCH  12  13
HETATM   13  C   UNL     1      -9.691   6.626  69.708  1.00  0.00    -0.159 C  
HETATM   14  C   UNL     1      -8.426   5.922  70.177  1.00  0.00    -0.126 C  
ENDBRANCH  12  13
BRANCH  12  15
HETATM   15  C   UNL     1     -10.435   7.401  72.001  1.00  0.00    -0.199 C  
HETATM   16  C   UNL     1     -11.531   6.370  72.211  1.00  0.00    -0.339 C  
ENDBRANCH  12  15
ENDBRANCH  10  12
ENDBRANCH   9  10
ENDBRANCH   8   9
ENDBRANCH   6   8
ENDBRANCH   3   6
ENDBRANCH   2   3
TORSDOF 9
ENDMDL
MODEL      283
REMARK 921   NORMALIZED FREE ENERGY PREDICTED BY IDOCK:   -2.50 KCAL/MOL
REMARK 922        TOTAL FREE ENERGY PREDICTED BY IDOCK:   -4.34 KCAL/MOL
REMARK 923 INTER-LIGAND FREE ENERGY PREDICTED BY IDOCK:   -3.76 KCAL/MOL
REMARK 924 INTRA-LIGAND FREE ENERGY PREDICTED BY IDOCK:   -0.58 KCAL/MOL
REMARK 927      BINDING AFFINITY PREDICTED BY RF-SCORE:    0.00 PKD
ROOT
HETATM    1  C   UNL     1      -7.966   4.024  66.580  1.00  0.00    -0.097 C  
HETATM    2  C   UNL     1      -9.316   4.427  67.168  1.00  0.00    -0.155 C  
ENDROOT
BRANCH   2   3
HETATM    3  N   UNL     1      -9.200   5.206  68.420  1.00  0.00    -0.112 N  
BRANCH   3   4
HETATM    4  C   UNL     1      -9.449   4.518  69.709  1.00  0.00    -0.177 C  
HETATM    5  C   UNL     1      -9.488   2.992  69.724  1.00  0.00    -0.184 C  
ENDBRANCH   3   4
BRANCH   3   6
HETATM    6  C   UNL     1      -8.920   6.603  68.376  1.00  0.00    -0.123 C  
HETATM    7  S   UNL     1      -7.369   7.280  68.487  1.00  0.00    -0.103 S  
BRANCH   6   8
HETATM    8  S   UNL     1     -10.309   7.687  68.054  1.00  0.00    -0.194 SA 
BRANCH   8   9
HETATM    9  S   UNL     1      -9.884   9.379  69.168  1.00  0.00    -0.182 SA 
BRANCH   9  10
HETATM   10  C   UNL     1     -10.142   8.949  70.873  1.00  0.00    -0.241 C  
HETATM   11  S   UNL     1      -8.939   8.482  71.950  1.00  0.00    -0.233 S  
BRANCH  10  12
HETATM   12  N   UNL     1     -11.467   9.184  71.271  1.00  0.00    -0.306 N  
BRANCH  12  13
HETATM   13  C   UNL     1     -12.200   8.188  72.066  1.00  0.00    -0.339 C  
HETATM   14  C   UNL     1     -12.715   6.993  71.278  1.00  0.00    -0.400 C  
ENDBRANCH  12  13
BRANCH  12  15
HETATM   15  C   UNL     1     -12.194  10.356  70.759  1.00  0.00    -0.359 C  
HETATM   16  C   UNL     1     -13.120  11.004  71.774  1.00  0.00    -0.554 C  
ENDBRANCH  12  15
ENDBRANCH  10  12
ENDBRANCH   9  10
ENDBRANCH   8   9
ENDBRANCH   6   8
ENDBRANCH   3   6
ENDBRANCH   2   3
TORSDOF 9
ENDMDL
MODEL      284
REMARK 921   NORMALIZED FREE ENERGY PREDICTED BY IDOCK:   -2.49 KCAL/MOL
REMARK 922        TOTAL FREE ENERGY PREDICTED BY IDOCK:   -4.32 KCAL/MOL
REMARK 923 INTER-LIGAND FREE ENERGY PREDICTED BY IDOCK:   -3.85 KCAL/MOL
REMARK 924 INTRA-LIGAND FREE ENERGY PREDICTED BY IDOCK:   -0.47 KCAL/MOL
REMARK 927      BINDING AFFINITY PREDICTED BY RF-SCORE:    0.00 PKD
ROOT
HETATM    1  C   UNL     1     -10.784  19.602  66.851  1.00  0.00    -0.570 C  
HETATM    2  C   UNL     1     -10.387  18.307  66.146  1.00  0.00    -0.398 C  
ENDROOT
BRANCH   2   3
HETATM    3  N   UNL     1      -9.343  17.546  66.866  1.00  0.00    -0.261 N  
BRANCH   3   4
HETATM    4  C   UNL     1      -7.947  18.042  66.824  1.00  0.00    -0.237 C  
HETATM    5  C   UNL     1      -7.324  18.574  68.112  1.00  0.00    -0.276 C  
ENDBRANCH   3   4
BRANCH   3   6
HETATM    6  C   UNL     1      -9.668  16.325  67.528  1.00  0.00    -0.234 C  
HETATM    7  S   UNL     1     -10.357  16.221  69.074  1.00  0.00    -0.285 S  
BRANCH   6   8
HETATM    8  S   UNL     1      -9.440  14.820  66.585  1.00  0.00    -0.288 SA 
BRANCH   8   9
HETATM    9  S   UNL     1     -10.128  13.335  67.852  1.00  0.00    -0.241 SA 
BRANCH   9  10
HETATM   10  C   UNL     1      -9.934  11.793  66.990  1.00  0.00    -0.204 C  
HETATM   11  S   UNL     1     -10.734  11.364  65.575  1.00  0.00    -0.221 S  
BRANCH  10  12
HETATM   12  N   UNL     1      -8.912  11.012  67.551  1.00  0.00    -0.137 N  
BRANCH  12  13
HETATM   13  C   UNL     1      -7.601  11.601  67.861  1.00  0.00    -0.115 C  
HETATM   14  C   UNL     1      -6.496  11.261  66.873  1.00  0.00    -0.128 C  
ENDBRANCH  12  13
BRANCH  12  15
HETATM   15  C   UNL     1      -9.085   9.557  67.682  1.00  0.00    -0.120 C  
HETATM   16  C   UNL     1      -8.758   9.015  69.063  1.00  0.00    -0.138 C  
ENDBRANCH  12  15
ENDBRANCH  10  12
ENDBRANCH   9  10
ENDBRANCH   8   9
ENDBRANCH   6   8
ENDBRANCH   3   6
ENDBRANCH   2   3
TORSDOF 9
ENDMDL
MODEL      285
REMARK 921   NORMALIZED FREE ENERGY PREDICTED BY IDOCK:   -2.49 KCAL/MOL
REMARK 922        TOTAL FREE ENERGY PREDICTED BY IDOCK:   -4.32 KCAL/MOL
REMARK 923 INTER-LIGAND FREE ENERGY PREDICTED BY IDOCK:   -3.71 KCAL/MOL
REMARK 924 INTRA-LIGAND FREE ENERGY PREDICTED BY IDOCK:   -0.61 KCAL/MOL
REMARK 927      BINDING AFFINITY PREDICTED BY RF-SCORE:    0.00 PKD
ROOT
HETATM    1  C   UNL     1      -5.828   8.673  67.833  1.00  0.00    -0.043 C  
HETATM    2  C   UNL     1      -7.138   9.266  68.344  1.00  0.00    -0.072 C  
ENDROOT
BRANCH   2   3
HETATM    3  N   UNL     1      -8.199   8.256  68.545  1.00  0.00    -0.129 N  
BRANCH   3   4
HETATM    4  C   UNL     1      -9.528   8.491  67.932  1.00  0.00    -0.139 C  
HETATM    5  C   UNL     1      -9.587   9.075  66.523  1.00  0.00    -0.286 C  
ENDBRANCH   3   4
BRANCH   3   6
HETATM    6  C   UNL     1      -7.961   7.115  69.367  1.00  0.00    -0.125 C  
HETATM    7  S   UNL     1      -7.830   5.524  68.795  1.00  0.00    -0.096 S  
BRANCH   6   8
HETATM    8  S   UNL     1      -7.659   7.432  71.104  1.00  0.00    -0.083 SA 
BRANCH   8   9
HETATM    9  S   UNL     1      -9.224   8.666  71.661  1.00  0.00    -0.268 SA 
BRANCH   9  10
HETATM   10  C   UNL     1     -10.469   7.624  72.384  1.00  0.00    -0.248 C  
HETATM   11  S   UNL     1     -10.223   6.566  73.668  1.00  0.00    -0.317 S  
BRANCH  10  12
HETATM   12  N   UNL     1     -11.739   7.888  71.851  1.00  0.00    -0.282 N  
BRANCH  12  13
HETATM   13  C   UNL     1     -12.397   6.920  70.961  1.00  0.00    -0.351 C  
HETATM   14  C   UNL     1     -11.460   6.174  70.023  1.00  0.00    -0.369 C  
ENDBRANCH  12  13
BRANCH  12  15
HETATM   15  C   UNL     1     -12.359   9.208  72.043  1.00  0.00    -0.377 C  
HETATM   16  C   UNL     1     -13.839   9.156  72.384  1.00  0.00    -0.524 C  
ENDBRANCH  12  15
ENDBRANCH  10  12
ENDBRANCH   9  10
ENDBRANCH   8   9
ENDBRANCH   6   8
ENDBRANCH   3   6
ENDBRANCH   2   3
TORSDOF 9
ENDMDL
MODEL      286
REMARK 921   NORMALIZED FREE ENERGY PREDICTED BY IDOCK:   -2.49 KCAL/MOL
REMARK 922        TOTAL FREE ENERGY PREDICTED BY IDOCK:   -4.32 KCAL/MOL
REMARK 923 INTER-LIGAND FREE ENERGY PREDICTED BY IDOCK:   -3.67 KCAL/MOL
REMARK 924 INTRA-LIGAND FREE ENERGY PREDICTED BY IDOCK:   -0.64 KCAL/MOL
REMARK 927      BINDING AFFINITY PREDICTED BY RF-SCORE:    0.00 PKD
ROOT
HETATM    1  C   UNL     1      -7.933   9.780  64.466  1.00  0.00    -0.144 C  
HETATM    2  C   UNL     1      -7.482   9.512  65.899  1.00  0.00    -0.100 C  
ENDROOT
BRANCH   2   3
HETATM    3  N   UNL     1      -8.591   9.547  66.877  1.00  0.00    -0.127 N  
BRANCH   3   4
HETATM    4  C   UNL     1      -9.866   8.877  66.529  1.00  0.00    -0.274 C  
HETATM    5  C   UNL     1     -10.026   7.396  66.863  1.00  0.00    -0.307 C  
ENDBRANCH   3   4
BRANCH   3   6
HETATM    6  C   UNL     1      -8.451  10.269  68.099  1.00  0.00    -0.123 C  
HETATM    7  S   UNL     1      -8.541   9.576  69.644  1.00  0.00    -0.201 S  
BRANCH   6   8
HETATM    8  S   UNL     1      -8.027  12.003  67.958  1.00  0.00    -0.160 SA 
BRANCH   8   9
HETATM    9  S   UNL     1      -9.590  12.807  66.866  1.00  0.00    -0.240 SA 
BRANCH   9  10
HETATM   10  C   UNL     1     -10.953  13.005  67.989  1.00  0.00    -0.250 C  
HETATM   11  S   UNL     1     -11.794  11.749  68.726  1.00  0.00    -0.279 S  
BRANCH  10  12
HETATM   12  N   UNL     1     -11.166  14.353  68.312  1.00  0.00    -0.263 N  
BRANCH  12  13
HETATM   13  C   UNL     1     -11.219  15.378  67.259  1.00  0.00    -0.270 C  
HETATM   14  C   UNL     1     -10.343  16.597  67.508  1.00  0.00    -0.294 C  
ENDBRANCH  12  13
BRANCH  12  15
HETATM   15  C   UNL     1     -11.175  14.782  69.719  1.00  0.00    -0.273 C  
HETATM   16  C   UNL     1     -12.554  15.131  70.253  1.00  0.00    -0.370 C  
ENDBRANCH  12  15
ENDBRANCH  10  12
ENDBRANCH   9  10
ENDBRANCH   8   9
ENDBRANCH   6   8
ENDBRANCH   3   6
ENDBRANCH   2   3
TORSDOF 9
ENDMDL
MODEL      287
REMARK 921   NORMALIZED FREE ENERGY PREDICTED BY IDOCK:   -2.49 KCAL/MOL
REMARK 922        TOTAL FREE ENERGY PREDICTED BY IDOCK:   -4.31 KCAL/MOL
REMARK 923 INTER-LIGAND FREE ENERGY PREDICTED BY IDOCK:   -3.81 KCAL/MOL
REMARK 924 INTRA-LIGAND FREE ENERGY PREDICTED BY IDOCK:   -0.50 KCAL/MOL
REMARK 927      BINDING AFFINITY PREDICTED BY RF-SCORE:    0.00 PKD
ROOT
HETATM    1  C   UNL     1     -12.366  13.868  69.952  1.00  0.00    -0.358 C  
HETATM    2  C   UNL     1     -11.910  12.615  69.208  1.00  0.00    -0.302 C  
ENDROOT
BRANCH   2   3
HETATM    3  N   UNL     1     -10.767  12.856  68.301  1.00  0.00    -0.236 N  
BRANCH   3   4
HETATM    4  C   UNL     1     -10.901  13.897  67.253  1.00  0.00    -0.286 C  
HETATM    5  C   UNL     1     -12.007  13.743  66.212  1.00  0.00    -0.462 C  
ENDBRANCH   3   4
BRANCH   3   6
HETATM    6  C   UNL     1      -9.591  12.056  68.395  1.00  0.00    -0.190 C  
HETATM    7  S   UNL     1      -8.016  12.622  68.123  1.00  0.00    -0.166 S  
BRANCH   6   8
HETATM    8  S   UNL     1      -9.813  10.373  68.964  1.00  0.00    -0.221 SA 
BRANCH   8   9
HETATM    9  S   UNL     1     -10.684   9.416  67.348  1.00  0.00    -0.124 SA 
BRANCH   9  10
HETATM   10  C   UNL     1      -9.647   8.029  66.953  1.00  0.00    -0.204 C  
HETATM   11  S   UNL     1      -8.615   7.933  65.629  1.00  0.00    -0.107 S  
BRANCH  10  12
HETATM   12  N   UNL     1      -9.675   7.057  67.963  1.00  0.00    -0.128 N  
BRANCH  12  13
HETATM   13  C   UNL     1      -8.448   6.688  68.686  1.00  0.00    -0.122 C  
HETATM   14  C   UNL     1      -7.796   5.395  68.222  1.00  0.00    -0.088 C  
ENDBRANCH  12  13
BRANCH  12  15
HETATM   15  C   UNL     1     -10.899   6.275  68.201  1.00  0.00    -0.320 C  
HETATM   16  C   UNL     1     -11.371   6.284  69.645  1.00  0.00    -0.492 C  
ENDBRANCH  12  15
ENDBRANCH  10  12
ENDBRANCH   9  10
ENDBRANCH   8   9
ENDBRANCH   6   8
ENDBRANCH   3   6
ENDBRANCH   2   3
TORSDOF 9
ENDMDL
MODEL      288
REMARK 921   NORMALIZED FREE ENERGY PREDICTED BY IDOCK:   -2.48 KCAL/MOL
REMARK 922        TOTAL FREE ENERGY PREDICTED BY IDOCK:   -4.31 KCAL/MOL
REMARK 923 INTER-LIGAND FREE ENERGY PREDICTED BY IDOCK:   -4.22 KCAL/MOL
REMARK 924 INTRA-LIGAND FREE ENERGY PREDICTED BY IDOCK:   -0.08 KCAL/MOL
REMARK 927      BINDING AFFINITY PREDICTED BY RF-SCORE:    0.00 PKD
ROOT
HETATM    1  C   UNL     1     -11.233  10.261  68.130  1.00  0.00    -0.294 C  
HETATM    2  C   UNL     1     -11.403  11.777  68.170  1.00  0.00    -0.284 C  
ENDROOT
BRANCH   2   3
HETATM    3  N   UNL     1     -10.732  12.472  67.050  1.00  0.00    -0.239 N  
BRANCH   3   4
HETATM    4  C   UNL     1      -9.586  11.804  66.387  1.00  0.00    -0.218 C  
HETATM    5  C   UNL     1      -9.765  11.298  64.958  1.00  0.00    -0.293 C  
ENDBRANCH   3   4
BRANCH   3   6
HETATM    6  C   UNL     1     -11.140  13.782  66.665  1.00  0.00    -0.311 C  
HETATM    7  S   UNL     1     -12.189  14.127  65.378  1.00  0.00    -0.437 S  
BRANCH   6   8
HETATM    8  S   UNL     1     -10.593  15.129  67.711  1.00  0.00    -0.270 SA 
BRANCH   8   9
HETATM    9  S   UNL     1      -9.376  16.254  66.471  1.00  0.00    -0.295 SA 
BRANCH   9  10
HETATM   10  C   UNL     1      -8.901  17.699  67.390  1.00  0.00    -0.235 C  
HETATM   11  S   UNL     1      -9.931  18.952  67.833  1.00  0.00    -0.373 S  
BRANCH  10  12
HETATM   12  N   UNL     1      -7.575  17.613  67.840  1.00  0.00    -0.205 N  
BRANCH  12  13
HETATM   13  C   UNL     1      -6.588  16.795  67.118  1.00  0.00    -0.192 C  
HETATM   14  C   UNL     1      -6.436  15.372  67.633  1.00  0.00    -0.190 C  
ENDBRANCH  12  13
BRANCH  12  15
HETATM   15  C   UNL     1      -7.194  18.205  69.132  1.00  0.00    -0.147 C  
HETATM   16  C   UNL     1      -5.898  18.997  69.095  1.00  0.00    -0.242 C  
ENDBRANCH  12  15
ENDBRANCH  10  12
ENDBRANCH   9  10
ENDBRANCH   8   9
ENDBRANCH   6   8
ENDBRANCH   3   6
ENDBRANCH   2   3
TORSDOF 9
ENDMDL
MODEL      289
REMARK 921   NORMALIZED FREE ENERGY PREDICTED BY IDOCK:   -2.48 KCAL/MOL
REMARK 922        TOTAL FREE ENERGY PREDICTED BY IDOCK:   -4.30 KCAL/MOL
REMARK 923 INTER-LIGAND FREE ENERGY PREDICTED BY IDOCK:   -3.93 KCAL/MOL
REMARK 924 INTRA-LIGAND FREE ENERGY PREDICTED BY IDOCK:   -0.37 KCAL/MOL
REMARK 927      BINDING AFFINITY PREDICTED BY RF-SCORE:    0.00 PKD
ROOT
HETATM    1  C   UNL     1     -13.091   9.470  71.907  1.00  0.00    -0.517 C  
HETATM    2  C   UNL     1     -12.890   7.962  71.796  1.00  0.00    -0.328 C  
ENDROOT
BRANCH   2   3
HETATM    3  N   UNL     1     -11.474   7.550  71.918  1.00  0.00    -0.261 N  
BRANCH   3   4
HETATM    4  C   UNL     1     -10.900   7.378  73.274  1.00  0.00    -0.368 C  
HETATM    5  C   UNL     1     -10.418   5.991  73.690  1.00  0.00    -0.282 C  
ENDBRANCH   3   4
BRANCH   3   6
HETATM    6  C   UNL     1     -10.668   7.388  70.753  1.00  0.00    -0.232 C  
HETATM    7  S   UNL     1     -10.859   6.148  69.612  1.00  0.00    -0.389 S  
BRANCH   6   8
HETATM    8  S   UNL     1      -9.459   8.670  70.434  1.00  0.00    -0.180 SA 
BRANCH   8   9
HETATM    9  S   UNL     1      -8.148   7.790  69.096  1.00  0.00    -0.126 SA 
BRANCH   9  10
HETATM   10  C   UNL     1      -8.708   8.226  67.466  1.00  0.00    -0.129 C  
HETATM   11  S   UNL     1      -8.835   7.167  66.167  1.00  0.00    -0.128 S  
BRANCH  10  12
HETATM   12  N   UNL     1      -9.178   9.547  67.417  1.00  0.00    -0.133 N  
BRANCH  12  13
HETATM   13  C   UNL     1      -8.249  10.680  67.542  1.00  0.00    -0.111 C  
HETATM   14  C   UNL     1      -7.202  10.773  66.443  1.00  0.00    -0.138 C  
ENDBRANCH  12  13
BRANCH  12  15
HETATM   15  C   UNL     1     -10.624   9.815  67.405  1.00  0.00    -0.267 C  
HETATM   16  C   UNL     1     -10.983  11.287  67.295  1.00  0.00    -0.342 C  
ENDBRANCH  12  15
ENDBRANCH  10  12
ENDBRANCH   9  10
ENDBRANCH   8   9
ENDBRANCH   6   8
ENDBRANCH   3   6
ENDBRANCH   2   3
TORSDOF 9
ENDMDL
MODEL      290
REMARK 921   NORMALIZED FREE ENERGY PREDICTED BY IDOCK:   -2.48 KCAL/MOL
REMARK 922        TOTAL FREE ENERGY PREDICTED BY IDOCK:   -4.30 KCAL/MOL
REMARK 923 INTER-LIGAND FREE ENERGY PREDICTED BY IDOCK:   -3.72 KCAL/MOL
REMARK 924 INTRA-LIGAND FREE ENERGY PREDICTED BY IDOCK:   -0.58 KCAL/MOL
REMARK 927      BINDING AFFINITY PREDICTED BY RF-SCORE:    0.00 PKD
ROOT
HETATM    1  C   UNL     1      -6.579   9.941  68.709  1.00  0.00    -0.046 C  
HETATM    2  C   UNL     1      -8.084   9.693  68.771  1.00  0.00    -0.097 C  
ENDROOT
BRANCH   2   3
HETATM    3  N   UNL     1      -8.437   8.260  68.869  1.00  0.00    -0.127 N  
BRANCH   3   4
HETATM    4  C   UNL     1      -8.999   7.585  67.675  1.00  0.00    -0.127 C  
HETATM    5  C   UNL     1     -10.114   8.283  66.901  1.00  0.00    -0.366 C  
ENDBRANCH   3   4
BRANCH   3   6
HETATM    6  C   UNL     1      -8.300   7.568  70.107  1.00  0.00    -0.134 C  
HETATM    7  S   UNL     1      -7.954   5.914  70.254  1.00  0.00    -0.107 S  
BRANCH   6   8
HETATM    8  S   UNL     1      -8.379   8.564  71.593  1.00  0.00    -0.161 SA 
BRANCH   8   9
HETATM    9  S   UNL     1     -10.233   8.111  72.394  1.00  0.00    -0.319 SA 
BRANCH   9  10
HETATM   10  C   UNL     1     -11.384   8.085  71.041  1.00  0.00    -0.273 C  
HETATM   11  S   UNL     1     -11.910   6.704  70.238  1.00  0.00    -0.197 S  
BRANCH  10  12
HETATM   12  N   UNL     1     -11.929   9.355  70.801  1.00  0.00    -0.263 N  
BRANCH  12  13
HETATM   13  C   UNL     1     -13.034   9.866  71.625  1.00  0.00    -0.434 C  
HETATM   14  C   UNL     1     -14.032   8.814  72.081  1.00  0.00    -0.522 C  
ENDBRANCH  12  13
BRANCH  12  15
HETATM   15  C   UNL     1     -11.513  10.124  69.617  1.00  0.00    -0.198 C  
HETATM   16  C   UNL     1     -12.094  11.526  69.551  1.00  0.00    -0.351 C  
ENDBRANCH  12  15
ENDBRANCH  10  12
ENDBRANCH   9  10
ENDBRANCH   8   9
ENDBRANCH   6   8
ENDBRANCH   3   6
ENDBRANCH   2   3
TORSDOF 9
ENDMDL
MODEL      291
REMARK 921   NORMALIZED FREE ENERGY PREDICTED BY IDOCK:   -2.48 KCAL/MOL
REMARK 922        TOTAL FREE ENERGY PREDICTED BY IDOCK:   -4.29 KCAL/MOL
REMARK 923 INTER-LIGAND FREE ENERGY PREDICTED BY IDOCK:   -3.78 KCAL/MOL
REMARK 924 INTRA-LIGAND FREE ENERGY PREDICTED BY IDOCK:   -0.51 KCAL/MOL
REMARK 927      BINDING AFFINITY PREDICTED BY RF-SCORE:    0.00 PKD
ROOT
HETATM    1  C   UNL     1      -6.707   9.203  65.135  1.00  0.00    -0.073 C  
HETATM    2  C   UNL     1      -7.547   9.424  66.390  1.00  0.00    -0.097 C  
ENDROOT
BRANCH   2   3
HETATM    3  N   UNL     1      -8.940   8.947  66.253  1.00  0.00    -0.158 N  
BRANCH   3   4
HETATM    4  C   UNL     1      -9.885   9.742  65.434  1.00  0.00    -0.295 C  
HETATM    5  C   UNL     1     -10.242  11.152  65.896  1.00  0.00    -0.303 C  
ENDBRANCH   3   4
BRANCH   3   6
HETATM    6  C   UNL     1      -9.375   7.783  66.952  1.00  0.00    -0.169 C  
HETATM    7  S   UNL     1      -9.083   6.190  66.448  1.00  0.00    -0.148 S  
BRANCH   6   8
HETATM    8  S   UNL     1     -10.171   8.051  68.534  1.00  0.00    -0.203 SA 
BRANCH   8   9
HETATM    9  S   UNL     1     -11.086   6.239  68.940  1.00  0.00    -0.292 SA 
BRANCH   9  10
HETATM   10  C   UNL     1     -10.992   5.998  70.698  1.00  0.00    -0.307 C  
HETATM   11  S   UNL     1      -9.992   4.893  71.476  1.00  0.00    -0.199 S  
BRANCH  10  12
HETATM   12  N   UNL     1     -11.755   6.950  71.391  1.00  0.00    -0.297 N  
BRANCH  12  13
HETATM   13  C   UNL     1     -13.031   7.434  70.843  1.00  0.00    -0.046 C  
HETATM   14  C   UNL     1     -14.133   7.637  71.870  1.00  0.00    -0.444 C  
ENDBRANCH  12  13
BRANCH  12  15
HETATM   15  C   UNL     1     -11.211   7.596  72.595  1.00  0.00    -0.366 C  
HETATM   16  C   UNL     1     -10.092   8.586  72.318  1.00  0.00    -0.386 C  
ENDBRANCH  12  15
ENDBRANCH  10  12
ENDBRANCH   9  10
ENDBRANCH   8   9
ENDBRANCH   6   8
ENDBRANCH   3   6
ENDBRANCH   2   3
TORSDOF 9
ENDMDL
MODEL      292
REMARK 921   NORMALIZED FREE ENERGY PREDICTED BY IDOCK:   -2.46 KCAL/MOL
REMARK 922        TOTAL FREE ENERGY PREDICTED BY IDOCK:   -4.27 KCAL/MOL
REMARK 923 INTER-LIGAND FREE ENERGY PREDICTED BY IDOCK:   -3.97 KCAL/MOL
REMARK 924 INTRA-LIGAND FREE ENERGY PREDICTED BY IDOCK:   -0.30 KCAL/MOL
REMARK 927      BINDING AFFINITY PREDICTED BY RF-SCORE:    0.00 PKD
ROOT
HETATM    1  C   UNL     1      -9.391   7.600  73.733  1.00  0.00    -0.324 C  
HETATM    2  C   UNL     1      -9.620   6.774  72.470  1.00  0.00    -0.153 C  
ENDROOT
BRANCH   2   3
HETATM    3  N   UNL     1     -10.554   7.410  71.516  1.00  0.00    -0.207 N  
BRANCH   3   4
HETATM    4  C   UNL     1     -11.749   8.106  72.050  1.00  0.00    -0.332 C  
HETATM    5  C   UNL     1     -12.019   9.539  71.601  1.00  0.00    -0.474 C  
ENDBRANCH   3   4
BRANCH   3   6
HETATM    6  C   UNL     1     -10.339   7.296  70.111  1.00  0.00    -0.212 C  
HETATM    7  S   UNL     1     -11.266   6.332  69.069  1.00  0.00    -0.223 S  
BRANCH   6   8
HETATM    8  S   UNL     1      -9.075   8.352  69.408  1.00  0.00    -0.154 SA 
BRANCH   8   9
HETATM    9  S   UNL     1      -9.477   8.317  67.378  1.00  0.00    -0.159 SA 
BRANCH   9  10
HETATM   10  C   UNL     1     -10.314   9.837  66.994  1.00  0.00    -0.239 C  
HETATM   11  S   UNL     1     -11.184  10.771  68.089  1.00  0.00    -0.300 S  
BRANCH  10  12
HETATM   12  N   UNL     1     -10.046  10.259  65.683  1.00  0.00    -0.281 N  
BRANCH  12  13
HETATM   13  C   UNL     1     -10.805  11.364  65.079  1.00  0.00    -0.246 C  
HETATM   14  C   UNL     1     -10.250  12.751  65.362  1.00  0.00    -0.299 C  
ENDBRANCH  12  13
BRANCH  12  15
HETATM   15  C   UNL     1      -9.117   9.493  64.838  1.00  0.00    -0.223 C  
HETATM   16  C   UNL     1      -7.707  10.058  64.795  1.00  0.00    -0.142 C  
ENDBRANCH  12  15
ENDBRANCH  10  12
ENDBRANCH   9  10
ENDBRANCH   8   9
ENDBRANCH   6   8
ENDBRANCH   3   6
ENDBRANCH   2   3
TORSDOF 9
ENDMDL
MODEL      293
REMARK 921   NORMALIZED FREE ENERGY PREDICTED BY IDOCK:   -2.46 KCAL/MOL
REMARK 922        TOTAL FREE ENERGY PREDICTED BY IDOCK:   -4.27 KCAL/MOL
REMARK 923 INTER-LIGAND FREE ENERGY PREDICTED BY IDOCK:   -3.61 KCAL/MOL
REMARK 924 INTRA-LIGAND FREE ENERGY PREDICTED BY IDOCK:   -0.66 KCAL/MOL
REMARK 927      BINDING AFFINITY PREDICTED BY RF-SCORE:    0.00 PKD
ROOT
HETATM    1  C   UNL     1      -6.545  10.804  68.924  1.00  0.00    -0.057 C  
HETATM    2  C   UNL     1      -7.221   9.894  67.902  1.00  0.00    -0.087 C  
ENDROOT
BRANCH   2   3
HETATM    3  N   UNL     1      -7.402  10.533  66.580  1.00  0.00    -0.118 N  
BRANCH   3   4
HETATM    4  C   UNL     1      -6.200  10.823  65.762  1.00  0.00    -0.101 C  
HETATM    5  C   UNL     1      -5.899   9.925  64.566  1.00  0.00    -0.100 C  
ENDBRANCH   3   4
BRANCH   3   6
HETATM    6  C   UNL     1      -8.701  10.919  66.137  1.00  0.00    -0.184 C  
HETATM    7  S   UNL     1      -9.704   9.974  65.150  1.00  0.00    -0.302 S  
BRANCH   6   8
HETATM    8  S   UNL     1      -9.342  12.459  66.789  1.00  0.00    -0.223 SA 
BRANCH   8   9
HETATM    9  S   UNL     1     -11.329  12.037  67.189  1.00  0.00    -0.336 SA 
BRANCH   9  10
HETATM   10  C   UNL     1     -11.560  12.261  68.937  1.00  0.00    -0.316 C  
HETATM   11  S   UNL     1     -11.835  13.733  69.700  1.00  0.00    -0.347 S  
BRANCH  10  12
HETATM   12  N   UNL     1     -11.631  11.032  69.611  1.00  0.00    -0.287 N  
BRANCH  12  13
HETATM   13  C   UNL     1     -12.888  10.588  70.232  1.00  0.00    -0.129 C  
HETATM   14  C   UNL     1     -12.836  10.441  71.745  1.00  0.00    -0.561 C  
ENDBRANCH  12  13
BRANCH  12  15
HETATM   15  C   UNL     1     -10.409  10.248  69.847  1.00  0.00    -0.233 C  
HETATM   16  C   UNL     1     -10.477   8.820  69.333  1.00  0.00    -0.228 C  
ENDBRANCH  12  15
ENDBRANCH  10  12
ENDBRANCH   9  10
ENDBRANCH   8   9
ENDBRANCH   6   8
ENDBRANCH   3   6
ENDBRANCH   2   3
TORSDOF 9
ENDMDL
MODEL      294
REMARK 921   NORMALIZED FREE ENERGY PREDICTED BY IDOCK:   -2.46 KCAL/MOL
REMARK 922        TOTAL FREE ENERGY PREDICTED BY IDOCK:   -4.27 KCAL/MOL
REMARK 923 INTER-LIGAND FREE ENERGY PREDICTED BY IDOCK:   -3.97 KCAL/MOL
REMARK 924 INTRA-LIGAND FREE ENERGY PREDICTED BY IDOCK:   -0.30 KCAL/MOL
REMARK 927      BINDING AFFINITY PREDICTED BY RF-SCORE:    0.00 PKD
ROOT
HETATM    1  C   UNL     1     -10.642  16.271  68.719  1.00  0.00    -0.298 C  
HETATM    2  C   UNL     1     -11.656  15.437  67.941  1.00  0.00    -0.257 C  
ENDROOT
BRANCH   2   3
HETATM    3  N   UNL     1     -11.039  14.588  66.899  1.00  0.00    -0.317 N  
BRANCH   3   4
HETATM    4  C   UNL     1     -10.865  15.149  65.539  1.00  0.00    -0.364 C  
HETATM    5  C   UNL     1     -11.969  14.923  64.510  1.00  0.00    -0.420 C  
ENDBRANCH   3   4
BRANCH   3   6
HETATM    6  C   UNL     1     -10.684  13.237  67.187  1.00  0.00    -0.259 C  
HETATM    7  S   UNL     1     -10.143  12.116  66.036  1.00  0.00    -0.240 S  
BRANCH   6   8
HETATM    8  S   UNL     1     -10.701  12.757  68.912  1.00  0.00    -0.105 SA 
BRANCH   8   9
HETATM    9  S   UNL     1     -11.358  10.795  68.872  1.00  0.00    -0.295 SA 
BRANCH   9  10
HETATM   10  C   UNL     1      -9.928   9.769  69.122  1.00  0.00    -0.189 C  
HETATM   11  S   UNL     1      -8.405  10.319  69.574  1.00  0.00    -0.113 S  
BRANCH  10  12
HETATM   12  N   UNL     1     -10.248   8.406  69.039  1.00  0.00    -0.204 N  
BRANCH  12  13
HETATM   13  C   UNL     1     -10.361   7.740  67.733  1.00  0.00    -0.221 C  
HETATM   14  C   UNL     1      -9.398   8.246  66.670  1.00  0.00    -0.246 C  
ENDBRANCH  12  13
BRANCH  12  15
HETATM   15  C   UNL     1     -10.636   7.664  70.248  1.00  0.00    -0.230 C  
HETATM   16  C   UNL     1      -9.842   6.389  70.478  1.00  0.00    -0.207 C  
ENDBRANCH  12  15
ENDBRANCH  10  12
ENDBRANCH   9  10
ENDBRANCH   8   9
ENDBRANCH   6   8
ENDBRANCH   3   6
ENDBRANCH   2   3
TORSDOF 9
ENDMDL
MODEL      295
REMARK 921   NORMALIZED FREE ENERGY PREDICTED BY IDOCK:   -2.45 KCAL/MOL
REMARK 922        TOTAL FREE ENERGY PREDICTED BY IDOCK:   -4.25 KCAL/MOL
REMARK 923 INTER-LIGAND FREE ENERGY PREDICTED BY IDOCK:   -3.82 KCAL/MOL
REMARK 924 INTRA-LIGAND FREE ENERGY PREDICTED BY IDOCK:   -0.44 KCAL/MOL
REMARK 927      BINDING AFFINITY PREDICTED BY RF-SCORE:    0.00 PKD
ROOT
HETATM    1  C   UNL     1     -12.217  14.518  64.366  1.00  0.00    -0.480 C  
HETATM    2  C   UNL     1     -12.783  13.905  65.644  1.00  0.00    -0.495 C  
ENDROOT
BRANCH   2   3
HETATM    3  N   UNL     1     -11.805  13.855  66.752  1.00  0.00    -0.400 N  
BRANCH   3   4
HETATM    4  C   UNL     1     -11.144  15.114  67.172  1.00  0.00    -0.335 C  
HETATM    5  C   UNL     1     -11.623  15.797  68.450  1.00  0.00    -0.343 C  
ENDBRANCH   3   4
BRANCH   3   6
HETATM    6  C   UNL     1     -11.461  12.610  67.355  1.00  0.00    -0.337 C  
HETATM    7  S   UNL     1     -11.832  12.176  68.952  1.00  0.00    -0.272 S  
BRANCH   6   8
HETATM    8  S   UNL     1     -10.698  11.390  66.288  1.00  0.00    -0.255 SA 
BRANCH   8   9
HETATM    9  S   UNL     1      -8.683  11.529  66.743  1.00  0.00    -0.182 SA 
BRANCH   9  10
HETATM   10  C   UNL     1      -8.087   9.868  66.947  1.00  0.00    -0.113 C  
HETATM   11  S   UNL     1      -8.380   8.593  65.891  1.00  0.00    -0.144 S  
BRANCH  10  12
HETATM   12  N   UNL     1      -7.206   9.764  68.035  1.00  0.00    -0.080 N  
BRANCH  12  13
HETATM   13  C   UNL     1      -7.536   8.917  69.190  1.00  0.00    -0.080 C  
HETATM   14  C   UNL     1      -8.794   9.322  69.943  1.00  0.00    -0.196 C  
ENDBRANCH  12  13
BRANCH  12  15
HETATM   15  C   UNL     1      -6.019  10.629  68.107  1.00  0.00    -0.046 C  
HETATM   16  C   UNL     1      -5.771  11.231  69.480  1.00  0.00    -0.061 C  
ENDBRANCH  12  15
ENDBRANCH  10  12
ENDBRANCH   9  10
ENDBRANCH   8   9
ENDBRANCH   6   8
ENDBRANCH   3   6
ENDBRANCH   2   3
TORSDOF 9
ENDMDL
MODEL      296
REMARK 921   NORMALIZED FREE ENERGY PREDICTED BY IDOCK:   -2.45 KCAL/MOL
REMARK 922        TOTAL FREE ENERGY PREDICTED BY IDOCK:   -4.25 KCAL/MOL
REMARK 923 INTER-LIGAND FREE ENERGY PREDICTED BY IDOCK:   -3.54 KCAL/MOL
REMARK 924 INTRA-LIGAND FREE ENERGY PREDICTED BY IDOCK:   -0.71 KCAL/MOL
REMARK 927      BINDING AFFINITY PREDICTED BY RF-SCORE:    0.00 PKD
ROOT
HETATM    1  C   UNL     1     -10.078  10.580  64.379  1.00  0.00    -0.395 C  
HETATM    2  C   UNL     1     -10.778  11.838  64.886  1.00  0.00    -0.295 C  
ENDROOT
BRANCH   2   3
HETATM    3  N   UNL     1     -10.501  12.129  66.309  1.00  0.00    -0.233 N  
BRANCH   3   4
HETATM    4  C   UNL     1     -11.269  11.397  67.345  1.00  0.00    -0.305 C  
HETATM    5  C   UNL     1     -11.904  12.195  68.481  1.00  0.00    -0.365 C  
ENDBRANCH   3   4
BRANCH   3   6
HETATM    6  C   UNL     1      -9.562  13.139  66.670  1.00  0.00    -0.260 C  
HETATM    7  S   UNL     1      -9.633  14.751  66.148  1.00  0.00    -0.294 S  
BRANCH   6   8
HETATM    8  S   UNL     1      -8.305  12.675  67.858  1.00  0.00    -0.184 SA 
BRANCH   8   9
HETATM    9  S   UNL     1      -7.545  10.903  67.106  1.00  0.00    -0.115 SA 
BRANCH   9  10
HETATM   10  C   UNL     1      -8.084   9.609  68.198  1.00  0.00    -0.105 C  
HETATM   11  S   UNL     1      -8.782   9.841  69.710  1.00  0.00    -0.215 S  
BRANCH  10  12
HETATM   12  N   UNL     1      -7.992   8.348  67.591  1.00  0.00    -0.109 N  
BRANCH  12  13
HETATM   13  C   UNL     1      -9.078   7.366  67.731  1.00  0.00    -0.129 C  
HETATM   14  C   UNL     1     -10.377   7.746  67.037  1.00  0.00    -0.405 C  
ENDBRANCH  12  13
BRANCH  12  15
HETATM   15  C   UNL     1      -6.738   7.930  66.944  1.00  0.00    -0.068 C  
HETATM   16  C   UNL     1      -6.924   7.315  65.567  1.00  0.00    -0.060 C  
ENDBRANCH  12  15
ENDBRANCH  10  12
ENDBRANCH   9  10
ENDBRANCH   8   9
ENDBRANCH   6   8
ENDBRANCH   3   6
ENDBRANCH   2   3
TORSDOF 9
ENDMDL
MODEL      297
REMARK 921   NORMALIZED FREE ENERGY PREDICTED BY IDOCK:   -2.45 KCAL/MOL
REMARK 922        TOTAL FREE ENERGY PREDICTED BY IDOCK:   -4.25 KCAL/MOL
REMARK 923 INTER-LIGAND FREE ENERGY PREDICTED BY IDOCK:   -3.69 KCAL/MOL
REMARK 924 INTRA-LIGAND FREE ENERGY PREDICTED BY IDOCK:   -0.56 KCAL/MOL
REMARK 927      BINDING AFFINITY PREDICTED BY RF-SCORE:    0.00 PKD
ROOT
HETATM    1  C   UNL     1      -8.874   9.902  64.781  1.00  0.00    -0.232 C  
HETATM    2  C   UNL     1     -10.136  10.269  65.556  1.00  0.00    -0.281 C  
ENDROOT
BRANCH   2   3
HETATM    3  N   UNL     1     -10.188   9.669  66.907  1.00  0.00    -0.230 N  
BRANCH   3   4
HETATM    4  C   UNL     1     -10.546   8.236  67.033  1.00  0.00    -0.258 C  
HETATM    5  C   UNL     1      -9.435   7.230  67.322  1.00  0.00    -0.169 C  
ENDBRANCH   3   4
BRANCH   3   6
HETATM    6  C   UNL     1      -9.964  10.473  68.063  1.00  0.00    -0.155 C  
HETATM    7  S   UNL     1      -8.974  11.850  68.102  1.00  0.00    -0.187 S  
BRANCH   6   8
HETATM    8  S   UNL     1     -10.905  10.050  69.526  1.00  0.00    -0.266 SA 
BRANCH   8   9
HETATM    9  S   UNL     1      -9.544   9.039  70.713  1.00  0.00    -0.271 SA 
BRANCH   9  10
HETATM   10  C   UNL     1     -10.450   7.769  71.565  1.00  0.00    -0.205 C  
HETATM   11  S   UNL     1     -11.886   7.077  71.033  1.00  0.00    -0.365 S  
BRANCH  10  12
HETATM   12  N   UNL     1      -9.748   7.295  72.684  1.00  0.00    -0.152 N  
BRANCH  12  13
HETATM   13  C   UNL     1      -8.292   7.100  72.629  1.00  0.00    -0.107 C  
HETATM   14  C   UNL     1      -7.513   7.776  73.748  1.00  0.00    -0.164 C  
ENDBRANCH  12  13
BRANCH  12  15
HETATM   15  C   UNL     1     -10.481   6.831  73.872  1.00  0.00    -0.327 C  
HETATM   16  C   UNL     1     -10.425   5.328  74.088  1.00  0.00    -0.319 C  
ENDBRANCH  12  15
ENDBRANCH  10  12
ENDBRANCH   9  10
ENDBRANCH   8   9
ENDBRANCH   6   8
ENDBRANCH   3   6
ENDBRANCH   2   3
TORSDOF 9
ENDMDL
MODEL      298
REMARK 921   NORMALIZED FREE ENERGY PREDICTED BY IDOCK:   -2.45 KCAL/MOL
REMARK 922        TOTAL FREE ENERGY PREDICTED BY IDOCK:   -4.25 KCAL/MOL
REMARK 923 INTER-LIGAND FREE ENERGY PREDICTED BY IDOCK:   -3.67 KCAL/MOL
REMARK 924 INTRA-LIGAND FREE ENERGY PREDICTED BY IDOCK:   -0.58 KCAL/MOL
REMARK 927      BINDING AFFINITY PREDICTED BY RF-SCORE:    0.00 PKD
ROOT
HETATM    1  C   UNL     1      -9.416   8.028  73.358  1.00  0.00    -0.307 C  
HETATM    2  C   UNL     1      -9.824   7.103  72.214  1.00  0.00    -0.153 C  
ENDROOT
BRANCH   2   3
HETATM    3  N   UNL     1     -10.964   7.618  71.423  1.00  0.00    -0.230 N  
BRANCH   3   4
HETATM    4  C   UNL     1     -12.245   7.889  72.119  1.00  0.00    -0.310 C  
HETATM    5  C   UNL     1     -12.857   9.282  72.000  1.00  0.00    -0.495 C  
ENDBRANCH   3   4
BRANCH   3   6
HETATM    6  C   UNL     1     -10.845   7.784  70.012  1.00  0.00    -0.241 C  
HETATM    7  S   UNL     1     -10.352   9.215  69.248  1.00  0.00    -0.219 S  
BRANCH   6   8
HETATM    8  S   UNL     1     -11.121   6.325  69.010  1.00  0.00    -0.327 SA 
BRANCH   8   9
HETATM    9  S   UNL     1     -10.716   6.966  67.084  1.00  0.00    -0.367 SA 
BRANCH   9  10
HETATM   10  C   UNL     1      -9.039   6.496  66.729  1.00  0.00    -0.144 C  
HETATM   11  S   UNL     1      -7.681   7.043  67.555  1.00  0.00    -0.113 S  
BRANCH  10  12
HETATM   12  N   UNL     1      -8.980   5.488  65.755  1.00  0.00    -0.155 N  
BRANCH  12  13
HETATM   13  C   UNL     1      -8.242   5.699  64.501  1.00  0.00    -0.125 C  
HETATM   14  C   UNL     1      -6.963   4.886  64.367  1.00  0.00    -0.049 C  
ENDBRANCH  12  13
BRANCH  12  15
HETATM   15  C   UNL     1      -9.791   4.270  65.904  1.00  0.00    -0.223 C  
HETATM   16  C   UNL     1      -9.377   3.386  67.068  1.00  0.00    -0.212 C  
ENDBRANCH  12  15
ENDBRANCH  10  12
ENDBRANCH   9  10
ENDBRANCH   8   9
ENDBRANCH   6   8
ENDBRANCH   3   6
ENDBRANCH   2   3
TORSDOF 9
ENDMDL
MODEL      299
REMARK 921   NORMALIZED FREE ENERGY PREDICTED BY IDOCK:   -2.44 KCAL/MOL
REMARK 922        TOTAL FREE ENERGY PREDICTED BY IDOCK:   -4.24 KCAL/MOL
REMARK 923 INTER-LIGAND FREE ENERGY PREDICTED BY IDOCK:   -3.98 KCAL/MOL
REMARK 924 INTRA-LIGAND FREE ENERGY PREDICTED BY IDOCK:   -0.26 KCAL/MOL
REMARK 927      BINDING AFFINITY PREDICTED BY RF-SCORE:    0.00 PKD
ROOT
HETATM    1  C   UNL     1     -10.925  16.425  69.371  1.00  0.00    -0.325 C  
HETATM    2  C   UNL     1     -10.784  15.619  68.083  1.00  0.00    -0.287 C  
ENDROOT
BRANCH   2   3
HETATM    3  N   UNL     1     -10.804  14.156  68.303  1.00  0.00    -0.241 N  
BRANCH   3   4
HETATM    4  C   UNL     1     -12.035  13.538  68.850  1.00  0.00    -0.341 C  
HETATM    5  C   UNL     1     -12.180  13.421  70.365  1.00  0.00    -0.415 C  
ENDBRANCH   3   4
BRANCH   3   6
HETATM    6  C   UNL     1      -9.638  13.374  68.055  1.00  0.00    -0.219 C  
HETATM    7  S   UNL     1      -8.113  14.010  67.674  1.00  0.00    -0.188 S  
BRANCH   6   8
HETATM    8  S   UNL     1      -9.796  11.606  68.295  1.00  0.00    -0.202 SA 
BRANCH   8   9
HETATM    9  S   UNL     1     -10.765  10.961  66.584  1.00  0.00    -0.194 SA 
BRANCH   9  10
HETATM   10  C   UNL     1      -9.703   9.761  65.815  1.00  0.00    -0.273 C  
HETATM   11  S   UNL     1      -8.941   9.949  64.327  1.00  0.00    -0.258 S  
BRANCH  10  12
HETATM   12  N   UNL     1      -9.449   8.674  66.665  1.00  0.00    -0.189 N  
BRANCH  12  13
HETATM   13  C   UNL     1      -8.115   8.058  66.718  1.00  0.00    -0.107 C  
HETATM   14  C   UNL     1      -7.048   8.900  67.403  1.00  0.00    -0.079 C  
ENDBRANCH  12  13
BRANCH  12  15
HETATM   15  C   UNL     1     -10.555   8.032  67.391  1.00  0.00    -0.267 C  
HETATM   16  C   UNL     1     -10.948   6.669  66.847  1.00  0.00    -0.396 C  
ENDBRANCH  12  15
ENDBRANCH  10  12
ENDBRANCH   9  10
ENDBRANCH   8   9
ENDBRANCH   6   8
ENDBRANCH   3   6
ENDBRANCH   2   3
TORSDOF 9
ENDMDL
MODEL      300
REMARK 921   NORMALIZED FREE ENERGY PREDICTED BY IDOCK:   -2.44 KCAL/MOL
REMARK 922        TOTAL FREE ENERGY PREDICTED BY IDOCK:   -4.23 KCAL/MOL
REMARK 923 INTER-LIGAND FREE ENERGY PREDICTED BY IDOCK:   -3.64 KCAL/MOL
REMARK 924 INTRA-LIGAND FREE ENERGY PREDICTED BY IDOCK:   -0.59 KCAL/MOL
REMARK 927      BINDING AFFINITY PREDICTED BY RF-SCORE:    0.00 PKD
ROOT
HETATM    1  C   UNL     1      -9.974  10.402  64.866  1.00  0.00    -0.409 C  
HETATM    2  C   UNL     1      -9.766   9.227  65.817  1.00  0.00    -0.269 C  
ENDROOT
BRANCH   2   3
HETATM    3  N   UNL     1      -8.513   9.320  66.599  1.00  0.00    -0.125 N  
BRANCH   3   4
HETATM    4  C   UNL     1      -7.221   9.209  65.882  1.00  0.00    -0.093 C  
HETATM    5  C   UNL     1      -6.354  10.458  65.745  1.00  0.00    -0.123 C  
ENDBRANCH   3   4
BRANCH   3   6
HETATM    6  C   UNL     1      -8.557   9.447  68.018  1.00  0.00    -0.120 C  
HETATM    7  S   UNL     1      -7.597   8.557  69.096  1.00  0.00    -0.091 S  
BRANCH   6   8
HETATM    8  S   UNL     1      -9.618  10.733  68.673  1.00  0.00    -0.192 SA 
BRANCH   8   9
HETATM    9  S   UNL     1      -8.821  12.476  67.892  1.00  0.00    -0.192 SA 
BRANCH   9  10
HETATM   10  C   UNL     1     -10.189  13.456  67.322  1.00  0.00    -0.241 C  
HETATM   11  S   UNL     1     -11.784  12.934  67.225  1.00  0.00    -0.364 S  
BRANCH  10  12
HETATM   12  N   UNL     1      -9.811  14.787  67.090  1.00  0.00    -0.230 N  
BRANCH  12  13
HETATM   13  C   UNL     1      -8.568  15.325  67.661  1.00  0.00    -0.169 C  
HETATM   14  C   UNL     1      -7.741  16.176  66.709  1.00  0.00    -0.288 C  
ENDBRANCH  12  13
BRANCH  12  15
HETATM   15  C   UNL     1     -10.734  15.708  66.409  1.00  0.00    -0.291 C  
HETATM   16  C   UNL     1     -10.851  15.477  64.912  1.00  0.00    -0.447 C  
ENDBRANCH  12  15
ENDBRANCH  10  12
ENDBRANCH   9  10
ENDBRANCH   8   9
ENDBRANCH   6   8
ENDBRANCH   3   6
ENDBRANCH   2   3
TORSDOF 9
ENDMDL
MODEL      301
REMARK 921   NORMALIZED FREE ENERGY PREDICTED BY IDOCK:   -2.44 KCAL/MOL
REMARK 922        TOTAL FREE ENERGY PREDICTED BY IDOCK:   -4.23 KCAL/MOL
REMARK 923 INTER-LIGAND FREE ENERGY PREDICTED BY IDOCK:   -3.80 KCAL/MOL
REMARK 924 INTRA-LIGAND FREE ENERGY PREDICTED BY IDOCK:   -0.43 KCAL/MOL
REMARK 927      BINDING AFFINITY PREDICTED BY RF-SCORE:    0.00 PKD
ROOT
HETATM    1  C   UNL     1     -10.651  15.548  65.391  1.00  0.00    -0.428 C  
HETATM    2  C   UNL     1     -11.277  14.425  66.213  1.00  0.00    -0.338 C  
ENDROOT
BRANCH   2   3
HETATM    3  N   UNL     1     -10.931  13.075  65.718  1.00  0.00    -0.275 N  
BRANCH   3   4
HETATM    4  C   UNL     1     -11.909  12.361  64.863  1.00  0.00    -0.386 C  
HETATM    5  C   UNL     1     -11.993  12.733  63.385  1.00  0.00    -0.613 C  
ENDBRANCH   3   4
BRANCH   3   6
HETATM    6  C   UNL     1      -9.710  12.453  66.113  1.00  0.00    -0.246 C  
HETATM    7  S   UNL     1      -8.807  12.885  67.481  1.00  0.00    -0.204 S  
BRANCH   6   8
HETATM    8  S   UNL     1      -9.186  11.038  65.149  1.00  0.00    -0.181 SA 
BRANCH   8   9
HETATM    9  S   UNL     1      -9.682   9.419  66.338  1.00  0.00    -0.271 SA 
BRANCH   9  10
HETATM   10  C   UNL     1      -8.166   8.572  66.712  1.00  0.00    -0.105 C  
HETATM   11  S   UNL     1      -6.812   8.516  65.716  1.00  0.00    -0.068 S  
BRANCH  10  12
HETATM   12  N   UNL     1      -8.166   8.061  68.019  1.00  0.00    -0.128 N  
BRANCH  12  13
HETATM   13  C   UNL     1      -7.747   8.899  69.153  1.00  0.00    -0.092 C  
HETATM   14  C   UNL     1      -8.888   9.483  69.973  1.00  0.00    -0.246 C  
ENDBRANCH  12  13
BRANCH  12  15
HETATM   15  C   UNL     1      -8.429   6.633  68.253  1.00  0.00    -0.120 C  
HETATM   16  C   UNL     1      -7.675   6.048  69.435  1.00  0.00    -0.098 C  
ENDBRANCH  12  15
ENDBRANCH  10  12
ENDBRANCH   9  10
ENDBRANCH   8   9
ENDBRANCH   6   8
ENDBRANCH   3   6
ENDBRANCH   2   3
TORSDOF 9
ENDMDL
MODEL      302
REMARK 921   NORMALIZED FREE ENERGY PREDICTED BY IDOCK:   -2.44 KCAL/MOL
REMARK 922        TOTAL FREE ENERGY PREDICTED BY IDOCK:   -4.23 KCAL/MOL
REMARK 923 INTER-LIGAND FREE ENERGY PREDICTED BY IDOCK:   -3.59 KCAL/MOL
REMARK 924 INTRA-LIGAND FREE ENERGY PREDICTED BY IDOCK:   -0.64 KCAL/MOL
REMARK 927      BINDING AFFINITY PREDICTED BY RF-SCORE:    0.00 PKD
ROOT
HETATM    1  C   UNL     1     -12.265   9.885  71.101  1.00  0.00    -0.468 C  
HETATM    2  C   UNL     1     -10.974   9.092  71.281  1.00  0.00    -0.330 C  
ENDROOT
BRANCH   2   3
HETATM    3  N   UNL     1     -10.216   8.913  70.023  1.00  0.00    -0.192 N  
BRANCH   3   4
HETATM    4  C   UNL     1      -9.306   9.998  69.583  1.00  0.00    -0.220 C  
HETATM    5  C   UNL     1      -7.847   9.948  70.027  1.00  0.00    -0.192 C  
ENDBRANCH   3   4
BRANCH   3   6
HETATM    6  C   UNL     1     -10.413   7.750  69.223  1.00  0.00    -0.217 C  
HETATM    7  S   UNL     1     -10.870   6.232  69.824  1.00  0.00    -0.372 S  
BRANCH   6   8
HETATM    8  S   UNL     1     -10.286   7.970  67.450  1.00  0.00    -0.295 SA 
BRANCH   8   9
HETATM    9  S   UNL     1      -8.366   7.336  67.010  1.00  0.00    -0.119 SA 
BRANCH   9  10
HETATM   10  C   UNL     1      -8.023   7.851  65.344  1.00  0.00    -0.123 C  
HETATM   11  S   UNL     1      -7.743   6.819  64.047  1.00  0.00    -0.107 S  
BRANCH  10  12
HETATM   12  N   UNL     1      -8.155   9.239  65.194  1.00  0.00    -0.118 N  
BRANCH  12  13
HETATM   13  C   UNL     1      -9.035   9.802  64.160  1.00  0.00    -0.239 C  
HETATM   14  C   UNL     1     -10.187  10.644  64.688  1.00  0.00    -0.404 C  
ENDBRANCH  12  13
BRANCH  12  15
HETATM   15  C   UNL     1      -7.290  10.149  65.961  1.00  0.00    -0.118 C  
HETATM   16  C   UNL     1      -5.815  10.046  65.612  1.00  0.00    -0.074 C  
ENDBRANCH  12  15
ENDBRANCH  10  12
ENDBRANCH   9  10
ENDBRANCH   8   9
ENDBRANCH   6   8
ENDBRANCH   3   6
ENDBRANCH   2   3
TORSDOF 9
ENDMDL
MODEL      303
REMARK 921   NORMALIZED FREE ENERGY PREDICTED BY IDOCK:   -2.43 KCAL/MOL
REMARK 922        TOTAL FREE ENERGY PREDICTED BY IDOCK:   -4.23 KCAL/MOL
REMARK 923 INTER-LIGAND FREE ENERGY PREDICTED BY IDOCK:   -3.68 KCAL/MOL
REMARK 924 INTRA-LIGAND FREE ENERGY PREDICTED BY IDOCK:   -0.55 KCAL/MOL
REMARK 927      BINDING AFFINITY PREDICTED BY RF-SCORE:    0.00 PKD
ROOT
HETATM    1  C   UNL     1      -9.322  15.281  69.140  1.00  0.00    -0.236 C  
HETATM    2  C   UNL     1      -9.834  14.807  67.783  1.00  0.00    -0.214 C  
ENDROOT
BRANCH   2   3
HETATM    3  N   UNL     1     -10.628  13.561  67.860  1.00  0.00    -0.244 N  
BRANCH   3   4
HETATM    4  C   UNL     1     -11.346  13.254  69.120  1.00  0.00    -0.282 C  
HETATM    5  C   UNL     1     -11.766  11.811  69.385  1.00  0.00    -0.405 C  
ENDBRANCH   3   4
BRANCH   3   6
HETATM    6  C   UNL     1     -10.644  12.648  66.765  1.00  0.00    -0.237 C  
HETATM    7  S   UNL     1     -11.865  12.571  65.591  1.00  0.00    -0.424 S  
BRANCH   6   8
HETATM    8  S   UNL     1      -9.198  11.609  66.570  1.00  0.00    -0.201 SA 
BRANCH   8   9
HETATM    9  S   UNL     1      -9.974   9.691  66.510  1.00  0.00    -0.251 SA 
BRANCH   9  10
HETATM   10  C   UNL     1      -9.036   8.720  67.666  1.00  0.00    -0.135 C  
HETATM   11  S   UNL     1      -8.548   9.231  69.192  1.00  0.00    -0.139 S  
BRANCH  10  12
HETATM   12  N   UNL     1      -8.864   7.403  67.216  1.00  0.00    -0.123 N  
BRANCH  12  13
HETATM   13  C   UNL     1      -9.466   6.276  67.945  1.00  0.00    -0.115 C  
HETATM   14  C   UNL     1     -10.986   6.285  67.995  1.00  0.00    -0.418 C  
ENDBRANCH  12  13
BRANCH  12  15
HETATM   15  C   UNL     1      -7.944   7.117  66.105  1.00  0.00    -0.112 C  
HETATM   16  C   UNL     1      -8.381   5.965  65.216  1.00  0.00    -0.146 C  
ENDBRANCH  12  15
ENDBRANCH  10  12
ENDBRANCH   9  10
ENDBRANCH   8   9
ENDBRANCH   6   8
ENDBRANCH   3   6
ENDBRANCH   2   3
TORSDOF 9
ENDMDL
MODEL      304
REMARK 921   NORMALIZED FREE ENERGY PREDICTED BY IDOCK:   -2.43 KCAL/MOL
REMARK 922        TOTAL FREE ENERGY PREDICTED BY IDOCK:   -4.23 KCAL/MOL
REMARK 923 INTER-LIGAND FREE ENERGY PREDICTED BY IDOCK:   -3.75 KCAL/MOL
REMARK 924 INTRA-LIGAND FREE ENERGY PREDICTED BY IDOCK:   -0.48 KCAL/MOL
REMARK 927      BINDING AFFINITY PREDICTED BY RF-SCORE:    0.00 PKD
ROOT
HETATM    1  C   UNL     1      -6.847  11.394  66.633  1.00  0.00    -0.108 C  
HETATM    2  C   UNL     1      -7.165  10.461  65.468  1.00  0.00    -0.138 C  
ENDROOT
BRANCH   2   3
HETATM    3  N   UNL     1      -8.596  10.097  65.383  1.00  0.00    -0.147 N  
BRANCH   3   4
HETATM    4  C   UNL     1      -9.399  10.632  64.258  1.00  0.00    -0.258 C  
HETATM    5  C   UNL     1      -9.244   9.989  62.882  1.00  0.00    -0.311 C  
ENDBRANCH   3   4
BRANCH   3   6
HETATM    6  C   UNL     1      -9.198   9.301  66.401  1.00  0.00    -0.180 C  
HETATM    7  S   UNL     1      -8.472   7.952  67.128  1.00  0.00    -0.118 S  
BRANCH   6   8
HETATM    8  S   UNL     1     -10.779   9.866  67.025  1.00  0.00    -0.111 SA 
BRANCH   8   9
HETATM    9  S   UNL     1     -10.327  11.648  67.975  1.00  0.00    -0.199 SA 
BRANCH   9  10
HETATM   10  C   UNL     1     -11.007  12.950  66.975  1.00  0.00    -0.262 C  
HETATM   11  S   UNL     1     -12.139  12.744  65.749  1.00  0.00    -0.408 S  
BRANCH  10  12
HETATM   12  N   UNL     1     -10.596  14.214  67.423  1.00  0.00    -0.277 N  
BRANCH  12  13
HETATM   13  C   UNL     1      -9.252  14.722  67.108  1.00  0.00    -0.222 C  
HETATM   14  C   UNL     1      -9.221  15.900  66.147  1.00  0.00    -0.384 C  
ENDBRANCH  12  13
BRANCH  12  15
HETATM   15  C   UNL     1     -11.443  14.980  68.350  1.00  0.00    -0.323 C  
HETATM   16  C   UNL     1     -11.304  14.565  69.805  1.00  0.00    -0.305 C  
ENDBRANCH  12  15
ENDBRANCH  10  12
ENDBRANCH   9  10
ENDBRANCH   8   9
ENDBRANCH   6   8
ENDBRANCH   3   6
ENDBRANCH   2   3
TORSDOF 9
ENDMDL
MODEL      305
REMARK 921   NORMALIZED FREE ENERGY PREDICTED BY IDOCK:   -2.42 KCAL/MOL
REMARK 922        TOTAL FREE ENERGY PREDICTED BY IDOCK:   -4.21 KCAL/MOL
REMARK 923 INTER-LIGAND FREE ENERGY PREDICTED BY IDOCK:   -3.98 KCAL/MOL
REMARK 924 INTRA-LIGAND FREE ENERGY PREDICTED BY IDOCK:   -0.22 KCAL/MOL
REMARK 927      BINDING AFFINITY PREDICTED BY RF-SCORE:    0.00 PKD
ROOT
HETATM    1  C   UNL     1      -7.565  10.816  66.417  1.00  0.00    -0.141 C  
HETATM    2  C   UNL     1      -8.634  10.577  65.354  1.00  0.00    -0.180 C  
ENDROOT
BRANCH   2   3
HETATM    3  N   UNL     1      -9.949  11.153  65.707  1.00  0.00    -0.234 N  
BRANCH   3   4
HETATM    4  C   UNL     1     -10.780  11.736  64.627  1.00  0.00    -0.310 C  
HETATM    5  C   UNL     1     -10.189  11.831  63.223  1.00  0.00    -0.452 C  
ENDBRANCH   3   4
BRANCH   3   6
HETATM    6  C   UNL     1     -10.373  11.203  67.067  1.00  0.00    -0.224 C  
HETATM    7  S   UNL     1     -10.607   9.844  68.054  1.00  0.00    -0.251 S  
BRANCH   6   8
HETATM    8  S   UNL     1     -10.540  12.831  67.793  1.00  0.00    -0.226 SA 
BRANCH   8   9
HETATM    9  S   UNL     1      -9.314  14.021  66.624  1.00  0.00    -0.254 SA 
BRANCH   9  10
HETATM   10  C   UNL     1      -8.385  15.049  67.735  1.00  0.00    -0.150 C  
HETATM   11  S   UNL     1      -7.075  14.545  68.660  1.00  0.00    -0.122 S  
BRANCH  10  12
HETATM   12  N   UNL     1      -8.780  16.393  67.650  1.00  0.00    -0.182 N  
BRANCH  12  13
HETATM   13  C   UNL     1      -7.780  17.463  67.514  1.00  0.00    -0.192 C  
HETATM   14  C   UNL     1      -7.074  17.512  66.168  1.00  0.00    -0.341 C  
ENDBRANCH  12  13
BRANCH  12  15
HETATM   15  C   UNL     1     -10.189  16.762  67.859  1.00  0.00    -0.300 C  
HETATM   16  C   UNL     1     -10.520  18.194  67.475  1.00  0.00    -0.425 C  
ENDBRANCH  12  15
ENDBRANCH  10  12
ENDBRANCH   9  10
ENDBRANCH   8   9
ENDBRANCH   6   8
ENDBRANCH   3   6
ENDBRANCH   2   3
TORSDOF 9
ENDMDL
MODEL      306
REMARK 921   NORMALIZED FREE ENERGY PREDICTED BY IDOCK:   -2.42 KCAL/MOL
REMARK 922        TOTAL FREE ENERGY PREDICTED BY IDOCK:   -4.20 KCAL/MOL
REMARK 923 INTER-LIGAND FREE ENERGY PREDICTED BY IDOCK:   -4.35 KCAL/MOL
REMARK 924 INTRA-LIGAND FREE ENERGY PREDICTED BY IDOCK:    0.14 KCAL/MOL
REMARK 927      BINDING AFFINITY PREDICTED BY RF-SCORE:    0.00 PKD
ROOT
HETATM    1  C   UNL     1      -8.264  13.421  68.375  1.00  0.00    -0.139 C  
HETATM    2  C   UNL     1      -8.502  12.288  67.381  1.00  0.00    -0.176 C  
ENDROOT
BRANCH   2   3
HETATM    3  N   UNL     1      -9.448  12.645  66.302  1.00  0.00    -0.234 N  
BRANCH   3   4
HETATM    4  C   UNL     1      -9.533  11.765  65.112  1.00  0.00    -0.092 C  
HETATM    5  C   UNL     1     -10.324  10.464  65.223  1.00  0.00    -0.267 C  
ENDBRANCH   3   4
BRANCH   3   6
HETATM    6  C   UNL     1     -10.210  13.848  66.380  1.00  0.00    -0.292 C  
HETATM    7  S   UNL     1     -11.831  13.932  66.872  1.00  0.00    -0.438 S  
BRANCH   6   8
HETATM    8  S   UNL     1      -9.332  15.374  66.053  1.00  0.00    -0.289 SA 
BRANCH   8   9
HETATM    9  S   UNL     1     -10.761  16.840  66.354  1.00  0.00    -0.019 SA 
BRANCH   9  10
HETATM   10  C   UNL     1     -10.551  17.428  68.018  1.00  0.00    -0.389 C  
HETATM   11  S   UNL     1     -10.424  16.455  69.383  1.00  0.00    -0.309 S  
BRANCH  10  12
HETATM   12  N   UNL     1     -10.355  18.816  68.055  1.00  0.00    -0.389 N  
BRANCH  12  13
HETATM   13  C   UNL     1     -10.733  19.659  66.911  1.00  0.00    -0.453 C  
HETATM   14  C   UNL     1      -9.634  20.580  66.404  1.00  0.00    -0.272 C  
ENDBRANCH  12  13
BRANCH  12  15
HETATM   15  C   UNL     1      -9.617  19.427  69.172  1.00  0.00    -0.307 C  
HETATM   16  C   UNL     1      -8.106  19.366  69.027  1.00  0.00    -0.280 C  
ENDBRANCH  12  15
ENDBRANCH  10  12
ENDBRANCH   9  10
ENDBRANCH   8   9
ENDBRANCH   6   8
ENDBRANCH   3   6
ENDBRANCH   2   3
TORSDOF 9
ENDMDL
MODEL      307
REMARK 921   NORMALIZED FREE ENERGY PREDICTED BY IDOCK:   -2.42 KCAL/MOL
REMARK 922        TOTAL FREE ENERGY PREDICTED BY IDOCK:   -4.20 KCAL/MOL
REMARK 923 INTER-LIGAND FREE ENERGY PREDICTED BY IDOCK:   -3.57 KCAL/MOL
REMARK 924 INTRA-LIGAND FREE ENERGY PREDICTED BY IDOCK:   -0.63 KCAL/MOL
REMARK 927      BINDING AFFINITY PREDICTED BY RF-SCORE:    0.00 PKD
ROOT
HETATM    1  C   UNL     1     -10.169   9.595  66.346  1.00  0.00    -0.288 C  
HETATM    2  C   UNL     1     -10.759   9.437  67.745  1.00  0.00    -0.229 C  
ENDROOT
BRANCH   2   3
HETATM    3  N   UNL     1     -10.490  10.593  68.628  1.00  0.00    -0.180 N  
BRANCH   3   4
HETATM    4  C   UNL     1     -11.527  10.992  69.610  1.00  0.00    -0.303 C  
HETATM    5  C   UNL     1     -11.936   9.988  70.684  1.00  0.00    -0.401 C  
ENDBRANCH   3   4
BRANCH   3   6
HETATM    6  C   UNL     1      -9.286  11.344  68.486  1.00  0.00    -0.180 C  
HETATM    7  S   UNL     1      -9.218  12.989  68.082  1.00  0.00    -0.200 S  
BRANCH   6   8
HETATM    8  S   UNL     1      -7.763  10.495  68.892  1.00  0.00    -0.126 SA 
BRANCH   8   9
HETATM    9  S   UNL     1      -8.248   9.385  70.570  1.00  0.00    -0.163 SA 
BRANCH   9  10
HETATM   10  C   UNL     1      -8.660   7.752  70.005  1.00  0.00    -0.140 C  
HETATM   11  S   UNL     1      -7.949   6.968  68.698  1.00  0.00    -0.121 S  
BRANCH  10  12
HETATM   12  N   UNL     1      -9.561   7.116  70.871  1.00  0.00    -0.167 N  
BRANCH  12  13
HETATM   13  C   UNL     1      -9.438   7.270  72.328  1.00  0.00    -0.142 C  
HETATM   14  C   UNL     1     -10.759   7.411  73.071  1.00  0.00    -0.413 C  
ENDBRANCH  12  13
BRANCH  12  15
HETATM   15  C   UNL     1     -10.541   6.155  70.341  1.00  0.00    -0.257 C  
HETATM   16  C   UNL     1     -10.153   4.700  70.537  1.00  0.00    -0.263 C  
ENDBRANCH  12  15
ENDBRANCH  10  12
ENDBRANCH   9  10
ENDBRANCH   8   9
ENDBRANCH   6   8
ENDBRANCH   3   6
ENDBRANCH   2   3
TORSDOF 9
ENDMDL
MODEL      308
REMARK 921   NORMALIZED FREE ENERGY PREDICTED BY IDOCK:   -2.42 KCAL/MOL
REMARK 922        TOTAL FREE ENERGY PREDICTED BY IDOCK:   -4.20 KCAL/MOL
REMARK 923 INTER-LIGAND FREE ENERGY PREDICTED BY IDOCK:   -3.68 KCAL/MOL
REMARK 924 INTRA-LIGAND FREE ENERGY PREDICTED BY IDOCK:   -0.52 KCAL/MOL
REMARK 927      BINDING AFFINITY PREDICTED BY RF-SCORE:    0.00 PKD
ROOT
HETATM    1  C   UNL     1     -11.551  15.944  70.921  1.00  0.00    -0.456 C  
HETATM    2  C   UNL     1     -11.914  15.635  69.471  1.00  0.00    -0.345 C  
ENDROOT
BRANCH   2   3
HETATM    3  N   UNL     1     -10.835  14.944  68.732  1.00  0.00    -0.243 N  
BRANCH   3   4
HETATM    4  C   UNL     1      -9.708  15.749  68.206  1.00  0.00    -0.201 C  
HETATM    5  C   UNL     1     -10.012  16.862  67.207  1.00  0.00    -0.277 C  
ENDBRANCH   3   4
BRANCH   3   6
HETATM    6  C   UNL     1     -10.919  13.543  68.477  1.00  0.00    -0.267 C  
HETATM    7  S   UNL     1     -11.693  12.424  69.489  1.00  0.00    -0.295 S  
BRANCH   6   8
HETATM    8  S   UNL     1     -10.261  12.975  66.911  1.00  0.00    -0.247 SA 
BRANCH   8   9
HETATM    9  S   UNL     1     -10.527  10.924  66.980  1.00  0.00    -0.256 SA 
BRANCH   9  10
HETATM   10  C   UNL     1      -9.098  10.247  67.791  1.00  0.00    -0.134 C  
HETATM   11  S   UNL     1      -7.838  11.146  68.449  1.00  0.00    -0.141 S  
BRANCH  10  12
HETATM   12  N   UNL     1      -9.204   8.858  67.954  1.00  0.00    -0.138 N  
BRANCH  12  13
HETATM   13  C   UNL     1      -8.502   7.940  67.044  1.00  0.00    -0.124 C  
HETATM   14  C   UNL     1      -9.387   6.896  66.381  1.00  0.00    -0.183 C  
ENDBRANCH  12  13
BRANCH  12  15
HETATM   15  C   UNL     1     -10.149   8.300  68.933  1.00  0.00    -0.199 C  
HETATM   16  C   UNL     1      -9.622   8.267  70.357  1.00  0.00    -0.174 C  
ENDBRANCH  12  15
ENDBRANCH  10  12
ENDBRANCH   9  10
ENDBRANCH   8   9
ENDBRANCH   6   8
ENDBRANCH   3   6
ENDBRANCH   2   3
TORSDOF 9
ENDMDL
MODEL      309
REMARK 921   NORMALIZED FREE ENERGY PREDICTED BY IDOCK:   -2.40 KCAL/MOL
REMARK 922        TOTAL FREE ENERGY PREDICTED BY IDOCK:   -4.18 KCAL/MOL
REMARK 923 INTER-LIGAND FREE ENERGY PREDICTED BY IDOCK:   -3.54 KCAL/MOL
REMARK 924 INTRA-LIGAND FREE ENERGY PREDICTED BY IDOCK:   -0.64 KCAL/MOL
REMARK 927      BINDING AFFINITY PREDICTED BY RF-SCORE:    0.00 PKD
ROOT
HETATM    1  C   UNL     1     -12.274  10.554  70.555  1.00  0.00    -0.435 C  
HETATM    2  C   UNL     1     -12.044   9.541  71.673  1.00  0.00    -0.398 C  
ENDROOT
BRANCH   2   3
HETATM    3  N   UNL     1     -10.732   8.861  71.586  1.00  0.00    -0.321 N  
BRANCH   3   4
HETATM    4  C   UNL     1      -9.700   9.426  70.685  1.00  0.00    -0.273 C  
HETATM    5  C   UNL     1      -8.522   8.542  70.283  1.00  0.00    -0.128 C  
ENDBRANCH   3   4
BRANCH   3   6
HETATM    6  C   UNL     1     -10.498   7.653  72.305  1.00  0.00    -0.237 C  
HETATM    7  S   UNL     1      -9.515   7.525  73.682  1.00  0.00    -0.277 S  
BRANCH   6   8
HETATM    8  S   UNL     1     -11.418   6.213  71.770  1.00  0.00    -0.258 SA 
BRANCH   8   9
HETATM    9  S   UNL     1      -9.985   5.017  70.875  1.00  0.00    -0.224 SA 
BRANCH   9  10
HETATM   10  C   UNL     1     -10.052   5.351  69.131  1.00  0.00    -0.223 C  
HETATM   11  S   UNL     1     -11.025   6.513  68.401  1.00  0.00    -0.251 S  
BRANCH  10  12
HETATM   12  N   UNL     1      -9.081   4.624  68.427  1.00  0.00    -0.114 N  
BRANCH  12  13
HETATM   13  C   UNL     1      -9.439   3.390  67.711  1.00  0.00    -0.176 C  
HETATM   14  C   UNL     1      -9.556   3.536  66.202  1.00  0.00    -0.106 C  
ENDBRANCH  12  13
BRANCH  12  15
HETATM   15  C   UNL     1      -7.662   4.996  68.531  1.00  0.00    -0.079 C  
HETATM   16  C   UNL     1      -6.736   3.834  68.844  1.00  0.00    -0.045 C  
ENDBRANCH  12  15
ENDBRANCH  10  12
ENDBRANCH   9  10
ENDBRANCH   8   9
ENDBRANCH   6   8
ENDBRANCH   3   6
ENDBRANCH   2   3
TORSDOF 9
ENDMDL
MODEL      310
REMARK 921   NORMALIZED FREE ENERGY PREDICTED BY IDOCK:   -2.40 KCAL/MOL
REMARK 922        TOTAL FREE ENERGY PREDICTED BY IDOCK:   -4.18 KCAL/MOL
REMARK 923 INTER-LIGAND FREE ENERGY PREDICTED BY IDOCK:   -3.53 KCAL/MOL
REMARK 924 INTRA-LIGAND FREE ENERGY PREDICTED BY IDOCK:   -0.65 KCAL/MOL
REMARK 927      BINDING AFFINITY PREDICTED BY RF-SCORE:    0.00 PKD
ROOT
HETATM    1  C   UNL     1      -5.738  11.841  68.151  1.00  0.00    -0.047 C  
HETATM    2  C   UNL     1      -6.949  12.017  67.239  1.00  0.00    -0.146 C  
ENDROOT
BRANCH   2   3
HETATM    3  N   UNL     1      -7.464  10.741  66.697  1.00  0.00    -0.128 N  
BRANCH   3   4
HETATM    4  C   UNL     1      -6.531   9.854  65.962  1.00  0.00    -0.084 C  
HETATM    5  C   UNL     1      -6.081   8.557  66.629  1.00  0.00    -0.057 C  
ENDBRANCH   3   4
BRANCH   3   6
HETATM    6  C   UNL     1      -8.845  10.409  66.825  1.00  0.00    -0.130 C  
HETATM    7  S   UNL     1      -9.661   9.288  65.849  1.00  0.00    -0.253 S  
BRANCH   6   8
HETATM    8  S   UNL     1      -9.720  11.148  68.201  1.00  0.00    -0.188 SA 
BRANCH   8   9
HETATM    9  S   UNL     1     -11.374  12.027  67.320  1.00  0.00    -0.336 SA 
BRANCH   9  10
HETATM   10  C   UNL     1     -10.762  13.275  66.211  1.00  0.00    -0.286 C  
HETATM   11  S   UNL     1     -10.690  13.136  64.537  1.00  0.00    -0.414 S  
BRANCH  10  12
HETATM   12  N   UNL     1     -10.472  14.470  66.887  1.00  0.00    -0.267 N  
BRANCH  12  13
HETATM   13  C   UNL     1      -9.108  15.019  66.889  1.00  0.00    -0.247 C  
HETATM   14  C   UNL     1      -8.934  16.304  66.095  1.00  0.00    -0.374 C  
ENDBRANCH  12  13
BRANCH  12  15
HETATM   15  C   UNL     1     -11.492  15.102  67.738  1.00  0.00    -0.318 C  
HETATM   16  C   UNL     1     -11.014  15.426  69.143  1.00  0.00    -0.252 C  
ENDBRANCH  12  15
ENDBRANCH  10  12
ENDBRANCH   9  10
ENDBRANCH   8   9
ENDBRANCH   6   8
ENDBRANCH   3   6
ENDBRANCH   2   3
TORSDOF 9
ENDMDL
MODEL      311
REMARK 921   NORMALIZED FREE ENERGY PREDICTED BY IDOCK:   -2.40 KCAL/MOL
REMARK 922        TOTAL FREE ENERGY PREDICTED BY IDOCK:   -4.18 KCAL/MOL
REMARK 923 INTER-LIGAND FREE ENERGY PREDICTED BY IDOCK:   -3.79 KCAL/MOL
REMARK 924 INTRA-LIGAND FREE ENERGY PREDICTED BY IDOCK:   -0.38 KCAL/MOL
REMARK 927      BINDING AFFINITY PREDICTED BY RF-SCORE:    0.00 PKD
ROOT
HETATM    1  C   UNL     1     -11.018  16.031  68.141  1.00  0.00    -0.339 C  
HETATM    2  C   UNL     1     -11.550  14.671  67.697  1.00  0.00    -0.361 C  
ENDROOT
BRANCH   2   3
HETATM    3  N   UNL     1     -10.852  14.129  66.511  1.00  0.00    -0.295 N  
BRANCH   3   4
HETATM    4  C   UNL     1     -10.905  14.896  65.244  1.00  0.00    -0.386 C  
HETATM    5  C   UNL     1     -12.124  14.726  64.341  1.00  0.00    -0.457 C  
ENDBRANCH   3   4
BRANCH   3   6
HETATM    6  C   UNL     1     -10.200  12.862  66.575  1.00  0.00    -0.259 C  
HETATM    7  S   UNL     1      -8.737  12.570  67.383  1.00  0.00    -0.198 S  
BRANCH   6   8
HETATM    8  S   UNL     1     -11.073  11.476  65.852  1.00  0.00    -0.156 SA 
BRANCH   8   9
HETATM    9  S   UNL     1      -9.618  10.494  64.755  1.00  0.00    -0.314 SA 
BRANCH   9  10
HETATM   10  C   UNL     1      -9.291   8.961  65.592  1.00  0.00    -0.191 C  
HETATM   11  S   UNL     1     -10.142   8.378  66.920  1.00  0.00    -0.312 S  
BRANCH  10  12
HETATM   12  N   UNL     1      -8.317   8.204  64.924  1.00  0.00    -0.151 N  
BRANCH  12  13
HETATM   13  C   UNL     1      -7.411   7.319  65.671  1.00  0.00    -0.085 C  
HETATM   14  C   UNL     1      -6.488   8.027  66.650  1.00  0.00    -0.055 C  
ENDBRANCH  12  13
BRANCH  12  15
HETATM   15  C   UNL     1      -8.080   8.411  63.487  1.00  0.00    -0.143 C  
HETATM   16  C   UNL     1      -6.629   8.686  63.129  1.00  0.00    -0.090 C  
ENDBRANCH  12  15
ENDBRANCH  10  12
ENDBRANCH   9  10
ENDBRANCH   8   9
ENDBRANCH   6   8
ENDBRANCH   3   6
ENDBRANCH   2   3
TORSDOF 9
ENDMDL
MODEL      312
REMARK 921   NORMALIZED FREE ENERGY PREDICTED BY IDOCK:   -2.40 KCAL/MOL
REMARK 922        TOTAL FREE ENERGY PREDICTED BY IDOCK:   -4.17 KCAL/MOL
REMARK 923 INTER-LIGAND FREE ENERGY PREDICTED BY IDOCK:   -3.70 KCAL/MOL
REMARK 924 INTRA-LIGAND FREE ENERGY PREDICTED BY IDOCK:   -0.47 KCAL/MOL
REMARK 927      BINDING AFFINITY PREDICTED BY RF-SCORE:    0.00 PKD
ROOT
HETATM    1  C   UNL     1      -6.350  10.061  64.357  1.00  0.00    -0.131 C  
HETATM    2  C   UNL     1      -7.824   9.688  64.479  1.00  0.00    -0.134 C  
ENDROOT
BRANCH   2   3
HETATM    3  N   UNL     1      -8.220   9.305  65.852  1.00  0.00    -0.113 N  
BRANCH   3   4
HETATM    4  C   UNL     1      -7.201   8.695  66.739  1.00  0.00    -0.078 C  
HETATM    5  C   UNL     1      -6.883   7.212  66.570  1.00  0.00    -0.065 C  
ENDBRANCH   3   4
BRANCH   3   6
HETATM    6  C   UNL     1      -9.570   9.462  66.283  1.00  0.00    -0.234 C  
HETATM    7  S   UNL     1     -10.469   8.271  67.089  1.00  0.00    -0.275 S  
BRANCH   6   8
HETATM    8  S   UNL     1     -10.299  11.082  66.057  1.00  0.00    -0.244 SA 
BRANCH   8   9
HETATM    9  S   UNL     1      -9.549  12.185  67.640  1.00  0.00    -0.195 SA 
BRANCH   9  10
HETATM   10  C   UNL     1     -10.848  13.281  68.162  1.00  0.00    -0.251 C  
HETATM   11  S   UNL     1     -11.872  13.019  69.469  1.00  0.00    -0.296 S  
BRANCH  10  12
HETATM   12  N   UNL     1     -10.834  14.482  67.438  1.00  0.00    -0.285 N  
BRANCH  12  13
HETATM   13  C   UNL     1     -11.537  14.591  66.151  1.00  0.00    -0.365 C  
HETATM   14  C   UNL     1     -10.664  15.011  64.978  1.00  0.00    -0.448 C  
ENDBRANCH  12  13
BRANCH  12  15
HETATM   15  C   UNL     1      -9.980  15.597  67.875  1.00  0.00    -0.223 C  
HETATM   16  C   UNL     1     -10.748  16.830  68.322  1.00  0.00    -0.364 C  
ENDBRANCH  12  15
ENDBRANCH  10  12
ENDBRANCH   9  10
ENDBRANCH   8   9
ENDBRANCH   6   8
ENDBRANCH   3   6
ENDBRANCH   2   3
TORSDOF 9
ENDMDL
MODEL      313
REMARK 921   NORMALIZED FREE ENERGY PREDICTED BY IDOCK:   -2.40 KCAL/MOL
REMARK 922        TOTAL FREE ENERGY PREDICTED BY IDOCK:   -4.17 KCAL/MOL
REMARK 923 INTER-LIGAND FREE ENERGY PREDICTED BY IDOCK:   -3.63 KCAL/MOL
REMARK 924 INTRA-LIGAND FREE ENERGY PREDICTED BY IDOCK:   -0.54 KCAL/MOL
REMARK 927      BINDING AFFINITY PREDICTED BY RF-SCORE:    0.00 PKD
ROOT
HETATM    1  C   UNL     1     -11.342  10.075  70.708  1.00  0.00    -0.439 C  
HETATM    2  C   UNL     1     -10.173   9.122  70.936  1.00  0.00    -0.282 C  
ENDROOT
BRANCH   2   3
HETATM    3  N   UNL     1      -9.572   8.621  69.680  1.00  0.00    -0.169 N  
BRANCH   3   4
HETATM    4  C   UNL     1      -8.212   9.081  69.312  1.00  0.00    -0.117 C  
HETATM    5  C   UNL     1      -7.085   8.053  69.258  1.00  0.00    -0.068 C  
ENDBRANCH   3   4
BRANCH   3   6
HETATM    6  C   UNL     1     -10.318   7.768  68.815  1.00  0.00    -0.204 C  
HETATM    7  S   UNL     1     -11.256   6.453  69.331  1.00  0.00    -0.362 S  
BRANCH   6   8
HETATM    8  S   UNL     1     -10.348   8.217  67.081  1.00  0.00    -0.326 SA 
BRANCH   8   9
HETATM    9  S   UNL     1     -10.651  10.264  67.107  1.00  0.00    -0.244 SA 
BRANCH   9  10
HETATM   10  C   UNL     1     -10.351  10.849  65.456  1.00  0.00    -0.252 C  
HETATM   11  S   UNL     1     -11.394  11.821  64.565  1.00  0.00    -0.242 S  
BRANCH  10  12
HETATM   12  N   UNL     1      -9.059  10.522  65.018  1.00  0.00    -0.189 N  
BRANCH  12  13
HETATM   13  C   UNL     1      -8.857   9.759  63.778  1.00  0.00    -0.235 C  
HETATM   14  C   UNL     1      -8.552  10.603  62.550  1.00  0.00    -0.276 C  
ENDBRANCH  12  13
BRANCH  12  15
HETATM   15  C   UNL     1      -7.898  10.796  65.879  1.00  0.00    -0.131 C  
HETATM   16  C   UNL     1      -6.820   9.727  65.827  1.00  0.00    -0.098 C  
ENDBRANCH  12  15
ENDBRANCH  10  12
ENDBRANCH   9  10
ENDBRANCH   8   9
ENDBRANCH   6   8
ENDBRANCH   3   6
ENDBRANCH   2   3
TORSDOF 9
ENDMDL
MODEL      314
REMARK 921   NORMALIZED FREE ENERGY PREDICTED BY IDOCK:   -2.39 KCAL/MOL
REMARK 922        TOTAL FREE ENERGY PREDICTED BY IDOCK:   -4.16 KCAL/MOL
REMARK 923 INTER-LIGAND FREE ENERGY PREDICTED BY IDOCK:   -3.71 KCAL/MOL
REMARK 924 INTRA-LIGAND FREE ENERGY PREDICTED BY IDOCK:   -0.44 KCAL/MOL
REMARK 927      BINDING AFFINITY PREDICTED BY RF-SCORE:    0.00 PKD
ROOT
HETATM    1  C   UNL     1      -5.938   9.851  66.216  1.00  0.00    -0.064 C  
HETATM    2  C   UNL     1      -7.405  10.178  65.955  1.00  0.00    -0.121 C  
ENDROOT
BRANCH   2   3
HETATM    3  N   UNL     1      -8.104  10.721  67.140  1.00  0.00    -0.121 N  
BRANCH   3   4
HETATM    4  C   UNL     1      -9.141  11.760  66.937  1.00  0.00    -0.192 C  
HETATM    5  C   UNL     1     -10.069  11.637  65.732  1.00  0.00    -0.278 C  
ENDBRANCH   3   4
BRANCH   3   6
HETATM    6  C   UNL     1      -7.735  10.298  68.451  1.00  0.00    -0.093 C  
HETATM    7  S   UNL     1      -6.839  11.230  69.548  1.00  0.00    -0.083 S  
BRANCH   6   8
HETATM    8  S   UNL     1      -8.385   8.720  68.994  1.00  0.00    -0.131 SA 
BRANCH   8   9
HETATM    9  S   UNL     1     -10.283   9.178  69.680  1.00  0.00    -0.213 SA 
BRANCH   9  10
HETATM   10  C   UNL     1     -10.927   7.703  70.434  1.00  0.00    -0.247 C  
HETATM   11  S   UNL     1     -10.866   6.163  69.762  1.00  0.00    -0.387 S  
BRANCH  10  12
HETATM   12  N   UNL     1     -11.374   7.943  71.741  1.00  0.00    -0.254 N  
BRANCH  12  13
HETATM   13  C   UNL     1     -10.432   7.937  72.871  1.00  0.00    -0.355 C  
HETATM   14  C   UNL     1     -10.410   6.647  73.678  1.00  0.00    -0.343 C  
ENDBRANCH  12  13
BRANCH  12  15
HETATM   15  C   UNL     1     -12.815   8.042  72.021  1.00  0.00    -0.287 C  
HETATM   16  C   UNL     1     -13.322   9.466  72.176  1.00  0.00    -0.545 C  
ENDBRANCH  12  15
ENDBRANCH  10  12
ENDBRANCH   9  10
ENDBRANCH   8   9
ENDBRANCH   6   8
ENDBRANCH   3   6
ENDBRANCH   2   3
TORSDOF 9
ENDMDL
MODEL      315
REMARK 921   NORMALIZED FREE ENERGY PREDICTED BY IDOCK:   -2.38 KCAL/MOL
REMARK 922        TOTAL FREE ENERGY PREDICTED BY IDOCK:   -4.15 KCAL/MOL
REMARK 923 INTER-LIGAND FREE ENERGY PREDICTED BY IDOCK:   -3.62 KCAL/MOL
REMARK 924 INTRA-LIGAND FREE ENERGY PREDICTED BY IDOCK:   -0.53 KCAL/MOL
REMARK 927      BINDING AFFINITY PREDICTED BY RF-SCORE:    0.00 PKD
ROOT
HETATM    1  C   UNL     1      -5.558  13.361  71.232  1.00  0.00    -0.172 C  
HETATM    2  C   UNL     1      -5.158  13.397  69.760  1.00  0.00    -0.082 C  
ENDROOT
BRANCH   2   3
HETATM    3  N   UNL     1      -6.264  13.795  68.862  1.00  0.00    -0.086 N  
BRANCH   3   4
HETATM    4  C   UNL     1      -6.674  12.861  67.785  1.00  0.00    -0.141 C  
HETATM    5  C   UNL     1      -7.735  11.810  68.098  1.00  0.00    -0.124 C  
ENDBRANCH   3   4
BRANCH   3   6
HETATM    6  C   UNL     1      -6.874  15.077  68.993  1.00  0.00    -0.118 C  
HETATM    7  S   UNL     1      -8.535  15.337  69.214  1.00  0.00    -0.221 S  
BRANCH   6   8
HETATM    8  S   UNL     1      -5.769  16.485  69.052  1.00  0.00    -0.144 SA 
BRANCH   8   9
HETATM    9  S   UNL     1      -7.042  18.115  68.978  1.00  0.00    -0.190 SA 
BRANCH   9  10
HETATM   10  C   UNL     1      -7.295  18.491  67.259  1.00  0.00    -0.217 C  
HETATM   11  S   UNL     1      -6.842  17.508  65.972  1.00  0.00    -0.178 S  
BRANCH  10  12
HETATM   12  N   UNL     1      -8.058  19.656  67.092  1.00  0.00    -0.273 N  
BRANCH  12  13
HETATM   13  C   UNL     1      -9.358  19.610  66.406  1.00  0.00    -0.387 C  
HETATM   14  C   UNL     1     -10.563  19.479  67.325  1.00  0.00    -0.610 C  
ENDBRANCH  12  13
BRANCH  12  15
HETATM   15  C   UNL     1      -7.494  20.966  67.454  1.00  0.00    -0.285 C  
HETATM   16  C   UNL     1      -6.146  21.259  66.819  1.00  0.00    -0.392 C  
ENDBRANCH  12  15
ENDBRANCH  10  12
ENDBRANCH   9  10
ENDBRANCH   8   9
ENDBRANCH   6   8
ENDBRANCH   3   6
ENDBRANCH   2   3
TORSDOF 9
ENDMDL
MODEL      316
REMARK 921   NORMALIZED FREE ENERGY PREDICTED BY IDOCK:   -2.37 KCAL/MOL
REMARK 922        TOTAL FREE ENERGY PREDICTED BY IDOCK:   -4.13 KCAL/MOL
REMARK 923 INTER-LIGAND FREE ENERGY PREDICTED BY IDOCK:   -4.05 KCAL/MOL
REMARK 924 INTRA-LIGAND FREE ENERGY PREDICTED BY IDOCK:   -0.09 KCAL/MOL
REMARK 927      BINDING AFFINITY PREDICTED BY RF-SCORE:    0.00 PKD
ROOT
HETATM    1  C   UNL     1      -7.043  10.629  66.573  1.00  0.00    -0.133 C  
HETATM    2  C   UNL     1      -8.314  10.810  67.398  1.00  0.00    -0.119 C  
ENDROOT
BRANCH   2   3
HETATM    3  N   UNL     1      -9.008  12.089  67.133  1.00  0.00    -0.179 N  
BRANCH   3   4
HETATM    4  C   UNL     1      -9.810  12.217  65.893  1.00  0.00    -0.247 C  
HETATM    5  C   UNL     1     -10.500  10.972  65.341  1.00  0.00    -0.306 C  
ENDBRANCH   3   4
BRANCH   3   6
HETATM    6  C   UNL     1      -8.849  13.193  68.021  1.00  0.00    -0.191 C  
HETATM    7  S   UNL     1      -7.383  13.645  68.744  1.00  0.00    -0.062 S  
BRANCH   6   8
HETATM    8  S   UNL     1     -10.287  14.230  68.273  1.00  0.00    -0.248 SA 
BRANCH   8   9
HETATM    9  S   UNL     1      -9.607  15.717  69.541  1.00  0.00    -0.220 SA 
BRANCH   9  10
HETATM   10  C   UNL     1      -8.713  16.880  68.536  1.00  0.00    -0.251 C  
HETATM   11  S   UNL     1      -7.121  17.357  68.787  1.00  0.00    -0.253 S  
BRANCH  10  12
HETATM   12  N   UNL     1      -9.449  17.257  67.403  1.00  0.00    -0.243 N  
BRANCH  12  13
HETATM   13  C   UNL     1     -10.594  18.172  67.521  1.00  0.00    -0.401 C  
HETATM   14  C   UNL     1     -10.302  19.470  68.259  1.00  0.00    -0.524 C  
ENDBRANCH  12  13
BRANCH  12  15
HETATM   15  C   UNL     1      -9.188  16.613  66.106  1.00  0.00    -0.277 C  
HETATM   16  C   UNL     1     -10.439  16.166  65.371  1.00  0.00    -0.396 C  
ENDBRANCH  12  15
ENDBRANCH  10  12
ENDBRANCH   9  10
ENDBRANCH   8   9
ENDBRANCH   6   8
ENDBRANCH   3   6
ENDBRANCH   2   3
TORSDOF 9
ENDMDL
MODEL      317
REMARK 921   NORMALIZED FREE ENERGY PREDICTED BY IDOCK:   -2.36 KCAL/MOL
REMARK 922        TOTAL FREE ENERGY PREDICTED BY IDOCK:   -4.12 KCAL/MOL
REMARK 923 INTER-LIGAND FREE ENERGY PREDICTED BY IDOCK:   -3.38 KCAL/MOL
REMARK 924 INTRA-LIGAND FREE ENERGY PREDICTED BY IDOCK:   -0.74 KCAL/MOL
REMARK 927      BINDING AFFINITY PREDICTED BY RF-SCORE:    0.00 PKD
ROOT
HETATM    1  C   UNL     1      -9.562   3.853  70.012  1.00  0.00    -0.269 C  
HETATM    2  C   UNL     1     -10.105   5.069  69.266  1.00  0.00    -0.200 C  
ENDROOT
BRANCH   2   3
HETATM    3  N   UNL     1      -9.292   5.445  68.089  1.00  0.00    -0.111 N  
BRANCH   3   4
HETATM    4  C   UNL     1      -8.786   4.369  67.204  1.00  0.00    -0.105 C  
HETATM    5  C   UNL     1      -9.694   3.854  66.090  1.00  0.00    -0.173 C  
ENDBRANCH   3   4
BRANCH   3   6
HETATM    6  C   UNL     1      -8.950   6.809  67.855  1.00  0.00    -0.113 C  
HETATM    7  S   UNL     1      -7.396   7.360  67.462  1.00  0.00    -0.105 S  
BRANCH   6   8
HETATM    8  S   UNL     1     -10.303   7.983  67.857  1.00  0.00    -0.208 SA 
BRANCH   8   9
HETATM    9  S   UNL     1      -9.876   9.224  69.458  1.00  0.00    -0.191 SA 
BRANCH   9  10
HETATM   10  C   UNL     1      -9.663   8.175  70.878  1.00  0.00    -0.166 C  
HETATM   11  S   UNL     1      -8.187   7.631  71.471  1.00  0.00    -0.106 S  
BRANCH  10  12
HETATM   12  N   UNL     1     -10.876   7.962  71.550  1.00  0.00    -0.226 N  
BRANCH  12  13
HETATM   13  C   UNL     1     -12.113   8.612  71.092  1.00  0.00    -0.260 C  
HETATM   14  C   UNL     1     -12.998   9.158  72.202  1.00  0.00    -0.498 C  
ENDBRANCH  12  13
BRANCH  12  15
HETATM   15  C   UNL     1     -10.895   7.216  72.818  1.00  0.00    -0.300 C  
HETATM   16  C   UNL     1     -11.291   5.756  72.675  1.00  0.00    -0.349 C  
ENDBRANCH  12  15
ENDBRANCH  10  12
ENDBRANCH   9  10
ENDBRANCH   8   9
ENDBRANCH   6   8
ENDBRANCH   3   6
ENDBRANCH   2   3
TORSDOF 9
ENDMDL
MODEL      318
REMARK 921   NORMALIZED FREE ENERGY PREDICTED BY IDOCK:   -2.36 KCAL/MOL
REMARK 922        TOTAL FREE ENERGY PREDICTED BY IDOCK:   -4.12 KCAL/MOL
REMARK 923 INTER-LIGAND FREE ENERGY PREDICTED BY IDOCK:   -3.61 KCAL/MOL
REMARK 924 INTRA-LIGAND FREE ENERGY PREDICTED BY IDOCK:   -0.50 KCAL/MOL
REMARK 927      BINDING AFFINITY PREDICTED BY RF-SCORE:    0.00 PKD
ROOT
HETATM    1  C   UNL     1      -8.357  10.713  65.695  1.00  0.00    -0.162 C  
HETATM    2  C   UNL     1      -8.136  11.583  66.929  1.00  0.00    -0.164 C  
ENDROOT
BRANCH   2   3
HETATM    3  N   UNL     1      -9.155  12.644  67.087  1.00  0.00    -0.202 N  
BRANCH   3   4
HETATM    4  C   UNL     1      -8.702  14.051  67.203  1.00  0.00    -0.221 C  
HETATM    5  C   UNL     1      -7.713  14.408  68.310  1.00  0.00    -0.129 C  
ENDBRANCH   3   4
BRANCH   3   6
HETATM    6  C   UNL     1     -10.536  12.307  67.191  1.00  0.00    -0.225 C  
HETATM    7  S   UNL     1     -11.666  12.470  65.936  1.00  0.00    -0.425 S  
BRANCH   6   8
HETATM    8  S   UNL     1     -11.059  11.543  68.724  1.00  0.00    -0.256 SA 
BRANCH   8   9
HETATM    9  S   UNL     1     -10.819   9.518  68.373  1.00  0.00    -0.080 SA 
BRANCH   9  10
HETATM   10  C   UNL     1      -9.928   8.858  69.762  1.00  0.00    -0.191 C  
HETATM   11  S   UNL     1      -8.415   9.375  70.280  1.00  0.00    -0.222 S  
BRANCH  10  12
HETATM   12  N   UNL     1     -10.701   7.935  70.481  1.00  0.00    -0.228 N  
BRANCH  12  13
HETATM   13  C   UNL     1     -12.050   8.289  70.950  1.00  0.00    -0.137 C  
HETATM   14  C   UNL     1     -12.119   9.535  71.819  1.00  0.00    -0.459 C  
ENDBRANCH  12  13
BRANCH  12  15
HETATM   15  C   UNL     1     -10.111   6.661  70.919  1.00  0.00    -0.187 C  
HETATM   16  C   UNL     1     -11.000   5.850  71.848  1.00  0.00    -0.321 C  
ENDBRANCH  12  15
ENDBRANCH  10  12
ENDBRANCH   9  10
ENDBRANCH   8   9
ENDBRANCH   6   8
ENDBRANCH   3   6
ENDBRANCH   2   3
TORSDOF 9
ENDMDL
MODEL      319
REMARK 921   NORMALIZED FREE ENERGY PREDICTED BY IDOCK:   -2.36 KCAL/MOL
REMARK 922        TOTAL FREE ENERGY PREDICTED BY IDOCK:   -4.11 KCAL/MOL
REMARK 923 INTER-LIGAND FREE ENERGY PREDICTED BY IDOCK:   -3.72 KCAL/MOL
REMARK 924 INTRA-LIGAND FREE ENERGY PREDICTED BY IDOCK:   -0.39 KCAL/MOL
REMARK 927      BINDING AFFINITY PREDICTED BY RF-SCORE:    0.00 PKD
ROOT
HETATM    1  C   UNL     1     -11.366  11.467  69.697  1.00  0.00    -0.347 C  
HETATM    2  C   UNL     1     -11.760  11.119  68.264  1.00  0.00    -0.252 C  
ENDROOT
BRANCH   2   3
HETATM    3  N   UNL     1     -10.868  11.723  67.250  1.00  0.00    -0.239 N  
BRANCH   3   4
HETATM    4  C   UNL     1     -11.470  12.262  66.007  1.00  0.00    -0.381 C  
HETATM    5  C   UNL     1     -10.658  12.196  64.716  1.00  0.00    -0.335 C  
ENDBRANCH   3   4
BRANCH   3   6
HETATM    6  C   UNL     1      -9.455  11.721  67.440  1.00  0.00    -0.173 C  
HETATM    7  S   UNL     1      -8.511  13.112  67.668  1.00  0.00    -0.209 S  
BRANCH   6   8
HETATM    8  S   UNL     1      -8.667  10.118  67.570  1.00  0.00    -0.124 SA 
BRANCH   8   9
HETATM    9  S   UNL     1      -9.839   8.895  66.381  1.00  0.00    -0.277 SA 
BRANCH   9  10
HETATM   10  C   UNL     1      -9.101   7.279  66.421  1.00  0.00    -0.158 C  
HETATM   11  S   UNL     1      -8.027   6.673  65.279  1.00  0.00    -0.126 S  
BRANCH  10  12
HETATM   12  N   UNL     1      -9.406   6.600  67.610  1.00  0.00    -0.119 N  
BRANCH  12  13
HETATM   13  C   UNL     1     -10.787   6.194  67.910  1.00  0.00    -0.319 C  
HETATM   14  C   UNL     1     -11.207   6.375  69.360  1.00  0.00    -0.459 C  
ENDBRANCH  12  13
BRANCH  12  15
HETATM   15  C   UNL     1      -8.377   6.432  68.648  1.00  0.00    -0.121 C  
HETATM   16  C   UNL     1      -7.779   5.037  68.710  1.00  0.00    -0.078 C  
ENDBRANCH  12  15
ENDBRANCH  10  12
ENDBRANCH   9  10
ENDBRANCH   8   9
ENDBRANCH   6   8
ENDBRANCH   3   6
ENDBRANCH   2   3
TORSDOF 9
ENDMDL
MODEL      320
REMARK 921   NORMALIZED FREE ENERGY PREDICTED BY IDOCK:   -2.36 KCAL/MOL
REMARK 922        TOTAL FREE ENERGY PREDICTED BY IDOCK:   -4.11 KCAL/MOL
REMARK 923 INTER-LIGAND FREE ENERGY PREDICTED BY IDOCK:   -3.38 KCAL/MOL
REMARK 924 INTRA-LIGAND FREE ENERGY PREDICTED BY IDOCK:   -0.73 KCAL/MOL
REMARK 927      BINDING AFFINITY PREDICTED BY RF-SCORE:    0.00 PKD
ROOT
HETATM    1  C   UNL     1     -10.854   8.799  72.097  1.00  0.00    -0.400 C  
HETATM    2  C   UNL     1     -11.524   8.621  70.737  1.00  0.00    -0.259 C  
ENDROOT
BRANCH   2   3
HETATM    3  N   UNL     1     -10.622   8.904  69.599  1.00  0.00    -0.226 N  
BRANCH   3   4
HETATM    4  C   UNL     1     -10.320  10.317  69.268  1.00  0.00    -0.231 C  
HETATM    5  C   UNL     1     -11.467  11.323  69.254  1.00  0.00    -0.369 C  
ENDBRANCH   3   4
BRANCH   3   6
HETATM    6  C   UNL     1     -10.112   7.838  68.801  1.00  0.00    -0.196 C  
HETATM    7  S   UNL     1     -10.527   7.563  67.180  1.00  0.00    -0.343 S  
BRANCH   6   8
HETATM    8  S   UNL     1      -8.852   6.810  69.552  1.00  0.00    -0.139 SA 
BRANCH   8   9
HETATM    9  S   UNL     1      -9.913   5.201  70.308  1.00  0.00    -0.270 SA 
BRANCH   9  10
HETATM   10  C   UNL     1      -9.872   5.345  72.078  1.00  0.00    -0.168 C  
HETATM   11  S   UNL     1     -11.190   5.137  73.101  1.00  0.00    -0.308 S  
BRANCH  10  12
HETATM   12  N   UNL     1      -8.563   5.515  72.553  1.00  0.00    -0.121 N  
BRANCH  12  13
HETATM   13  C   UNL     1      -7.512   4.540  72.224  1.00  0.00    -0.081 C  
HETATM   14  C   UNL     1      -7.813   3.109  72.643  1.00  0.00    -0.063 C  
ENDBRANCH  12  13
BRANCH  12  15
HETATM   15  C   UNL     1      -8.262   6.581  73.522  1.00  0.00    -0.118 C  
HETATM   16  C   UNL     1      -7.259   7.608  73.024  1.00  0.00    -0.092 C  
ENDBRANCH  12  15
ENDBRANCH  10  12
ENDBRANCH   9  10
ENDBRANCH   8   9
ENDBRANCH   6   8
ENDBRANCH   3   6
ENDBRANCH   2   3
TORSDOF 9
ENDMDL
MODEL      321
REMARK 921   NORMALIZED FREE ENERGY PREDICTED BY IDOCK:   -2.34 KCAL/MOL
REMARK 922        TOTAL FREE ENERGY PREDICTED BY IDOCK:   -4.08 KCAL/MOL
REMARK 923 INTER-LIGAND FREE ENERGY PREDICTED BY IDOCK:   -3.78 KCAL/MOL
REMARK 924 INTRA-LIGAND FREE ENERGY PREDICTED BY IDOCK:   -0.30 KCAL/MOL
REMARK 927      BINDING AFFINITY PREDICTED BY RF-SCORE:    0.00 PKD
ROOT
HETATM    1  C   UNL     1     -12.115  13.133  63.270  1.00  0.00    -0.460 C  
HETATM    2  C   UNL     1     -12.010  11.780  63.969  1.00  0.00    -0.281 C  
ENDROOT
BRANCH   2   3
HETATM    3  N   UNL     1     -10.799  11.648  64.808  1.00  0.00    -0.307 N  
BRANCH   3   4
HETATM    4  C   UNL     1      -9.632  10.917  64.260  1.00  0.00    -0.272 C  
HETATM    5  C   UNL     1      -9.640  10.536  62.781  1.00  0.00    -0.323 C  
ENDBRANCH   3   4
BRANCH   3   6
HETATM    6  C   UNL     1     -10.786  12.157  66.140  1.00  0.00    -0.282 C  
HETATM    7  S   UNL     1     -12.003  13.127  66.813  1.00  0.00    -0.338 S  
BRANCH   6   8
HETATM    8  S   UNL     1      -9.441  11.614  67.190  1.00  0.00    -0.179 SA 
BRANCH   8   9
HETATM    9  S   UNL     1     -10.354  10.337  68.539  1.00  0.00    -0.190 SA 
BRANCH   9  10
HETATM   10  C   UNL     1      -9.134   9.135  69.015  1.00  0.00    -0.143 C  
HETATM   11  S   UNL     1      -7.756   9.456  69.923  1.00  0.00    -0.132 S  
BRANCH  10  12
HETATM   12  N   UNL     1      -9.526   7.834  68.666  1.00  0.00    -0.151 N  
BRANCH  12  13
HETATM   13  C   UNL     1      -8.538   6.747  68.590  1.00  0.00    -0.122 C  
HETATM   14  C   UNL     1      -8.599   5.746  69.732  1.00  0.00    -0.127 C  
ENDBRANCH  12  13
BRANCH  12  15
HETATM   15  C   UNL     1     -10.901   7.575  68.212  1.00  0.00     0.008 C  
HETATM   16  C   UNL     1     -11.007   6.523  67.120  1.00  0.00    -0.480 C  
ENDBRANCH  12  15
ENDBRANCH  10  12
ENDBRANCH   9  10
ENDBRANCH   8   9
ENDBRANCH   6   8
ENDBRANCH   3   6
ENDBRANCH   2   3
TORSDOF 9
ENDMDL
MODEL      322
REMARK 921   NORMALIZED FREE ENERGY PREDICTED BY IDOCK:   -2.33 KCAL/MOL
REMARK 922        TOTAL FREE ENERGY PREDICTED BY IDOCK:   -4.08 KCAL/MOL
REMARK 923 INTER-LIGAND FREE ENERGY PREDICTED BY IDOCK:   -3.66 KCAL/MOL
REMARK 924 INTRA-LIGAND FREE ENERGY PREDICTED BY IDOCK:   -0.42 KCAL/MOL
REMARK 927      BINDING AFFINITY PREDICTED BY RF-SCORE:    0.00 PKD
ROOT
HETATM    1  C   UNL     1      -8.992  15.808  69.140  1.00  0.00    -0.256 C  
HETATM    2  C   UNL     1     -10.344  15.933  68.444  1.00  0.00    -0.240 C  
ENDROOT
BRANCH   2   3
HETATM    3  N   UNL     1     -11.135  14.683  68.472  1.00  0.00    -0.249 N  
BRANCH   3   4
HETATM    4  C   UNL     1     -11.848  14.323  69.721  1.00  0.00    -0.324 C  
HETATM    5  C   UNL     1     -12.617  15.414  70.461  1.00  0.00    -0.471 C  
ENDBRANCH   3   4
BRANCH   3   6
HETATM    6  C   UNL     1     -11.151  13.814  67.342  1.00  0.00    -0.296 C  
HETATM    7  S   UNL     1     -12.315  13.857  66.110  1.00  0.00    -0.438 S  
BRANCH   6   8
HETATM    8  S   UNL     1      -9.762  12.696  67.173  1.00  0.00    -0.216 SA 
BRANCH   8   9
HETATM    9  S   UNL     1     -10.221  11.141  68.458  1.00  0.00    -0.205 SA 
BRANCH   9  10
HETATM   10  C   UNL     1      -9.426   9.689  67.812  1.00  0.00    -0.127 C  
HETATM   11  S   UNL     1      -9.986   8.767  66.522  1.00  0.00    -0.272 S  
BRANCH  10  12
HETATM   12  N   UNL     1      -8.179   9.470  68.415  1.00  0.00    -0.112 N  
BRANCH  12  13
HETATM   13  C   UNL     1      -7.106   8.773  67.690  1.00  0.00    -0.079 C  
HETATM   14  C   UNL     1      -6.340   9.634  66.698  1.00  0.00    -0.066 C  
ENDBRANCH  12  13
BRANCH  12  15
HETATM   15  C   UNL     1      -7.982   9.788  69.838  1.00  0.00    -0.175 C  
HETATM   16  C   UNL     1      -6.561  10.190  70.194  1.00  0.00    -0.128 C  
ENDBRANCH  12  15
ENDBRANCH  10  12
ENDBRANCH   9  10
ENDBRANCH   8   9
ENDBRANCH   6   8
ENDBRANCH   3   6
ENDBRANCH   2   3
TORSDOF 9
ENDMDL
MODEL      323
REMARK 921   NORMALIZED FREE ENERGY PREDICTED BY IDOCK:   -2.33 KCAL/MOL
REMARK 922        TOTAL FREE ENERGY PREDICTED BY IDOCK:   -4.07 KCAL/MOL
REMARK 923 INTER-LIGAND FREE ENERGY PREDICTED BY IDOCK:   -3.54 KCAL/MOL
REMARK 924 INTRA-LIGAND FREE ENERGY PREDICTED BY IDOCK:   -0.53 KCAL/MOL
REMARK 927      BINDING AFFINITY PREDICTED BY RF-SCORE:    0.00 PKD
ROOT
HETATM    1  C   UNL     1     -11.531   6.066  72.005  1.00  0.00    -0.343 C  
HETATM    2  C   UNL     1     -11.810   6.762  70.676  1.00  0.00    -0.387 C  
ENDROOT
BRANCH   2   3
HETATM    3  N   UNL     1     -11.307   8.153  70.627  1.00  0.00    -0.267 N  
BRANCH   3   4
HETATM    4  C   UNL     1     -11.628   9.063  71.752  1.00  0.00    -0.374 C  
HETATM    5  C   UNL     1     -12.878   9.934  71.650  1.00  0.00    -0.537 C  
ENDBRANCH   3   4
BRANCH   3   6
HETATM    6  C   UNL     1     -10.587   8.619  69.488  1.00  0.00    -0.213 C  
HETATM    7  S   UNL     1      -9.695  10.060  69.435  1.00  0.00    -0.234 S  
BRANCH   6   8
HETATM    8  S   UNL     1     -10.535   7.524  68.072  1.00  0.00    -0.172 SA 
BRANCH   8   9
HETATM    9  S   UNL     1      -9.862   8.736  66.535  1.00  0.00    -0.289 SA 
BRANCH   9  10
HETATM   10  C   UNL     1      -8.316   8.055  65.983  1.00  0.00    -0.126 C  
HETATM   11  S   UNL     1      -8.142   6.644  65.085  1.00  0.00    -0.121 S  
BRANCH  10  12
HETATM   12  N   UNL     1      -7.243   8.915  66.261  1.00  0.00    -0.085 N  
BRANCH  12  13
HETATM   13  C   UNL     1      -7.052  10.150  65.487  1.00  0.00    -0.138 C  
HETATM   14  C   UNL     1      -6.047  10.044  64.350  1.00  0.00    -0.130 C  
ENDBRANCH  12  13
BRANCH  12  15
HETATM   15  C   UNL     1      -6.203   8.510  67.219  1.00  0.00    -0.056 C  
HETATM   16  C   UNL     1      -6.741   8.040  68.559  1.00  0.00    -0.066 C  
ENDBRANCH  12  15
ENDBRANCH  10  12
ENDBRANCH   9  10
ENDBRANCH   8   9
ENDBRANCH   6   8
ENDBRANCH   3   6
ENDBRANCH   2   3
TORSDOF 9
ENDMDL
MODEL      324
REMARK 921   NORMALIZED FREE ENERGY PREDICTED BY IDOCK:   -2.32 KCAL/MOL
REMARK 922        TOTAL FREE ENERGY PREDICTED BY IDOCK:   -4.05 KCAL/MOL
REMARK 923 INTER-LIGAND FREE ENERGY PREDICTED BY IDOCK:   -3.53 KCAL/MOL
REMARK 924 INTRA-LIGAND FREE ENERGY PREDICTED BY IDOCK:   -0.52 KCAL/MOL
REMARK 927      BINDING AFFINITY PREDICTED BY RF-SCORE:    0.00 PKD
ROOT
HETATM    1  C   UNL     1     -11.516  11.432  67.423  1.00  0.00    -0.328 C  
HETATM    2  C   UNL     1     -10.579  10.478  68.160  1.00  0.00    -0.204 C  
ENDROOT
BRANCH   2   3
HETATM    3  N   UNL     1      -9.583   9.835  67.275  1.00  0.00    -0.153 N  
BRANCH   3   4
HETATM    4  C   UNL     1     -10.004   8.666  66.466  1.00  0.00    -0.282 C  
HETATM    5  C   UNL     1     -10.589   7.455  67.187  1.00  0.00    -0.413 C  
ENDBRANCH   3   4
BRANCH   3   6
HETATM    6  C   UNL     1      -8.234  10.294  67.256  1.00  0.00    -0.121 C  
HETATM    7  S   UNL     1      -7.074   9.830  66.110  1.00  0.00    -0.103 S  
BRANCH   6   8
HETATM    8  S   UNL     1      -7.797  11.544  68.462  1.00  0.00    -0.139 SA 
BRANCH   8   9
HETATM    9  S   UNL     1      -8.210  13.327  67.496  1.00  0.00    -0.193 SA 
BRANCH   9  10
HETATM   10  C   UNL     1      -8.030  14.619  68.703  1.00  0.00    -0.141 C  
HETATM   11  S   UNL     1      -6.650  14.907  69.619  1.00  0.00    -0.171 S  
BRANCH  10  12
HETATM   12  N   UNL     1      -9.137  15.481  68.708  1.00  0.00    -0.193 N  
BRANCH  12  13
HETATM   13  C   UNL     1     -10.506  14.945  68.675  1.00  0.00    -0.242 C  
HETATM   14  C   UNL     1     -11.389  15.372  69.837  1.00  0.00    -0.318 C  
ENDBRANCH  12  13
BRANCH  12  15
HETATM   15  C   UNL     1      -8.942  16.933  68.581  1.00  0.00    -0.266 C  
HETATM   16  C   UNL     1      -9.624  17.548  67.371  1.00  0.00    -0.265 C  
ENDBRANCH  12  15
ENDBRANCH  10  12
ENDBRANCH   9  10
ENDBRANCH   8   9
ENDBRANCH   6   8
ENDBRANCH   3   6
ENDBRANCH   2   3
TORSDOF 9
ENDMDL
MODEL      325
REMARK 921   NORMALIZED FREE ENERGY PREDICTED BY IDOCK:   -2.32 KCAL/MOL
REMARK 922        TOTAL FREE ENERGY PREDICTED BY IDOCK:   -4.05 KCAL/MOL
REMARK 923 INTER-LIGAND FREE ENERGY PREDICTED BY IDOCK:   -3.55 KCAL/MOL
REMARK 924 INTRA-LIGAND FREE ENERGY PREDICTED BY IDOCK:   -0.51 KCAL/MOL
REMARK 927      BINDING AFFINITY PREDICTED BY RF-SCORE:    0.00 PKD
ROOT
HETATM    1  C   UNL     1      -9.592   8.983  65.977  1.00  0.00    -0.342 C  
HETATM    2  C   UNL     1     -10.248   7.918  66.853  1.00  0.00    -0.310 C  
ENDROOT
BRANCH   2   3
HETATM    3  N   UNL     1      -9.411   6.712  67.033  1.00  0.00    -0.136 N  
BRANCH   3   4
HETATM    4  C   UNL     1      -8.895   6.020  65.828  1.00  0.00    -0.135 C  
HETATM    5  C   UNL     1      -7.458   6.295  65.390  1.00  0.00    -0.083 C  
ENDBRANCH   3   4
BRANCH   3   6
HETATM    6  C   UNL     1      -9.165   6.194  68.339  1.00  0.00    -0.111 C  
HETATM    7  S   UNL     1      -7.629   6.031  69.038  1.00  0.00    -0.092 S  
BRANCH   6   8
HETATM    8  S   UNL     1     -10.606   5.816  69.333  1.00  0.00    -0.319 SA 
BRANCH   8   9
HETATM    9  S   UNL     1      -9.876   5.788  71.269  1.00  0.00    -0.184 SA 
BRANCH   9  10
HETATM   10  C   UNL     1      -9.837   7.474  71.828  1.00  0.00    -0.164 C  
HETATM   11  S   UNL     1      -8.444   8.354  72.164  1.00  0.00    -0.166 S  
BRANCH  10  12
HETATM   12  N   UNL     1     -11.115   8.051  71.823  1.00  0.00    -0.249 N  
BRANCH  12  13
HETATM   13  C   UNL     1     -11.296   9.475  71.501  1.00  0.00    -0.385 C  
HETATM   14  C   UNL     1     -11.142   9.822  70.028  1.00  0.00    -0.311 C  
ENDBRANCH  12  13
BRANCH  12  15
HETATM   15  C   UNL     1     -12.274   7.280  72.300  1.00  0.00    -0.155 C  
HETATM   16  C   UNL     1     -13.493   7.369  71.398  1.00  0.00    -0.405 C  
ENDBRANCH  12  15
ENDBRANCH  10  12
ENDBRANCH   9  10
ENDBRANCH   8   9
ENDBRANCH   6   8
ENDBRANCH   3   6
ENDBRANCH   2   3
TORSDOF 9
ENDMDL
MODEL      326
REMARK 921   NORMALIZED FREE ENERGY PREDICTED BY IDOCK:   -2.31 KCAL/MOL
REMARK 922        TOTAL FREE ENERGY PREDICTED BY IDOCK:   -4.04 KCAL/MOL
REMARK 923 INTER-LIGAND FREE ENERGY PREDICTED BY IDOCK:   -3.61 KCAL/MOL
REMARK 924 INTRA-LIGAND FREE ENERGY PREDICTED BY IDOCK:   -0.43 KCAL/MOL
REMARK 927      BINDING AFFINITY PREDICTED BY RF-SCORE:    0.00 PKD
ROOT
HETATM    1  C   UNL     1      -7.431   7.011  67.634  1.00  0.00    -0.098 C  
HETATM    2  C   UNL     1      -7.644   8.486  67.962  1.00  0.00    -0.098 C  
ENDROOT
BRANCH   2   3
HETATM    3  N   UNL     1      -9.068   8.889  67.946  1.00  0.00    -0.139 N  
BRANCH   3   4
HETATM    4  C   UNL     1      -9.863   8.634  66.721  1.00  0.00    -0.253 C  
HETATM    5  C   UNL     1      -9.478   9.367  65.438  1.00  0.00    -0.322 C  
ENDBRANCH   3   4
BRANCH   3   6
HETATM    6  C   UNL     1      -9.637   9.567  69.063  1.00  0.00    -0.166 C  
HETATM    7  S   UNL     1      -9.313   9.194  70.686  1.00  0.00    -0.271 S  
BRANCH   6   8
HETATM    8  S   UNL     1     -10.664  10.988  68.697  1.00  0.00    -0.215 SA 
BRANCH   8   9
HETATM    9  S   UNL     1      -9.329  12.382  67.951  1.00  0.00    -0.201 SA 
BRANCH   9  10
HETATM   10  C   UNL     1     -10.242  13.886  67.703  1.00  0.00    -0.242 C  
HETATM   11  S   UNL     1     -11.856  14.121  68.110  1.00  0.00    -0.336 S  
BRANCH  10  12
HETATM   12  N   UNL     1      -9.415  14.925  67.251  1.00  0.00    -0.209 N  
BRANCH  12  13
HETATM   13  C   UNL     1      -7.952  14.823  67.362  1.00  0.00    -0.197 C  
HETATM   14  C   UNL     1      -7.184  16.024  66.830  1.00  0.00    -0.212 C  
ENDBRANCH  12  13
BRANCH  12  15
HETATM   15  C   UNL     1     -10.004  16.199  66.811  1.00  0.00    -0.258 C  
HETATM   16  C   UNL     1     -10.648  16.145  65.436  1.00  0.00    -0.399 C  
ENDBRANCH  12  15
ENDBRANCH  10  12
ENDBRANCH   9  10
ENDBRANCH   8   9
ENDBRANCH   6   8
ENDBRANCH   3   6
ENDBRANCH   2   3
TORSDOF 9
ENDMDL
MODEL      327
REMARK 921   NORMALIZED FREE ENERGY PREDICTED BY IDOCK:   -2.31 KCAL/MOL
REMARK 922        TOTAL FREE ENERGY PREDICTED BY IDOCK:   -4.04 KCAL/MOL
REMARK 923 INTER-LIGAND FREE ENERGY PREDICTED BY IDOCK:   -3.48 KCAL/MOL
REMARK 924 INTRA-LIGAND FREE ENERGY PREDICTED BY IDOCK:   -0.56 KCAL/MOL
REMARK 927      BINDING AFFINITY PREDICTED BY RF-SCORE:    0.00 PKD
ROOT
HETATM    1  C   UNL     1      -6.461  11.370  69.304  1.00  0.00    -0.096 C  
HETATM    2  C   UNL     1      -7.737  10.536  69.222  1.00  0.00    -0.144 C  
ENDROOT
BRANCH   2   3
HETATM    3  N   UNL     1      -8.231  10.356  67.840  1.00  0.00    -0.106 N  
BRANCH   3   4
HETATM    4  C   UNL     1      -7.325   9.747  66.837  1.00  0.00    -0.091 C  
HETATM    5  C   UNL     1      -7.464  10.171  65.377  1.00  0.00    -0.144 C  
ENDBRANCH   3   4
BRANCH   3   6
HETATM    6  C   UNL     1      -9.527  10.822  67.471  1.00  0.00    -0.154 C  
HETATM    7  S   UNL     1     -10.884   9.828  67.257  1.00  0.00    -0.079 S  
BRANCH   6   8
HETATM    8  S   UNL     1      -9.735  12.597  67.357  1.00  0.00    -0.203 SA 
BRANCH   8   9
HETATM    9  S   UNL     1     -11.765  12.876  67.652  1.00  0.00    -0.359 SA 
BRANCH   9  10
HETATM   10  C   UNL     1     -11.937  13.925  69.076  1.00  0.00    -0.364 C  
HETATM   11  S   UNL     1     -11.808  15.601  69.069  1.00  0.00    -0.305 S  
BRANCH  10  12
HETATM   12  N   UNL     1     -12.343  13.200  70.207  1.00  0.00    -0.287 N  
BRANCH  12  13
HETATM   13  C   UNL     1     -13.177  13.828  71.242  1.00  0.00    -0.261 C  
HETATM   14  C   UNL     1     -12.415  14.349  72.450  1.00  0.00    -0.311 C  
ENDBRANCH  12  13
BRANCH  12  15
HETATM   15  C   UNL     1     -11.803  11.854  70.453  1.00  0.00    -0.239 C  
HETATM   16  C   UNL     1     -12.860  10.768  70.552  1.00  0.00    -0.335 C  
ENDBRANCH  12  15
ENDBRANCH  10  12
ENDBRANCH   9  10
ENDBRANCH   8   9
ENDBRANCH   6   8
ENDBRANCH   3   6
ENDBRANCH   2   3
TORSDOF 9
ENDMDL
MODEL      328
REMARK 921   NORMALIZED FREE ENERGY PREDICTED BY IDOCK:   -2.30 KCAL/MOL
REMARK 922        TOTAL FREE ENERGY PREDICTED BY IDOCK:   -4.03 KCAL/MOL
REMARK 923 INTER-LIGAND FREE ENERGY PREDICTED BY IDOCK:   -3.64 KCAL/MOL
REMARK 924 INTRA-LIGAND FREE ENERGY PREDICTED BY IDOCK:   -0.38 KCAL/MOL
REMARK 927      BINDING AFFINITY PREDICTED BY RF-SCORE:    0.00 PKD
ROOT
HETATM    1  C   UNL     1      -6.314  11.184  66.497  1.00  0.00    -0.132 C  
HETATM    2  C   UNL     1      -6.440  12.428  67.372  1.00  0.00    -0.154 C  
ENDROOT
BRANCH   2   3
HETATM    3  N   UNL     1      -7.812  12.977  67.416  1.00  0.00    -0.173 N  
BRANCH   3   4
HETATM    4  C   UNL     1      -7.987  14.449  67.456  1.00  0.00    -0.192 C  
HETATM    5  C   UNL     1      -7.555  15.199  68.713  1.00  0.00    -0.136 C  
ENDBRANCH   3   4
BRANCH   3   6
HETATM    6  C   UNL     1      -8.937  12.103  67.484  1.00  0.00    -0.177 C  
HETATM    7  S   UNL     1     -10.091  11.919  66.255  1.00  0.00    -0.228 S  
BRANCH   6   8
HETATM    8  S   UNL     1      -9.041  11.047  68.926  1.00  0.00    -0.070 SA 
BRANCH   8   9
HETATM    9  S   UNL     1     -10.823  10.027  68.663  1.00  0.00    -0.212 SA 
BRANCH   9  10
HETATM   10  C   UNL     1     -10.597   8.409  69.362  1.00  0.00    -0.197 C  
HETATM   11  S   UNL     1      -9.457   7.282  68.854  1.00  0.00    -0.143 S  
BRANCH  10  12
HETATM   12  N   UNL     1     -11.393   8.221  70.501  1.00  0.00    -0.253 N  
BRANCH  12  13
HETATM   13  C   UNL     1     -11.998   6.912  70.788  1.00  0.00    -0.373 C  
HETATM   14  C   UNL     1     -11.499   6.240  72.058  1.00  0.00    -0.359 C  
ENDBRANCH  12  13
BRANCH  12  15
HETATM   15  C   UNL     1     -11.768   9.372  71.337  1.00  0.00    -0.378 C  
HETATM   16  C   UNL     1     -13.264   9.526  71.548  1.00  0.00    -0.468 C  
ENDBRANCH  12  15
ENDBRANCH  10  12
ENDBRANCH   9  10
ENDBRANCH   8   9
ENDBRANCH   6   8
ENDBRANCH   3   6
ENDBRANCH   2   3
TORSDOF 9
ENDMDL
MODEL      329
REMARK 921   NORMALIZED FREE ENERGY PREDICTED BY IDOCK:   -2.30 KCAL/MOL
REMARK 922        TOTAL FREE ENERGY PREDICTED BY IDOCK:   -4.02 KCAL/MOL
REMARK 923 INTER-LIGAND FREE ENERGY PREDICTED BY IDOCK:   -3.51 KCAL/MOL
REMARK 924 INTRA-LIGAND FREE ENERGY PREDICTED BY IDOCK:   -0.52 KCAL/MOL
REMARK 927      BINDING AFFINITY PREDICTED BY RF-SCORE:    0.00 PKD
ROOT
HETATM    1  C   UNL     1     -12.871   9.577  71.353  1.00  0.00    -0.443 C  
HETATM    2  C   UNL     1     -11.952  10.250  70.336  1.00  0.00    -0.303 C  
ENDROOT
BRANCH   2   3
HETATM    3  N   UNL     1     -10.568   9.731  70.365  1.00  0.00    -0.285 N  
BRANCH   3   4
HETATM    4  C   UNL     1     -10.096   9.036  71.586  1.00  0.00    -0.335 C  
HETATM    5  C   UNL     1      -9.751   7.551  71.492  1.00  0.00    -0.184 C  
ENDBRANCH   3   4
BRANCH   3   6
HETATM    6  C   UNL     1      -9.690   9.956  69.264  1.00  0.00    -0.208 C  
HETATM    7  S   UNL     1      -8.030  10.273  69.403  1.00  0.00    -0.157 S  
BRANCH   6   8
HETATM    8  S   UNL     1     -10.393   9.760  67.628  1.00  0.00    -0.246 SA 
BRANCH   8   9
HETATM    9  S   UNL     1     -10.586   7.710  67.417  1.00  0.00    -0.262 SA 
BRANCH   9  10
HETATM   10  C   UNL     1      -9.227   7.168  66.408  1.00  0.00    -0.157 C  
HETATM   11  S   UNL     1      -8.148   8.178  65.607  1.00  0.00    -0.126 S  
BRANCH  10  12
HETATM   12  N   UNL     1      -9.061   5.776  66.468  1.00  0.00    -0.136 N  
BRANCH  12  13
HETATM   13  C   UNL     1      -8.200   5.080  65.501  1.00  0.00    -0.118 C  
HETATM   14  C   UNL     1      -8.873   4.728  64.183  1.00  0.00    -0.122 C  
ENDBRANCH  12  13
BRANCH  12  15
HETATM   15  C   UNL     1      -9.875   4.976  67.396  1.00  0.00    -0.176 C  
HETATM   16  C   UNL     1      -9.409   3.538  67.551  1.00  0.00    -0.249 C  
ENDBRANCH  12  15
ENDBRANCH  10  12
ENDBRANCH   9  10
ENDBRANCH   8   9
ENDBRANCH   6   8
ENDBRANCH   3   6
ENDBRANCH   2   3
TORSDOF 9
ENDMDL
MODEL      330
REMARK 921   NORMALIZED FREE ENERGY PREDICTED BY IDOCK:   -2.30 KCAL/MOL
REMARK 922        TOTAL FREE ENERGY PREDICTED BY IDOCK:   -4.02 KCAL/MOL
REMARK 923 INTER-LIGAND FREE ENERGY PREDICTED BY IDOCK:   -3.30 KCAL/MOL
REMARK 924 INTRA-LIGAND FREE ENERGY PREDICTED BY IDOCK:   -0.72 KCAL/MOL
REMARK 927      BINDING AFFINITY PREDICTED BY RF-SCORE:    0.00 PKD
ROOT
HETATM    1  C   UNL     1     -12.029  10.027  70.901  1.00  0.00    -0.453 C  
HETATM    2  C   UNL     1     -12.047   8.941  71.973  1.00  0.00    -0.371 C  
ENDROOT
BRANCH   2   3
HETATM    3  N   UNL     1     -10.881   8.033  71.905  1.00  0.00    -0.242 N  
BRANCH   3   4
HETATM    4  C   UNL     1      -9.528   8.599  72.118  1.00  0.00    -0.303 C  
HETATM    5  C   UNL     1      -8.732   8.145  73.339  1.00  0.00    -0.318 C  
ENDBRANCH   3   4
BRANCH   3   6
HETATM    6  C   UNL     1     -11.058   6.657  71.576  1.00  0.00    -0.256 C  
HETATM    7  S   UNL     1     -11.222   5.407  72.711  1.00  0.00    -0.286 S  
BRANCH   6   8
HETATM    8  S   UNL     1     -11.241   6.268  69.838  1.00  0.00    -0.428 SA 
BRANCH   8   9
HETATM    9  S   UNL     1      -9.300   5.944  69.197  1.00  0.00    -0.121 SA 
BRANCH   9  10
HETATM   10  C   UNL     1      -8.668   7.515  68.657  1.00  0.00    -0.128 C  
HETATM   11  S   UNL     1      -9.600   8.794  68.089  1.00  0.00    -0.149 S  
BRANCH  10  12
HETATM   12  N   UNL     1      -7.290   7.628  68.895  1.00  0.00    -0.088 N  
BRANCH  12  13
HETATM   13  C   UNL     1      -6.374   8.036  67.820  1.00  0.00    -0.052 C  
HETATM   14  C   UNL     1      -5.759   9.417  67.993  1.00  0.00    -0.037 C  
ENDBRANCH  12  13
BRANCH  12  15
HETATM   15  C   UNL     1      -6.725   7.182  70.178  1.00  0.00    -0.051 C  
HETATM   16  C   UNL     1      -5.534   6.247  70.040  1.00  0.00    -0.014 C  
ENDBRANCH  12  15
ENDBRANCH  10  12
ENDBRANCH   9  10
ENDBRANCH   8   9
ENDBRANCH   6   8
ENDBRANCH   3   6
ENDBRANCH   2   3
TORSDOF 9
ENDMDL
MODEL      331
REMARK 921   NORMALIZED FREE ENERGY PREDICTED BY IDOCK:   -2.28 KCAL/MOL
REMARK 922        TOTAL FREE ENERGY PREDICTED BY IDOCK:   -3.99 KCAL/MOL
REMARK 923 INTER-LIGAND FREE ENERGY PREDICTED BY IDOCK:   -3.37 KCAL/MOL
REMARK 924 INTRA-LIGAND FREE ENERGY PREDICTED BY IDOCK:   -0.62 KCAL/MOL
REMARK 927      BINDING AFFINITY PREDICTED BY RF-SCORE:    0.00 PKD
ROOT
HETATM    1  C   UNL     1     -11.896  14.991  68.968  1.00  0.00    -0.330 C  
HETATM    2  C   UNL     1     -10.418  14.618  69.058  1.00  0.00    -0.246 C  
ENDROOT
BRANCH   2   3
HETATM    3  N   UNL     1      -9.689  14.803  67.785  1.00  0.00    -0.212 N  
BRANCH   3   4
HETATM    4  C   UNL     1     -10.471  14.957  66.535  1.00  0.00    -0.297 C  
HETATM    5  C   UNL     1     -10.315  13.901  65.444  1.00  0.00    -0.364 C  
ENDBRANCH   3   4
BRANCH   3   6
HETATM    6  C   UNL     1      -8.264  14.767  67.759  1.00  0.00    -0.159 C  
HETATM    7  S   UNL     1      -7.277  16.027  67.198  1.00  0.00    -0.216 S  
BRANCH   6   8
HETATM    8  S   UNL     1      -7.488  13.330  68.493  1.00  0.00    -0.102 SA 
BRANCH   8   9
HETATM    9  S   UNL     1      -7.567  11.906  66.992  1.00  0.00    -0.099 SA 
BRANCH   9  10
HETATM   10  C   UNL     1      -7.921  10.352  67.777  1.00  0.00    -0.102 C  
HETATM   11  S   UNL     1      -7.007   8.950  67.614  1.00  0.00    -0.075 S  
BRANCH  10  12
HETATM   12  N   UNL     1      -8.989  10.460  68.680  1.00  0.00    -0.139 N  
BRANCH  12  13
HETATM   13  C   UNL     1      -8.912   9.841  70.012  1.00  0.00    -0.222 C  
HETATM   14  C   UNL     1     -10.254   9.471  70.624  1.00  0.00    -0.364 C  
ENDBRANCH  12  13
BRANCH  12  15
HETATM   15  C   UNL     1     -10.264  11.052  68.246  1.00  0.00    -0.176 C  
HETATM   16  C   UNL     1     -10.875  10.387  67.025  1.00  0.00    -0.269 C  
ENDBRANCH  12  15
ENDBRANCH  10  12
ENDBRANCH   9  10
ENDBRANCH   8   9
ENDBRANCH   6   8
ENDBRANCH   3   6
ENDBRANCH   2   3
TORSDOF 9
ENDMDL
MODEL      332
REMARK 921   NORMALIZED FREE ENERGY PREDICTED BY IDOCK:   -2.27 KCAL/MOL
REMARK 922        TOTAL FREE ENERGY PREDICTED BY IDOCK:   -3.99 KCAL/MOL
REMARK 923 INTER-LIGAND FREE ENERGY PREDICTED BY IDOCK:   -3.40 KCAL/MOL
REMARK 924 INTRA-LIGAND FREE ENERGY PREDICTED BY IDOCK:   -0.58 KCAL/MOL
REMARK 927      BINDING AFFINITY PREDICTED BY RF-SCORE:    0.00 PKD
ROOT
HETATM    1  C   UNL     1     -10.937  10.856  69.517  1.00  0.00    -0.306 C  
HETATM    2  C   UNL     1     -11.782  11.176  68.288  1.00  0.00    -0.252 C  
ENDROOT
BRANCH   2   3
HETATM    3  N   UNL     1     -11.107  12.083  67.333  1.00  0.00    -0.263 N  
BRANCH   3   4
HETATM    4  C   UNL     1     -11.803  13.326  66.923  1.00  0.00    -0.392 C  
HETATM    5  C   UNL     1     -12.082  13.548  65.439  1.00  0.00    -0.447 C  
ENDBRANCH   3   4
BRANCH   3   6
HETATM    6  C   UNL     1      -9.844  11.729  66.774  1.00  0.00    -0.198 C  
HETATM    7  S   UNL     1      -8.361  12.411  67.234  1.00  0.00    -0.185 S  
BRANCH   6   8
HETATM    8  S   UNL     1      -9.842  10.380  65.596  1.00  0.00    -0.277 SA 
BRANCH   8   9
HETATM    9  S   UNL     1      -8.296   9.165  66.242  1.00  0.00    -0.121 SA 
BRANCH   9  10
HETATM   10  C   UNL     1      -8.484   7.607  65.407  1.00  0.00    -0.098 C  
HETATM   11  S   UNL     1      -7.840   7.228  63.901  1.00  0.00    -0.079 S  
BRANCH  10  12
HETATM   12  N   UNL     1      -9.122   6.658  66.220  1.00  0.00    -0.156 N  
BRANCH  12  13
HETATM   13  C   UNL     1      -8.450   5.399  66.574  1.00  0.00    -0.113 C  
HETATM   14  C   UNL     1      -7.228   5.554  67.466  1.00  0.00    -0.075 C  
ENDBRANCH  12  13
BRANCH  12  15
HETATM   15  C   UNL     1     -10.534   6.837  66.594  1.00  0.00    -0.143 C  
HETATM   16  C   UNL     1     -10.799   6.740  68.086  1.00  0.00    -0.296 C  
ENDBRANCH  12  15
ENDBRANCH  10  12
ENDBRANCH   9  10
ENDBRANCH   8   9
ENDBRANCH   6   8
ENDBRANCH   3   6
ENDBRANCH   2   3
TORSDOF 9
ENDMDL
MODEL      333
REMARK 921   NORMALIZED FREE ENERGY PREDICTED BY IDOCK:   -2.27 KCAL/MOL
REMARK 922        TOTAL FREE ENERGY PREDICTED BY IDOCK:   -3.98 KCAL/MOL
REMARK 923 INTER-LIGAND FREE ENERGY PREDICTED BY IDOCK:   -3.88 KCAL/MOL
REMARK 924 INTRA-LIGAND FREE ENERGY PREDICTED BY IDOCK:   -0.10 KCAL/MOL
REMARK 927      BINDING AFFINITY PREDICTED BY RF-SCORE:    0.00 PKD
ROOT
HETATM    1  C   UNL     1      -8.358  15.769  69.685  1.00  0.00    -0.013 C  
HETATM    2  C   UNL     1      -7.957  14.493  68.949  1.00  0.00    -0.126 C  
ENDROOT
BRANCH   2   3
HETATM    3  N   UNL     1      -8.343  14.496  67.521  1.00  0.00    -0.175 N  
BRANCH   3   4
HETATM    4  C   UNL     1      -8.695  13.207  66.879  1.00  0.00    -0.148 C  
HETATM    5  C   UNL     1      -9.623  12.252  67.625  1.00  0.00    -0.191 C  
ENDBRANCH   3   4
BRANCH   3   6
HETATM    6  C   UNL     1      -8.310  15.706  66.767  1.00  0.00    -0.278 C  
HETATM    7  S   UNL     1      -9.622  16.337  65.898  1.00  0.00    -0.246 S  
BRANCH   6   8
HETATM    8  S   UNL     1      -6.803  16.669  66.868  1.00  0.00    -0.214 SA 
BRANCH   8   9
HETATM    9  S   UNL     1      -7.157  18.272  65.607  1.00  0.00    -0.050 SA 
BRANCH   9  10
HETATM   10  C   UNL     1      -7.166  19.731  66.621  1.00  0.00    -0.233 C  
HETATM   11  S   UNL     1      -6.063  20.995  66.515  1.00  0.00    -0.294 S  
BRANCH  10  12
HETATM   12  N   UNL     1      -8.302  19.783  67.443  1.00  0.00    -0.299 N  
BRANCH  12  13
HETATM   13  C   UNL     1      -9.578  20.305  66.929  1.00  0.00    -0.427 C  
HETATM   14  C   UNL     1     -10.805  19.500  67.328  1.00  0.00    -0.557 C  
ENDBRANCH  12  13
BRANCH  12  15
HETATM   15  C   UNL     1      -8.191  19.471  68.876  1.00  0.00    -0.274 C  
HETATM   16  C   UNL     1      -6.762  19.394  69.386  1.00  0.00    -0.354 C  
ENDBRANCH  12  15
ENDBRANCH  10  12
ENDBRANCH   9  10
ENDBRANCH   8   9
ENDBRANCH   6   8
ENDBRANCH   3   6
ENDBRANCH   2   3
TORSDOF 9
ENDMDL
MODEL      334
REMARK 921   NORMALIZED FREE ENERGY PREDICTED BY IDOCK:   -2.26 KCAL/MOL
REMARK 922        TOTAL FREE ENERGY PREDICTED BY IDOCK:   -3.96 KCAL/MOL
REMARK 923 INTER-LIGAND FREE ENERGY PREDICTED BY IDOCK:   -3.54 KCAL/MOL
REMARK 924 INTRA-LIGAND FREE ENERGY PREDICTED BY IDOCK:   -0.43 KCAL/MOL
REMARK 927      BINDING AFFINITY PREDICTED BY RF-SCORE:    0.00 PKD
ROOT
HETATM    1  C   UNL     1     -13.150  11.447  71.753  1.00  0.00    -0.523 C  
HETATM    2  C   UNL     1     -13.083  10.467  70.585  1.00  0.00    -0.224 C  
ENDROOT
BRANCH   2   3
HETATM    3  N   UNL     1     -11.700  10.133  70.180  1.00  0.00    -0.265 N  
BRANCH   3   4
HETATM    4  C   UNL     1     -10.838   9.400  71.137  1.00  0.00    -0.357 C  
HETATM    5  C   UNL     1     -11.173   7.944  71.452  1.00  0.00    -0.280 C  
ENDBRANCH   3   4
BRANCH   3   6
HETATM    6  C   UNL     1     -11.193  10.569  68.921  1.00  0.00    -0.266 C  
HETATM    7  S   UNL     1     -10.962  12.191  68.484  1.00  0.00    -0.254 S  
BRANCH   6   8
HETATM    8  S   UNL     1     -10.653   9.290  67.790  1.00  0.00    -0.212 SA 
BRANCH   8   9
HETATM    9  S   UNL     1     -10.231  10.319  66.045  1.00  0.00    -0.194 SA 
BRANCH   9  10
HETATM   10  C   UNL     1      -8.536   9.969  65.639  1.00  0.00    -0.155 C  
HETATM   11  S   UNL     1      -7.196  10.631  66.408  1.00  0.00    -0.139 S  
BRANCH  10  12
HETATM   12  N   UNL     1      -8.434   8.950  64.680  1.00  0.00    -0.174 N  
BRANCH  12  13
HETATM   13  C   UNL     1      -8.806   9.196  63.279  1.00  0.00    -0.072 C  
HETATM   14  C   UNL     1      -8.611  10.629  62.808  1.00  0.00    -0.231 C  
ENDBRANCH  12  13
BRANCH  12  15
HETATM   15  C   UNL     1      -8.110   7.576  65.096  1.00  0.00    -0.130 C  
HETATM   16  C   UNL     1      -7.067   6.894  64.228  1.00  0.00    -0.058 C  
ENDBRANCH  12  15
ENDBRANCH  10  12
ENDBRANCH   9  10
ENDBRANCH   8   9
ENDBRANCH   6   8
ENDBRANCH   3   6
ENDBRANCH   2   3
TORSDOF 9
ENDMDL
MODEL      335
REMARK 921   NORMALIZED FREE ENERGY PREDICTED BY IDOCK:   -2.26 KCAL/MOL
REMARK 922        TOTAL FREE ENERGY PREDICTED BY IDOCK:   -3.96 KCAL/MOL
REMARK 923 INTER-LIGAND FREE ENERGY PREDICTED BY IDOCK:   -3.50 KCAL/MOL
REMARK 924 INTRA-LIGAND FREE ENERGY PREDICTED BY IDOCK:   -0.46 KCAL/MOL
REMARK 927      BINDING AFFINITY PREDICTED BY RF-SCORE:    0.00 PKD
ROOT
HETATM    1  C   UNL     1     -11.547  16.064  64.275  1.00  0.00    -0.139 C  
HETATM    2  C   UNL     1     -11.391  14.740  65.018  1.00  0.00    -0.391 C  
ENDROOT
BRANCH   2   3
HETATM    3  N   UNL     1     -10.834  14.894  66.379  1.00  0.00    -0.320 N  
BRANCH   3   4
HETATM    4  C   UNL     1     -10.446  16.250  66.837  1.00  0.00    -0.302 C  
HETATM    5  C   UNL     1      -8.961  16.595  66.917  1.00  0.00    -0.244 C  
ENDBRANCH   3   4
BRANCH   3   6
HETATM    6  C   UNL     1     -10.614  13.751  67.202  1.00  0.00    -0.277 C  
HETATM    7  S   UNL     1     -11.755  13.101  68.275  1.00  0.00    -0.354 S  
BRANCH   6   8
HETATM    8  S   UNL     1      -9.062  12.887  66.972  1.00  0.00    -0.229 SA 
BRANCH   8   9
HETATM    9  S   UNL     1      -9.293  11.154  68.080  1.00  0.00    -0.172 SA 
BRANCH   9  10
HETATM   10  C   UNL     1      -9.151   9.795  66.943  1.00  0.00    -0.142 C  
HETATM   11  S   UNL     1     -10.224   8.506  66.831  1.00  0.00    -0.299 S  
BRANCH  10  12
HETATM   12  N   UNL     1      -8.103   9.991  66.032  1.00  0.00    -0.120 N  
BRANCH  12  13
HETATM   13  C   UNL     1      -8.379  10.193  64.601  1.00  0.00    -0.166 C  
HETATM   14  C   UNL     1      -7.725   9.181  63.674  1.00  0.00    -0.118 C  
ENDBRANCH  12  13
BRANCH  12  15
HETATM   15  C   UNL     1      -6.707   9.831  66.468  1.00  0.00    -0.079 C  
HETATM   16  C   UNL     1      -5.856  11.078  66.297  1.00  0.00    -0.148 C  
ENDBRANCH  12  15
ENDBRANCH  10  12
ENDBRANCH   9  10
ENDBRANCH   8   9
ENDBRANCH   6   8
ENDBRANCH   3   6
ENDBRANCH   2   3
TORSDOF 9
ENDMDL
MODEL      336
REMARK 921   NORMALIZED FREE ENERGY PREDICTED BY IDOCK:   -2.25 KCAL/MOL
REMARK 922        TOTAL FREE ENERGY PREDICTED BY IDOCK:   -3.96 KCAL/MOL
REMARK 923 INTER-LIGAND FREE ENERGY PREDICTED BY IDOCK:   -3.48 KCAL/MOL
REMARK 924 INTRA-LIGAND FREE ENERGY PREDICTED BY IDOCK:   -0.48 KCAL/MOL
REMARK 927      BINDING AFFINITY PREDICTED BY RF-SCORE:    0.00 PKD
ROOT
HETATM    1  C   UNL     1     -12.599  10.682  71.134  1.00  0.00    -0.526 C  
HETATM    2  C   UNL     1     -12.088   9.249  71.011  1.00  0.00    -0.280 C  
ENDROOT
BRANCH   2   3
HETATM    3  N   UNL     1     -10.642   9.167  70.711  1.00  0.00    -0.237 N  
BRANCH   3   4
HETATM    4  C   UNL     1      -9.704   8.869  71.820  1.00  0.00    -0.295 C  
HETATM    5  C   UNL     1     -10.181   7.966  72.955  1.00  0.00    -0.397 C  
ENDBRANCH   3   4
BRANCH   3   6
HETATM    6  C   UNL     1     -10.162   9.435  69.396  1.00  0.00    -0.207 C  
HETATM    7  S   UNL     1      -9.309  10.830  68.947  1.00  0.00    -0.150 S  
BRANCH   6   8
HETATM    8  S   UNL     1     -10.378   8.133  68.185  1.00  0.00    -0.177 SA 
BRANCH   8   9
HETATM    9  S   UNL     1      -8.594   7.087  68.261  1.00  0.00    -0.128 SA 
BRANCH   9  10
HETATM   10  C   UNL     1      -8.974   5.467  68.884  1.00  0.00    -0.114 C  
HETATM   11  S   UNL     1      -9.824   5.145  70.299  1.00  0.00    -0.245 S  
BRANCH  10  12
HETATM   12  N   UNL     1      -8.606   4.464  67.976  1.00  0.00    -0.101 N  
BRANCH  12  13
HETATM   13  C   UNL     1      -7.191   4.114  67.776  1.00  0.00    -0.064 C  
HETATM   14  C   UNL     1      -6.371   4.011  69.053  1.00  0.00    -0.032 C  
ENDBRANCH  12  13
BRANCH  12  15
HETATM   15  C   UNL     1      -9.616   3.862  67.092  1.00  0.00    -0.189 C  
HETATM   16  C   UNL     1     -10.384   4.867  66.251  1.00  0.00    -0.336 C  
ENDBRANCH  12  15
ENDBRANCH  10  12
ENDBRANCH   9  10
ENDBRANCH   8   9
ENDBRANCH   6   8
ENDBRANCH   3   6
ENDBRANCH   2   3
TORSDOF 9
ENDMDL
MODEL      337
REMARK 921   NORMALIZED FREE ENERGY PREDICTED BY IDOCK:   -2.25 KCAL/MOL
REMARK 922        TOTAL FREE ENERGY PREDICTED BY IDOCK:   -3.95 KCAL/MOL
REMARK 923 INTER-LIGAND FREE ENERGY PREDICTED BY IDOCK:   -3.27 KCAL/MOL
REMARK 924 INTRA-LIGAND FREE ENERGY PREDICTED BY IDOCK:   -0.68 KCAL/MOL
REMARK 927      BINDING AFFINITY PREDICTED BY RF-SCORE:    0.00 PKD
ROOT
HETATM    1  C   UNL     1      -8.679   8.046  73.574  1.00  0.00    -0.330 C  
HETATM    2  C   UNL     1      -9.177   7.084  72.499  1.00  0.00    -0.138 C  
ENDROOT
BRANCH   2   3
HETATM    3  N   UNL     1     -10.420   7.538  71.838  1.00  0.00    -0.200 N  
BRANCH   3   4
HETATM    4  C   UNL     1     -11.618   7.785  72.675  1.00  0.00    -0.344 C  
HETATM    5  C   UNL     1     -12.608   8.859  72.231  1.00  0.00    -0.455 C  
ENDBRANCH   3   4
BRANCH   3   6
HETATM    6  C   UNL     1     -10.476   7.668  70.420  1.00  0.00    -0.220 C  
HETATM    7  S   UNL     1      -9.804   8.954  69.542  1.00  0.00    -0.185 S  
BRANCH   6   8
HETATM    8  S   UNL     1     -11.202   6.301  69.519  1.00  0.00    -0.394 SA 
BRANCH   8   9
HETATM    9  S   UNL     1      -9.695   4.883  69.477  1.00  0.00    -0.212 SA 
BRANCH   9  10
HETATM   10  C   UNL     1      -8.348   5.591  68.559  1.00  0.00    -0.101 C  
HETATM   11  S   UNL     1      -6.968   6.276  69.231  1.00  0.00    -0.066 S  
BRANCH  10  12
HETATM   12  N   UNL     1      -8.498   5.385  67.179  1.00  0.00    -0.107 N  
BRANCH  12  13
HETATM   13  C   UNL     1      -7.827   4.260  66.511  1.00  0.00    -0.098 C  
HETATM   14  C   UNL     1      -8.750   3.339  65.727  1.00  0.00    -0.125 C  
ENDBRANCH  12  13
BRANCH  12  15
HETATM   15  C   UNL     1      -9.194   6.386  66.356  1.00  0.00    -0.155 C  
HETATM   16  C   UNL     1      -8.320   7.551  65.922  1.00  0.00    -0.140 C  
ENDBRANCH  12  15
ENDBRANCH  10  12
ENDBRANCH   9  10
ENDBRANCH   8   9
ENDBRANCH   6   8
ENDBRANCH   3   6
ENDBRANCH   2   3
TORSDOF 9
ENDMDL
MODEL      338
REMARK 921   NORMALIZED FREE ENERGY PREDICTED BY IDOCK:   -2.25 KCAL/MOL
REMARK 922        TOTAL FREE ENERGY PREDICTED BY IDOCK:   -3.94 KCAL/MOL
REMARK 923 INTER-LIGAND FREE ENERGY PREDICTED BY IDOCK:   -3.63 KCAL/MOL
REMARK 924 INTRA-LIGAND FREE ENERGY PREDICTED BY IDOCK:   -0.31 KCAL/MOL
REMARK 927      BINDING AFFINITY PREDICTED BY RF-SCORE:    0.00 PKD
ROOT
HETATM    1  C   UNL     1      -5.809  12.298  67.984  1.00  0.00    -0.064 C  
HETATM    2  C   UNL     1      -7.245  11.815  68.164  1.00  0.00    -0.086 C  
ENDROOT
BRANCH   2   3
HETATM    3  N   UNL     1      -7.547  10.579  67.409  1.00  0.00    -0.094 N  
BRANCH   3   4
HETATM    4  C   UNL     1      -6.988  10.428  66.045  1.00  0.00    -0.129 C  
HETATM    5  C   UNL     1      -5.814   9.474  65.840  1.00  0.00    -0.054 C  
ENDBRANCH   3   4
BRANCH   3   6
HETATM    6  C   UNL     1      -8.411   9.589  67.962  1.00  0.00    -0.119 C  
HETATM    7  S   UNL     1      -9.166   8.361  67.070  1.00  0.00    -0.159 S  
BRANCH   6   8
HETATM    8  S   UNL     1      -8.593   9.592  69.744  1.00  0.00    -0.214 SA 
BRANCH   8   9
HETATM    9  S   UNL     1     -10.599   9.177  70.037  1.00  0.00    -0.236 SA 
BRANCH   9  10
HETATM   10  C   UNL     1     -11.489  10.676  69.691  1.00  0.00    -0.291 C  
HETATM   11  S   UNL     1     -11.648  11.384  68.175  1.00  0.00    -0.271 S  
BRANCH  10  12
HETATM   12  N   UNL     1     -12.180  11.140  70.821  1.00  0.00    -0.372 N  
BRANCH  12  13
HETATM   13  C   UNL     1     -12.691  10.198  71.827  1.00  0.00    -0.434 C  
HETATM   14  C   UNL     1     -13.889   9.372  71.381  1.00  0.00    -0.253 C  
ENDBRANCH  12  13
BRANCH  12  15
HETATM   15  C   UNL     1     -12.545  12.561  70.930  1.00  0.00    -0.241 C  
HETATM   16  C   UNL     1     -13.301  12.912  72.200  1.00  0.00    -0.615 C  
ENDBRANCH  12  15
ENDBRANCH  10  12
ENDBRANCH   9  10
ENDBRANCH   8   9
ENDBRANCH   6   8
ENDBRANCH   3   6
ENDBRANCH   2   3
TORSDOF 9
ENDMDL
MODEL      339
REMARK 921   NORMALIZED FREE ENERGY PREDICTED BY IDOCK:   -2.22 KCAL/MOL
REMARK 922        TOTAL FREE ENERGY PREDICTED BY IDOCK:   -3.90 KCAL/MOL
REMARK 923 INTER-LIGAND FREE ENERGY PREDICTED BY IDOCK:   -3.46 KCAL/MOL
REMARK 924 INTRA-LIGAND FREE ENERGY PREDICTED BY IDOCK:   -0.44 KCAL/MOL
REMARK 927      BINDING AFFINITY PREDICTED BY RF-SCORE:    0.00 PKD
ROOT
HETATM    1  C   UNL     1     -11.535  15.808  64.236  1.00  0.00    -0.203 C  
HETATM    2  C   UNL     1     -10.886  14.769  65.147  1.00  0.00    -0.404 C  
ENDROOT
BRANCH   2   3
HETATM    3  N   UNL     1     -10.431  15.327  66.439  1.00  0.00    -0.294 N  
BRANCH   3   4
HETATM    4  C   UNL     1     -10.629  16.773  66.697  1.00  0.00    -0.198 C  
HETATM    5  C   UNL     1      -9.426  17.705  66.579  1.00  0.00    -0.294 C  
ENDBRANCH   3   4
BRANCH   3   6
HETATM    6  C   UNL     1      -9.756  14.499  67.384  1.00  0.00    -0.222 C  
HETATM    7  S   UNL     1      -9.552  14.876  69.024  1.00  0.00    -0.175 S  
BRANCH   6   8
HETATM    8  S   UNL     1      -9.208  12.898  66.795  1.00  0.00    -0.209 SA 
BRANCH   8   9
HETATM    9  S   UNL     1      -8.519  11.954  68.504  1.00  0.00    -0.064 SA 
BRANCH   9  10
HETATM   10  C   UNL     1      -9.346  10.384  68.592  1.00  0.00    -0.167 C  
HETATM   11  S   UNL     1     -10.464   9.939  69.766  1.00  0.00    -0.279 S  
BRANCH  10  12
HETATM   12  N   UNL     1      -9.067   9.588  67.470  1.00  0.00    -0.130 N  
BRANCH  12  13
HETATM   13  C   UNL     1     -10.154   9.079  66.621  1.00  0.00    -0.285 C  
HETATM   14  C   UNL     1     -10.568   7.643  66.903  1.00  0.00    -0.359 C  
ENDBRANCH  12  13
BRANCH  12  15
HETATM   15  C   UNL     1      -7.695   9.117  67.224  1.00  0.00    -0.095 C  
HETATM   16  C   UNL     1      -7.040   8.455  68.424  1.00  0.00    -0.080 C  
ENDBRANCH  12  15
ENDBRANCH  10  12
ENDBRANCH   9  10
ENDBRANCH   8   9
ENDBRANCH   6   8
ENDBRANCH   3   6
ENDBRANCH   2   3
TORSDOF 9
ENDMDL
MODEL      340
REMARK 921   NORMALIZED FREE ENERGY PREDICTED BY IDOCK:   -2.22 KCAL/MOL
REMARK 922        TOTAL FREE ENERGY PREDICTED BY IDOCK:   -3.90 KCAL/MOL
REMARK 923 INTER-LIGAND FREE ENERGY PREDICTED BY IDOCK:   -3.43 KCAL/MOL
REMARK 924 INTRA-LIGAND FREE ENERGY PREDICTED BY IDOCK:   -0.48 KCAL/MOL
REMARK 927      BINDING AFFINITY PREDICTED BY RF-SCORE:    0.00 PKD
ROOT
HETATM    1  C   UNL     1      -9.358   4.062  66.163  1.00  0.00    -0.174 C  
HETATM    2  C   UNL     1     -10.464   5.088  66.395  1.00  0.00    -0.300 C  
ENDROOT
BRANCH   2   3
HETATM    3  N   UNL     1     -10.104   6.123  67.389  1.00  0.00    -0.139 N  
BRANCH   3   4
HETATM    4  C   UNL     1     -11.007   6.341  68.544  1.00  0.00    -0.340 C  
HETATM    5  C   UNL     1     -10.685   5.641  69.862  1.00  0.00    -0.399 C  
ENDBRANCH   3   4
BRANCH   3   6
HETATM    6  C   UNL     1      -8.947   6.934  67.197  1.00  0.00    -0.120 C  
HETATM    7  S   UNL     1      -7.436   6.643  67.911  1.00  0.00    -0.100 S  
BRANCH   6   8
HETATM    8  S   UNL     1      -9.096   8.273  66.017  1.00  0.00    -0.149 SA 
BRANCH   8   9
HETATM    9  S   UNL     1      -8.154   9.861  66.951  1.00  0.00    -0.113 SA 
BRANCH   9  10
HETATM   10  C   UNL     1      -9.125  10.265  68.384  1.00  0.00    -0.136 C  
HETATM   11  S   UNL     1      -8.892   9.636  69.925  1.00  0.00    -0.229 S  
BRANCH  10  12
HETATM   12  N   UNL     1     -10.039  11.295  68.115  1.00  0.00    -0.177 N  
BRANCH  12  13
HETATM   13  C   UNL     1     -10.932  11.801  69.169  1.00  0.00    -0.209 C  
HETATM   14  C   UNL     1     -12.218  11.009  69.352  1.00  0.00    -0.329 C  
ENDBRANCH  12  13
BRANCH  12  15
HETATM   15  C   UNL     1     -10.230  11.770  66.736  1.00  0.00    -0.211 C  
HETATM   16  C   UNL     1     -10.993  13.080  66.630  1.00  0.00    -0.301 C  
ENDBRANCH  12  15
ENDBRANCH  10  12
ENDBRANCH   9  10
ENDBRANCH   8   9
ENDBRANCH   6   8
ENDBRANCH   3   6
ENDBRANCH   2   3
TORSDOF 9
ENDMDL
MODEL      341
REMARK 921   NORMALIZED FREE ENERGY PREDICTED BY IDOCK:   -2.22 KCAL/MOL
REMARK 922        TOTAL FREE ENERGY PREDICTED BY IDOCK:   -3.90 KCAL/MOL
REMARK 923 INTER-LIGAND FREE ENERGY PREDICTED BY IDOCK:   -3.35 KCAL/MOL
REMARK 924 INTRA-LIGAND FREE ENERGY PREDICTED BY IDOCK:   -0.56 KCAL/MOL
REMARK 927      BINDING AFFINITY PREDICTED BY RF-SCORE:    0.00 PKD
ROOT
HETATM    1  C   UNL     1      -9.977  10.183  65.332  1.00  0.00    -0.377 C  
HETATM    2  C   UNL     1      -9.642   9.120  66.374  1.00  0.00    -0.245 C  
ENDROOT
BRANCH   2   3
HETATM    3  N   UNL     1      -8.200   8.799  66.440  1.00  0.00    -0.109 N  
BRANCH   3   4
HETATM    4  C   UNL     1      -7.412   8.814  65.185  1.00  0.00    -0.090 C  
HETATM    5  C   UNL     1      -6.261   9.809  65.059  1.00  0.00    -0.094 C  
ENDBRANCH   3   4
BRANCH   3   6
HETATM    6  C   UNL     1      -7.602   8.418  67.677  1.00  0.00    -0.098 C  
HETATM    7  S   UNL     1      -6.888   9.496  68.775  1.00  0.00    -0.052 S  
BRANCH   6   8
HETATM    8  S   UNL     1      -7.742   6.693  68.136  1.00  0.00    -0.106 SA 
BRANCH   8   9
HETATM    9  S   UNL     1      -8.333   6.756  70.119  1.00  0.00    -0.136 SA 
BRANCH   9  10
HETATM   10  C   UNL     1     -10.102   6.927  70.123  1.00  0.00    -0.182 C  
HETATM   11  S   UNL     1     -11.129   6.429  68.889  1.00  0.00    -0.307 S  
BRANCH  10  12
HETATM   12  N   UNL     1     -10.572   7.403  71.355  1.00  0.00    -0.215 N  
BRANCH  12  13
HETATM   13  C   UNL     1     -11.482   6.591  72.177  1.00  0.00    -0.292 C  
HETATM   14  C   UNL     1     -10.806   5.494  72.986  1.00  0.00    -0.316 C  
ENDBRANCH  12  13
BRANCH  12  15
HETATM   15  C   UNL     1     -10.294   8.788  71.765  1.00  0.00    -0.343 C  
HETATM   16  C   UNL     1     -10.599   9.826  70.698  1.00  0.00    -0.382 C  
ENDBRANCH  12  15
ENDBRANCH  10  12
ENDBRANCH   9  10
ENDBRANCH   8   9
ENDBRANCH   6   8
ENDBRANCH   3   6
ENDBRANCH   2   3
TORSDOF 9
ENDMDL
MODEL      342
REMARK 921   NORMALIZED FREE ENERGY PREDICTED BY IDOCK:   -2.21 KCAL/MOL
REMARK 922        TOTAL FREE ENERGY PREDICTED BY IDOCK:   -3.89 KCAL/MOL
REMARK 923 INTER-LIGAND FREE ENERGY PREDICTED BY IDOCK:   -3.51 KCAL/MOL
REMARK 924 INTRA-LIGAND FREE ENERGY PREDICTED BY IDOCK:   -0.38 KCAL/MOL
REMARK 927      BINDING AFFINITY PREDICTED BY RF-SCORE:    0.00 PKD
ROOT
HETATM    1  C   UNL     1     -10.465   5.611  66.944  1.00  0.00    -0.349 C  
HETATM    2  C   UNL     1     -10.718   6.917  67.692  1.00  0.00    -0.274 C  
ENDROOT
BRANCH   2   3
HETATM    3  N   UNL     1      -9.776   7.144  68.809  1.00  0.00    -0.144 N  
BRANCH   3   4
HETATM    4  C   UNL     1     -10.179   6.725  70.173  1.00  0.00    -0.195 C  
HETATM    5  C   UNL     1     -11.665   6.546  70.470  1.00  0.00    -0.438 C  
ENDBRANCH   3   4
BRANCH   3   6
HETATM    6  C   UNL     1      -8.537   7.813  68.583  1.00  0.00    -0.129 C  
HETATM    7  S   UNL     1      -7.257   7.186  67.663  1.00  0.00    -0.093 S  
BRANCH   6   8
HETATM    8  S   UNL     1      -8.401   9.480  69.221  1.00  0.00    -0.140 SA 
BRANCH   8   9
HETATM    9  S   UNL     1      -9.992  10.475  68.347  1.00  0.00    -0.171 SA 
BRANCH   9  10
HETATM   10  C   UNL     1      -9.370  11.237  66.867  1.00  0.00    -0.177 C  
HETATM   11  S   UNL     1      -8.632  10.426  65.593  1.00  0.00    -0.172 S  
BRANCH  10  12
HETATM   12  N   UNL     1      -9.697  12.600  66.811  1.00  0.00    -0.234 N  
BRANCH  12  13
HETATM   13  C   UNL     1      -8.722  13.623  67.217  1.00  0.00    -0.218 C  
HETATM   14  C   UNL     1      -7.793  13.208  68.348  1.00  0.00    -0.135 C  
ENDBRANCH  12  13
BRANCH  12  15
HETATM   15  C   UNL     1     -11.073  13.017  66.501  1.00  0.00    -0.288 C  
HETATM   16  C   UNL     1     -11.404  14.436  66.930  1.00  0.00    -0.357 C  
ENDBRANCH  12  15
ENDBRANCH  10  12
ENDBRANCH   9  10
ENDBRANCH   8   9
ENDBRANCH   6   8
ENDBRANCH   3   6
ENDBRANCH   2   3
TORSDOF 9
ENDMDL
MODEL      343
REMARK 921   NORMALIZED FREE ENERGY PREDICTED BY IDOCK:   -2.21 KCAL/MOL
REMARK 922        TOTAL FREE ENERGY PREDICTED BY IDOCK:   -3.89 KCAL/MOL
REMARK 923 INTER-LIGAND FREE ENERGY PREDICTED BY IDOCK:   -3.49 KCAL/MOL
REMARK 924 INTRA-LIGAND FREE ENERGY PREDICTED BY IDOCK:   -0.40 KCAL/MOL
REMARK 927      BINDING AFFINITY PREDICTED BY RF-SCORE:    0.00 PKD
ROOT
HETATM    1  C   UNL     1      -8.972   8.077  73.227  1.00  0.00    -0.338 C  
HETATM    2  C   UNL     1      -9.175   6.932  72.238  1.00  0.00    -0.134 C  
ENDROOT
BRANCH   2   3
HETATM    3  N   UNL     1     -10.555   6.850  71.712  1.00  0.00    -0.211 N  
BRANCH   3   4
HETATM    4  C   UNL     1     -11.570   6.108  72.497  1.00  0.00    -0.250 C  
HETATM    5  C   UNL     1     -11.096   5.011  73.448  1.00  0.00    -0.404 C  
ENDBRANCH   3   4
BRANCH   3   6
HETATM    6  C   UNL     1     -10.878   7.418  70.445  1.00  0.00    -0.243 C  
HETATM    7  S   UNL     1     -11.088   9.076  70.157  1.00  0.00    -0.165 S  
BRANCH   6   8
HETATM    8  S   UNL     1     -10.936   6.291  69.055  1.00  0.00    -0.374 SA 
BRANCH   8   9
HETATM    9  S   UNL     1     -10.373   7.463  67.445  1.00  0.00    -0.300 SA 
BRANCH   9  10
HETATM   10  C   UNL     1      -8.727   8.041  67.781  1.00  0.00    -0.127 C  
HETATM   11  S   UNL     1      -7.521   7.151  68.543  1.00  0.00    -0.108 S  
BRANCH  10  12
HETATM   12  N   UNL     1      -8.491   9.297  67.204  1.00  0.00    -0.123 N  
BRANCH  12  13
HETATM   13  C   UNL     1      -9.124   9.668  65.929  1.00  0.00    -0.178 C  
HETATM   14  C   UNL     1     -10.149  10.788  66.025  1.00  0.00    -0.305 C  
ENDBRANCH  12  13
BRANCH  12  15
HETATM   15  C   UNL     1      -7.480  10.197  67.781  1.00  0.00    -0.089 C  
HETATM   16  C   UNL     1      -7.994  11.058  68.922  1.00  0.00    -0.138 C  
ENDBRANCH  12  15
ENDBRANCH  10  12
ENDBRANCH   9  10
ENDBRANCH   8   9
ENDBRANCH   6   8
ENDBRANCH   3   6
ENDBRANCH   2   3
TORSDOF 9
ENDMDL
MODEL      344
REMARK 921   NORMALIZED FREE ENERGY PREDICTED BY IDOCK:   -2.20 KCAL/MOL
REMARK 922        TOTAL FREE ENERGY PREDICTED BY IDOCK:   -3.88 KCAL/MOL
REMARK 923 INTER-LIGAND FREE ENERGY PREDICTED BY IDOCK:   -3.45 KCAL/MOL
REMARK 924 INTRA-LIGAND FREE ENERGY PREDICTED BY IDOCK:   -0.42 KCAL/MOL
REMARK 927      BINDING AFFINITY PREDICTED BY RF-SCORE:    0.00 PKD
ROOT
HETATM    1  C   UNL     1      -6.370  11.607  66.805  1.00  0.00    -0.114 C  
HETATM    2  C   UNL     1      -6.650  12.833  67.669  1.00  0.00    -0.150 C  
ENDROOT
BRANCH   2   3
HETATM    3  N   UNL     1      -8.025  13.357  67.515  1.00  0.00    -0.172 N  
BRANCH   3   4
HETATM    4  C   UNL     1      -8.247  14.816  67.649  1.00  0.00    -0.175 C  
HETATM    5  C   UNL     1      -8.330  15.414  69.052  1.00  0.00    -0.223 C  
ENDBRANCH   3   4
BRANCH   3   6
HETATM    6  C   UNL     1      -9.117  12.465  67.307  1.00  0.00    -0.187 C  
HETATM    7  S   UNL     1     -10.047  12.391  65.890  1.00  0.00    -0.254 S  
BRANCH   6   8
HETATM    8  S   UNL     1      -9.425  11.264  68.599  1.00  0.00    -0.143 SA 
BRANCH   8   9
HETATM    9  S   UNL     1     -10.936  10.080  67.824  1.00  0.00    -0.175 SA 
BRANCH   9  10
HETATM   10  C   UNL     1     -10.154   8.656  67.103  1.00  0.00    -0.261 C  
HETATM   11  S   UNL     1      -9.041   8.692  65.843  1.00  0.00    -0.190 S  
BRANCH  10  12
HETATM   12  N   UNL     1     -10.464   7.484  67.808  1.00  0.00    -0.222 N  
BRANCH  12  13
HETATM   13  C   UNL     1     -10.888   6.269  67.095  1.00  0.00    -0.381 C  
HETATM   14  C   UNL     1      -9.859   5.149  67.072  1.00  0.00    -0.197 C  
ENDBRANCH  12  13
BRANCH  12  15
HETATM   15  C   UNL     1     -10.528   7.502  69.277  1.00  0.00    -0.214 C  
HETATM   16  C   UNL     1     -11.636   6.642  69.862  1.00  0.00    -0.393 C  
ENDBRANCH  12  15
ENDBRANCH  10  12
ENDBRANCH   9  10
ENDBRANCH   8   9
ENDBRANCH   6   8
ENDBRANCH   3   6
ENDBRANCH   2   3
TORSDOF 9
ENDMDL
MODEL      345
REMARK 921   NORMALIZED FREE ENERGY PREDICTED BY IDOCK:   -2.20 KCAL/MOL
REMARK 922        TOTAL FREE ENERGY PREDICTED BY IDOCK:   -3.87 KCAL/MOL
REMARK 923 INTER-LIGAND FREE ENERGY PREDICTED BY IDOCK:   -3.14 KCAL/MOL
REMARK 924 INTRA-LIGAND FREE ENERGY PREDICTED BY IDOCK:   -0.73 KCAL/MOL
REMARK 927      BINDING AFFINITY PREDICTED BY RF-SCORE:    0.00 PKD
ROOT
HETATM    1  C   UNL     1      -8.627   8.417  71.796  1.00  0.00    -0.234 C  
HETATM    2  C   UNL     1      -8.582   7.586  70.517  1.00  0.00    -0.138 C  
ENDROOT
BRANCH   2   3
HETATM    3  N   UNL     1      -9.921   7.301  69.957  1.00  0.00    -0.183 N  
BRANCH   3   4
HETATM    4  C   UNL     1     -10.684   6.149  70.494  1.00  0.00    -0.278 C  
HETATM    5  C   UNL     1     -10.036   4.768  70.462  1.00  0.00    -0.306 C  
ENDBRANCH   3   4
BRANCH   3   6
HETATM    6  C   UNL     1     -10.433   8.081  68.879  1.00  0.00    -0.191 C  
HETATM    7  S   UNL     1     -10.786   9.737  68.969  1.00  0.00    -0.201 S  
BRANCH   6   8
HETATM    8  S   UNL     1     -10.582   7.256  67.296  1.00  0.00    -0.327 SA 
BRANCH   8   9
HETATM    9  S   UNL     1      -8.625   7.074  66.648  1.00  0.00    -0.130 SA 
BRANCH   9  10
HETATM   10  C   UNL     1      -8.001   8.724  66.427  1.00  0.00    -0.103 C  
HETATM   11  S   UNL     1      -7.215   9.631  67.604  1.00  0.00    -0.090 S  
BRANCH  10  12
HETATM   12  N   UNL     1      -8.112   9.145  65.094  1.00  0.00    -0.124 N  
BRANCH  12  13
HETATM   13  C   UNL     1      -7.467   8.387  64.011  1.00  0.00    -0.111 C  
HETATM   14  C   UNL     1      -8.205   8.416  62.682  1.00  0.00    -0.175 C  
ENDBRANCH  12  13
BRANCH  12  15
HETATM   15  C   UNL     1      -8.736  10.439  64.778  1.00  0.00    -0.186 C  
HETATM   16  C   UNL     1     -10.155  10.588  65.301  1.00  0.00    -0.369 C  
ENDBRANCH  12  15
ENDBRANCH  10  12
ENDBRANCH   9  10
ENDBRANCH   8   9
ENDBRANCH   6   8
ENDBRANCH   3   6
ENDBRANCH   2   3
TORSDOF 9
ENDMDL
MODEL      346
REMARK 921   NORMALIZED FREE ENERGY PREDICTED BY IDOCK:   -2.18 KCAL/MOL
REMARK 922        TOTAL FREE ENERGY PREDICTED BY IDOCK:   -3.85 KCAL/MOL
REMARK 923 INTER-LIGAND FREE ENERGY PREDICTED BY IDOCK:   -3.14 KCAL/MOL
REMARK 924 INTRA-LIGAND FREE ENERGY PREDICTED BY IDOCK:   -0.70 KCAL/MOL
REMARK 927      BINDING AFFINITY PREDICTED BY RF-SCORE:    0.00 PKD
ROOT
HETATM    1  C   UNL     1      -7.370   2.651  67.671  1.00  0.00    -0.056 C  
HETATM    2  C   UNL     1      -8.543   3.302  66.942  1.00  0.00    -0.115 C  
ENDROOT
BRANCH   2   3
HETATM    3  N   UNL     1      -9.166   4.405  67.706  1.00  0.00    -0.127 N  
BRANCH   3   4
HETATM    4  C   UNL     1      -9.566   4.157  69.112  1.00  0.00    -0.172 C  
HETATM    5  C   UNL     1      -8.822   4.897  70.221  1.00  0.00    -0.134 C  
ENDBRANCH   3   4
BRANCH   3   6
HETATM    6  C   UNL     1      -9.434   5.656  67.076  1.00  0.00    -0.127 C  
HETATM    7  S   UNL     1      -8.543   6.296  65.783  1.00  0.00    -0.133 S  
BRANCH   6   8
HETATM    8  S   UNL     1     -10.897   6.530  67.626  1.00  0.00    -0.346 SA 
BRANCH   8   9
HETATM    9  S   UNL     1     -10.342   8.522  67.544  1.00  0.00    -0.268 SA 
BRANCH   9  10
HETATM   10  C   UNL     1      -9.347   8.837  68.982  1.00  0.00    -0.145 C  
HETATM   11  S   UNL     1      -7.727   8.420  69.153  1.00  0.00    -0.093 S  
BRANCH  10  12
HETATM   12  N   UNL     1     -10.033   9.616  69.926  1.00  0.00    -0.225 N  
BRANCH  12  13
HETATM   13  C   UNL     1     -10.208   9.142  71.307  1.00  0.00    -0.329 C  
HETATM   14  C   UNL     1     -10.857   7.772  71.435  1.00  0.00    -0.257 C  
ENDBRANCH  12  13
BRANCH  12  15
HETATM   15  C   UNL     1     -10.728  10.843  69.505  1.00  0.00    -0.206 C  
HETATM   16  C   UNL     1     -12.197  10.888  69.890  1.00  0.00    -0.408 C  
ENDBRANCH  12  15
ENDBRANCH  10  12
ENDBRANCH   9  10
ENDBRANCH   8   9
ENDBRANCH   6   8
ENDBRANCH   3   6
ENDBRANCH   2   3
TORSDOF 9
ENDMDL
MODEL      347
REMARK 921   NORMALIZED FREE ENERGY PREDICTED BY IDOCK:   -2.17 KCAL/MOL
REMARK 922        TOTAL FREE ENERGY PREDICTED BY IDOCK:   -3.83 KCAL/MOL
REMARK 923 INTER-LIGAND FREE ENERGY PREDICTED BY IDOCK:   -3.46 KCAL/MOL
REMARK 924 INTRA-LIGAND FREE ENERGY PREDICTED BY IDOCK:   -0.37 KCAL/MOL
REMARK 927      BINDING AFFINITY PREDICTED BY RF-SCORE:    0.00 PKD
ROOT
HETATM    1  C   UNL     1      -5.690   9.181  64.433  1.00  0.00    -0.068 C  
HETATM    2  C   UNL     1      -7.014   9.798  64.876  1.00  0.00    -0.124 C  
ENDROOT
BRANCH   2   3
HETATM    3  N   UNL     1      -7.959   8.811  65.442  1.00  0.00    -0.106 N  
BRANCH   3   4
HETATM    4  C   UNL     1      -7.558   7.384  65.477  1.00  0.00    -0.094 C  
HETATM    5  C   UNL     1      -7.878   6.508  64.269  1.00  0.00    -0.113 C  
ENDBRANCH   3   4
BRANCH   3   6
HETATM    6  C   UNL     1      -9.252   9.221  65.882  1.00  0.00    -0.219 C  
HETATM    7  S   UNL     1      -9.999  10.680  65.449  1.00  0.00    -0.296 S  
BRANCH   6   8
HETATM    8  S   UNL     1     -10.178   8.036  66.855  1.00  0.00    -0.307 SA 
BRANCH   8   9
HETATM    9  S   UNL     1      -9.246   8.079  68.702  1.00  0.00    -0.142 SA 
BRANCH   9  10
HETATM   10  C   UNL     1     -10.315   8.984  69.796  1.00  0.00    -0.211 C  
HETATM   11  S   UNL     1     -10.833  10.566  69.560  1.00  0.00    -0.270 S  
BRANCH  10  12
HETATM   12  N   UNL     1     -10.807   8.171  70.829  1.00  0.00    -0.224 N  
BRANCH  12  13
HETATM   13  C   UNL     1     -10.391   8.393  72.221  1.00  0.00    -0.333 C  
HETATM   14  C   UNL     1      -8.886   8.454  72.438  1.00  0.00    -0.294 C  
ENDBRANCH  12  13
BRANCH  12  15
HETATM   15  C   UNL     1     -11.615   6.984  70.511  1.00  0.00    -0.319 C  
HETATM   16  C   UNL     1     -12.777   6.751  71.462  1.00  0.00    -0.341 C  
ENDBRANCH  12  15
ENDBRANCH  10  12
ENDBRANCH   9  10
ENDBRANCH   8   9
ENDBRANCH   6   8
ENDBRANCH   3   6
ENDBRANCH   2   3
TORSDOF 9
ENDMDL
MODEL      348
REMARK 921   NORMALIZED FREE ENERGY PREDICTED BY IDOCK:   -2.16 KCAL/MOL
REMARK 922        TOTAL FREE ENERGY PREDICTED BY IDOCK:   -3.82 KCAL/MOL
REMARK 923 INTER-LIGAND FREE ENERGY PREDICTED BY IDOCK:   -3.46 KCAL/MOL
REMARK 924 INTRA-LIGAND FREE ENERGY PREDICTED BY IDOCK:   -0.36 KCAL/MOL
REMARK 927      BINDING AFFINITY PREDICTED BY RF-SCORE:    0.00 PKD
ROOT
HETATM    1  C   UNL     1     -11.835  11.247  68.291  1.00  0.00    -0.299 C  
HETATM    2  C   UNL     1     -10.737  10.589  67.461  1.00  0.00    -0.276 C  
ENDROOT
BRANCH   2   3
HETATM    3  N   UNL     1      -9.927  11.557  66.689  1.00  0.00    -0.203 N  
BRANCH   3   4
HETATM    4  C   UNL     1     -10.537  12.208  65.505  1.00  0.00    -0.277 C  
HETATM    5  C   UNL     1     -10.949  11.333  64.324  1.00  0.00    -0.358 C  
ENDBRANCH   3   4
BRANCH   3   6
HETATM    6  C   UNL     1      -8.567  11.803  67.042  1.00  0.00    -0.173 C  
HETATM    7  S   UNL     1      -7.229  11.111  66.264  1.00  0.00     0.013 S  
BRANCH   6   8
HETATM    8  S   UNL     1      -8.282  13.029  68.316  1.00  0.00    -0.132 SA 
BRANCH   8   9
HETATM    9  S   UNL     1      -8.237  14.818  67.277  1.00  0.00    -0.214 SA 
BRANCH   9  10
HETATM   10  C   UNL     1      -7.088  15.876  68.126  1.00  0.00    -0.118 C  
HETATM   11  S   UNL     1      -6.025  15.385  69.332  1.00  0.00    -0.118 S  
BRANCH  10  12
HETATM   12  N   UNL     1      -7.062  17.163  67.569  1.00  0.00    -0.150 N  
BRANCH  12  13
HETATM   13  C   UNL     1      -7.692  18.295  68.266  1.00  0.00    -0.291 C  
HETATM   14  C   UNL     1      -6.806  18.989  69.290  1.00  0.00    -0.318 C  
ENDBRANCH  12  13
BRANCH  12  15
HETATM   15  C   UNL     1      -6.550  17.368  66.206  1.00  0.00    -0.244 C  
HETATM   16  C   UNL     1      -6.657  18.799  65.709  1.00  0.00    -0.296 C  
ENDBRANCH  12  15
ENDBRANCH  10  12
ENDBRANCH   9  10
ENDBRANCH   8   9
ENDBRANCH   6   8
ENDBRANCH   3   6
ENDBRANCH   2   3
TORSDOF 9
ENDMDL
MODEL      349
REMARK 921   NORMALIZED FREE ENERGY PREDICTED BY IDOCK:   -2.16 KCAL/MOL
REMARK 922        TOTAL FREE ENERGY PREDICTED BY IDOCK:   -3.81 KCAL/MOL
REMARK 923 INTER-LIGAND FREE ENERGY PREDICTED BY IDOCK:   -3.68 KCAL/MOL
REMARK 924 INTRA-LIGAND FREE ENERGY PREDICTED BY IDOCK:   -0.12 KCAL/MOL
REMARK 927      BINDING AFFINITY PREDICTED BY RF-SCORE:    0.00 PKD
ROOT
HETATM    1  C   UNL     1     -12.828  10.273  71.821  1.00  0.00    -0.565 C  
HETATM    2  C   UNL     1     -11.556   9.847  71.094  1.00  0.00    -0.389 C  
ENDROOT
BRANCH   2   3
HETATM    3  N   UNL     1     -11.510   8.399  70.794  1.00  0.00    -0.272 N  
BRANCH   3   4
HETATM    4  C   UNL     1     -10.605   7.926  69.719  1.00  0.00    -0.242 C  
HETATM    5  C   UNL     1      -9.233   8.582  69.581  1.00  0.00    -0.157 C  
ENDBRANCH   3   4
BRANCH   3   6
HETATM    6  C   UNL     1     -12.369   7.493  71.482  1.00  0.00    -0.339 C  
HETATM    7  S   UNL     1     -14.063   7.568  71.464  1.00  0.00    -0.376 S  
BRANCH   6   8
HETATM    8  S   UNL     1     -11.579   6.116  72.310  1.00  0.00    -0.284 SA 
BRANCH   8   9
HETATM    9  S   UNL     1     -10.303   7.021  73.666  1.00  0.00    -0.368 SA 
BRANCH   9  10
HETATM   10  C   UNL     1      -8.664   6.901  72.988  1.00  0.00    -0.118 C  
HETATM   11  S   UNL     1      -7.510   8.123  73.016  1.00  0.00    -0.114 S  
BRANCH  10  12
HETATM   12  N   UNL     1      -8.382   5.600  72.544  1.00  0.00    -0.114 N  
BRANCH  12  13
HETATM   13  C   UNL     1      -8.249   4.492  73.502  1.00  0.00    -0.102 C  
HETATM   14  C   UNL     1      -9.130   3.287  73.212  1.00  0.00    -0.100 C  
ENDBRANCH  12  13
BRANCH  12  15
HETATM   15  C   UNL     1      -8.054   5.359  71.131  1.00  0.00    -0.111 C  
HETATM   16  C   UNL     1      -6.596   5.009  70.882  1.00  0.00    -0.035 C  
ENDBRANCH  12  15
ENDBRANCH  10  12
ENDBRANCH   9  10
ENDBRANCH   8   9
ENDBRANCH   6   8
ENDBRANCH   3   6
ENDBRANCH   2   3
TORSDOF 9
ENDMDL
MODEL      350
REMARK 921   NORMALIZED FREE ENERGY PREDICTED BY IDOCK:   -2.16 KCAL/MOL
REMARK 922        TOTAL FREE ENERGY PREDICTED BY IDOCK:   -3.80 KCAL/MOL
REMARK 923 INTER-LIGAND FREE ENERGY PREDICTED BY IDOCK:   -3.28 KCAL/MOL
REMARK 924 INTRA-LIGAND FREE ENERGY PREDICTED BY IDOCK:   -0.53 KCAL/MOL
REMARK 927      BINDING AFFINITY PREDICTED BY RF-SCORE:    0.00 PKD
ROOT
HETATM    1  C   UNL     1     -11.788  10.542  70.790  1.00  0.00    -0.465 C  
HETATM    2  C   UNL     1     -12.003  11.112  69.390  1.00  0.00    -0.349 C  
ENDROOT
BRANCH   2   3
HETATM    3  N   UNL     1     -10.741  11.357  68.658  1.00  0.00    -0.196 N  
BRANCH   3   4
HETATM    4  C   UNL     1     -10.497  12.708  68.099  1.00  0.00    -0.231 C  
HETATM    5  C   UNL     1     -11.013  13.020  66.697  1.00  0.00    -0.301 C  
ENDBRANCH   3   4
BRANCH   3   6
HETATM    6  C   UNL     1      -9.815  10.295  68.442  1.00  0.00    -0.156 C  
HETATM    7  S   UNL     1      -8.316  10.149  69.220  1.00  0.00    -0.167 S  
BRANCH   6   8
HETATM    8  S   UNL     1     -10.355   8.972  67.363  1.00  0.00    -0.274 SA 
BRANCH   8   9
HETATM    9  S   UNL     1      -8.694   7.746  67.215  1.00  0.00    -0.129 SA 
BRANCH   9  10
HETATM   10  C   UNL     1      -9.257   6.083  67.488  1.00  0.00    -0.111 C  
HETATM   11  S   UNL     1     -10.259   5.214  66.455  1.00  0.00    -0.284 S  
BRANCH  10  12
HETATM   12  N   UNL     1      -8.647   5.509  68.614  1.00  0.00    -0.103 N  
BRANCH  12  13
HETATM   13  C   UNL     1      -8.586   4.048  68.772  1.00  0.00    -0.089 C  
HETATM   14  C   UNL     1      -9.340   3.503  69.975  1.00  0.00    -0.246 C  
ENDBRANCH  12  13
BRANCH  12  15
HETATM   15  C   UNL     1      -8.206   6.361  69.729  1.00  0.00    -0.126 C  
HETATM   16  C   UNL     1      -6.749   6.174  70.116  1.00  0.00    -0.049 C  
ENDBRANCH  12  15
ENDBRANCH  10  12
ENDBRANCH   9  10
ENDBRANCH   8   9
ENDBRANCH   6   8
ENDBRANCH   3   6
ENDBRANCH   2   3
TORSDOF 9
ENDMDL
MODEL      351
REMARK 921   NORMALIZED FREE ENERGY PREDICTED BY IDOCK:   -2.15 KCAL/MOL
REMARK 922        TOTAL FREE ENERGY PREDICTED BY IDOCK:   -3.80 KCAL/MOL
REMARK 923 INTER-LIGAND FREE ENERGY PREDICTED BY IDOCK:   -3.32 KCAL/MOL
REMARK 924 INTRA-LIGAND FREE ENERGY PREDICTED BY IDOCK:   -0.48 KCAL/MOL
REMARK 927      BINDING AFFINITY PREDICTED BY RF-SCORE:    0.00 PKD
ROOT
HETATM    1  C   UNL     1      -8.266  13.265  67.687  1.00  0.00    -0.179 C  
HETATM    2  C   UNL     1      -9.247  12.100  67.782  1.00  0.00    -0.189 C  
ENDROOT
BRANCH   2   3
HETATM    3  N   UNL     1     -10.433  12.400  68.613  1.00  0.00    -0.225 N  
BRANCH   3   4
HETATM    4  C   UNL     1     -10.931  13.796  68.662  1.00  0.00    -0.266 C  
HETATM    5  C   UNL     1     -11.903  14.260  67.581  1.00  0.00    -0.420 C  
ENDBRANCH   3   4
BRANCH   3   6
HETATM    6  C   UNL     1     -11.039  11.377  69.400  1.00  0.00    -0.241 C  
HETATM    7  S   UNL     1     -12.274  11.636  70.534  1.00  0.00    -0.313 S  
BRANCH   6   8
HETATM    8  S   UNL     1     -10.530   9.695  69.054  1.00  0.00    -0.218 SA 
BRANCH   8   9
HETATM    9  S   UNL     1      -9.952   8.965  70.902  1.00  0.00    -0.266 SA 
BRANCH   9  10
HETATM   10  C   UNL     1      -8.453   8.045  70.645  1.00  0.00    -0.125 C  
HETATM   11  S   UNL     1      -6.897   8.638  70.878  1.00  0.00    -0.069 S  
BRANCH  10  12
HETATM   12  N   UNL     1      -8.716   6.698  70.357  1.00  0.00    -0.149 N  
BRANCH  12  13
HETATM   13  C   UNL     1      -7.768   5.900  69.564  1.00  0.00    -0.097 C  
HETATM   14  C   UNL     1      -7.863   6.102  68.060  1.00  0.00    -0.106 C  
ENDBRANCH  12  13
BRANCH  12  15
HETATM   15  C   UNL     1     -10.019   6.110  70.703  1.00  0.00    -0.188 C  
HETATM   16  C   UNL     1      -9.973   4.619  70.987  1.00  0.00    -0.270 C  
ENDBRANCH  12  15
ENDBRANCH  10  12
ENDBRANCH   9  10
ENDBRANCH   8   9
ENDBRANCH   6   8
ENDBRANCH   3   6
ENDBRANCH   2   3
TORSDOF 9
ENDMDL
MODEL      352
REMARK 921   NORMALIZED FREE ENERGY PREDICTED BY IDOCK:   -2.15 KCAL/MOL
REMARK 922        TOTAL FREE ENERGY PREDICTED BY IDOCK:   -3.79 KCAL/MOL
REMARK 923 INTER-LIGAND FREE ENERGY PREDICTED BY IDOCK:   -3.41 KCAL/MOL
REMARK 924 INTRA-LIGAND FREE ENERGY PREDICTED BY IDOCK:   -0.39 KCAL/MOL
REMARK 927      BINDING AFFINITY PREDICTED BY RF-SCORE:    0.00 PKD
ROOT
HETATM    1  C   UNL     1     -12.732  12.080  63.442  1.00  0.00    -0.527 C  
HETATM    2  C   UNL     1     -11.297  12.543  63.679  1.00  0.00    -0.485 C  
ENDROOT
BRANCH   2   3
HETATM    3  N   UNL     1     -10.739  12.081  64.969  1.00  0.00    -0.285 N  
BRANCH   3   4
HETATM    4  C   UNL     1     -10.264  10.681  65.076  1.00  0.00    -0.310 C  
HETATM    5  C   UNL     1      -9.125  10.227  64.168  1.00  0.00    -0.284 C  
ENDBRANCH   3   4
BRANCH   3   6
HETATM    6  C   UNL     1     -10.722  12.950  66.099  1.00  0.00    -0.272 C  
HETATM    7  S   UNL     1     -11.884  12.948  67.334  1.00  0.00    -0.318 S  
BRANCH   6   8
HETATM    8  S   UNL     1      -9.295  14.020  66.264  1.00  0.00    -0.108 SA 
BRANCH   8   9
HETATM    9  S   UNL     1      -8.797  13.873  68.268  1.00  0.00    -0.179 SA 
BRANCH   9  10
HETATM   10  C   UNL     1      -7.756  12.443  68.435  1.00  0.00    -0.144 C  
HETATM   11  S   UNL     1      -8.267  10.847  68.299  1.00  0.00    -0.134 S  
BRANCH  10  12
HETATM   12  N   UNL     1      -6.404  12.799  68.554  1.00  0.00    -0.069 N  
BRANCH  12  13
HETATM   13  C   UNL     1      -5.675  12.570  69.811  1.00  0.00    -0.112 C  
HETATM   14  C   UNL     1      -5.938  13.600  70.899  1.00  0.00    -0.110 C  
ENDBRANCH  12  13
BRANCH  12  15
HETATM   15  C   UNL     1      -5.743  13.554  67.479  1.00  0.00     0.038 C  
HETATM   16  C   UNL     1      -5.381  14.981  67.854  1.00  0.00    -0.108 C  
ENDBRANCH  12  15
ENDBRANCH  10  12
ENDBRANCH   9  10
ENDBRANCH   8   9
ENDBRANCH   6   8
ENDBRANCH   3   6
ENDBRANCH   2   3
TORSDOF 9
ENDMDL
MODEL      353
REMARK 921   NORMALIZED FREE ENERGY PREDICTED BY IDOCK:   -2.13 KCAL/MOL
REMARK 922        TOTAL FREE ENERGY PREDICTED BY IDOCK:   -3.77 KCAL/MOL
REMARK 923 INTER-LIGAND FREE ENERGY PREDICTED BY IDOCK:   -3.17 KCAL/MOL
REMARK 924 INTRA-LIGAND FREE ENERGY PREDICTED BY IDOCK:   -0.59 KCAL/MOL
REMARK 927      BINDING AFFINITY PREDICTED BY RF-SCORE:    0.00 PKD
ROOT
HETATM    1  C   UNL     1     -10.110  11.238  63.398  1.00  0.00    -0.445 C  
HETATM    2  C   UNL     1     -10.800  11.689  64.683  1.00  0.00    -0.314 C  
ENDROOT
BRANCH   2   3
HETATM    3  N   UNL     1     -10.128  11.205  65.908  1.00  0.00    -0.238 N  
BRANCH   3   4
HETATM    4  C   UNL     1      -9.123  10.122  65.786  1.00  0.00    -0.171 C  
HETATM    5  C   UNL     1      -7.707  10.383  66.292  1.00  0.00    -0.129 C  
ENDBRANCH   3   4
BRANCH   3   6
HETATM    6  C   UNL     1     -10.492  11.728  67.184  1.00  0.00    -0.220 C  
HETATM    7  S   UNL     1     -10.473  13.374  67.593  1.00  0.00    -0.243 S  
BRANCH   6   8
HETATM    8  S   UNL     1     -11.131  10.554  68.376  1.00  0.00    -0.280 SA 
BRANCH   8   9
HETATM    9  S   UNL     1      -9.524  10.201  69.631  1.00  0.00    -0.158 SA 
BRANCH   9  10
HETATM   10  C   UNL     1      -9.887   8.707  70.523  1.00  0.00    -0.179 C  
HETATM   11  S   UNL     1     -11.369   8.327  71.220  1.00  0.00    -0.276 S  
BRANCH  10  12
HETATM   12  N   UNL     1      -8.823   7.795  70.459  1.00  0.00    -0.144 N  
BRANCH  12  13
HETATM   13  C   UNL     1      -8.862   6.659  69.526  1.00  0.00    -0.139 C  
HETATM   14  C   UNL     1      -8.351   6.962  68.126  1.00  0.00    -0.118 C  
ENDBRANCH  12  13
BRANCH  12  15
HETATM   15  C   UNL     1      -7.728   7.869  71.439  1.00  0.00    -0.084 C  
HETATM   16  C   UNL     1      -6.398   8.310  70.853  1.00  0.00    -0.037 C  
ENDBRANCH  12  15
ENDBRANCH  10  12
ENDBRANCH   9  10
ENDBRANCH   8   9
ENDBRANCH   6   8
ENDBRANCH   3   6
ENDBRANCH   2   3
TORSDOF 9
ENDMDL
MODEL      354
REMARK 921   NORMALIZED FREE ENERGY PREDICTED BY IDOCK:   -2.13 KCAL/MOL
REMARK 922        TOTAL FREE ENERGY PREDICTED BY IDOCK:   -3.76 KCAL/MOL
REMARK 923 INTER-LIGAND FREE ENERGY PREDICTED BY IDOCK:   -3.02 KCAL/MOL
REMARK 924 INTRA-LIGAND FREE ENERGY PREDICTED BY IDOCK:   -0.73 KCAL/MOL
REMARK 927      BINDING AFFINITY PREDICTED BY RF-SCORE:    0.00 PKD
ROOT
HETATM    1  C   UNL     1     -12.612  10.699  71.241  1.00  0.00    -0.533 C  
HETATM    2  C   UNL     1     -12.221   9.227  71.147  1.00  0.00    -0.301 C  
ENDROOT
BRANCH   2   3
HETATM    3  N   UNL     1     -10.809   9.020  70.758  1.00  0.00    -0.233 N  
BRANCH   3   4
HETATM    4  C   UNL     1      -9.806   8.794  71.825  1.00  0.00    -0.321 C  
HETATM    5  C   UNL     1     -10.171   7.870  72.984  1.00  0.00    -0.394 C  
ENDBRANCH   3   4
BRANCH   3   6
HETATM    6  C   UNL     1     -10.419   9.104  69.389  1.00  0.00    -0.219 C  
HETATM    7  S   UNL     1      -9.808  10.500  68.645  1.00  0.00    -0.187 S  
BRANCH   6   8
HETATM    8  S   UNL     1     -10.469   7.581  68.448  1.00  0.00    -0.141 SA 
BRANCH   8   9
HETATM    9  S   UNL     1      -8.567   6.798  68.676  1.00  0.00    -0.122 SA 
BRANCH   9  10
HETATM   10  C   UNL     1      -8.687   5.499  69.883  1.00  0.00    -0.123 C  
HETATM   11  S   UNL     1     -10.116   4.943  70.573  1.00  0.00    -0.220 S  
BRANCH  10  12
HETATM   12  N   UNL     1      -7.448   4.877  70.099  1.00  0.00    -0.058 N  
BRANCH  12  13
HETATM   13  C   UNL     1      -6.363   5.585  70.794  1.00  0.00    -0.031 C  
HETATM   14  C   UNL     1      -6.770   6.263  72.093  1.00  0.00    -0.064 C  
ENDBRANCH  12  13
BRANCH  12  15
HETATM   15  C   UNL     1      -7.164   3.569  69.488  1.00  0.00    -0.045 C  
HETATM   16  C   UNL     1      -7.183   2.408  70.468  1.00  0.00    -0.033 C  
ENDBRANCH  12  15
ENDBRANCH  10  12
ENDBRANCH   9  10
ENDBRANCH   8   9
ENDBRANCH   6   8
ENDBRANCH   3   6
ENDBRANCH   2   3
TORSDOF 9
ENDMDL
MODEL      355
REMARK 921   NORMALIZED FREE ENERGY PREDICTED BY IDOCK:   -2.12 KCAL/MOL
REMARK 922        TOTAL FREE ENERGY PREDICTED BY IDOCK:   -3.75 KCAL/MOL
REMARK 923 INTER-LIGAND FREE ENERGY PREDICTED BY IDOCK:   -3.28 KCAL/MOL
REMARK 924 INTRA-LIGAND FREE ENERGY PREDICTED BY IDOCK:   -0.47 KCAL/MOL
REMARK 927      BINDING AFFINITY PREDICTED BY RF-SCORE:    0.00 PKD
ROOT
HETATM    1  C   UNL     1     -12.217  14.168  68.586  1.00  0.00    -0.216 C  
HETATM    2  C   UNL     1     -10.752  13.739  68.614  1.00  0.00    -0.256 C  
ENDROOT
BRANCH   2   3
HETATM    3  N   UNL     1      -9.879  14.581  67.767  1.00  0.00    -0.218 N  
BRANCH   3   4
HETATM    4  C   UNL     1     -10.502  15.650  66.949  1.00  0.00    -0.307 C  
HETATM    5  C   UNL     1     -10.576  15.460  65.436  1.00  0.00    -0.430 C  
ENDBRANCH   3   4
BRANCH   3   6
HETATM    6  C   UNL     1      -8.480  14.322  67.692  1.00  0.00    -0.180 C  
HETATM    7  S   UNL     1      -7.287  15.513  67.505  1.00  0.00    -0.206 S  
BRANCH   6   8
HETATM    8  S   UNL     1      -7.967  12.624  67.943  1.00  0.00    -0.171 SA 
BRANCH   8   9
HETATM    9  S   UNL     1      -8.785  11.618  66.330  1.00  0.00    -0.132 SA 
BRANCH   9  10
HETATM   10  C   UNL     1      -7.615  10.367  65.858  1.00  0.00    -0.146 C  
HETATM   11  S   UNL     1      -5.942  10.521  65.939  1.00  0.00    -0.133 S  
BRANCH  10  12
HETATM   12  N   UNL     1      -8.250   9.159  65.536  1.00  0.00    -0.118 N  
BRANCH  12  13
HETATM   13  C   UNL     1      -8.664   8.224  66.593  1.00  0.00    -0.136 C  
HETATM   14  C   UNL     1     -10.168   8.061  66.750  1.00  0.00    -0.367 C  
ENDBRANCH  12  13
BRANCH  12  15
HETATM   15  C   UNL     1      -8.363   8.735  64.132  1.00  0.00    -0.149 C  
HETATM   16  C   UNL     1      -7.836   7.336  63.860  1.00  0.00    -0.111 C  
ENDBRANCH  12  15
ENDBRANCH  10  12
ENDBRANCH   9  10
ENDBRANCH   8   9
ENDBRANCH   6   8
ENDBRANCH   3   6
ENDBRANCH   2   3
TORSDOF 9
ENDMDL
MODEL      356
REMARK 921   NORMALIZED FREE ENERGY PREDICTED BY IDOCK:   -2.12 KCAL/MOL
REMARK 922        TOTAL FREE ENERGY PREDICTED BY IDOCK:   -3.75 KCAL/MOL
REMARK 923 INTER-LIGAND FREE ENERGY PREDICTED BY IDOCK:   -3.33 KCAL/MOL
REMARK 924 INTRA-LIGAND FREE ENERGY PREDICTED BY IDOCK:   -0.42 KCAL/MOL
REMARK 927      BINDING AFFINITY PREDICTED BY RF-SCORE:    0.00 PKD
ROOT
HETATM    1  C   UNL     1     -10.112   4.999  66.606  1.00  0.00    -0.276 C  
HETATM    2  C   UNL     1     -10.997   6.204  66.916  1.00  0.00    -0.305 C  
ENDROOT
BRANCH   2   3
HETATM    3  N   UNL     1     -10.290   7.276  67.650  1.00  0.00    -0.207 N  
BRANCH   3   4
HETATM    4  C   UNL     1     -10.585   7.462  69.091  1.00  0.00    -0.204 C  
HETATM    5  C   UNL     1      -9.514   8.090  69.978  1.00  0.00    -0.160 C  
ENDBRANCH   3   4
BRANCH   3   6
HETATM    6  C   UNL     1      -9.395   8.149  66.965  1.00  0.00    -0.155 C  
HETATM    7  S   UNL     1      -7.725   7.893  66.813  1.00  0.00    -0.100 S  
BRANCH   6   8
HETATM    8  S   UNL     1     -10.132   9.538  66.109  1.00  0.00    -0.209 SA 
BRANCH   8   9
HETATM    9  S   UNL     1      -8.619  10.949  66.061  1.00  0.00    -0.174 SA 
BRANCH   9  10
HETATM   10  C   UNL     1      -8.590  11.725  67.659  1.00  0.00    -0.153 C  
HETATM   11  S   UNL     1      -7.554  11.318  68.919  1.00  0.00    -0.106 S  
BRANCH  10  12
HETATM   12  N   UNL     1      -9.447  12.835  67.710  1.00  0.00    -0.198 N  
BRANCH  12  13
HETATM   13  C   UNL     1     -10.894  12.658  67.902  1.00  0.00    -0.219 C  
HETATM   14  C   UNL     1     -11.731  12.824  66.644  1.00  0.00    -0.459 C  
ENDBRANCH  12  13
BRANCH  12  15
HETATM   15  C   UNL     1      -8.931  14.179  67.408  1.00  0.00    -0.202 C  
HETATM   16  C   UNL     1      -9.479  15.272  68.310  1.00  0.00    -0.205 C  
ENDBRANCH  12  15
ENDBRANCH  10  12
ENDBRANCH   9  10
ENDBRANCH   8   9
ENDBRANCH   6   8
ENDBRANCH   3   6
ENDBRANCH   2   3
TORSDOF 9
ENDMDL
MODEL      357
REMARK 921   NORMALIZED FREE ENERGY PREDICTED BY IDOCK:   -2.12 KCAL/MOL
REMARK 922        TOTAL FREE ENERGY PREDICTED BY IDOCK:   -3.74 KCAL/MOL
REMARK 923 INTER-LIGAND FREE ENERGY PREDICTED BY IDOCK:   -3.34 KCAL/MOL
REMARK 924 INTRA-LIGAND FREE ENERGY PREDICTED BY IDOCK:   -0.41 KCAL/MOL
REMARK 927      BINDING AFFINITY PREDICTED BY RF-SCORE:    0.00 PKD
ROOT
HETATM    1  C   UNL     1     -12.043  10.570  70.660  1.00  0.00    -0.452 C  
HETATM    2  C   UNL     1     -11.999  11.121  69.237  1.00  0.00    -0.351 C  
ENDROOT
BRANCH   2   3
HETATM    3  N   UNL     1     -10.630  11.206  68.685  1.00  0.00    -0.183 N  
BRANCH   3   4
HETATM    4  C   UNL     1     -10.139  12.521  68.207  1.00  0.00    -0.228 C  
HETATM    5  C   UNL     1     -10.344  12.884  66.738  1.00  0.00    -0.250 C  
ENDBRANCH   3   4
BRANCH   3   6
HETATM    6  C   UNL     1      -9.830  10.033  68.557  1.00  0.00    -0.156 C  
HETATM    7  S   UNL     1      -8.601   9.582  69.634  1.00  0.00    -0.201 S  
BRANCH   6   8
HETATM    8  S   UNL     1     -10.260   8.914  67.227  1.00  0.00    -0.277 SA 
BRANCH   8   9
HETATM    9  S   UNL     1      -9.018   7.287  67.530  1.00  0.00    -0.121 SA 
BRANCH   9  10
HETATM   10  C   UNL     1      -8.710   6.571  65.932  1.00  0.00    -0.141 C  
HETATM   11  S   UNL     1      -8.030   7.376  64.622  1.00  0.00    -0.100 S  
BRANCH  10  12
HETATM   12  N   UNL     1      -8.969   5.192  65.924  1.00  0.00    -0.140 N  
BRANCH  12  13
HETATM   13  C   UNL     1      -8.547   4.355  64.792  1.00  0.00    -0.132 C  
HETATM   14  C   UNL     1      -9.666   3.942  63.849  1.00  0.00    -0.164 C  
ENDBRANCH  12  13
BRANCH  12  15
HETATM   15  C   UNL     1      -9.811   4.594  66.972  1.00  0.00    -0.205 C  
HETATM   16  C   UNL     1      -9.241   3.324  67.578  1.00  0.00    -0.233 C  
ENDBRANCH  12  15
ENDBRANCH  10  12
ENDBRANCH   9  10
ENDBRANCH   8   9
ENDBRANCH   6   8
ENDBRANCH   3   6
ENDBRANCH   2   3
TORSDOF 9
ENDMDL
MODEL      358
REMARK 921   NORMALIZED FREE ENERGY PREDICTED BY IDOCK:   -2.11 KCAL/MOL
REMARK 922        TOTAL FREE ENERGY PREDICTED BY IDOCK:   -3.73 KCAL/MOL
REMARK 923 INTER-LIGAND FREE ENERGY PREDICTED BY IDOCK:   -2.98 KCAL/MOL
REMARK 924 INTRA-LIGAND FREE ENERGY PREDICTED BY IDOCK:   -0.75 KCAL/MOL
REMARK 927      BINDING AFFINITY PREDICTED BY RF-SCORE:    0.00 PKD
ROOT
HETATM    1  C   UNL     1      -9.509   4.008  70.020  1.00  0.00    -0.260 C  
HETATM    2  C   UNL     1     -10.366   5.242  70.284  1.00  0.00    -0.280 C  
ENDROOT
BRANCH   2   3
HETATM    3  N   UNL     1      -9.845   6.466  69.635  1.00  0.00    -0.158 N  
BRANCH   3   4
HETATM    4  C   UNL     1      -9.614   6.449  68.171  1.00  0.00    -0.115 C  
HETATM    5  C   UNL     1     -10.817   6.288  67.246  1.00  0.00    -0.457 C  
ENDBRANCH   3   4
BRANCH   3   6
HETATM    6  C   UNL     1      -9.513   7.610  70.418  1.00  0.00    -0.164 C  
HETATM    7  S   UNL     1     -10.501   8.273  71.626  1.00  0.00    -0.259 S  
BRANCH   6   8
HETATM    8  S   UNL     1      -7.877   8.297  70.173  1.00  0.00    -0.099 SA 
BRANCH   8   9
HETATM    9  S   UNL     1      -8.245  10.188  69.415  1.00  0.00    -0.169 SA 
BRANCH   9  10
HETATM   10  C   UNL     1      -9.088   9.966  67.867  1.00  0.00    -0.131 C  
HETATM   11  S   UNL     1     -10.748  10.096  67.637  1.00  0.00    -0.290 S  
BRANCH  10  12
HETATM   12  N   UNL     1      -8.186   9.806  66.805  1.00  0.00    -0.119 N  
BRANCH  12  13
HETATM   13  C   UNL     1      -6.737   9.934  67.024  1.00  0.00    -0.075 C  
HETATM   14  C   UNL     1      -5.985  10.666  65.923  1.00  0.00    -0.133 C  
ENDBRANCH  12  13
BRANCH  12  15
HETATM   15  C   UNL     1      -8.684   9.672  65.427  1.00  0.00    -0.158 C  
HETATM   16  C   UNL     1      -8.528   8.279  64.842  1.00  0.00    -0.115 C  
ENDBRANCH  12  15
ENDBRANCH  10  12
ENDBRANCH   9  10
ENDBRANCH   8   9
ENDBRANCH   6   8
ENDBRANCH   3   6
ENDBRANCH   2   3
TORSDOF 9
ENDMDL
MODEL      359
REMARK 921   NORMALIZED FREE ENERGY PREDICTED BY IDOCK:   -2.08 KCAL/MOL
REMARK 922        TOTAL FREE ENERGY PREDICTED BY IDOCK:   -3.70 KCAL/MOL
REMARK 923 INTER-LIGAND FREE ENERGY PREDICTED BY IDOCK:   -3.16 KCAL/MOL
REMARK 924 INTRA-LIGAND FREE ENERGY PREDICTED BY IDOCK:   -0.54 KCAL/MOL
REMARK 927      BINDING AFFINITY PREDICTED BY RF-SCORE:    0.00 PKD
ROOT
HETATM    1  C   UNL     1      -9.751   9.078  66.204  1.00  0.00    -0.354 C  
HETATM    2  C   UNL     1     -10.598   8.561  67.364  1.00  0.00    -0.234 C  
ENDROOT
BRANCH   2   3
HETATM    3  N   UNL     1     -10.045   7.343  67.995  1.00  0.00    -0.172 N  
BRANCH   3   4
HETATM    4  C   UNL     1      -9.529   6.263  67.121  1.00  0.00    -0.124 C  
HETATM    5  C   UNL     1     -10.533   5.352  66.418  1.00  0.00    -0.324 C  
ENDBRANCH   3   4
BRANCH   3   6
HETATM    6  C   UNL     1     -10.072   7.189  69.412  1.00  0.00    -0.176 C  
HETATM    7  S   UNL     1     -11.454   6.797  70.313  1.00  0.00    -0.351 S  
BRANCH   6   8
HETATM    8  S   UNL     1      -8.498   7.300  70.258  1.00  0.00    -0.138 SA 
BRANCH   8   9
HETATM    9  S   UNL     1      -8.990   7.043  72.252  1.00  0.00    -0.132 SA 
BRANCH   9  10
HETATM   10  C   UNL     1      -8.108   5.608  72.818  1.00  0.00    -0.105 C  
HETATM   11  S   UNL     1      -6.618   5.628  73.598  1.00  0.00    -0.079 S  
BRANCH  10  12
HETATM   12  N   UNL     1      -8.870   4.440  72.669  1.00  0.00    -0.108 N  
BRANCH  12  13
HETATM   13  C   UNL     1      -9.871   4.063  73.679  1.00  0.00    -0.115 C  
HETATM   14  C   UNL     1     -11.278   4.571  73.406  1.00  0.00    -0.404 C  
ENDBRANCH  12  13
BRANCH  12  15
HETATM   15  C   UNL     1      -8.564   3.493  71.587  1.00  0.00    -0.084 C  
HETATM   16  C   UNL     1      -9.469   3.622  70.373  1.00  0.00    -0.255 C  
ENDBRANCH  12  15
ENDBRANCH  10  12
ENDBRANCH   9  10
ENDBRANCH   8   9
ENDBRANCH   6   8
ENDBRANCH   3   6
ENDBRANCH   2   3
TORSDOF 9
ENDMDL
MODEL      360
REMARK 921   NORMALIZED FREE ENERGY PREDICTED BY IDOCK:   -2.08 KCAL/MOL
REMARK 922        TOTAL FREE ENERGY PREDICTED BY IDOCK:   -3.68 KCAL/MOL
REMARK 923 INTER-LIGAND FREE ENERGY PREDICTED BY IDOCK:   -3.32 KCAL/MOL
REMARK 924 INTRA-LIGAND FREE ENERGY PREDICTED BY IDOCK:   -0.37 KCAL/MOL
REMARK 927      BINDING AFFINITY PREDICTED BY RF-SCORE:    0.00 PKD
ROOT
HETATM    1  C   UNL     1      -7.565  10.876  66.577  1.00  0.00    -0.142 C  
HETATM    2  C   UNL     1      -8.433  10.574  65.358  1.00  0.00    -0.170 C  
ENDROOT
BRANCH   2   3
HETATM    3  N   UNL     1      -9.873  10.466  65.677  1.00  0.00    -0.242 N  
BRANCH   3   4
HETATM    4  C   UNL     1     -10.360   9.239  66.352  1.00  0.00    -0.168 C  
HETATM    5  C   UNL     1     -10.293   9.170  67.875  1.00  0.00    -0.285 C  
ENDBRANCH   3   4
BRANCH   3   6
HETATM    6  C   UNL     1     -10.778  11.495  65.282  1.00  0.00    -0.279 C  
HETATM    7  S   UNL     1     -11.155  11.883  63.675  1.00  0.00    -0.449 S  
BRANCH   6   8
HETATM    8  S   UNL     1     -11.658  12.333  66.597  1.00  0.00    -0.350 SA 
BRANCH   8   9
HETATM    9  S   UNL     1     -10.157  12.946  67.883  1.00  0.00    -0.238 SA 
BRANCH   9  10
HETATM   10  C   UNL     1     -10.004  14.707  67.692  1.00  0.00    -0.227 C  
HETATM   11  S   UNL     1     -10.467  15.580  66.332  1.00  0.00    -0.314 S  
BRANCH  10  12
HETATM   12  N   UNL     1      -9.576  15.321  68.878  1.00  0.00    -0.209 N  
BRANCH  12  13
HETATM   13  C   UNL     1      -8.148  15.376  69.224  1.00  0.00    -0.246 C  
HETATM   14  C   UNL     1      -7.308  16.276  68.330  1.00  0.00    -0.158 C  
ENDBRANCH  12  13
BRANCH  12  15
HETATM   15  C   UNL     1     -10.563  15.772  69.872  1.00  0.00    -0.328 C  
HETATM   16  C   UNL     1     -10.684  17.282  69.987  1.00  0.00     0.485 C  
ENDBRANCH  12  15
ENDBRANCH  10  12
ENDBRANCH   9  10
ENDBRANCH   8   9
ENDBRANCH   6   8
ENDBRANCH   3   6
ENDBRANCH   2   3
TORSDOF 9
ENDMDL
MODEL      361
REMARK 921   NORMALIZED FREE ENERGY PREDICTED BY IDOCK:   -2.05 KCAL/MOL
REMARK 922        TOTAL FREE ENERGY PREDICTED BY IDOCK:   -3.64 KCAL/MOL
REMARK 923 INTER-LIGAND FREE ENERGY PREDICTED BY IDOCK:   -3.06 KCAL/MOL
REMARK 924 INTRA-LIGAND FREE ENERGY PREDICTED BY IDOCK:   -0.58 KCAL/MOL
REMARK 927      BINDING AFFINITY PREDICTED BY RF-SCORE:    0.00 PKD
ROOT
HETATM    1  C   UNL     1     -11.991  10.333  70.840  1.00  0.00    -0.473 C  
HETATM    2  C   UNL     1     -11.511  11.086  69.602  1.00  0.00    -0.303 C  
ENDROOT
BRANCH   2   3
HETATM    3  N   UNL     1     -10.170  10.663  69.143  1.00  0.00    -0.213 N  
BRANCH   3   4
HETATM    4  C   UNL     1      -9.380  11.596  68.306  1.00  0.00    -0.191 C  
HETATM    5  C   UNL     1      -9.244  11.300  66.814  1.00  0.00    -0.186 C  
ENDBRANCH   3   4
BRANCH   3   6
HETATM    6  C   UNL     1      -9.682   9.358  69.448  1.00  0.00    -0.177 C  
HETATM    7  S   UNL     1      -8.611   9.001  70.713  1.00  0.00    -0.229 S  
BRANCH   6   8
HETATM    8  S   UNL     1     -10.364   8.006  68.492  1.00  0.00    -0.173 SA 
BRANCH   8   9
HETATM    9  S   UNL     1      -9.463   6.327  69.300  1.00  0.00    -0.134 SA 
BRANCH   9  10
HETATM   10  C   UNL     1      -8.106   5.908  68.232  1.00  0.00    -0.109 C  
HETATM   11  S   UNL     1      -6.480   5.972  68.656  1.00  0.00    -0.051 S  
BRANCH  10  12
HETATM   12  N   UNL     1      -8.552   5.370  67.016  1.00  0.00    -0.110 N  
BRANCH  12  13
HETATM   13  C   UNL     1      -7.964   5.807  65.741  1.00  0.00    -0.110 C  
HETATM   14  C   UNL     1      -8.044   7.304  65.479  1.00  0.00    -0.132 C  
ENDBRANCH  12  13
BRANCH  12  15
HETATM   15  C   UNL     1      -9.725   4.483  66.987  1.00  0.00    -0.202 C  
HETATM   16  C   UNL     1     -10.575   4.615  65.735  1.00  0.00    -0.264 C  
ENDBRANCH  12  15
ENDBRANCH  10  12
ENDBRANCH   9  10
ENDBRANCH   8   9
ENDBRANCH   6   8
ENDBRANCH   3   6
ENDBRANCH   2   3
TORSDOF 9
ENDMDL
MODEL      362
REMARK 921   NORMALIZED FREE ENERGY PREDICTED BY IDOCK:   -2.04 KCAL/MOL
REMARK 922        TOTAL FREE ENERGY PREDICTED BY IDOCK:   -3.63 KCAL/MOL
REMARK 923 INTER-LIGAND FREE ENERGY PREDICTED BY IDOCK:   -3.28 KCAL/MOL
REMARK 924 INTRA-LIGAND FREE ENERGY PREDICTED BY IDOCK:   -0.35 KCAL/MOL
REMARK 927      BINDING AFFINITY PREDICTED BY RF-SCORE:    0.00 PKD
ROOT
HETATM    1  C   UNL     1      -6.527  10.627  66.641  1.00  0.00    -0.100 C  
HETATM    2  C   UNL     1      -7.630  10.096  65.729  1.00  0.00    -0.134 C  
ENDROOT
BRANCH   2   3
HETATM    3  N   UNL     1      -8.984  10.536  66.131  1.00  0.00    -0.156 N  
BRANCH   3   4
HETATM    4  C   UNL     1      -9.650  11.595  65.336  1.00  0.00    -0.205 C  
HETATM    5  C   UNL     1      -9.992  11.305  63.877  1.00  0.00    -0.368 C  
ENDBRANCH   3   4
BRANCH   3   6
HETATM    6  C   UNL     1      -9.601   9.996  67.297  1.00  0.00    -0.156 C  
HETATM    7  S   UNL     1     -10.094   8.383  67.468  1.00  0.00    -0.238 S  
BRANCH   6   8
HETATM    8  S   UNL     1      -9.735  11.090  68.709  1.00  0.00    -0.169 SA 
BRANCH   8   9
HETATM    9  S   UNL     1     -11.579  11.996  68.457  1.00  0.00    -0.329 SA 
BRANCH   9  10
HETATM   10  C   UNL     1     -11.604  13.415  69.527  1.00  0.00    -0.290 C  
HETATM   11  S   UNL     1     -10.937  14.916  69.166  1.00  0.00    -0.272 S  
BRANCH  10  12
HETATM   12  N   UNL     1     -12.382  13.187  70.672  1.00  0.00    -0.356 N  
BRANCH  12  13
HETATM   13  C   UNL     1     -12.274  11.921  71.413  1.00  0.00     0.179 C  
HETATM   14  C   UNL     1     -13.603  11.294  71.804  1.00  0.00    -0.032 C  
ENDBRANCH  12  13
BRANCH  12  15
HETATM   15  C   UNL     1     -13.434  14.142  71.051  1.00  0.00    -0.172 C  
HETATM   16  C   UNL     1     -13.271  14.725  72.445  1.00  0.00    -0.479 C  
ENDBRANCH  12  15
ENDBRANCH  10  12
ENDBRANCH   9  10
ENDBRANCH   8   9
ENDBRANCH   6   8
ENDBRANCH   3   6
ENDBRANCH   2   3
TORSDOF 9
ENDMDL
MODEL      363
REMARK 921   NORMALIZED FREE ENERGY PREDICTED BY IDOCK:   -2.04 KCAL/MOL
REMARK 922        TOTAL FREE ENERGY PREDICTED BY IDOCK:   -3.63 KCAL/MOL
REMARK 923 INTER-LIGAND FREE ENERGY PREDICTED BY IDOCK:   -3.07 KCAL/MOL
REMARK 924 INTRA-LIGAND FREE ENERGY PREDICTED BY IDOCK:   -0.55 KCAL/MOL
REMARK 927      BINDING AFFINITY PREDICTED BY RF-SCORE:    0.00 PKD
ROOT
HETATM    1  C   UNL     1      -9.398   2.607  68.871  1.00  0.00    -0.223 C  
HETATM    2  C   UNL     1      -8.152   3.486  68.942  1.00  0.00    -0.061 C  
ENDROOT
BRANCH   2   3
HETATM    3  N   UNL     1      -8.458   4.926  69.089  1.00  0.00    -0.081 N  
BRANCH   3   4
HETATM    4  C   UNL     1      -8.150   5.589  70.379  1.00  0.00    -0.103 C  
HETATM    5  C   UNL     1      -6.725   6.081  70.622  1.00  0.00    -0.053 C  
ENDBRANCH   3   4
BRANCH   3   6
HETATM    6  C   UNL     1      -9.098   5.638  68.033  1.00  0.00    -0.107 C  
HETATM    7  S   UNL     1      -8.551   5.679  66.428  1.00  0.00    -0.127 S  
BRANCH   6   8
HETATM    8  S   UNL     1     -10.655   6.429  68.430  1.00  0.00    -0.287 SA 
BRANCH   8   9
HETATM    9  S   UNL     1     -10.657   8.132  67.254  1.00  0.00    -0.203 SA 
BRANCH   9  10
HETATM   10  C   UNL     1      -9.866   9.411  68.200  1.00  0.00    -0.160 C  
HETATM   11  S   UNL     1      -8.390   9.262  68.992  1.00  0.00    -0.126 S  
BRANCH  10  12
HETATM   12  N   UNL     1     -10.550  10.631  68.096  1.00  0.00    -0.187 N  
BRANCH  12  13
HETATM   13  C   UNL     1     -10.725  11.285  66.790  1.00  0.00    -0.275 C  
HETATM   14  C   UNL     1     -11.731  12.426  66.775  1.00  0.00    -0.430 C  
ENDBRANCH  12  13
BRANCH  12  15
HETATM   15  C   UNL     1     -10.959  11.354  69.310  1.00  0.00    -0.229 C  
HETATM   16  C   UNL     1     -12.143  10.735  70.033  1.00  0.00    -0.423 C  
ENDBRANCH  12  15
ENDBRANCH  10  12
ENDBRANCH   9  10
ENDBRANCH   8   9
ENDBRANCH   6   8
ENDBRANCH   3   6
ENDBRANCH   2   3
TORSDOF 9
ENDMDL
MODEL      364
REMARK 921   NORMALIZED FREE ENERGY PREDICTED BY IDOCK:   -2.02 KCAL/MOL
REMARK 922        TOTAL FREE ENERGY PREDICTED BY IDOCK:   -3.59 KCAL/MOL
REMARK 923 INTER-LIGAND FREE ENERGY PREDICTED BY IDOCK:   -2.91 KCAL/MOL
REMARK 924 INTRA-LIGAND FREE ENERGY PREDICTED BY IDOCK:   -0.68 KCAL/MOL
REMARK 927      BINDING AFFINITY PREDICTED BY RF-SCORE:    0.00 PKD
ROOT
HETATM    1  C   UNL     1      -9.380   3.392  69.319  1.00  0.00    -0.240 C  
HETATM    2  C   UNL     1      -8.315   4.456  69.571  1.00  0.00    -0.062 C  
ENDROOT
BRANCH   2   3
HETATM    3  N   UNL     1      -8.863   5.829  69.627  1.00  0.00    -0.121 N  
BRANCH   3   4
HETATM    4  C   UNL     1      -9.320   6.358  70.934  1.00  0.00    -0.161 C  
HETATM    5  C   UNL     1      -8.458   7.403  71.638  1.00  0.00    -0.120 C  
ENDBRANCH   3   4
BRANCH   3   6
HETATM    6  C   UNL     1      -9.006   6.597  68.434  1.00  0.00    -0.123 C  
HETATM    7  S   UNL     1      -7.727   7.044  67.415  1.00  0.00    -0.112 S  
BRANCH   6   8
HETATM    8  S   UNL     1     -10.680   6.993  67.935  1.00  0.00    -0.192 SA 
BRANCH   8   9
HETATM    9  S   UNL     1     -10.525   8.908  67.165  1.00  0.00    -0.234 SA 
BRANCH   9  10
HETATM   10  C   UNL     1     -10.537  10.021  68.551  1.00  0.00    -0.215 C  
HETATM   11  S   UNL     1     -11.137   9.663  70.080  1.00  0.00    -0.276 S  
BRANCH  10  12
HETATM   12  N   UNL     1      -9.846  11.208  68.267  1.00  0.00    -0.182 N  
BRANCH  12  13
HETATM   13  C   UNL     1      -8.413  11.184  67.940  1.00  0.00    -0.131 C  
HETATM   14  C   UNL     1      -7.533  10.495  68.972  1.00  0.00    -0.112 C  
ENDBRANCH  12  13
BRANCH  12  15
HETATM   15  C   UNL     1     -10.508  12.509  68.452  1.00  0.00    -0.240 C  
HETATM   16  C   UNL     1     -11.818  12.653  67.697  1.00  0.00    -0.390 C  
ENDBRANCH  12  15
ENDBRANCH  10  12
ENDBRANCH   9  10
ENDBRANCH   8   9
ENDBRANCH   6   8
ENDBRANCH   3   6
ENDBRANCH   2   3
TORSDOF 9
ENDMDL
MODEL      365
REMARK 921   NORMALIZED FREE ENERGY PREDICTED BY IDOCK:   -2.01 KCAL/MOL
REMARK 922        TOTAL FREE ENERGY PREDICTED BY IDOCK:   -3.58 KCAL/MOL
REMARK 923 INTER-LIGAND FREE ENERGY PREDICTED BY IDOCK:   -3.10 KCAL/MOL
REMARK 924 INTRA-LIGAND FREE ENERGY PREDICTED BY IDOCK:   -0.48 KCAL/MOL
REMARK 927      BINDING AFFINITY PREDICTED BY RF-SCORE:    0.00 PKD
ROOT
HETATM    1  C   UNL     1      -7.188   9.097  62.963  1.00  0.00    -0.094 C  
HETATM    2  C   UNL     1      -7.715   8.620  64.314  1.00  0.00    -0.128 C  
ENDROOT
BRANCH   2   3
HETATM    3  N   UNL     1      -6.843   8.996  65.448  1.00  0.00    -0.072 N  
BRANCH   3   4
HETATM    4  C   UNL     1      -5.491   8.393  65.535  1.00  0.00    -0.035 C  
HETATM    5  C   UNL     1      -5.375   6.917  65.906  1.00  0.00    -0.023 C  
ENDBRANCH   3   4
BRANCH   3   6
HETATM    6  C   UNL     1      -7.323   9.870  66.468  1.00  0.00    -0.099 C  
HETATM    7  S   UNL     1      -6.638  10.018  68.012  1.00  0.00    -0.063 S  
BRANCH   6   8
HETATM    8  S   UNL     1      -8.665  10.966  66.014  1.00  0.00    -0.188 SA 
BRANCH   8   9
HETATM    9  S   UNL     1      -9.030  12.041  67.745  1.00  0.00    -0.184 SA 
BRANCH   9  10
HETATM   10  C   UNL     1     -10.795  12.149  67.919  1.00  0.00    -0.217 C  
HETATM   11  S   UNL     1     -11.727  11.225  68.971  1.00  0.00    -0.362 S  
BRANCH  10  12
HETATM   12  N   UNL     1     -11.325  13.211  67.171  1.00  0.00    -0.301 N  
BRANCH  12  13
HETATM   13  C   UNL     1     -11.004  14.604  67.513  1.00  0.00    -0.298 C  
HETATM   14  C   UNL     1     -11.672  15.123  68.777  1.00  0.00    -0.366 C  
ENDBRANCH  12  13
BRANCH  12  15
HETATM   15  C   UNL     1     -12.338  12.951  66.137  1.00  0.00    -0.196 C  
HETATM   16  C   UNL     1     -12.523  14.089  65.147  1.00  0.00    -0.472 C  
ENDBRANCH  12  15
ENDBRANCH  10  12
ENDBRANCH   9  10
ENDBRANCH   8   9
ENDBRANCH   6   8
ENDBRANCH   3   6
ENDBRANCH   2   3
TORSDOF 9
ENDMDL
MODEL      366
REMARK 921   NORMALIZED FREE ENERGY PREDICTED BY IDOCK:   -2.00 KCAL/MOL
REMARK 922        TOTAL FREE ENERGY PREDICTED BY IDOCK:   -3.56 KCAL/MOL
REMARK 923 INTER-LIGAND FREE ENERGY PREDICTED BY IDOCK:   -3.57 KCAL/MOL
REMARK 924 INTRA-LIGAND FREE ENERGY PREDICTED BY IDOCK:    0.01 KCAL/MOL
REMARK 927      BINDING AFFINITY PREDICTED BY RF-SCORE:    0.00 PKD
ROOT
HETATM    1  C   UNL     1      -9.204   9.727  63.690  1.00  0.00    -0.229 C  
HETATM    2  C   UNL     1      -8.023   9.467  64.621  1.00  0.00    -0.124 C  
ENDROOT
BRANCH   2   3
HETATM    3  N   UNL     1      -8.095  10.230  65.886  1.00  0.00    -0.137 N  
BRANCH   3   4
HETATM    4  C   UNL     1      -6.911  11.015  66.309  1.00  0.00    -0.096 C  
HETATM    5  C   UNL     1      -5.548  10.648  65.727  1.00  0.00    -0.134 C  
ENDBRANCH   3   4
BRANCH   3   6
HETATM    6  C   UNL     1      -9.258  10.155  66.708  1.00  0.00    -0.151 C  
HETATM    7  S   UNL     1     -10.093   8.724  67.067  1.00  0.00    -0.288 S  
BRANCH   6   8
HETATM    8  S   UNL     1      -9.773  11.674  67.504  1.00  0.00    -0.179 SA 
BRANCH   8   9
HETATM    9  S   UNL     1     -10.369  12.878  65.929  1.00  0.00    -0.289 SA 
BRANCH   9  10
HETATM   10  C   UNL     1     -10.331  14.554  66.521  1.00  0.00    -0.283 C  
HETATM   11  S   UNL     1     -10.437  15.927  65.558  1.00  0.00    -0.403 S  
BRANCH  10  12
HETATM   12  N   UNL     1     -10.346  14.608  67.923  1.00  0.00    -0.236 N  
BRANCH  12  13
HETATM   13  C   UNL     1      -9.092  14.552  68.690  1.00  0.00    -0.187 C  
HETATM   14  C   UNL     1      -8.346  15.873  68.793  1.00  0.00    -0.206 C  
ENDBRANCH  12  13
BRANCH  12  15
HETATM   15  C   UNL     1     -11.624  14.555  68.649  1.00  0.00    -0.315 C  
HETATM   16  C   UNL     1     -11.965  15.831  69.401  1.00  0.00    -0.321 C  
ENDBRANCH  12  15
ENDBRANCH  10  12
ENDBRANCH   9  10
ENDBRANCH   8   9
ENDBRANCH   6   8
ENDBRANCH   3   6
ENDBRANCH   2   3
TORSDOF 9
ENDMDL
MODEL      367
REMARK 921   NORMALIZED FREE ENERGY PREDICTED BY IDOCK:   -1.99 KCAL/MOL
REMARK 922        TOTAL FREE ENERGY PREDICTED BY IDOCK:   -3.55 KCAL/MOL
REMARK 923 INTER-LIGAND FREE ENERGY PREDICTED BY IDOCK:   -3.18 KCAL/MOL
REMARK 924 INTRA-LIGAND FREE ENERGY PREDICTED BY IDOCK:   -0.37 KCAL/MOL
REMARK 927      BINDING AFFINITY PREDICTED BY RF-SCORE:    0.00 PKD
ROOT
HETATM    1  C   UNL     1      -6.212   7.766  70.132  1.00  0.00    -0.033 C  
HETATM    2  C   UNL     1      -7.703   7.543  69.895  1.00  0.00    -0.098 C  
ENDROOT
BRANCH   2   3
HETATM    3  N   UNL     1      -8.130   7.860  68.515  1.00  0.00    -0.121 N  
BRANCH   3   4
HETATM    4  C   UNL     1      -8.656   6.765  67.665  1.00  0.00    -0.121 C  
HETATM    5  C   UNL     1      -9.429   7.132  66.401  1.00  0.00    -0.177 C  
ENDBRANCH   3   4
BRANCH   3   6
HETATM    6  C   UNL     1      -7.974   9.180  67.998  1.00  0.00    -0.101 C  
HETATM    7  S   UNL     1      -6.841   9.625  66.817  1.00  0.00    -0.084 S  
BRANCH   6   8
HETATM    8  S   UNL     1      -9.154  10.404  68.561  1.00  0.00    -0.153 SA 
BRANCH   8   9
HETATM    9  S   UNL     1      -8.630  12.111  67.515  1.00  0.00    -0.182 SA 
BRANCH   9  10
HETATM   10  C   UNL     1     -10.085  12.649  66.648  1.00  0.00    -0.241 C  
HETATM   11  S   UNL     1     -10.903  11.761  65.478  1.00  0.00    -0.288 S  
BRANCH  10  12
HETATM   12  N   UNL     1     -10.572  13.862  67.157  1.00  0.00    -0.276 N  
BRANCH  12  13
HETATM   13  C   UNL     1     -11.882  13.926  67.821  1.00  0.00    -0.380 C  
HETATM   14  C   UNL     1     -11.983  14.953  68.939  1.00  0.00    -0.295 C  
ENDBRANCH  12  13
BRANCH  12  15
HETATM   15  C   UNL     1      -9.853  15.117  66.887  1.00  0.00    -0.237 C  
HETATM   16  C   UNL     1     -10.094  15.685  65.498  1.00  0.00    -0.395 C  
ENDBRANCH  12  15
ENDBRANCH  10  12
ENDBRANCH   9  10
ENDBRANCH   8   9
ENDBRANCH   6   8
ENDBRANCH   3   6
ENDBRANCH   2   3
TORSDOF 9
ENDMDL
MODEL      368
REMARK 921   NORMALIZED FREE ENERGY PREDICTED BY IDOCK:   -1.98 KCAL/MOL
REMARK 922        TOTAL FREE ENERGY PREDICTED BY IDOCK:   -3.54 KCAL/MOL
REMARK 923 INTER-LIGAND FREE ENERGY PREDICTED BY IDOCK:   -3.20 KCAL/MOL
REMARK 924 INTRA-LIGAND FREE ENERGY PREDICTED BY IDOCK:   -0.34 KCAL/MOL
REMARK 927      BINDING AFFINITY PREDICTED BY RF-SCORE:    0.00 PKD
ROOT
HETATM    1  C   UNL     1     -13.085  10.120  71.019  1.00  0.00    -0.458 C  
HETATM    2  C   UNL     1     -11.606   9.956  71.361  1.00  0.00    -0.352 C  
ENDROOT
BRANCH   2   3
HETATM    3  N   UNL     1     -11.200   8.544  71.537  1.00  0.00    -0.261 N  
BRANCH   3   4
HETATM    4  C   UNL     1     -12.151   7.478  71.142  1.00  0.00    -0.307 C  
HETATM    5  C   UNL     1     -11.659   6.370  70.214  1.00  0.00    -0.451 C  
ENDBRANCH   3   4
BRANCH   3   6
HETATM    6  C   UNL     1      -9.946   8.224  72.136  1.00  0.00    -0.273 C  
HETATM    7  S   UNL     1      -9.761   7.347  73.575  1.00  0.00    -0.302 S  
BRANCH   6   8
HETATM    8  S   UNL     1      -8.480   8.685  71.216  1.00  0.00    -0.191 SA 
BRANCH   8   9
HETATM    9  S   UNL     1      -9.114   8.686  69.245  1.00  0.00    -0.150 SA 
BRANCH   9  10
HETATM   10  C   UNL     1      -7.653   8.757  68.236  1.00  0.00    -0.096 C  
HETATM   11  S   UNL     1      -7.093  10.124  67.434  1.00  0.00    -0.084 S  
BRANCH  10  12
HETATM   12  N   UNL     1      -6.924   7.561  68.296  1.00  0.00    -0.067 N  
BRANCH  12  13
HETATM   13  C   UNL     1      -7.540   6.285  67.904  1.00  0.00    -0.102 C  
HETATM   14  C   UNL     1      -7.070   5.731  66.567  1.00  0.00    -0.069 C  
ENDBRANCH  12  13
BRANCH  12  15
HETATM   15  C   UNL     1      -5.586   7.543  68.908  1.00  0.00    -0.022 C  
HETATM   16  C   UNL     1      -5.275   6.274  69.684  1.00  0.00    -0.013 C  
ENDBRANCH  12  15
ENDBRANCH  10  12
ENDBRANCH   9  10
ENDBRANCH   8   9
ENDBRANCH   6   8
ENDBRANCH   3   6
ENDBRANCH   2   3
TORSDOF 9
ENDMDL
MODEL      369
REMARK 921   NORMALIZED FREE ENERGY PREDICTED BY IDOCK:   -1.98 KCAL/MOL
REMARK 922        TOTAL FREE ENERGY PREDICTED BY IDOCK:   -3.54 KCAL/MOL
REMARK 923 INTER-LIGAND FREE ENERGY PREDICTED BY IDOCK:   -3.06 KCAL/MOL
REMARK 924 INTRA-LIGAND FREE ENERGY PREDICTED BY IDOCK:   -0.48 KCAL/MOL
REMARK 927      BINDING AFFINITY PREDICTED BY RF-SCORE:    0.00 PKD
ROOT
HETATM    1  C   UNL     1     -12.630  10.709  71.256  1.00  0.00    -0.533 C  
HETATM    2  C   UNL     1     -12.245   9.237  71.143  1.00  0.00    -0.301 C  
ENDROOT
BRANCH   2   3
HETATM    3  N   UNL     1     -10.840   9.029  70.728  1.00  0.00    -0.233 N  
BRANCH   3   4
HETATM    4  C   UNL     1      -9.823   8.766  71.774  1.00  0.00    -0.321 C  
HETATM    5  C   UNL     1     -10.177   7.810  72.910  1.00  0.00    -0.377 C  
ENDBRANCH   3   4
BRANCH   3   6
HETATM    6  C   UNL     1     -10.469   9.147  69.357  1.00  0.00    -0.219 C  
HETATM    7  S   UNL     1      -9.869  10.561  68.638  1.00  0.00    -0.187 S  
BRANCH   6   8
HETATM    8  S   UNL     1     -10.532   7.648  68.380  1.00  0.00    -0.130 SA 
BRANCH   8   9
HETATM    9  S   UNL     1      -9.683   8.199  66.574  1.00  0.00    -0.220 SA 
BRANCH   9  10
HETATM   10  C   UNL     1      -8.017   7.579  66.580  1.00  0.00    -0.110 C  
HETATM   11  S   UNL     1      -7.347   6.605  67.776  1.00  0.00    -0.098 S  
BRANCH  10  12
HETATM   12  N   UNL     1      -7.349   7.879  65.384  1.00  0.00    -0.074 N  
BRANCH  12  13
HETATM   13  C   UNL     1      -6.966   9.262  65.064  1.00  0.00    -0.086 C  
HETATM   14  C   UNL     1      -6.259  10.006  66.186  1.00  0.00    -0.076 C  
ENDBRANCH  12  13
BRANCH  12  15
HETATM   15  C   UNL     1      -7.171   6.839  64.358  1.00  0.00    -0.069 C  
HETATM   16  C   UNL     1      -5.751   6.309  64.251  1.00  0.00    -0.022 C  
ENDBRANCH  12  15
ENDBRANCH  10  12
ENDBRANCH   9  10
ENDBRANCH   8   9
ENDBRANCH   6   8
ENDBRANCH   3   6
ENDBRANCH   2   3
TORSDOF 9
ENDMDL
MODEL      370
REMARK 921   NORMALIZED FREE ENERGY PREDICTED BY IDOCK:   -1.93 KCAL/MOL
REMARK 922        TOTAL FREE ENERGY PREDICTED BY IDOCK:   -3.46 KCAL/MOL
REMARK 923 INTER-LIGAND FREE ENERGY PREDICTED BY IDOCK:   -3.09 KCAL/MOL
REMARK 924 INTRA-LIGAND FREE ENERGY PREDICTED BY IDOCK:   -0.38 KCAL/MOL
REMARK 927      BINDING AFFINITY PREDICTED BY RF-SCORE:    0.00 PKD
ROOT
HETATM    1  C   UNL     1      -9.716  11.844  63.953  1.00  0.00    -0.203 C  
HETATM    2  C   UNL     1     -11.051  11.827  64.693  1.00  0.00    -0.303 C  
ENDROOT
BRANCH   2   3
HETATM    3  N   UNL     1     -10.974  12.408  66.051  1.00  0.00    -0.278 N  
BRANCH   3   4
HETATM    4  C   UNL     1     -11.078  13.879  66.200  1.00  0.00    -0.299 C  
HETATM    5  C   UNL     1      -9.860  14.733  65.856  1.00  0.00    -0.363 C  
ENDBRANCH   3   4
BRANCH   3   6
HETATM    6  C   UNL     1     -10.739  11.571  67.181  1.00  0.00    -0.254 C  
HETATM    7  S   UNL     1     -10.806  12.087  68.794  1.00  0.00    -0.220 S  
BRANCH   6   8
HETATM    8  S   UNL     1     -10.483   9.830  66.846  1.00  0.00    -0.179 SA 
BRANCH   8   9
HETATM    9  S   UNL     1     -10.734   8.930  68.693  1.00  0.00    -0.007 SA 
BRANCH   9  10
HETATM   10  C   UNL     1      -9.189   8.151  69.098  1.00  0.00    -0.151 C  
HETATM   11  S   UNL     1      -8.207   8.559  70.401  1.00  0.00    -0.124 S  
BRANCH  10  12
HETATM   12  N   UNL     1      -8.940   7.039  68.280  1.00  0.00    -0.128 N  
BRANCH  12  13
HETATM   13  C   UNL     1      -9.985   6.032  68.043  1.00  0.00    -0.142 C  
HETATM   14  C   UNL     1     -10.360   5.201  69.260  1.00  0.00    -0.248 C  
ENDBRANCH  12  13
BRANCH  12  15
HETATM   15  C   UNL     1      -7.580   6.780  67.782  1.00  0.00    -0.107 C  
HETATM   16  C   UNL     1      -7.153   7.687  66.641  1.00  0.00    -0.079 C  
ENDBRANCH  12  15
ENDBRANCH  10  12
ENDBRANCH   9  10
ENDBRANCH   8   9
ENDBRANCH   6   8
ENDBRANCH   3   6
ENDBRANCH   2   3
TORSDOF 9
ENDMDL
MODEL      371
REMARK 921   NORMALIZED FREE ENERGY PREDICTED BY IDOCK:   -1.92 KCAL/MOL
REMARK 922        TOTAL FREE ENERGY PREDICTED BY IDOCK:   -3.44 KCAL/MOL
REMARK 923 INTER-LIGAND FREE ENERGY PREDICTED BY IDOCK:   -2.95 KCAL/MOL
REMARK 924 INTRA-LIGAND FREE ENERGY PREDICTED BY IDOCK:   -0.49 KCAL/MOL
REMARK 927      BINDING AFFINITY PREDICTED BY RF-SCORE:    0.00 PKD
ROOT
HETATM    1  C   UNL     1     -12.745  10.466  71.721  1.00  0.00    -0.525 C  
HETATM    2  C   UNL     1     -12.623   9.135  70.984  1.00  0.00    -0.155 C  
ENDROOT
BRANCH   2   3
HETATM    3  N   UNL     1     -11.410   8.372  71.351  1.00  0.00    -0.252 N  
BRANCH   3   4
HETATM    4  C   UNL     1     -11.317   7.801  72.716  1.00  0.00    -0.389 C  
HETATM    5  C   UNL     1     -11.084   6.299  72.863  1.00  0.00    -0.268 C  
ENDBRANCH   3   4
BRANCH   3   6
HETATM    6  C   UNL     1     -10.329   8.249  70.429  1.00  0.00    -0.205 C  
HETATM    7  S   UNL     1      -8.774   8.878  70.677  1.00  0.00    -0.216 S  
BRANCH   6   8
HETATM    8  S   UNL     1     -10.629   7.246  68.976  1.00  0.00    -0.172 SA 
BRANCH   8   9
HETATM    9  S   UNL     1      -8.783   7.168  68.042  1.00  0.00    -0.126 SA 
BRANCH   9  10
HETATM   10  C   UNL     1      -8.196   5.499  68.203  1.00  0.00    -0.096 C  
HETATM   11  S   UNL     1      -8.396   4.525  69.559  1.00  0.00    -0.073 S  
BRANCH  10  12
HETATM   12  N   UNL     1      -7.661   5.020  66.998  1.00  0.00    -0.091 N  
BRANCH  12  13
HETATM   13  C   UNL     1      -8.307   3.912  66.277  1.00  0.00    -0.105 C  
HETATM   14  C   UNL     1      -9.694   4.221  65.737  1.00  0.00    -0.208 C  
ENDBRANCH  12  13
BRANCH  12  15
HETATM   15  C   UNL     1      -6.358   5.509  66.524  1.00  0.00    -0.039 C  
HETATM   16  C   UNL     1      -6.138   5.344  65.029  1.00  0.00    -0.026 C  
ENDBRANCH  12  15
ENDBRANCH  10  12
ENDBRANCH   9  10
ENDBRANCH   8   9
ENDBRANCH   6   8
ENDBRANCH   3   6
ENDBRANCH   2   3
TORSDOF 9
ENDMDL
MODEL      372
REMARK 921   NORMALIZED FREE ENERGY PREDICTED BY IDOCK:   -1.91 KCAL/MOL
REMARK 922        TOTAL FREE ENERGY PREDICTED BY IDOCK:   -3.44 KCAL/MOL
REMARK 923 INTER-LIGAND FREE ENERGY PREDICTED BY IDOCK:   -3.38 KCAL/MOL
REMARK 924 INTRA-LIGAND FREE ENERGY PREDICTED BY IDOCK:   -0.05 KCAL/MOL
REMARK 927      BINDING AFFINITY PREDICTED BY RF-SCORE:    0.00 PKD
ROOT
HETATM    1  C   UNL     1     -12.915   9.778  71.463  1.00  0.00    -0.504 C  
HETATM    2  C   UNL     1     -11.916  10.541  70.598  1.00  0.00    -0.357 C  
ENDROOT
BRANCH   2   3
HETATM    3  N   UNL     1     -10.692   9.766  70.296  1.00  0.00    -0.279 N  
BRANCH   3   4
HETATM    4  C   UNL     1     -10.528   8.430  70.915  1.00  0.00    -0.196 C  
HETATM    5  C   UNL     1     -10.547   7.200  70.011  1.00  0.00    -0.248 C  
ENDBRANCH   3   4
BRANCH   3   6
HETATM    6  C   UNL     1      -9.667  10.327  69.479  1.00  0.00    -0.211 C  
HETATM    7  S   UNL     1      -8.005  10.179  69.780  1.00  0.00    -0.126 S  
BRANCH   6   8
HETATM    8  S   UNL     1     -10.199  11.130  67.969  1.00  0.00    -0.188 SA 
BRANCH   8   9
HETATM    9  S   UNL     1     -10.145   9.616  66.559  1.00  0.00    -0.231 SA 
BRANCH   9  10
HETATM   10  C   UNL     1      -8.453   9.458  66.039  1.00  0.00    -0.124 C  
HETATM   11  S   UNL     1      -7.222   8.749  66.939  1.00  0.00    -0.079 S  
BRANCH  10  12
HETATM   12  N   UNL     1      -8.280   9.869  64.709  1.00  0.00    -0.143 N  
BRANCH  12  13
HETATM   13  C   UNL     1      -7.129   9.401  63.922  1.00  0.00    -0.099 C  
HETATM   14  C   UNL     1      -6.011  10.419  63.756  1.00  0.00    -0.108 C  
ENDBRANCH  12  13
BRANCH  12  15
HETATM   15  C   UNL     1      -9.156  10.903  64.137  1.00  0.00    -0.151 C  
HETATM   16  C   UNL     1      -9.369  10.778  62.638  1.00  0.00    -0.340 C  
ENDBRANCH  12  15
ENDBRANCH  10  12
ENDBRANCH   9  10
ENDBRANCH   8   9
ENDBRANCH   6   8
ENDBRANCH   3   6
ENDBRANCH   2   3
TORSDOF 9
ENDMDL
MODEL      373
REMARK 921   NORMALIZED FREE ENERGY PREDICTED BY IDOCK:   -1.91 KCAL/MOL
REMARK 922        TOTAL FREE ENERGY PREDICTED BY IDOCK:   -3.43 KCAL/MOL
REMARK 923 INTER-LIGAND FREE ENERGY PREDICTED BY IDOCK:   -3.21 KCAL/MOL
REMARK 924 INTRA-LIGAND FREE ENERGY PREDICTED BY IDOCK:   -0.22 KCAL/MOL
REMARK 927      BINDING AFFINITY PREDICTED BY RF-SCORE:    0.00 PKD
ROOT
HETATM    1  C   UNL     1      -8.028   8.380  70.385  1.00  0.00    -0.099 C  
HETATM    2  C   UNL     1      -8.914   7.338  69.708  1.00  0.00    -0.142 C  
ENDROOT
BRANCH   2   3
HETATM    3  N   UNL     1     -10.239   7.864  69.315  1.00  0.00    -0.211 N  
BRANCH   3   4
HETATM    4  C   UNL     1     -10.881   7.326  68.091  1.00  0.00    -0.068 C  
HETATM    5  C   UNL     1     -10.126   7.430  66.768  1.00  0.00    -0.305 C  
ENDBRANCH   3   4
BRANCH   3   6
HETATM    6  C   UNL     1     -10.850   8.912  70.064  1.00  0.00    -0.227 C  
HETATM    7  S   UNL     1     -11.210   8.831  71.719  1.00  0.00    -0.362 S  
BRANCH   6   8
HETATM    8  S   UNL     1     -11.130  10.454  69.198  1.00  0.00    -0.249 SA 
BRANCH   8   9
HETATM    9  S   UNL     1      -9.431  10.684  68.039  1.00  0.00    -0.161 SA 
BRANCH   9  10
HETATM   10  C   UNL     1      -9.808  11.916  66.814  1.00  0.00    -0.197 C  
HETATM   11  S   UNL     1     -10.791  11.681  65.470  1.00  0.00    -0.256 S  
BRANCH  10  12
HETATM   12  N   UNL     1      -9.300  13.174  67.172  1.00  0.00    -0.227 N  
BRANCH  12  13
HETATM   13  C   UNL     1     -10.184  14.346  67.246  1.00  0.00    -0.252 C  
HETATM   14  C   UNL     1     -11.155  14.343  68.418  1.00  0.00    -0.272 C  
ENDBRANCH  12  13
BRANCH  12  15
HETATM   15  C   UNL     1      -7.850  13.370  67.316  1.00  0.00    -0.095 C  
HETATM   16  C   UNL     1      -7.389  13.573  68.750  1.00  0.00    -0.086 C  
ENDBRANCH  12  15
ENDBRANCH  10  12
ENDBRANCH   9  10
ENDBRANCH   8   9
ENDBRANCH   6   8
ENDBRANCH   3   6
ENDBRANCH   2   3
TORSDOF 9
ENDMDL
MODEL      374
REMARK 921   NORMALIZED FREE ENERGY PREDICTED BY IDOCK:   -1.91 KCAL/MOL
REMARK 922        TOTAL FREE ENERGY PREDICTED BY IDOCK:   -3.43 KCAL/MOL
REMARK 923 INTER-LIGAND FREE ENERGY PREDICTED BY IDOCK:   -3.18 KCAL/MOL
REMARK 924 INTRA-LIGAND FREE ENERGY PREDICTED BY IDOCK:   -0.25 KCAL/MOL
REMARK 927      BINDING AFFINITY PREDICTED BY RF-SCORE:    0.00 PKD
ROOT
HETATM    1  C   UNL     1     -11.998  10.361  70.950  1.00  0.00    -0.478 C  
HETATM    2  C   UNL     1     -11.040   9.458  70.178  1.00  0.00    -0.242 C  
ENDROOT
BRANCH   2   3
HETATM    3  N   UNL     1     -11.304   8.017  70.380  1.00  0.00    -0.233 N  
BRANCH   3   4
HETATM    4  C   UNL     1     -10.878   7.064  69.327  1.00  0.00    -0.214 C  
HETATM    5  C   UNL     1     -10.608   5.615  69.723  1.00  0.00    -0.400 C  
ENDBRANCH   3   4
BRANCH   3   6
HETATM    6  C   UNL     1     -12.013   7.568  71.533  1.00  0.00    -0.307 C  
HETATM    7  S   UNL     1     -13.679   7.258  71.580  1.00  0.00    -0.268 S  
BRANCH   6   8
HETATM    8  S   UNL     1     -11.028   7.194  72.981  1.00  0.00    -0.300 SA 
BRANCH   8   9
HETATM    9  S   UNL     1      -9.246   8.189  72.635  1.00  0.00    -0.280 SA 
BRANCH   9  10
HETATM   10  C   UNL     1      -7.961   6.960  72.646  1.00  0.00    -0.101 C  
HETATM   11  S   UNL     1      -7.854   5.676  73.725  1.00  0.00    -0.104 S  
BRANCH  10  12
HETATM   12  N   UNL     1      -7.105   7.098  71.543  1.00  0.00    -0.068 N  
BRANCH  12  13
HETATM   13  C   UNL     1      -6.980   8.386  70.845  1.00  0.00    -0.052 C  
HETATM   14  C   UNL     1      -5.551   8.840  70.590  1.00  0.00    -0.027 C  
ENDBRANCH  12  13
BRANCH  12  15
HETATM   15  C   UNL     1      -6.447   5.914  70.968  1.00  0.00    -0.041 C  
HETATM   16  C   UNL     1      -6.998   5.491  69.617  1.00  0.00    -0.062 C  
ENDBRANCH  12  15
ENDBRANCH  10  12
ENDBRANCH   9  10
ENDBRANCH   8   9
ENDBRANCH   6   8
ENDBRANCH   3   6
ENDBRANCH   2   3
TORSDOF 9
ENDMDL
MODEL      375
REMARK 921   NORMALIZED FREE ENERGY PREDICTED BY IDOCK:   -1.91 KCAL/MOL
REMARK 922        TOTAL FREE ENERGY PREDICTED BY IDOCK:   -3.42 KCAL/MOL
REMARK 923 INTER-LIGAND FREE ENERGY PREDICTED BY IDOCK:   -3.13 KCAL/MOL
REMARK 924 INTRA-LIGAND FREE ENERGY PREDICTED BY IDOCK:   -0.29 KCAL/MOL
REMARK 927      BINDING AFFINITY PREDICTED BY RF-SCORE:    0.00 PKD
ROOT
HETATM    1  C   UNL     1      -7.497  10.127  64.797  1.00  0.00    -0.136 C  
HETATM    2  C   UNL     1      -8.856  10.197  65.486  1.00  0.00    -0.169 C  
ENDROOT
BRANCH   2   3
HETATM    3  N   UNL     1      -9.005   9.221  66.588  1.00  0.00    -0.136 N  
BRANCH   3   4
HETATM    4  C   UNL     1      -9.389   7.828  66.255  1.00  0.00    -0.151 C  
HETATM    5  C   UNL     1      -8.359   6.721  66.459  1.00  0.00    -0.121 C  
ENDBRANCH   3   4
BRANCH   3   6
HETATM    6  C   UNL     1      -8.846   9.635  67.943  1.00  0.00    -0.119 C  
HETATM    7  S   UNL     1      -7.599  10.637  68.506  1.00  0.00    -0.104 S  
BRANCH   6   8
HETATM    8  S   UNL     1     -10.139   9.150  69.084  1.00  0.00    -0.200 SA 
BRANCH   8   9
HETATM    9  S   UNL     1      -9.172   7.903  70.424  1.00  0.00    -0.159 SA 
BRANCH   9  10
HETATM   10  C   UNL     1     -10.131   6.410  70.520  1.00  0.00    -0.186 C  
HETATM   11  S   UNL     1     -10.096   5.159  69.398  1.00  0.00    -0.224 S  
BRANCH  10  12
HETATM   12  N   UNL     1     -10.831   6.322  71.733  1.00  0.00    -0.239 N  
BRANCH  12  13
HETATM   13  C   UNL     1     -12.193   6.863  71.856  1.00  0.00    -0.332 C  
HETATM   14  C   UNL     1     -12.265   8.346  72.184  1.00  0.00    -0.434 C  
ENDBRANCH  12  13
BRANCH  12  15
HETATM   15  C   UNL     1     -10.150   5.835  72.943  1.00  0.00    -0.184 C  
HETATM   16  C   UNL     1      -9.520   6.931  73.786  1.00  0.00    -0.237 C  
ENDBRANCH  12  15
ENDBRANCH  10  12
ENDBRANCH   9  10
ENDBRANCH   8   9
ENDBRANCH   6   8
ENDBRANCH   3   6
ENDBRANCH   2   3
TORSDOF 9
ENDMDL
MODEL      376
REMARK 921   NORMALIZED FREE ENERGY PREDICTED BY IDOCK:   -1.87 KCAL/MOL
REMARK 922        TOTAL FREE ENERGY PREDICTED BY IDOCK:   -3.38 KCAL/MOL
REMARK 923 INTER-LIGAND FREE ENERGY PREDICTED BY IDOCK:   -3.01 KCAL/MOL
REMARK 924 INTRA-LIGAND FREE ENERGY PREDICTED BY IDOCK:   -0.36 KCAL/MOL
REMARK 927      BINDING AFFINITY PREDICTED BY RF-SCORE:    0.00 PKD
ROOT
HETATM    1  C   UNL     1      -7.367   9.120  62.921  1.00  0.00    -0.097 C  
HETATM    2  C   UNL     1      -8.134   8.396  64.024  1.00  0.00    -0.142 C  
ENDROOT
BRANCH   2   3
HETATM    3  N   UNL     1      -7.463   8.457  65.341  1.00  0.00    -0.083 N  
BRANCH   3   4
HETATM    4  C   UNL     1      -6.144   7.800  65.496  1.00  0.00    -0.038 C  
HETATM    5  C   UNL     1      -6.063   6.283  65.345  1.00  0.00    -0.030 C  
ENDBRANCH   3   4
BRANCH   3   6
HETATM    6  C   UNL     1      -8.108   9.078  66.450  1.00  0.00    -0.110 C  
HETATM    7  S   UNL     1      -8.577   8.274  67.867  1.00  0.00    -0.132 S  
BRANCH   6   8
HETATM    8  S   UNL     1      -8.309  10.856  66.365  1.00  0.00    -0.164 SA 
BRANCH   8   9
HETATM    9  S   UNL     1      -8.553  11.420  68.341  1.00  0.00    -0.153 SA 
BRANCH   9  10
HETATM   10  C   UNL     1      -9.716  12.765  68.351  1.00  0.00    -0.186 C  
HETATM   11  S   UNL     1      -9.320  14.392  68.205  1.00  0.00    -0.209 S  
BRANCH  10  12
HETATM   12  N   UNL     1     -11.040  12.303  68.352  1.00  0.00    -0.225 N  
BRANCH  12  13
HETATM   13  C   UNL     1     -11.712  11.945  67.093  1.00  0.00    -0.236 C  
HETATM   14  C   UNL     1     -12.135  13.127  66.235  1.00  0.00    -0.460 C  
ENDBRANCH  12  13
BRANCH  12  15
HETATM   15  C   UNL     1     -11.830  12.328  69.593  1.00  0.00    -0.324 C  
HETATM   16  C   UNL     1     -12.200  10.953  70.122  1.00  0.00    -0.423 C  
ENDBRANCH  12  15
ENDBRANCH  10  12
ENDBRANCH   9  10
ENDBRANCH   8   9
ENDBRANCH   6   8
ENDBRANCH   3   6
ENDBRANCH   2   3
TORSDOF 9
ENDMDL
MODEL      377
REMARK 921   NORMALIZED FREE ENERGY PREDICTED BY IDOCK:   -1.87 KCAL/MOL
REMARK 922        TOTAL FREE ENERGY PREDICTED BY IDOCK:   -3.36 KCAL/MOL
REMARK 923 INTER-LIGAND FREE ENERGY PREDICTED BY IDOCK:   -3.17 KCAL/MOL
REMARK 924 INTRA-LIGAND FREE ENERGY PREDICTED BY IDOCK:   -0.19 KCAL/MOL
REMARK 927      BINDING AFFINITY PREDICTED BY RF-SCORE:    0.00 PKD
ROOT
HETATM    1  C   UNL     1      -7.165  10.977  67.374  1.00  0.00    -0.103 C  
HETATM    2  C   UNL     1      -8.059  11.483  68.503  1.00  0.00    -0.146 C  
ENDROOT
BRANCH   2   3
HETATM    3  N   UNL     1      -8.173  12.957  68.543  1.00  0.00    -0.110 N  
BRANCH   3   4
HETATM    4  C   UNL     1      -7.064  13.739  69.140  1.00  0.00    -0.053 C  
HETATM    5  C   UNL     1      -5.834  12.989  69.643  1.00  0.00    -0.111 C  
ENDBRANCH   3   4
BRANCH   3   6
HETATM    6  C   UNL     1      -9.357  13.601  68.076  1.00  0.00    -0.208 C  
HETATM    7  S   UNL     1     -10.707  13.952  69.040  1.00  0.00    -0.147 S  
BRANCH   6   8
HETATM    8  S   UNL     1      -9.335  14.183  66.383  1.00  0.00    -0.181 SA 
BRANCH   8   9
HETATM    9  S   UNL     1     -10.039  16.124  66.518  1.00  0.00    -0.305 SA 
BRANCH   9  10
HETATM   10  C   UNL     1      -8.629  17.161  66.828  1.00  0.00    -0.243 C  
HETATM   11  S   UNL     1      -7.024  16.702  66.632  1.00  0.00    -0.144 S  
BRANCH  10  12
HETATM   12  N   UNL     1      -9.011  18.478  67.125  1.00  0.00    -0.273 N  
BRANCH  12  13
HETATM   13  C   UNL     1      -8.034  19.575  67.061  1.00  0.00    -0.268 C  
HETATM   14  C   UNL     1      -7.243  19.803  68.340  1.00  0.00    -0.352 C  
ENDBRANCH  12  13
BRANCH  12  15
HETATM   15  C   UNL     1     -10.352  18.754  67.662  1.00  0.00    -0.420 C  
HETATM   16  C   UNL     1     -10.893  20.129  67.308  1.00  0.00    -0.109 C  
ENDBRANCH  12  15
ENDBRANCH  10  12
ENDBRANCH   9  10
ENDBRANCH   8   9
ENDBRANCH   6   8
ENDBRANCH   3   6
ENDBRANCH   2   3
TORSDOF 9
ENDMDL
MODEL      378
REMARK 921   NORMALIZED FREE ENERGY PREDICTED BY IDOCK:   -1.85 KCAL/MOL
REMARK 922        TOTAL FREE ENERGY PREDICTED BY IDOCK:   -3.33 KCAL/MOL
REMARK 923 INTER-LIGAND FREE ENERGY PREDICTED BY IDOCK:   -2.80 KCAL/MOL
REMARK 924 INTRA-LIGAND FREE ENERGY PREDICTED BY IDOCK:   -0.53 KCAL/MOL
REMARK 927      BINDING AFFINITY PREDICTED BY RF-SCORE:    0.00 PKD
ROOT
HETATM    1  C   UNL     1     -10.004  10.260  65.142  1.00  0.00    -0.395 C  
HETATM    2  C   UNL     1      -9.540   9.281  66.218  1.00  0.00    -0.248 C  
ENDROOT
BRANCH   2   3
HETATM    3  N   UNL     1      -8.288   9.698  66.887  1.00  0.00    -0.117 N  
BRANCH   3   4
HETATM    4  C   UNL     1      -7.366  10.606  66.165  1.00  0.00    -0.138 C  
HETATM    5  C   UNL     1      -6.447  11.511  66.981  1.00  0.00    -0.134 C  
ENDBRANCH   3   4
BRANCH   3   6
HETATM    6  C   UNL     1      -7.952   9.181  68.173  1.00  0.00    -0.100 C  
HETATM    7  S   UNL     1      -8.558   9.775  69.640  1.00  0.00    -0.204 S  
BRANCH   6   8
HETATM    8  S   UNL     1      -6.913   7.722  68.200  1.00  0.00    -0.081 SA 
BRANCH   8   9
HETATM    9  S   UNL     1      -7.574   6.677  69.860  1.00  0.00    -0.102 SA 
BRANCH   9  10
HETATM   10  C   UNL     1      -7.908   5.016  69.322  1.00  0.00    -0.076 C  
HETATM   11  S   UNL     1      -6.812   3.742  69.368  1.00  0.00    -0.042 S  
BRANCH  10  12
HETATM   12  N   UNL     1      -9.257   4.844  68.979  1.00  0.00    -0.111 N  
BRANCH  12  13
HETATM   13  C   UNL     1     -10.325   5.275  69.894  1.00  0.00    -0.304 C  
HETATM   14  C   UNL     1     -11.266   6.328  69.328  1.00  0.00    -0.458 C  
ENDBRANCH  12  13
BRANCH  12  15
HETATM   15  C   UNL     1      -9.621   4.082  67.775  1.00  0.00    -0.150 C  
HETATM   16  C   UNL     1      -9.324   4.802  66.470  1.00  0.00    -0.145 C  
ENDBRANCH  12  15
ENDBRANCH  10  12
ENDBRANCH   9  10
ENDBRANCH   8   9
ENDBRANCH   6   8
ENDBRANCH   3   6
ENDBRANCH   2   3
TORSDOF 9
ENDMDL
MODEL      379
REMARK 921   NORMALIZED FREE ENERGY PREDICTED BY IDOCK:   -1.83 KCAL/MOL
REMARK 922        TOTAL FREE ENERGY PREDICTED BY IDOCK:   -3.31 KCAL/MOL
REMARK 923 INTER-LIGAND FREE ENERGY PREDICTED BY IDOCK:   -2.62 KCAL/MOL
REMARK 924 INTRA-LIGAND FREE ENERGY PREDICTED BY IDOCK:   -0.69 KCAL/MOL
REMARK 927      BINDING AFFINITY PREDICTED BY RF-SCORE:    0.00 PKD
ROOT
HETATM    1  C   UNL     1      -9.351   9.139  67.741  1.00  0.00    -0.152 C  
HETATM    2  C   UNL     1      -9.600   9.968  68.998  1.00  0.00    -0.196 C  
ENDROOT
BRANCH   2   3
HETATM    3  N   UNL     1      -8.696   9.620  70.117  1.00  0.00    -0.227 N  
BRANCH   3   4
HETATM    4  C   UNL     1      -7.263   9.985  70.011  1.00  0.00    -0.156 C  
HETATM    5  C   UNL     1      -6.902  11.377  69.500  1.00  0.00    -0.097 C  
ENDBRANCH   3   4
BRANCH   3   6
HETATM    6  C   UNL     1      -9.187   8.891  71.239  1.00  0.00    -0.258 C  
HETATM    7  S   UNL     1     -10.816   8.494  71.495  1.00  0.00    -0.287 S  
BRANCH   6   8
HETATM    8  S   UNL     1      -7.959   8.254  72.377  1.00  0.00    -0.122 SA 
BRANCH   8   9
HETATM    9  S   UNL     1      -8.231   6.204  72.301  1.00  0.00    -0.109 SA 
BRANCH   9  10
HETATM   10  C   UNL     1      -7.854   5.697  70.639  1.00  0.00    -0.100 C  
HETATM   11  S   UNL     1      -6.566   6.264  69.719  1.00  0.00    -0.046 S  
BRANCH  10  12
HETATM   12  N   UNL     1      -8.682   4.645  70.219  1.00  0.00    -0.081 N  
BRANCH  12  13
HETATM   13  C   UNL     1     -10.097   4.884  69.900  1.00  0.00    -0.262 C  
HETATM   14  C   UNL     1     -10.344   5.942  68.836  1.00  0.00    -0.290 C  
ENDBRANCH  12  13
BRANCH  12  15
HETATM   15  C   UNL     1      -8.186   3.260  70.249  1.00  0.00    -0.044 C  
HETATM   16  C   UNL     1      -9.265   2.219  70.495  1.00  0.00    -0.192 C  
ENDBRANCH  12  15
ENDBRANCH  10  12
ENDBRANCH   9  10
ENDBRANCH   8   9
ENDBRANCH   6   8
ENDBRANCH   3   6
ENDBRANCH   2   3
TORSDOF 9
ENDMDL
MODEL      380
REMARK 921   NORMALIZED FREE ENERGY PREDICTED BY IDOCK:   -1.82 KCAL/MOL
REMARK 922        TOTAL FREE ENERGY PREDICTED BY IDOCK:   -3.29 KCAL/MOL
REMARK 923 INTER-LIGAND FREE ENERGY PREDICTED BY IDOCK:   -2.97 KCAL/MOL
REMARK 924 INTRA-LIGAND FREE ENERGY PREDICTED BY IDOCK:   -0.32 KCAL/MOL
REMARK 927      BINDING AFFINITY PREDICTED BY RF-SCORE:    0.00 PKD
ROOT
HETATM    1  C   UNL     1      -7.147  10.823  66.276  1.00  0.00    -0.134 C  
HETATM    2  C   UNL     1      -8.006  10.260  65.147  1.00  0.00    -0.147 C  
ENDROOT
BRANCH   2   3
HETATM    3  N   UNL     1      -9.454  10.278  65.448  1.00  0.00    -0.211 N  
BRANCH   3   4
HETATM    4  C   UNL     1     -10.380  10.860  64.448  1.00  0.00    -0.361 C  
HETATM    5  C   UNL     1     -11.055  12.191  64.768  1.00  0.00    -0.364 C  
ENDBRANCH   3   4
BRANCH   3   6
HETATM    6  C   UNL     1      -9.934   9.805  66.705  1.00  0.00    -0.229 C  
HETATM    7  S   UNL     1     -10.204  10.782  68.064  1.00  0.00    -0.186 S  
BRANCH   6   8
HETATM    8  S   UNL     1     -10.396   8.076  66.784  1.00  0.00    -0.213 SA 
BRANCH   8   9
HETATM    9  S   UNL     1      -8.590   7.076  66.641  1.00  0.00    -0.130 SA 
BRANCH   9  10
HETATM   10  C   UNL     1      -8.790   5.529  67.492  1.00  0.00    -0.105 C  
HETATM   11  S   UNL     1      -9.347   4.103  66.798  1.00  0.00    -0.189 S  
BRANCH  10  12
HETATM   12  N   UNL     1      -8.288   5.590  68.801  1.00  0.00    -0.101 N  
BRANCH  12  13
HETATM   13  C   UNL     1      -9.080   6.198  69.881  1.00  0.00    -0.143 C  
HETATM   14  C   UNL     1     -10.478   5.623  70.051  1.00  0.00    -0.367 C  
ENDBRANCH  12  13
BRANCH  12  15
HETATM   15  C   UNL     1      -6.898   5.196  69.077  1.00  0.00    -0.054 C  
HETATM   16  C   UNL     1      -6.764   3.973  69.968  1.00  0.00    -0.034 C  
ENDBRANCH  12  15
ENDBRANCH  10  12
ENDBRANCH   9  10
ENDBRANCH   8   9
ENDBRANCH   6   8
ENDBRANCH   3   6
ENDBRANCH   2   3
TORSDOF 9
ENDMDL
MODEL      381
REMARK 921   NORMALIZED FREE ENERGY PREDICTED BY IDOCK:   -1.80 KCAL/MOL
REMARK 922        TOTAL FREE ENERGY PREDICTED BY IDOCK:   -3.26 KCAL/MOL
REMARK 923 INTER-LIGAND FREE ENERGY PREDICTED BY IDOCK:   -2.75 KCAL/MOL
REMARK 924 INTRA-LIGAND FREE ENERGY PREDICTED BY IDOCK:   -0.51 KCAL/MOL
REMARK 927      BINDING AFFINITY PREDICTED BY RF-SCORE:    0.00 PKD
ROOT
HETATM    1  C   UNL     1     -10.919  10.807  66.996  1.00  0.00    -0.292 C  
HETATM    2  C   UNL     1     -10.579   9.668  67.953  1.00  0.00    -0.255 C  
ENDROOT
BRANCH   2   3
HETATM    3  N   UNL     1      -9.838   8.562  67.307  1.00  0.00    -0.181 N  
BRANCH   3   4
HETATM    4  C   UNL     1     -10.598   7.380  66.834  1.00  0.00    -0.305 C  
HETATM    5  C   UNL     1     -11.156   6.411  67.873  1.00  0.00    -0.370 C  
ENDBRANCH   3   4
BRANCH   3   6
HETATM    6  C   UNL     1      -8.417   8.610  67.205  1.00  0.00    -0.114 C  
HETATM    7  S   UNL     1      -7.556   9.704  66.236  1.00  0.00    -0.103 S  
BRANCH   6   8
HETATM    8  S   UNL     1      -7.501   7.511  68.281  1.00  0.00    -0.111 SA 
BRANCH   8   9
HETATM    9  S   UNL     1      -8.031   8.129  70.184  1.00  0.00    -0.110 SA 
BRANCH   9  10
HETATM   10  C   UNL     1      -7.329   6.956  71.320  1.00  0.00    -0.081 C  
HETATM   11  S   UNL     1      -5.685   6.728  71.588  1.00  0.00    -0.037 S  
BRANCH  10  12
HETATM   12  N   UNL     1      -8.318   6.325  72.089  1.00  0.00    -0.110 N  
BRANCH  12  13
HETATM   13  C   UNL     1      -9.727   6.355  71.672  1.00  0.00    -0.160 C  
HETATM   14  C   UNL     1     -10.308   5.006  71.279  1.00  0.00    -0.255 C  
ENDBRANCH  12  13
BRANCH  12  15
HETATM   15  C   UNL     1      -7.981   5.766  73.408  1.00  0.00    -0.109 C  
HETATM   16  C   UNL     1      -8.843   6.290  74.544  1.00  0.00    -0.155 C  
ENDBRANCH  12  15
ENDBRANCH  10  12
ENDBRANCH   9  10
ENDBRANCH   8   9
ENDBRANCH   6   8
ENDBRANCH   3   6
ENDBRANCH   2   3
TORSDOF 9
ENDMDL
MODEL      382
REMARK 921   NORMALIZED FREE ENERGY PREDICTED BY IDOCK:   -1.78 KCAL/MOL
REMARK 922        TOTAL FREE ENERGY PREDICTED BY IDOCK:   -3.22 KCAL/MOL
REMARK 923 INTER-LIGAND FREE ENERGY PREDICTED BY IDOCK:   -2.64 KCAL/MOL
REMARK 924 INTRA-LIGAND FREE ENERGY PREDICTED BY IDOCK:   -0.59 KCAL/MOL
REMARK 927      BINDING AFFINITY PREDICTED BY RF-SCORE:    0.00 PKD
ROOT
HETATM    1  C   UNL     1     -12.742  10.466  71.718  1.00  0.00    -0.525 C  
HETATM    2  C   UNL     1     -12.630   9.159  70.937  1.00  0.00    -0.062 C  
ENDROOT
BRANCH   2   3
HETATM    3  N   UNL     1     -11.410   8.387  71.259  1.00  0.00    -0.257 N  
BRANCH   3   4
HETATM    4  C   UNL     1     -11.301   7.761  72.598  1.00  0.00    -0.393 C  
HETATM    5  C   UNL     1     -11.058   6.256  72.680  1.00  0.00    -0.298 C  
ENDBRANCH   3   4
BRANCH   3   6
HETATM    6  C   UNL     1     -10.339   8.308  70.322  1.00  0.00    -0.209 C  
HETATM    7  S   UNL     1      -8.777   8.912  70.589  1.00  0.00    -0.216 S  
BRANCH   6   8
HETATM    8  S   UNL     1     -10.659   7.390  68.818  1.00  0.00    -0.125 SA 
BRANCH   8   9
HETATM    9  S   UNL     1      -8.824   7.356  67.861  1.00  0.00    -0.132 SA 
BRANCH   9  10
HETATM   10  C   UNL     1      -8.254   5.673  67.903  1.00  0.00    -0.101 C  
HETATM   11  S   UNL     1      -8.718   4.463  66.831  1.00  0.00    -0.114 S  
BRANCH  10  12
HETATM   12  N   UNL     1      -7.244   5.492  68.859  1.00  0.00    -0.065 N  
BRANCH  12  13
HETATM   13  C   UNL     1      -5.874   5.151  68.449  1.00  0.00    -0.017 C  
HETATM   14  C   UNL     1      -5.157   6.230  67.651  1.00  0.00    -0.004 C  
ENDBRANCH  12  13
BRANCH  12  15
HETATM   15  C   UNL     1      -7.579   5.479  70.292  1.00  0.00    -0.080 C  
HETATM   16  C   UNL     1      -6.410   5.803  71.206  1.00  0.00    -0.040 C  
ENDBRANCH  12  15
ENDBRANCH  10  12
ENDBRANCH   9  10
ENDBRANCH   8   9
ENDBRANCH   6   8
ENDBRANCH   3   6
ENDBRANCH   2   3
TORSDOF 9
ENDMDL
MODEL      383
REMARK 921   NORMALIZED FREE ENERGY PREDICTED BY IDOCK:   -1.77 KCAL/MOL
REMARK 922        TOTAL FREE ENERGY PREDICTED BY IDOCK:   -3.22 KCAL/MOL
REMARK 923 INTER-LIGAND FREE ENERGY PREDICTED BY IDOCK:   -2.97 KCAL/MOL
REMARK 924 INTRA-LIGAND FREE ENERGY PREDICTED BY IDOCK:   -0.25 KCAL/MOL
REMARK 927      BINDING AFFINITY PREDICTED BY RF-SCORE:    0.00 PKD
ROOT
HETATM    1  C   UNL     1      -8.512   9.544  69.736  1.00  0.00    -0.185 C  
HETATM    2  C   UNL     1      -9.231  10.627  68.935  1.00  0.00    -0.183 C  
ENDROOT
BRANCH   2   3
HETATM    3  N   UNL     1      -8.335  11.375  68.026  1.00  0.00    -0.136 N  
BRANCH   3   4
HETATM    4  C   UNL     1      -7.745  10.663  66.867  1.00  0.00    -0.122 C  
HETATM    5  C   UNL     1      -8.672  10.211  65.742  1.00  0.00    -0.166 C  
ENDBRANCH   3   4
BRANCH   3   6
HETATM    6  C   UNL     1      -7.997  12.732  68.303  1.00  0.00    -0.151 C  
HETATM    7  S   UNL     1      -6.655  13.225  69.214  1.00  0.00    -0.063 S  
BRANCH   6   8
HETATM    8  S   UNL     1      -9.007  13.983  67.514  1.00  0.00    -0.207 SA 
BRANCH   8   9
HETATM    9  S   UNL     1      -8.505  15.725  68.514  1.00  0.00    -0.193 SA 
BRANCH   9  10
HETATM   10  C   UNL     1      -7.289  16.555  67.518  1.00  0.00    -0.142 C  
HETATM   11  S   UNL     1      -5.661  16.144  67.429  1.00  0.00    -0.075 S  
BRANCH  10  12
HETATM   12  N   UNL     1      -7.874  17.523  66.688  1.00  0.00    -0.230 N  
BRANCH  12  13
HETATM   13  C   UNL     1      -7.202  18.808  66.444  1.00  0.00    -0.239 C  
HETATM   14  C   UNL     1      -6.496  18.917  65.101  1.00  0.00    -0.268 C  
ENDBRANCH  12  13
BRANCH  12  15
HETATM   15  C   UNL     1      -9.242  17.331  66.182  1.00  0.00    -0.162 C  
HETATM   16  C   UNL     1     -10.167  18.510  66.430  1.00  0.00    -0.449 C  
ENDBRANCH  12  15
ENDBRANCH  10  12
ENDBRANCH   9  10
ENDBRANCH   8   9
ENDBRANCH   6   8
ENDBRANCH   3   6
ENDBRANCH   2   3
TORSDOF 9
ENDMDL
MODEL      384
REMARK 921   NORMALIZED FREE ENERGY PREDICTED BY IDOCK:   -1.76 KCAL/MOL
REMARK 922        TOTAL FREE ENERGY PREDICTED BY IDOCK:   -3.21 KCAL/MOL
REMARK 923 INTER-LIGAND FREE ENERGY PREDICTED BY IDOCK:   -2.69 KCAL/MOL
REMARK 924 INTRA-LIGAND FREE ENERGY PREDICTED BY IDOCK:   -0.52 KCAL/MOL
REMARK 927      BINDING AFFINITY PREDICTED BY RF-SCORE:    0.00 PKD
ROOT
HETATM    1  C   UNL     1      -5.862  10.075  64.694  1.00  0.00    -0.113 C  
HETATM    2  C   UNL     1      -7.286   9.989  65.236  1.00  0.00    -0.137 C  
ENDROOT
BRANCH   2   3
HETATM    3  N   UNL     1      -7.852   8.623  65.182  1.00  0.00    -0.104 N  
BRANCH   3   4
HETATM    4  C   UNL     1      -7.306   7.668  64.187  1.00  0.00    -0.094 C  
HETATM    5  C   UNL     1      -8.005   7.547  62.836  1.00  0.00    -0.120 C  
ENDBRANCH   3   4
BRANCH   3   6
HETATM    6  C   UNL     1      -8.943   8.261  66.025  1.00  0.00    -0.181 C  
HETATM    7  S   UNL     1     -10.148   9.329  66.556  1.00  0.00    -0.253 S  
BRANCH   6   8
HETATM    8  S   UNL     1      -9.095   6.523  66.433  1.00  0.00    -0.146 SA 
BRANCH   8   9
HETATM    9  S   UNL     1      -7.739   6.257  67.973  1.00  0.00    -0.104 SA 
BRANCH   9  10
HETATM   10  C   UNL     1      -8.669   5.720  69.389  1.00  0.00    -0.111 C  
HETATM   11  S   UNL     1      -8.813   4.128  69.910  1.00  0.00    -0.090 S  
BRANCH  10  12
HETATM   12  N   UNL     1      -9.165   6.806  70.125  1.00  0.00    -0.155 N  
BRANCH  12  13
HETATM   13  C   UNL     1     -10.494   7.365  69.836  1.00  0.00    -0.231 C  
HETATM   14  C   UNL     1     -11.663   6.518  70.316  1.00  0.00    -0.430 C  
ENDBRANCH  12  13
BRANCH  12  15
HETATM   15  C   UNL     1      -8.296   7.505  71.084  1.00  0.00    -0.109 C  
HETATM   16  C   UNL     1      -8.968   8.663  71.803  1.00  0.00    -0.307 C  
ENDBRANCH  12  15
ENDBRANCH  10  12
ENDBRANCH   9  10
ENDBRANCH   8   9
ENDBRANCH   6   8
ENDBRANCH   3   6
ENDBRANCH   2   3
TORSDOF 9
ENDMDL
MODEL      385
REMARK 921   NORMALIZED FREE ENERGY PREDICTED BY IDOCK:   -1.76 KCAL/MOL
REMARK 922        TOTAL FREE ENERGY PREDICTED BY IDOCK:   -3.19 KCAL/MOL
REMARK 923 INTER-LIGAND FREE ENERGY PREDICTED BY IDOCK:   -2.82 KCAL/MOL
REMARK 924 INTRA-LIGAND FREE ENERGY PREDICTED BY IDOCK:   -0.38 KCAL/MOL
REMARK 927      BINDING AFFINITY PREDICTED BY RF-SCORE:    0.00 PKD
ROOT
HETATM    1  C   UNL     1     -12.245  11.281  70.652  1.00  0.00    -0.489 C  
HETATM    2  C   UNL     1     -11.745   9.842  70.561  1.00  0.00    -0.268 C  
ENDROOT
BRANCH   2   3
HETATM    3  N   UNL     1     -10.391   9.728  69.976  1.00  0.00    -0.245 N  
BRANCH   3   4
HETATM    4  C   UNL     1      -9.314   9.123  70.795  1.00  0.00    -0.264 C  
HETATM    5  C   UNL     1      -9.658   8.621  72.195  1.00  0.00    -0.378 C  
ENDBRANCH   3   4
BRANCH   3   6
HETATM    6  C   UNL     1     -10.120  10.252  68.679  1.00  0.00    -0.174 C  
HETATM    7  S   UNL     1      -9.319  11.717  68.379  1.00  0.00    -0.157 S  
BRANCH   6   8
HETATM    8  S   UNL     1     -10.553   9.210  67.289  1.00  0.00    -0.167 SA 
BRANCH   8   9
HETATM    9  S   UNL     1      -8.722   8.583  66.553  1.00  0.00    -0.139 SA 
BRANCH   9  10
HETATM   10  C   UNL     1      -8.519   6.891  67.055  1.00  0.00    -0.121 C  
HETATM   11  S   UNL     1      -9.613   5.650  66.756  1.00  0.00    -0.156 S  
BRANCH  10  12
HETATM   12  N   UNL     1      -7.252   6.667  67.616  1.00  0.00    -0.088 N  
BRANCH  12  13
HETATM   13  C   UNL     1      -7.085   6.555  69.072  1.00  0.00    -0.085 C  
HETATM   14  C   UNL     1      -5.855   5.779  69.518  1.00  0.00    -0.020 C  
ENDBRANCH  12  13
BRANCH  12  15
HETATM   15  C   UNL     1      -6.052   6.704  66.766  1.00  0.00    -0.033 C  
HETATM   16  C   UNL     1      -6.263   6.149  65.367  1.00  0.00    -0.037 C  
ENDBRANCH  12  15
ENDBRANCH  10  12
ENDBRANCH   9  10
ENDBRANCH   8   9
ENDBRANCH   6   8
ENDBRANCH   3   6
ENDBRANCH   2   3
TORSDOF 9
ENDMDL
MODEL      386
REMARK 921   NORMALIZED FREE ENERGY PREDICTED BY IDOCK:   -1.72 KCAL/MOL
REMARK 922        TOTAL FREE ENERGY PREDICTED BY IDOCK:   -3.15 KCAL/MOL
REMARK 923 INTER-LIGAND FREE ENERGY PREDICTED BY IDOCK:   -2.79 KCAL/MOL
REMARK 924 INTRA-LIGAND FREE ENERGY PREDICTED BY IDOCK:   -0.35 KCAL/MOL
REMARK 927      BINDING AFFINITY PREDICTED BY RF-SCORE:    0.00 PKD
ROOT
HETATM    1  C   UNL     1      -6.521  10.452  65.902  1.00  0.00    -0.123 C  
HETATM    2  C   UNL     1      -7.526  11.171  66.797  1.00  0.00    -0.146 C  
ENDROOT
BRANCH   2   3
HETATM    3  N   UNL     1      -8.875  10.565  66.767  1.00  0.00    -0.130 N  
BRANCH   3   4
HETATM    4  C   UNL     1     -10.010  11.384  66.280  1.00  0.00    -0.224 C  
HETATM    5  C   UNL     1     -10.394  11.293  64.805  1.00  0.00    -0.366 C  
ENDBRANCH   3   4
BRANCH   3   6
HETATM    6  C   UNL     1      -9.082   9.244  67.261  1.00  0.00    -0.126 C  
HETATM    7  S   UNL     1      -8.994   7.837  66.318  1.00  0.00    -0.168 S  
BRANCH   6   8
HETATM    8  S   UNL     1      -9.326   9.080  69.027  1.00  0.00    -0.141 SA 
BRANCH   8   9
HETATM    9  S   UNL     1     -10.977   7.842  69.185  1.00  0.00     0.168 SA 
BRANCH   9  10
HETATM   10  C   UNL     1     -11.022   7.257  70.863  1.00  0.00    -0.253 C  
HETATM   11  S   UNL     1     -11.793   8.029  72.142  1.00  0.00    -0.370 S  
BRANCH  10  12
HETATM   12  N   UNL     1     -10.453   5.980  70.980  1.00  0.00    -0.219 N  
BRANCH  12  13
HETATM   13  C   UNL     1     -10.125   5.191  69.783  1.00  0.00    -0.266 C  
HETATM   14  C   UNL     1      -8.651   4.851  69.624  1.00  0.00    -0.098 C  
ENDBRANCH  12  13
BRANCH  12  15
HETATM   15  C   UNL     1     -10.329   5.346  72.302  1.00  0.00    -0.209 C  
HETATM   16  C   UNL     1      -9.032   5.667  73.026  1.00  0.00    -0.122 C  
ENDBRANCH  12  15
ENDBRANCH  10  12
ENDBRANCH   9  10
ENDBRANCH   8   9
ENDBRANCH   6   8
ENDBRANCH   3   6
ENDBRANCH   2   3
TORSDOF 9
ENDMDL
MODEL      387
REMARK 921   NORMALIZED FREE ENERGY PREDICTED BY IDOCK:   -1.72 KCAL/MOL
REMARK 922        TOTAL FREE ENERGY PREDICTED BY IDOCK:   -3.15 KCAL/MOL
REMARK 923 INTER-LIGAND FREE ENERGY PREDICTED BY IDOCK:   -2.59 KCAL/MOL
REMARK 924 INTRA-LIGAND FREE ENERGY PREDICTED BY IDOCK:   -0.56 KCAL/MOL
REMARK 927      BINDING AFFINITY PREDICTED BY RF-SCORE:    0.00 PKD
ROOT
HETATM    1  C   UNL     1      -9.857   4.307  70.227  1.00  0.00    -0.263 C  
HETATM    2  C   UNL     1     -10.106   5.604  70.991  1.00  0.00    -0.207 C  
ENDROOT
BRANCH   2   3
HETATM    3  N   UNL     1      -9.803   6.817  70.200  1.00  0.00    -0.177 N  
BRANCH   3   4
HETATM    4  C   UNL     1     -10.762   7.947  70.240  1.00  0.00    -0.236 C  
HETATM    5  C   UNL     1     -10.532   9.062  71.256  1.00  0.00    -0.381 C  
ENDBRANCH   3   4
BRANCH   3   6
HETATM    6  C   UNL     1      -8.647   6.865  69.368  1.00  0.00    -0.133 C  
HETATM    7  S   UNL     1      -7.049   6.863  69.937  1.00  0.00    -0.072 S  
BRANCH   6   8
HETATM    8  S   UNL     1      -8.930   6.793  67.601  1.00  0.00    -0.114 SA 
BRANCH   8   9
HETATM    9  S   UNL     1      -7.818   8.373  66.859  1.00  0.00    -0.096 SA 
BRANCH   9  10
HETATM   10  C   UNL     1      -8.687   9.861  67.292  1.00  0.00    -0.128 C  
HETATM   11  S   UNL     1      -8.360  10.822  68.633  1.00  0.00    -0.147 S  
BRANCH  10  12
HETATM   12  N   UNL     1      -9.603  10.234  66.297  1.00  0.00    -0.180 N  
BRANCH  12  13
HETATM   13  C   UNL     1     -10.532  11.353  66.513  1.00  0.00    -0.249 C  
HETATM   14  C   UNL     1     -11.779  11.005  67.312  1.00  0.00     0.158 C  
ENDBRANCH  12  13
BRANCH  12  15
HETATM   15  C   UNL     1      -9.758   9.407  65.090  1.00  0.00    -0.036 C  
HETATM   16  C   UNL     1      -9.481  10.145  63.792  1.00  0.00    -0.330 C  
ENDBRANCH  12  15
ENDBRANCH  10  12
ENDBRANCH   9  10
ENDBRANCH   8   9
ENDBRANCH   6   8
ENDBRANCH   3   6
ENDBRANCH   2   3
TORSDOF 9
ENDMDL
MODEL      388
REMARK 921   NORMALIZED FREE ENERGY PREDICTED BY IDOCK:   -1.67 KCAL/MOL
REMARK 922        TOTAL FREE ENERGY PREDICTED BY IDOCK:   -3.06 KCAL/MOL
REMARK 923 INTER-LIGAND FREE ENERGY PREDICTED BY IDOCK:   -2.65 KCAL/MOL
REMARK 924 INTRA-LIGAND FREE ENERGY PREDICTED BY IDOCK:   -0.41 KCAL/MOL
REMARK 927      BINDING AFFINITY PREDICTED BY RF-SCORE:    0.00 PKD
ROOT
HETATM    1  C   UNL     1      -7.291  11.192  67.236  1.00  0.00    -0.118 C  
HETATM    2  C   UNL     1      -8.149  11.675  68.403  1.00  0.00    -0.153 C  
ENDROOT
BRANCH   2   3
HETATM    3  N   UNL     1      -8.321  13.143  68.435  1.00  0.00    -0.149 N  
BRANCH   3   4
HETATM    4  C   UNL     1      -7.242  13.971  69.025  1.00  0.00    -0.092 C  
HETATM    5  C   UNL     1      -5.916  13.300  69.372  1.00  0.00    -0.100 C  
ENDBRANCH   3   4
BRANCH   3   6
HETATM    6  C   UNL     1      -9.529  13.738  67.967  1.00  0.00    -0.207 C  
HETATM    7  S   UNL     1     -11.019  13.657  68.773  1.00  0.00    -0.266 S  
BRANCH   6   8
HETATM    8  S   UNL     1      -9.407  14.740  66.488  1.00  0.00    -0.288 SA 
BRANCH   8   9
HETATM    9  S   UNL     1     -10.832  16.213  66.770  1.00  0.00    -0.082 SA 
BRANCH   9  10
HETATM   10  C   UNL     1     -10.128  17.402  67.888  1.00  0.00    -0.326 C  
HETATM   11  S   UNL     1     -10.583  17.616  69.493  1.00  0.00     0.591 S  
BRANCH  10  12
HETATM   12  N   UNL     1      -9.028  18.060  67.318  1.00  0.00    -0.248 N  
BRANCH  12  13
HETATM   13  C   UNL     1      -9.193  18.898  66.120  1.00  0.00    -0.176 C  
HETATM   14  C   UNL     1     -10.269  19.967  66.230  1.00  0.00    -0.595 C  
ENDBRANCH  12  13
BRANCH  12  15
HETATM   15  C   UNL     1      -7.669  17.791  67.812  1.00  0.00    -0.214 C  
HETATM   16  C   UNL     1      -6.659  17.486  66.719  1.00  0.00    -0.234 C  
ENDBRANCH  12  15
ENDBRANCH  10  12
ENDBRANCH   9  10
ENDBRANCH   8   9
ENDBRANCH   6   8
ENDBRANCH   3   6
ENDBRANCH   2   3
TORSDOF 9
ENDMDL
MODEL      389
REMARK 921   NORMALIZED FREE ENERGY PREDICTED BY IDOCK:   -1.66 KCAL/MOL
REMARK 922        TOTAL FREE ENERGY PREDICTED BY IDOCK:   -3.05 KCAL/MOL
REMARK 923 INTER-LIGAND FREE ENERGY PREDICTED BY IDOCK:   -2.74 KCAL/MOL
REMARK 924 INTRA-LIGAND FREE ENERGY PREDICTED BY IDOCK:   -0.31 KCAL/MOL
REMARK 927      BINDING AFFINITY PREDICTED BY RF-SCORE:    0.00 PKD
ROOT
HETATM    1  C   UNL     1      -8.977  16.519  68.541  1.00  0.00    -0.231 C  
HETATM    2  C   UNL     1      -9.176  15.008  68.623  1.00  0.00    -0.198 C  
ENDROOT
BRANCH   2   3
HETATM    3  N   UNL     1     -10.540  14.575  68.247  1.00  0.00    -0.236 N  
BRANCH   3   4
HETATM    4  C   UNL     1     -11.696  15.336  68.778  1.00  0.00    -0.353 C  
HETATM    5  C   UNL     1     -12.138  15.080  70.216  1.00  0.00    -0.378 C  
ENDBRANCH   3   4
BRANCH   3   6
HETATM    6  C   UNL     1     -10.733  13.412  67.446  1.00  0.00    -0.262 C  
HETATM    7  S   UNL     1     -11.847  13.291  66.174  1.00  0.00    -0.410 S  
BRANCH   6   8
HETATM    8  S   UNL     1      -9.618  12.042  67.746  1.00  0.00    -0.199 SA 
BRANCH   8   9
HETATM    9  S   UNL     1     -10.164  10.642  66.323  1.00  0.00    -0.235 SA 
BRANCH   9  10
HETATM   10  C   UNL     1      -8.677   9.803  65.831  1.00  0.00    -0.139 C  
HETATM   11  S   UNL     1      -7.121  10.425  65.965  1.00  0.00    -0.138 S  
BRANCH  10  12
HETATM   12  N   UNL     1      -8.933   8.480  65.441  1.00  0.00    -0.147 N  
BRANCH  12  13
HETATM   13  C   UNL     1      -8.746   8.059  64.045  1.00  0.00     0.445 C  
HETATM   14  C   UNL     1      -8.147   6.672  63.869  1.00  0.00    -0.012 C  
ENDBRANCH  12  13
BRANCH  12  15
HETATM   15  C   UNL     1      -9.550   7.538  66.388  1.00  0.00    -0.125 C  
HETATM   16  C   UNL     1      -8.568   6.892  67.350  1.00  0.00    -0.121 C  
ENDBRANCH  12  15
ENDBRANCH  10  12
ENDBRANCH   9  10
ENDBRANCH   8   9
ENDBRANCH   6   8
ENDBRANCH   3   6
ENDBRANCH   2   3
TORSDOF 9
ENDMDL
MODEL      390
REMARK 921   NORMALIZED FREE ENERGY PREDICTED BY IDOCK:   -1.60 KCAL/MOL
REMARK 922        TOTAL FREE ENERGY PREDICTED BY IDOCK:   -2.96 KCAL/MOL
REMARK 923 INTER-LIGAND FREE ENERGY PREDICTED BY IDOCK:   -2.59 KCAL/MOL
REMARK 924 INTRA-LIGAND FREE ENERGY PREDICTED BY IDOCK:   -0.37 KCAL/MOL
REMARK 927      BINDING AFFINITY PREDICTED BY RF-SCORE:    0.00 PKD
ROOT
HETATM    1  C   UNL     1      -5.737   8.873  64.406  1.00  0.00    -0.064 C  
HETATM    2  C   UNL     1      -6.902   9.160  65.350  1.00  0.00    -0.073 C  
ENDROOT
BRANCH   2   3
HETATM    3  N   UNL     1      -8.090   9.711  64.663  1.00  0.00    -0.132 N  
BRANCH   3   4
HETATM    4  C   UNL     1      -8.053   9.855  63.188  1.00  0.00    -0.151 C  
HETATM    5  C   UNL     1      -8.639   8.735  62.332  1.00  0.00    -0.188 C  
ENDBRANCH   3   4
BRANCH   3   6
HETATM    6  C   UNL     1      -9.217  10.155  65.415  1.00  0.00    -0.202 C  
HETATM    7  S   UNL     1      -9.862  11.722  65.352  1.00  0.00    -0.220 S  
BRANCH   6   8
HETATM    8  S   UNL     1     -10.065   8.915  66.389  1.00  0.00    -0.192 SA 
BRANCH   8   9
HETATM    9  S   UNL     1      -9.245   9.124  68.278  1.00  0.00    -0.131 SA 
BRANCH   9  10
HETATM   10  C   UNL     1      -9.078   7.488  68.950  1.00  0.00    -0.140 C  
HETATM   11  S   UNL     1      -7.708   6.521  68.825  1.00  0.00    -0.111 S  
BRANCH  10  12
HETATM   12  N   UNL     1     -10.185   7.136  69.736  1.00  0.00    -0.202 N  
BRANCH  12  13
HETATM   13  C   UNL     1     -10.925   5.892  69.477  1.00  0.00    -0.368 C  
HETATM   14  C   UNL     1     -10.456   4.689  70.281  1.00  0.00     0.082 C  
ENDBRANCH  12  13
BRANCH  12  15
HETATM   15  C   UNL     1     -10.721   8.086  70.723  1.00  0.00    -0.223 C  
HETATM   16  C   UNL     1     -10.031   8.033  72.075  1.00  0.00    -0.275 C  
ENDBRANCH  12  15
ENDBRANCH  10  12
ENDBRANCH   9  10
ENDBRANCH   8   9
ENDBRANCH   6   8
ENDBRANCH   3   6
ENDBRANCH   2   3
TORSDOF 9
ENDMDL
MODEL      391
REMARK 921   NORMALIZED FREE ENERGY PREDICTED BY IDOCK:   -1.57 KCAL/MOL
REMARK 922        TOTAL FREE ENERGY PREDICTED BY IDOCK:   -2.91 KCAL/MOL
REMARK 923 INTER-LIGAND FREE ENERGY PREDICTED BY IDOCK:   -2.58 KCAL/MOL
REMARK 924 INTRA-LIGAND FREE ENERGY PREDICTED BY IDOCK:   -0.34 KCAL/MOL
REMARK 927      BINDING AFFINITY PREDICTED BY RF-SCORE:    0.00 PKD
ROOT
HETATM    1  C   UNL     1      -6.000  11.292  66.302  1.00  0.00    -0.100 C  
HETATM    2  C   UNL     1      -6.778  12.081  67.351  1.00  0.00    -0.131 C  
ENDROOT
BRANCH   2   3
HETATM    3  N   UNL     1      -8.226  11.781  67.354  1.00  0.00    -0.152 N  
BRANCH   3   4
HETATM    4  C   UNL     1      -9.184  12.905  67.485  1.00  0.00    -0.192 C  
HETATM    5  C   UNL     1      -9.549  13.700  66.234  1.00  0.00    -0.254 C  
ENDBRANCH   3   4
BRANCH   3   6
HETATM    6  C   UNL     1      -8.683  10.431  67.300  1.00  0.00    -0.125 C  
HETATM    7  S   UNL     1      -9.833   9.846  66.200  1.00  0.00    -0.272 S  
BRANCH   6   8
HETATM    8  S   UNL     1      -7.875   9.270  68.398  1.00  0.00    -0.094 SA 
BRANCH   8   9
HETATM    9  S   UNL     1      -9.322   8.841  69.814  1.00  0.00    -0.167 SA 
BRANCH   9  10
HETATM   10  C   UNL     1      -8.669   7.546  70.841  1.00  0.00    -0.142 C  
HETATM   11  S   UNL     1      -7.769   7.777  72.242  1.00  0.00    -0.107 S  
BRANCH  10  12
HETATM   12  N   UNL     1      -9.115   6.282  70.425  1.00  0.00    -0.153 N  
BRANCH  12  13
HETATM   13  C   UNL     1      -9.881   6.128  69.179  1.00  0.00    -0.145 C  
HETATM   14  C   UNL     1      -9.302   5.125  68.193  1.00  0.00    -0.148 C  
ENDBRANCH  12  13
BRANCH  12  15
HETATM   15  C   UNL     1      -8.966   5.119  71.313  1.00  0.00    -0.139 C  
HETATM   16  C   UNL     1     -10.273   4.611  71.898  1.00  0.00    -0.254 C  
ENDBRANCH  12  15
ENDBRANCH  10  12
ENDBRANCH   9  10
ENDBRANCH   8   9
ENDBRANCH   6   8
ENDBRANCH   3   6
ENDBRANCH   2   3
TORSDOF 9
ENDMDL
MODEL      392
REMARK 921   NORMALIZED FREE ENERGY PREDICTED BY IDOCK:   -1.48 KCAL/MOL
REMARK 922        TOTAL FREE ENERGY PREDICTED BY IDOCK:   -2.77 KCAL/MOL
REMARK 923 INTER-LIGAND FREE ENERGY PREDICTED BY IDOCK:   -2.68 KCAL/MOL
REMARK 924 INTRA-LIGAND FREE ENERGY PREDICTED BY IDOCK:   -0.09 KCAL/MOL
REMARK 927      BINDING AFFINITY PREDICTED BY RF-SCORE:    0.00 PKD
ROOT
HETATM    1  C   UNL     1      -7.849   3.739  66.557  1.00  0.00    -0.089 C  
HETATM    2  C   UNL     1      -9.070   4.495  67.074  1.00  0.00    -0.125 C  
ENDROOT
BRANCH   2   3
HETATM    3  N   UNL     1      -8.943   4.915  68.487  1.00  0.00    -0.106 N  
BRANCH   3   4
HETATM    4  C   UNL     1      -9.635   4.118  69.528  1.00  0.00    -0.204 C  
HETATM    5  C   UNL     1      -9.483   2.599  69.503  1.00  0.00    -0.134 C  
ENDBRANCH   3   4
BRANCH   3   6
HETATM    6  C   UNL     1      -8.226   6.099  68.825  1.00  0.00    -0.108 C  
HETATM    7  S   UNL     1      -7.336   6.313  70.253  1.00  0.00    -0.091 S  
BRANCH   6   8
HETATM    8  S   UNL     1      -8.175   7.386  67.581  1.00  0.00    -0.118 SA 
BRANCH   8   9
HETATM    9  S   UNL     1      -7.934   9.125  68.678  1.00  0.00    -0.102 SA 
BRANCH   9  10
HETATM   10  C   UNL     1      -9.549   9.600  69.248  1.00  0.00    -0.185 C  
HETATM   11  S   UNL     1     -10.283   9.050  70.658  1.00  0.00    -0.250 S  
BRANCH  10  12
HETATM   12  N   UNL     1     -10.101  10.614  68.452  1.00  0.00    -0.160 N  
BRANCH  12  13
HETATM   13  C   UNL     1      -9.251  11.413  67.557  1.00  0.00    -0.160 C  
HETATM   14  C   UNL     1      -8.384  12.450  68.254  1.00  0.00    -0.169 C  
ENDBRANCH  12  13
BRANCH  12  15
HETATM   15  C   UNL     1     -11.510  11.002  68.623  1.00  0.00    -0.308 C  
HETATM   16  C   UNL     1     -11.728  12.496  68.786  1.00  0.00    -0.371 C  
ENDBRANCH  12  15
ENDBRANCH  10  12
ENDBRANCH   9  10
ENDBRANCH   8   9
ENDBRANCH   6   8
ENDBRANCH   3   6
ENDBRANCH   2   3
TORSDOF 9
ENDMDL
MODEL      393
REMARK 921   NORMALIZED FREE ENERGY PREDICTED BY IDOCK:   -1.36 KCAL/MOL
REMARK 922        TOTAL FREE ENERGY PREDICTED BY IDOCK:   -2.59 KCAL/MOL
REMARK 923 INTER-LIGAND FREE ENERGY PREDICTED BY IDOCK:   -2.29 KCAL/MOL
REMARK 924 INTRA-LIGAND FREE ENERGY PREDICTED BY IDOCK:   -0.30 KCAL/MOL
REMARK 927      BINDING AFFINITY PREDICTED BY RF-SCORE:    0.00 PKD
ROOT
HETATM    1  C   UNL     1      -7.829   9.976  65.815  1.00  0.00    -0.128 C  
HETATM    2  C   UNL     1      -7.359  10.838  66.983  1.00  0.00    -0.110 C  
ENDROOT
BRANCH   2   3
HETATM    3  N   UNL     1      -8.436  11.663  67.573  1.00  0.00    -0.144 N  
BRANCH   3   4
HETATM    4  C   UNL     1      -8.080  12.969  68.177  1.00  0.00    -0.155 C  
HETATM    5  C   UNL     1      -6.604  13.288  68.403  1.00  0.00    -0.093 C  
ENDBRANCH   3   4
BRANCH   3   6
HETATM    6  C   UNL     1      -9.775  11.175  67.616  1.00  0.00    -0.170 C  
HETATM    7  S   UNL     1     -10.876  11.265  66.329  1.00  0.00    -0.196 S  
BRANCH   6   8
HETATM    8  S   UNL     1     -10.259  10.299  69.101  1.00  0.00    -0.232 SA 
BRANCH   8   9
HETATM    9  S   UNL     1      -9.186   8.532  69.003  1.00  0.00    -0.146 SA 
BRANCH   9  10
HETATM   10  C   UNL     1      -7.972   8.596  70.300  1.00  0.00    -0.106 C  
HETATM   11  S   UNL     1      -6.842   9.822  70.513  1.00  0.00    -0.108 S  
BRANCH  10  12
HETATM   12  N   UNL     1      -8.154   7.562  71.230  1.00  0.00    -0.095 N  
BRANCH  12  13
HETATM   13  C   UNL     1      -7.051   6.647  71.562  1.00  0.00    -0.080 C  
HETATM   14  C   UNL     1      -6.388   5.983  70.364  1.00  0.00    -0.032 C  
ENDBRANCH  12  13
BRANCH  12  15
HETATM   15  C   UNL     1      -9.495   7.277  71.763  1.00  0.00    -0.150 C  
HETATM   16  C   UNL     1      -9.742   7.832  73.155  1.00  0.00    -0.347 C  
ENDBRANCH  12  15
ENDBRANCH  10  12
ENDBRANCH   9  10
ENDBRANCH   8   9
ENDBRANCH   6   8
ENDBRANCH   3   6
ENDBRANCH   2   3
TORSDOF 9
ENDMDL
MODEL      394
REMARK 921   NORMALIZED FREE ENERGY PREDICTED BY IDOCK:   -1.27 KCAL/MOL
REMARK 922        TOTAL FREE ENERGY PREDICTED BY IDOCK:   -2.46 KCAL/MOL
REMARK 923 INTER-LIGAND FREE ENERGY PREDICTED BY IDOCK:   -2.50 KCAL/MOL
REMARK 924 INTRA-LIGAND FREE ENERGY PREDICTED BY IDOCK:    0.04 KCAL/MOL
REMARK 927      BINDING AFFINITY PREDICTED BY RF-SCORE:    0.00 PKD
ROOT
HETATM    1  C   UNL     1     -10.786  18.582  68.534  1.00  0.00     0.324 C  
HETATM    2  C   UNL     1     -10.805  17.705  67.285  1.00  0.00    -0.136 C  
ENDROOT
BRANCH   2   3
HETATM    3  N   UNL     1      -9.949  16.504  67.400  1.00  0.00    -0.261 N  
BRANCH   3   4
HETATM    4  C   UNL     1      -8.533  16.599  66.971  1.00  0.00    -0.198 C  
HETATM    5  C   UNL     1      -7.638  17.641  67.637  1.00  0.00    -0.211 C  
ENDBRANCH   3   4
BRANCH   3   6
HETATM    6  C   UNL     1     -10.498  15.268  67.852  1.00  0.00    -0.253 C  
HETATM    7  S   UNL     1     -11.708  15.125  69.032  1.00  0.00    -0.329 S  
BRANCH   6   8
HETATM    8  S   UNL     1      -9.942  13.790  67.008  1.00  0.00    -0.256 SA 
BRANCH   8   9
HETATM    9  S   UNL     1     -11.446  12.417  67.374  1.00  0.00    -0.368 SA 
BRANCH   9  10
HETATM   10  C   UNL     1     -10.669  10.974  68.060  1.00  0.00    -0.217 C  
HETATM   11  S   UNL     1     -11.152  10.184  69.463  1.00  0.00    -0.246 S  
BRANCH  10  12
HETATM   12  N   UNL     1      -9.674  10.468  67.210  1.00  0.00    -0.166 N  
BRANCH  12  13
HETATM   13  C   UNL     1      -8.484   9.801  67.759  1.00  0.00    -0.121 C  
HETATM   14  C   UNL     1      -7.288  10.712  67.987  1.00  0.00    -0.088 C  
ENDBRANCH  12  13
BRANCH  12  15
HETATM   15  C   UNL     1      -9.728  10.744  65.766  1.00  0.00    -0.228 C  
HETATM   16  C   UNL     1     -10.029   9.525  64.911  1.00  0.00     0.256 C  
ENDBRANCH  12  15
ENDBRANCH  10  12
ENDBRANCH   9  10
ENDBRANCH   8   9
ENDBRANCH   6   8
ENDBRANCH   3   6
ENDBRANCH   2   3
TORSDOF 9
ENDMDL
MODEL      395
REMARK 921   NORMALIZED FREE ENERGY PREDICTED BY IDOCK:   -0.81 KCAL/MOL
REMARK 922        TOTAL FREE ENERGY PREDICTED BY IDOCK:   -1.75 KCAL/MOL
REMARK 923 INTER-LIGAND FREE ENERGY PREDICTED BY IDOCK:   -3.00 KCAL/MOL
REMARK 924 INTRA-LIGAND FREE ENERGY PREDICTED BY IDOCK:    1.25 KCAL/MOL
REMARK 927      BINDING AFFINITY PREDICTED BY RF-SCORE:    0.00 PKD
ROOT
HETATM    1  C   UNL     1      -8.418  15.719  68.825  1.00  0.00    -0.198 C  
HETATM    2  C   UNL     1      -8.824  14.282  69.144  1.00  0.00     0.163 C  
ENDROOT
BRANCH   2   3
HETATM    3  N   UNL     1     -10.033  13.840  68.416  1.00  0.00    -0.228 N  
BRANCH   3   4
HETATM    4  C   UNL     1     -10.993  14.868  67.945  1.00  0.00    -0.286 C  
HETATM    5  C   UNL     1     -10.441  16.179  67.390  1.00  0.00    -0.310 C  
ENDBRANCH   3   4
BRANCH   3   6
HETATM    6  C   UNL     1     -10.298  12.451  68.233  1.00  0.00    -0.227 C  
HETATM    7  S   UNL     1     -10.547  11.706  66.730  1.00  0.00    -0.255 S  
BRANCH   6   8
HETATM    8  S   UNL     1     -10.229  11.425  69.700  1.00  0.00     0.609 SA 
BRANCH   8   9
HETATM    9  S   UNL     1     -10.794   9.554  69.019  1.00  0.00    -0.109 SA 
BRANCH   9  10
HETATM   10  C   UNL     1     -10.206   8.375  70.212  1.00  0.00    -0.196 C  
HETATM   11  S   UNL     1      -8.593   7.973  70.467  1.00  0.00    -0.136 S  
BRANCH  10  12
HETATM   12  N   UNL     1     -11.243   7.909  71.034  1.00  0.00    -0.265 N  
BRANCH  12  13
HETATM   13  C   UNL     1     -11.750   8.732  72.142  1.00  0.00    -0.363 C  
HETATM   14  C   UNL     1     -13.262   8.721  72.308  1.00  0.00    -0.456 C  
ENDBRANCH  12  13
BRANCH  12  15
HETATM   15  C   UNL     1     -11.725   6.525  70.901  1.00  0.00    -0.356 C  
HETATM   16  C   UNL     1     -11.009   5.718  69.831  1.00  0.00    -0.389 C  
ENDBRANCH  12  15
ENDBRANCH  10  12
ENDBRANCH   9  10
ENDBRANCH   8   9
ENDBRANCH   6   8
ENDBRANCH   3   6
ENDBRANCH   2   3
TORSDOF 9
ENDMDL
MODEL      396
REMARK 921   NORMALIZED FREE ENERGY PREDICTED BY IDOCK:   -0.49 KCAL/MOL
REMARK 922        TOTAL FREE ENERGY PREDICTED BY IDOCK:   -1.27 KCAL/MOL
REMARK 923 INTER-LIGAND FREE ENERGY PREDICTED BY IDOCK:   -1.51 KCAL/MOL
REMARK 924 INTRA-LIGAND FREE ENERGY PREDICTED BY IDOCK:    0.24 KCAL/MOL
REMARK 927      BINDING AFFINITY PREDICTED BY RF-SCORE:    0.00 PKD
ROOT
HETATM    1  C   UNL     1      -6.448   9.693  66.819  1.00  0.00    -0.067 C  
HETATM    2  C   UNL     1      -7.569   9.400  67.812  1.00  0.00    -0.088 C  
ENDROOT
BRANCH   2   3
HETATM    3  N   UNL     1      -7.474   8.056  68.422  1.00  0.00    -0.101 N  
BRANCH   3   4
HETATM    4  C   UNL     1      -8.158   6.923  67.753  1.00  0.00    -0.114 C  
HETATM    5  C   UNL     1      -7.400   6.149  66.678  1.00  0.00    -0.082 C  
ENDBRANCH   3   4
BRANCH   3   6
HETATM    6  C   UNL     1      -6.795   7.874  69.663  1.00  0.00    -0.042 C  
HETATM    7  S   UNL     1      -5.170   8.270  69.939  1.00  0.00    -0.022 S  
BRANCH   6   8
HETATM    8  S   UNL     1      -7.787   7.304  71.041  1.00  0.00    -0.097 SA 
BRANCH   8   9
HETATM    9  S   UNL     1      -6.961   5.467  71.517  1.00  0.00    -0.069 SA 
BRANCH   9  10
HETATM   10  C   UNL     1      -8.282   4.280  71.466  1.00  0.00    -0.091 C  
HETATM   11  S   UNL     1      -8.230   2.801  70.668  1.00  0.00    -0.049 S  
BRANCH  10  12
HETATM   12  N   UNL     1      -9.347   4.655  72.299  1.00  0.00    -0.126 N  
BRANCH  12  13
HETATM   13  C   UNL     1     -10.664   4.982  71.734  1.00  0.00    -0.080 C  
HETATM   14  C   UNL     1     -11.755   5.243  72.761  1.00  0.00    -0.214 C  
ENDBRANCH  12  13
BRANCH  12  15
HETATM   15  C   UNL     1      -9.115   4.885  73.734  1.00  0.00    -0.112 C  
HETATM   16  C   UNL     1      -8.895   6.342  74.102  1.00  0.00    -0.155 C  
ENDBRANCH  12  15
ENDBRANCH  10  12
ENDBRANCH   9  10
ENDBRANCH   8   9
ENDBRANCH   6   8
ENDBRANCH   3   6
ENDBRANCH   2   3
TORSDOF 9
ENDMDL
MODEL      397
REMARK 921   NORMALIZED FREE ENERGY PREDICTED BY IDOCK:   -0.21 KCAL/MOL
REMARK 922        TOTAL FREE ENERGY PREDICTED BY IDOCK:   -0.83 KCAL/MOL
REMARK 923 INTER-LIGAND FREE ENERGY PREDICTED BY IDOCK:   -1.65 KCAL/MOL
REMARK 924 INTRA-LIGAND FREE ENERGY PREDICTED BY IDOCK:    0.82 KCAL/MOL
REMARK 927      BINDING AFFINITY PREDICTED BY RF-SCORE:    0.00 PKD
ROOT
HETATM    1  C   UNL     1      -7.272   9.904  64.860  1.00  0.00    -0.136 C  
HETATM    2  C   UNL     1      -8.237   9.670  66.019  1.00  0.00    -0.119 C  
ENDROOT
BRANCH   2   3
HETATM    3  N   UNL     1      -7.971   8.416  66.758  1.00  0.00    -0.097 N  
BRANCH   3   4
HETATM    4  C   UNL     1      -8.721   7.196  66.378  1.00  0.00    -0.139 C  
HETATM    5  C   UNL     1      -8.150   6.302  65.280  1.00  0.00    -0.132 C  
ENDBRANCH   3   4
BRANCH   3   6
HETATM    6  C   UNL     1      -7.060   8.406  67.855  1.00  0.00    -0.083 C  
HETATM    7  S   UNL     1      -5.427   8.854  67.757  1.00  0.00    -0.035 S  
BRANCH   6   8
HETATM    8  S   UNL     1      -7.747   8.011  69.461  1.00  0.00    -0.105 SA 
BRANCH   8   9
HETATM    9  S   UNL     1      -6.714   6.312  70.035  1.00  0.00    -0.054 SA 
BRANCH   9  10
HETATM   10  C   UNL     1      -7.930   5.107  70.511  1.00  0.00    -0.090 C  
HETATM   11  S   UNL     1      -8.011   3.529  69.938  1.00  0.00    -0.049 S  
BRANCH  10  12
HETATM   12  N   UNL     1      -8.749   5.581  71.547  1.00  0.00    -0.134 N  
BRANCH  12  13
HETATM   13  C   UNL     1      -8.627   6.965  72.028  1.00  0.00    -0.121 C  
HETATM   14  C   UNL     1      -7.880   7.122  73.344  1.00  0.00    -0.112 C  
ENDBRANCH  12  13
BRANCH  12  15
HETATM   15  C   UNL     1      -9.625   4.652  72.278  1.00  0.00    -0.152 C  
HETATM   16  C   UNL     1      -9.033   4.127  73.574  1.00  0.00    -0.095 C  
ENDBRANCH  12  15
ENDBRANCH  10  12
ENDBRANCH   9  10
ENDBRANCH   8   9
ENDBRANCH   6   8
ENDBRANCH   3   6
ENDBRANCH   2   3
TORSDOF 9
ENDMDL
MODEL      398
REMARK 921   NORMALIZED FREE ENERGY PREDICTED BY IDOCK:    1.81 KCAL/MOL
REMARK 922        TOTAL FREE ENERGY PREDICTED BY IDOCK:    2.24 KCAL/MOL
REMARK 923 INTER-LIGAND FREE ENERGY PREDICTED BY IDOCK:    0.07 KCAL/MOL
REMARK 924 INTRA-LIGAND FREE ENERGY PREDICTED BY IDOCK:    2.17 KCAL/MOL
REMARK 927      BINDING AFFINITY PREDICTED BY RF-SCORE:    0.00 PKD
ROOT
HETATM    1  C   UNL     1     -10.224  12.743  67.063  1.00  0.00    -0.245 C  
HETATM    2  C   UNL     1     -10.498  11.418  67.770  1.00  0.00    -0.185 C  
ENDROOT
BRANCH   2   3
HETATM    3  N   UNL     1      -9.897  10.254  67.084  1.00  0.00    -0.179 N  
BRANCH   3   4
HETATM    4  C   UNL     1     -10.757   9.084  66.785  1.00  0.00    -0.033 C  
HETATM    5  C   UNL     1     -11.464   8.386  67.944  1.00  0.00     1.317 C  
ENDBRANCH   3   4
BRANCH   3   6
HETATM    6  C   UNL     1      -8.504  10.237  66.779  1.00  0.00    -0.123 C  
HETATM    7  S   UNL     1      -7.609  11.589  66.284  1.00  0.00     0.195 S  
BRANCH   6   8
HETATM    8  S   UNL     1      -7.641   8.695  67.071  1.00  0.00    -0.084 SA 
BRANCH   8   9
HETATM    9  S   UNL     1      -7.386   8.654  69.125  1.00  0.00    -0.077 SA 
BRANCH   9  10
HETATM   10  C   UNL     1      -6.560   7.127  69.509  1.00  0.00    -0.044 C  
HETATM   11  S   UNL     1      -5.143   6.987  70.404  1.00  0.00    -0.019 S  
BRANCH  10  12
HETATM   12  N   UNL     1      -7.310   6.016  69.097  1.00  0.00    -0.082 N  
BRANCH  12  13
HETATM   13  C   UNL     1      -8.234   6.113  67.958  1.00  0.00    -0.114 C  
HETATM   14  C   UNL     1      -8.231   4.911  67.026  1.00  0.00    -0.107 C  
ENDBRANCH  12  13
BRANCH  12  15
HETATM   15  C   UNL     1      -7.305   4.784  69.902  1.00  0.00    -0.055 C  
HETATM   16  C   UNL     1      -8.418   3.810  69.554  1.00  0.00    -0.095 C  
ENDBRANCH  12  15
ENDBRANCH  10  12
ENDBRANCH   9  10
ENDBRANCH   8   9
ENDBRANCH   6   8
ENDBRANCH   3   6
ENDBRANCH   2   3
TORSDOF 9
ENDMDL
MODEL      399
REMARK 921   NORMALIZED FREE ENERGY PREDICTED BY IDOCK:    1.89 KCAL/MOL
REMARK 922        TOTAL FREE ENERGY PREDICTED BY IDOCK:    2.37 KCAL/MOL
REMARK 923 INTER-LIGAND FREE ENERGY PREDICTED BY IDOCK:    1.74 KCAL/MOL
REMARK 924 INTRA-LIGAND FREE ENERGY PREDICTED BY IDOCK:    0.64 KCAL/MOL
REMARK 927      BINDING AFFINITY PREDICTED BY RF-SCORE:    0.00 PKD
ROOT
HETATM    1  C   UNL     1     -13.053  15.079  67.461  1.00  0.00     2.933 C  
HETATM    2  C   UNL     1     -11.774  14.251  67.557  1.00  0.00    -0.384 C  
ENDROOT
BRANCH   2   3
HETATM    3  N   UNL     1     -10.544  15.050  67.372  1.00  0.00    -0.266 N  
BRANCH   3   4
HETATM    4  C   UNL     1     -10.544  16.127  66.352  1.00  0.00    -0.269 C  
HETATM    5  C   UNL     1     -11.519  16.021  65.182  1.00  0.00     0.052 C  
ENDBRANCH   3   4
BRANCH   3   6
HETATM    6  C   UNL     1      -9.366  14.743  68.114  1.00  0.00    -0.197 C  
HETATM    7  S   UNL     1      -8.013  15.758  68.240  1.00  0.00    -0.134 S  
BRANCH   6   8
HETATM    8  S   UNL     1      -9.397  13.230  69.072  1.00  0.00     0.563 SA 
BRANCH   8   9
HETATM    9  S   UNL     1      -8.778  11.783  67.728  1.00  0.00    -0.163 SA 
BRANCH   9  10
HETATM   10  C   UNL     1      -7.203  11.192  68.300  1.00  0.00    -0.083 C  
HETATM   11  S   UNL     1      -5.707  11.786  67.813  1.00  0.00    -0.067 S  
BRANCH  10  12
HETATM   12  N   UNL     1      -7.346  10.251  69.330  1.00  0.00    -0.086 N  
BRANCH  12  13
HETATM   13  C   UNL     1      -8.589  10.176  70.112  1.00  0.00     0.127 C  
HETATM   14  C   UNL     1      -8.903   8.802  70.684  1.00  0.00    -0.212 C  
ENDBRANCH  12  13
BRANCH  12  15
HETATM   15  C   UNL     1      -6.194   9.437  69.751  1.00  0.00    -0.039 C  
HETATM   16  C   UNL     1      -5.949   8.213  68.885  1.00  0.00    -0.039 C  
ENDBRANCH  12  15
ENDBRANCH  10  12
ENDBRANCH   9  10
ENDBRANCH   8   9
ENDBRANCH   6   8
ENDBRANCH   3   6
ENDBRANCH   2   3
TORSDOF 9
ENDMDL
