MODEL        1
REMARK 921   NORMALIZED FREE ENERGY PREDICTED BY IDOCK:   -4.82 KCAL/MOL
REMARK 922        TOTAL FREE ENERGY PREDICTED BY IDOCK:   -6.41 KCAL/MOL
REMARK 923 INTER-LIGAND FREE ENERGY PREDICTED BY IDOCK:   -6.51 KCAL/MOL
REMARK 924 INTRA-LIGAND FREE ENERGY PREDICTED BY IDOCK:    0.10 KCAL/MOL
REMARK 927      BINDING AFFINITY PREDICTED BY RF-SCORE:    0.00 PKD
ROOT
HETATM    1  C   UNL     1     -12.461  11.970  63.424  1.00  0.00    -0.625 C  
HETATM    2  C   UNL     1     -11.054  12.368  63.883  1.00  0.00    -0.415 C  
ENDROOT
BRANCH   2   3
HETATM    3  N   UNL     1     -10.696  12.107  65.291  1.00  0.00    -0.278 NA 
BRANCH   3   4
HETATM    4  C   UNL     1     -10.389  10.745  65.775  1.00  0.00    -0.230 C  
HETATM    5  C   UNL     1      -9.398   9.986  64.883  1.00  0.00    -0.324 C  
ENDBRANCH   3   4
BRANCH   3   6
HETATM    6  C   UNL     1     -10.618  13.258  66.173  1.00  0.00    -0.287 C  
HETATM    7  S   UNL     1      -9.258  13.632  67.064  1.00  0.00    -0.255 SA 
HETATM    8 ZN   UNL     1     -10.884  14.482  68.232  1.00  0.00    -0.216 Zn 
HETATM    9  S   UNL     1     -11.553  13.351  69.881  1.00  0.00    -0.142 SA 
HETATM   10  S   UNL     1     -12.092  14.325  66.490  1.00  0.00    -0.379 SA 
HETATM   11  C   UNL     1     -11.601  15.085  70.470  1.00  0.00    -0.298 C  
HETATM   12  S   UNL     1     -10.778  16.215  69.574  1.00  0.00    -0.336 SA 
BRANCH  11  13
HETATM   13  N   UNL     1     -12.520  15.476  71.503  1.00  0.00    -0.375 NA 
BRANCH  13  14
HETATM   14  C   UNL     1     -12.050  16.214  72.672  1.00  0.00    -0.554 C  
HETATM   15  C   UNL     1     -12.349  15.424  73.947  1.00  0.00    -0.764 C  
ENDBRANCH  13  14
BRANCH  13  16
HETATM   16  C   UNL     1     -13.939  15.159  71.369  1.00  0.00    -0.506 C  
HETATM   17  C   UNL     1     -14.323  13.866  72.082  1.00  0.00    -0.530 C  
ENDBRANCH  13  16
ENDBRANCH  11  13
ENDBRANCH   3   6
ENDBRANCH   2   3
TORSDOF 6
ENDMDL
MODEL        2
REMARK 921   NORMALIZED FREE ENERGY PREDICTED BY IDOCK:   -4.81 KCAL/MOL
REMARK 922        TOTAL FREE ENERGY PREDICTED BY IDOCK:   -6.39 KCAL/MOL
REMARK 923 INTER-LIGAND FREE ENERGY PREDICTED BY IDOCK:   -5.99 KCAL/MOL
REMARK 924 INTRA-LIGAND FREE ENERGY PREDICTED BY IDOCK:   -0.40 KCAL/MOL
REMARK 927      BINDING AFFINITY PREDICTED BY RF-SCORE:    0.00 PKD
ROOT
HETATM    1  C   UNL     1     -10.573  19.704  65.718  1.00  0.00    -0.537 C  
HETATM    2  C   UNL     1      -9.894  20.189  67.005  1.00  0.00    -0.455 C  
ENDROOT
BRANCH   2   3
HETATM    3  N   UNL     1      -8.570  19.625  67.331  1.00  0.00    -0.296 NA 
BRANCH   3   4
HETATM    4  C   UNL     1      -7.410  20.489  67.635  1.00  0.00    -0.298 C  
HETATM    5  C   UNL     1      -6.626  20.047  68.878  1.00  0.00    -0.350 C  
ENDBRANCH   3   4
BRANCH   3   6
HETATM    6  C   UNL     1      -8.466  18.177  67.382  1.00  0.00    -0.240 C  
HETATM    7  S   UNL     1      -7.504  17.295  66.344  1.00  0.00    -0.318 SA 
HETATM    8 ZN   UNL     1      -9.085  15.902  66.883  1.00  0.00    -0.183 Zn 
HETATM    9  S   UNL     1     -10.654  15.672  65.492  1.00  0.00    -0.423 SA 
HETATM   10  S   UNL     1      -9.523  17.182  68.523  1.00  0.00    -0.289 SA 
HETATM   11  C   UNL     1     -10.362  13.981  66.133  1.00  0.00    -0.297 C  
HETATM   12  S   UNL     1      -8.945  13.714  66.957  1.00  0.00    -0.218 SA 
BRANCH  11  13
HETATM   13  N   UNL     1     -11.426  13.014  66.144  1.00  0.00    -0.324 NA 
BRANCH  13  14
HETATM   14  C   UNL     1     -12.566  13.157  65.242  1.00  0.00    -0.472 C  
HETATM   15  C   UNL     1     -12.278  12.450  63.917  1.00  0.00    -0.603 C  
ENDBRANCH  13  14
BRANCH  13  16
HETATM   16  C   UNL     1     -11.353  11.867  67.043  1.00  0.00    -0.329 C  
HETATM   17  C   UNL     1     -11.904  12.171  68.433  1.00  0.00    -0.360 C  
ENDBRANCH  13  16
ENDBRANCH  11  13
ENDBRANCH   3   6
ENDBRANCH   2   3
TORSDOF 6
ENDMDL
MODEL        3
REMARK 921   NORMALIZED FREE ENERGY PREDICTED BY IDOCK:   -4.77 KCAL/MOL
REMARK 922        TOTAL FREE ENERGY PREDICTED BY IDOCK:   -6.34 KCAL/MOL
REMARK 923 INTER-LIGAND FREE ENERGY PREDICTED BY IDOCK:   -5.98 KCAL/MOL
REMARK 924 INTRA-LIGAND FREE ENERGY PREDICTED BY IDOCK:   -0.37 KCAL/MOL
REMARK 927      BINDING AFFINITY PREDICTED BY RF-SCORE:    0.00 PKD
ROOT
HETATM    1  C   UNL     1     -12.200  12.251  63.658  1.00  0.00    -0.665 C  
HETATM    2  C   UNL     1     -12.506  12.796  65.058  1.00  0.00    -0.506 C  
ENDROOT
BRANCH   2   3
HETATM    3  N   UNL     1     -11.444  12.691  66.078  1.00  0.00    -0.347 NA 
BRANCH   3   4
HETATM    4  C   UNL     1     -11.442  11.614  67.090  1.00  0.00    -0.271 C  
HETATM    5  C   UNL     1     -11.839  12.091  68.493  1.00  0.00    -0.369 C  
ENDBRANCH   3   4
BRANCH   3   6
HETATM    6  C   UNL     1     -10.374  13.671  66.015  1.00  0.00    -0.304 C  
HETATM    7  S   UNL     1      -8.892  13.449  66.747  1.00  0.00    -0.065 SA 
HETATM    8 ZN   UNL     1      -9.118  15.611  66.695  1.00  0.00    -0.182 Zn 
HETATM    9  S   UNL     1      -9.767  16.536  68.475  1.00  0.00    -0.249 SA 
HETATM   10  S   UNL     1     -10.633  15.323  65.232  1.00  0.00    -0.432 SA 
HETATM   11  C   UNL     1      -8.512  17.686  67.797  1.00  0.00    -0.227 C  
HETATM   12  S   UNL     1      -7.510  17.103  66.608  1.00  0.00    -0.288 SA 
BRANCH  11  13
HETATM   13  N   UNL     1      -8.575  19.090  68.099  1.00  0.00    -0.308 NA 
BRANCH  13  14
HETATM   14  C   UNL     1      -9.835  19.819  67.977  1.00  0.00    -0.417 C  
HETATM   15  C   UNL     1     -10.319  19.791  66.527  1.00  0.00    -0.621 C  
ENDBRANCH  13  14
BRANCH  13  16
HETATM   16  C   UNL     1      -7.377  19.787  68.558  1.00  0.00    -0.316 C  
HETATM   17  C   UNL     1      -6.834  20.768  67.524  1.00  0.00    -0.407 C  
ENDBRANCH  13  16
ENDBRANCH  11  13
ENDBRANCH   3   6
ENDBRANCH   2   3
TORSDOF 6
ENDMDL
MODEL        4
REMARK 921   NORMALIZED FREE ENERGY PREDICTED BY IDOCK:   -4.77 KCAL/MOL
REMARK 922        TOTAL FREE ENERGY PREDICTED BY IDOCK:   -6.34 KCAL/MOL
REMARK 923 INTER-LIGAND FREE ENERGY PREDICTED BY IDOCK:   -6.05 KCAL/MOL
REMARK 924 INTRA-LIGAND FREE ENERGY PREDICTED BY IDOCK:   -0.29 KCAL/MOL
REMARK 927      BINDING AFFINITY PREDICTED BY RF-SCORE:    0.00 PKD
ROOT
HETATM    1  C   UNL     1     -12.625  11.868  63.338  1.00  0.00    -0.555 C  
HETATM    2  C   UNL     1     -11.260  12.492  63.652  1.00  0.00    -0.483 C  
ENDROOT
BRANCH   2   3
HETATM    3  N   UNL     1     -10.574  12.048  64.881  1.00  0.00    -0.279 NA 
BRANCH   3   4
HETATM    4  C   UNL     1      -9.763  10.813  64.917  1.00  0.00    -0.276 C  
HETATM    5  C   UNL     1     -10.160   9.851  66.045  1.00  0.00    -0.314 C  
ENDBRANCH   3   4
BRANCH   3   6
HETATM    6  C   UNL     1     -10.696  12.905  66.048  1.00  0.00    -0.277 C  
HETATM    7  S   UNL     1     -12.124  13.646  66.489  1.00  0.00    -0.408 SA 
HETATM    8 ZN   UNL     1     -10.594  14.967  67.291  1.00  0.00    -0.244 Zn 
HETATM    9  S   UNL     1     -10.146  16.689  66.159  1.00  0.00    -0.346 SA 
HETATM   10  S   UNL     1      -9.220  13.361  67.059  1.00  0.00    -0.246 SA 
HETATM   11  C   UNL     1     -10.088  17.261  67.899  1.00  0.00    -0.317 C  
HETATM   12  S   UNL     1     -10.767  16.271  69.047  1.00  0.00    -0.323 SA 
BRANCH  11  13
HETATM   13  N   UNL     1      -9.265  18.379  68.269  1.00  0.00    -0.307 NA 
BRANCH  13  14
HETATM   14  C   UNL     1      -7.846  18.192  68.557  1.00  0.00    -0.297 C  
HETATM   15  C   UNL     1      -7.260  19.468  69.162  1.00  0.00    -0.382 C  
ENDBRANCH  13  14
BRANCH  13  16
HETATM   16  C   UNL     1      -9.846  19.717  68.329  1.00  0.00    -0.428 C  
HETATM   17  C   UNL     1     -10.059  20.330  66.948  1.00  0.00    -0.565 C  
ENDBRANCH  13  16
ENDBRANCH  11  13
ENDBRANCH   3   6
ENDBRANCH   2   3
TORSDOF 6
ENDMDL
MODEL        5
REMARK 921   NORMALIZED FREE ENERGY PREDICTED BY IDOCK:   -4.75 KCAL/MOL
REMARK 922        TOTAL FREE ENERGY PREDICTED BY IDOCK:   -6.31 KCAL/MOL
REMARK 923 INTER-LIGAND FREE ENERGY PREDICTED BY IDOCK:   -6.00 KCAL/MOL
REMARK 924 INTRA-LIGAND FREE ENERGY PREDICTED BY IDOCK:   -0.30 KCAL/MOL
REMARK 927      BINDING AFFINITY PREDICTED BY RF-SCORE:    0.00 PKD
ROOT
HETATM    1  C   UNL     1     -10.240   9.955  66.284  1.00  0.00    -0.282 C  
HETATM    2  C   UNL     1      -9.922  10.772  65.026  1.00  0.00    -0.300 C  
ENDROOT
BRANCH   2   3
HETATM    3  N   UNL     1     -10.552  12.100  64.898  1.00  0.00    -0.281 NA 
BRANCH   3   4
HETATM    4  C   UNL     1     -11.144  12.560  63.625  1.00  0.00    -0.467 C  
HETATM    5  C   UNL     1     -12.526  11.958  63.338  1.00  0.00    -0.582 C  
ENDBRANCH   3   4
BRANCH   3   6
HETATM    6  C   UNL     1     -10.603  12.921  66.095  1.00  0.00    -0.271 C  
HETATM    7  S   UNL     1     -12.019  13.556  66.705  1.00  0.00    -0.396 SA 
HETATM    8 ZN   UNL     1     -10.499  14.957  67.379  1.00  0.00    -0.234 Zn 
HETATM    9  S   UNL     1     -10.285  16.730  66.256  1.00  0.00    -0.328 SA 
HETATM   10  S   UNL     1      -9.059  13.452  66.958  1.00  0.00    -0.237 SA 
HETATM   11  C   UNL     1     -10.077  17.266  67.996  1.00  0.00    -0.324 C  
HETATM   12  S   UNL     1     -10.566  16.209  69.180  1.00  0.00    -0.299 SA 
BRANCH  11  13
HETATM   13  N   UNL     1      -9.292  18.428  68.309  1.00  0.00    -0.314 NA 
BRANCH  13  14
HETATM   14  C   UNL     1      -9.924  19.739  68.427  1.00  0.00    -0.439 C  
HETATM   15  C   UNL     1      -9.955  20.432  67.064  1.00  0.00    -0.568 C  
ENDBRANCH  13  14
BRANCH  13  16
HETATM   16  C   UNL     1      -7.857  18.292  68.540  1.00  0.00    -0.298 C  
HETATM   17  C   UNL     1      -7.238  19.546  69.150  1.00  0.00    -0.382 C  
ENDBRANCH  13  16
ENDBRANCH  11  13
ENDBRANCH   3   6
ENDBRANCH   2   3
TORSDOF 6
ENDMDL
MODEL        6
REMARK 921   NORMALIZED FREE ENERGY PREDICTED BY IDOCK:   -4.74 KCAL/MOL
REMARK 922        TOTAL FREE ENERGY PREDICTED BY IDOCK:   -6.30 KCAL/MOL
REMARK 923 INTER-LIGAND FREE ENERGY PREDICTED BY IDOCK:   -5.92 KCAL/MOL
REMARK 924 INTRA-LIGAND FREE ENERGY PREDICTED BY IDOCK:   -0.38 KCAL/MOL
REMARK 927      BINDING AFFINITY PREDICTED BY RF-SCORE:    0.00 PKD
ROOT
HETATM    1  C   UNL     1     -12.420  11.898  63.333  1.00  0.00    -0.582 C  
HETATM    2  C   UNL     1     -11.044  12.386  63.801  1.00  0.00    -0.445 C  
ENDROOT
BRANCH   2   3
HETATM    3  N   UNL     1     -10.540  11.871  65.089  1.00  0.00    -0.276 NA 
BRANCH   3   4
HETATM    4  C   UNL     1      -9.959  10.518  65.211  1.00  0.00    -0.299 C  
HETATM    5  C   UNL     1     -10.308   9.818  66.532  1.00  0.00    -0.262 C  
ENDBRANCH   3   4
BRANCH   3   6
HETATM    6  C   UNL     1     -10.600  12.772  66.226  1.00  0.00    -0.257 C  
HETATM    7  S   UNL     1     -12.016  13.470  66.762  1.00  0.00    -0.392 SA 
HETATM    8 ZN   UNL     1     -10.486  14.889  67.372  1.00  0.00    -0.234 Zn 
HETATM    9  S   UNL     1     -10.219  16.577  66.137  1.00  0.00    -0.352 SA 
HETATM   10  S   UNL     1      -9.064  13.335  67.084  1.00  0.00    -0.237 SA 
HETATM   11  C   UNL     1     -10.036  17.227  67.840  1.00  0.00    -0.317 C  
HETATM   12  S   UNL     1     -10.567  16.261  69.083  1.00  0.00    -0.315 SA 
BRANCH  11  13
HETATM   13  N   UNL     1      -9.237  18.395  68.091  1.00  0.00    -0.303 NA 
BRANCH  13  14
HETATM   14  C   UNL     1      -9.853  19.718  68.136  1.00  0.00    -0.424 C  
HETATM   15  C   UNL     1     -10.002  20.277  66.721  1.00  0.00    -0.587 C  
ENDBRANCH  13  14
BRANCH  13  16
HETATM   16  C   UNL     1      -7.804  18.255  68.330  1.00  0.00    -0.305 C  
HETATM   17  C   UNL     1      -7.251  19.344  69.245  1.00  0.00    -0.336 C  
ENDBRANCH  13  16
ENDBRANCH  11  13
ENDBRANCH   3   6
ENDBRANCH   2   3
TORSDOF 6
ENDMDL
MODEL        7
REMARK 921   NORMALIZED FREE ENERGY PREDICTED BY IDOCK:   -4.73 KCAL/MOL
REMARK 922        TOTAL FREE ENERGY PREDICTED BY IDOCK:   -6.29 KCAL/MOL
REMARK 923 INTER-LIGAND FREE ENERGY PREDICTED BY IDOCK:   -5.90 KCAL/MOL
REMARK 924 INTRA-LIGAND FREE ENERGY PREDICTED BY IDOCK:   -0.39 KCAL/MOL
REMARK 927      BINDING AFFINITY PREDICTED BY RF-SCORE:    0.00 PKD
ROOT
HETATM    1  C   UNL     1     -11.237  10.872  67.606  1.00  0.00    -0.379 C  
HETATM    2  C   UNL     1     -11.779  12.293  67.413  1.00  0.00    -0.335 C  
ENDROOT
BRANCH   2   3
HETATM    3  N   UNL     1     -11.594  12.919  66.090  1.00  0.00    -0.352 NA 
BRANCH   3   4
HETATM    4  C   UNL     1     -12.501  12.631  64.959  1.00  0.00    -0.487 C  
HETATM    5  C   UNL     1     -11.788  12.036  63.737  1.00  0.00    -0.581 C  
ENDBRANCH   3   4
BRANCH   3   6
HETATM    6  C   UNL     1     -10.503  13.868  65.958  1.00  0.00    -0.298 C  
HETATM    7  S   UNL     1      -9.028  13.671  66.713  1.00  0.00    -0.126 SA 
HETATM    8 ZN   UNL     1      -9.206  15.827  66.494  1.00  0.00    -0.182 Zn 
HETATM    9  S   UNL     1      -9.841  16.899  68.196  1.00  0.00    -0.276 SA 
HETATM   10  S   UNL     1     -10.722  15.461  65.050  1.00  0.00    -0.405 SA 
HETATM   11  C   UNL     1      -8.559  17.967  67.438  1.00  0.00    -0.239 C  
HETATM   12  S   UNL     1      -7.566  17.273  66.302  1.00  0.00    -0.301 SA 
BRANCH  11  13
HETATM   13  N   UNL     1      -8.592  19.390  67.632  1.00  0.00    -0.298 NA 
BRANCH  13  14
HETATM   14  C   UNL     1      -9.853  20.121  67.543  1.00  0.00    -0.435 C  
HETATM   15  C   UNL     1     -10.425  20.011  66.130  1.00  0.00    -0.526 C  
ENDBRANCH  13  14
BRANCH  13  16
HETATM   16  C   UNL     1      -7.360  20.107  67.948  1.00  0.00    -0.291 C  
HETATM   17  C   UNL     1      -6.783  19.715  69.305  1.00  0.00    -0.391 C  
ENDBRANCH  13  16
ENDBRANCH  11  13
ENDBRANCH   3   6
ENDBRANCH   2   3
TORSDOF 6
ENDMDL
MODEL        8
REMARK 921   NORMALIZED FREE ENERGY PREDICTED BY IDOCK:   -4.72 KCAL/MOL
REMARK 922        TOTAL FREE ENERGY PREDICTED BY IDOCK:   -6.27 KCAL/MOL
REMARK 923 INTER-LIGAND FREE ENERGY PREDICTED BY IDOCK:   -5.92 KCAL/MOL
REMARK 924 INTRA-LIGAND FREE ENERGY PREDICTED BY IDOCK:   -0.34 KCAL/MOL
REMARK 927      BINDING AFFINITY PREDICTED BY RF-SCORE:    0.00 PKD
ROOT
HETATM    1  C   UNL     1     -11.842  12.395  68.515  1.00  0.00    -0.352 C  
HETATM    2  C   UNL     1     -11.472  11.830  67.139  1.00  0.00    -0.295 C  
ENDROOT
BRANCH   2   3
HETATM    3  N   UNL     1     -11.495  12.759  65.992  1.00  0.00    -0.331 NA 
BRANCH   3   4
HETATM    4  C   UNL     1     -12.583  12.733  64.993  1.00  0.00    -0.468 C  
HETATM    5  C   UNL     1     -12.154  12.163  63.634  1.00  0.00    -0.648 C  
ENDBRANCH   3   4
BRANCH   3   6
HETATM    6  C   UNL     1     -10.419  13.732  65.913  1.00  0.00    -0.297 C  
HETATM    7  S   UNL     1      -8.939  13.515  66.649  1.00  0.00    -0.045 SA 
HETATM    8 ZN   UNL     1      -9.153  15.677  66.557  1.00  0.00    -0.181 Zn 
HETATM    9  S   UNL     1      -9.797  16.637  68.321  1.00  0.00    -0.264 SA 
HETATM   10  S   UNL     1     -10.669  15.371  65.100  1.00  0.00    -0.443 SA 
HETATM   11  C   UNL     1      -8.536  17.768  67.623  1.00  0.00    -0.230 C  
HETATM   12  S   UNL     1      -7.537  17.158  66.444  1.00  0.00    -0.324 SA 
BRANCH  11  13
HETATM   13  N   UNL     1      -8.591  19.178  67.899  1.00  0.00    -0.297 NA 
BRANCH  13  14
HETATM   14  C   UNL     1      -7.389  19.901  68.303  1.00  0.00    -0.292 C  
HETATM   15  C   UNL     1      -7.028  20.949  67.251  1.00  0.00    -0.436 C  
ENDBRANCH  13  14
BRANCH  13  16
HETATM   16  C   UNL     1      -9.852  19.897  67.747  1.00  0.00    -0.402 C  
HETATM   17  C   UNL     1     -10.450  19.748  66.351  1.00  0.00    -0.618 C  
ENDBRANCH  13  16
ENDBRANCH  11  13
ENDBRANCH   3   6
ENDBRANCH   2   3
TORSDOF 6
ENDMDL
MODEL        9
REMARK 921   NORMALIZED FREE ENERGY PREDICTED BY IDOCK:   -4.71 KCAL/MOL
REMARK 922        TOTAL FREE ENERGY PREDICTED BY IDOCK:   -6.25 KCAL/MOL
REMARK 923 INTER-LIGAND FREE ENERGY PREDICTED BY IDOCK:   -5.90 KCAL/MOL
REMARK 924 INTRA-LIGAND FREE ENERGY PREDICTED BY IDOCK:   -0.35 KCAL/MOL
REMARK 927      BINDING AFFINITY PREDICTED BY RF-SCORE:    0.00 PKD
ROOT
HETATM    1  C   UNL     1     -10.532  19.614  66.001  1.00  0.00    -0.622 C  
HETATM    2  C   UNL     1      -9.771  20.087  67.245  1.00  0.00    -0.412 C  
ENDROOT
BRANCH   2   3
HETATM    3  N   UNL     1      -8.447  19.488  67.502  1.00  0.00    -0.294 NA 
BRANCH   3   4
HETATM    4  C   UNL     1      -7.268  20.318  67.827  1.00  0.00    -0.301 C  
HETATM    5  C   UNL     1      -6.608  20.954  66.596  1.00  0.00    -0.350 C  
ENDBRANCH   3   4
BRANCH   3   6
HETATM    6  C   UNL     1      -8.363  18.039  67.465  1.00  0.00    -0.233 C  
HETATM    7  S   UNL     1      -7.453  17.207  66.342  1.00  0.00    -0.311 SA 
HETATM    8 ZN   UNL     1      -9.032  15.805  66.858  1.00  0.00    -0.176 Zn 
HETATM    9  S   UNL     1     -10.655  15.676  65.517  1.00  0.00    -0.423 SA 
HETATM   10  S   UNL     1      -9.391  16.990  68.585  1.00  0.00    -0.263 SA 
HETATM   11  C   UNL     1     -10.364  13.946  66.047  1.00  0.00    -0.305 C  
HETATM   12  S   UNL     1      -8.921  13.614  66.799  1.00  0.00    -0.126 SA 
BRANCH  11  13
HETATM   13  N   UNL     1     -11.441  12.994  66.042  1.00  0.00    -0.321 NA 
BRANCH  13  14
HETATM   14  C   UNL     1     -11.538  11.980  67.088  1.00  0.00    -0.316 C  
HETATM   15  C   UNL     1     -11.884  12.637  68.425  1.00  0.00    -0.347 C  
ENDBRANCH  13  14
BRANCH  13  16
HETATM   16  C   UNL     1     -12.461  13.059  65.000  1.00  0.00    -0.477 C  
HETATM   17  C   UNL     1     -11.997  12.442  63.683  1.00  0.00    -0.626 C  
ENDBRANCH  13  16
ENDBRANCH  11  13
ENDBRANCH   3   6
ENDBRANCH   2   3
TORSDOF 6
ENDMDL
MODEL       10
REMARK 921   NORMALIZED FREE ENERGY PREDICTED BY IDOCK:   -4.70 KCAL/MOL
REMARK 922        TOTAL FREE ENERGY PREDICTED BY IDOCK:   -6.24 KCAL/MOL
REMARK 923 INTER-LIGAND FREE ENERGY PREDICTED BY IDOCK:   -6.28 KCAL/MOL
REMARK 924 INTRA-LIGAND FREE ENERGY PREDICTED BY IDOCK:    0.04 KCAL/MOL
REMARK 927      BINDING AFFINITY PREDICTED BY RF-SCORE:    0.00 PKD
ROOT
HETATM    1  C   UNL     1     -12.661  11.908  63.371  1.00  0.00    -0.555 C  
HETATM    2  C   UNL     1     -11.325  12.589  63.689  1.00  0.00    -0.485 C  
ENDROOT
BRANCH   2   3
HETATM    3  N   UNL     1     -10.629  12.182  64.925  1.00  0.00    -0.281 NA 
BRANCH   3   4
HETATM    4  C   UNL     1     -10.064  10.827  65.089  1.00  0.00    -0.299 C  
HETATM    5  C   UNL     1      -9.283  10.336  63.863  1.00  0.00    -0.312 C  
ENDBRANCH   3   4
BRANCH   3   6
HETATM    6  C   UNL     1     -10.487  13.190  65.962  1.00  0.00    -0.284 C  
HETATM    7  S   UNL     1      -9.211  13.219  67.036  1.00  0.00    -0.241 SA 
HETATM    8 ZN   UNL     1     -10.822  14.188  68.129  1.00  0.00    -0.221 Zn 
HETATM    9  S   UNL     1     -11.863  12.999  69.525  1.00  0.00    -0.296 SA 
HETATM   10  S   UNL     1     -11.806  14.446  66.263  1.00  0.00    -0.353 SA 
HETATM   11  C   UNL     1     -11.717  14.634  70.339  1.00  0.00    -0.295 C  
HETATM   12  S   UNL     1     -10.621  15.706  69.701  1.00  0.00    -0.307 SA 
BRANCH  11  13
HETATM   13  N   UNL     1     -12.689  15.051  71.313  1.00  0.00    -0.319 NA 
BRANCH  13  14
HETATM   14  C   UNL     1     -13.970  14.358  71.424  1.00  0.00    -0.324 C  
HETATM   15  C   UNL     1     -13.836  13.151  72.352  1.00  0.00    -0.583 C  
ENDBRANCH  13  14
BRANCH  13  16
HETATM   16  C   UNL     1     -12.382  16.155  72.216  1.00  0.00    -0.463 C  
HETATM   17  C   UNL     1     -12.255  15.709  73.670  1.00  0.00    -0.660 C  
ENDBRANCH  13  16
ENDBRANCH  11  13
ENDBRANCH   3   6
ENDBRANCH   2   3
TORSDOF 6
ENDMDL
MODEL       11
REMARK 921   NORMALIZED FREE ENERGY PREDICTED BY IDOCK:   -4.68 KCAL/MOL
REMARK 922        TOTAL FREE ENERGY PREDICTED BY IDOCK:   -6.22 KCAL/MOL
REMARK 923 INTER-LIGAND FREE ENERGY PREDICTED BY IDOCK:   -5.93 KCAL/MOL
REMARK 924 INTRA-LIGAND FREE ENERGY PREDICTED BY IDOCK:   -0.28 KCAL/MOL
REMARK 927      BINDING AFFINITY PREDICTED BY RF-SCORE:    0.00 PKD
ROOT
HETATM    1  C   UNL     1     -10.368   9.940  66.883  1.00  0.00    -0.300 C  
HETATM    2  C   UNL     1     -10.047  10.516  65.499  1.00  0.00    -0.283 C  
ENDROOT
BRANCH   2   3
HETATM    3  N   UNL     1     -10.346  11.942  65.268  1.00  0.00    -0.265 NA 
BRANCH   3   4
HETATM    4  C   UNL     1     -10.634  12.467  63.917  1.00  0.00    -0.440 C  
HETATM    5  C   UNL     1     -12.082  12.235  63.465  1.00  0.00    -0.649 C  
ENDBRANCH   3   4
BRANCH   3   6
HETATM    6  C   UNL     1     -10.387  12.803  66.437  1.00  0.00    -0.258 C  
HETATM    7  S   UNL     1     -11.802  13.427  67.060  1.00  0.00    -0.388 SA 
HETATM    8 ZN   UNL     1     -10.299  14.884  67.649  1.00  0.00    -0.224 Zn 
HETATM    9  S   UNL     1     -10.152  16.621  66.461  1.00  0.00    -0.317 SA 
HETATM   10  S   UNL     1      -8.835  13.397  67.243  1.00  0.00    -0.227 SA 
HETATM   11  C   UNL     1      -9.915  17.221  68.176  1.00  0.00    -0.303 C  
HETATM   12  S   UNL     1     -10.351  16.195  69.408  1.00  0.00    -0.289 SA 
BRANCH  11  13
HETATM   13  N   UNL     1      -9.150  18.411  68.430  1.00  0.00    -0.314 NA 
BRANCH  13  14
HETATM   14  C   UNL     1      -7.691  18.356  68.481  1.00  0.00    -0.303 C  
HETATM   15  C   UNL     1      -7.153  19.509  69.328  1.00  0.00    -0.372 C  
ENDBRANCH  13  14
BRANCH  13  16
HETATM   16  C   UNL     1      -9.834  19.688  68.609  1.00  0.00    -0.427 C  
HETATM   17  C   UNL     1      -9.832  20.539  67.343  1.00  0.00    -0.574 C  
ENDBRANCH  13  16
ENDBRANCH  11  13
ENDBRANCH   3   6
ENDBRANCH   2   3
TORSDOF 6
ENDMDL
MODEL       12
REMARK 921   NORMALIZED FREE ENERGY PREDICTED BY IDOCK:   -4.68 KCAL/MOL
REMARK 922        TOTAL FREE ENERGY PREDICTED BY IDOCK:   -6.22 KCAL/MOL
REMARK 923 INTER-LIGAND FREE ENERGY PREDICTED BY IDOCK:   -5.82 KCAL/MOL
REMARK 924 INTRA-LIGAND FREE ENERGY PREDICTED BY IDOCK:   -0.39 KCAL/MOL
REMARK 927      BINDING AFFINITY PREDICTED BY RF-SCORE:    0.00 PKD
ROOT
HETATM    1  C   UNL     1      -6.499  20.872  66.451  1.00  0.00    -0.310 C  
HETATM    2  C   UNL     1      -7.245  20.269  67.647  1.00  0.00    -0.301 C  
ENDROOT
BRANCH   2   3
HETATM    3  N   UNL     1      -8.487  19.521  67.369  1.00  0.00    -0.292 NA 
BRANCH   3   4
HETATM    4  C   UNL     1      -9.740  20.208  66.993  1.00  0.00    -0.437 C  
HETATM    5  C   UNL     1     -10.413  19.617  65.747  1.00  0.00    -0.540 C  
ENDBRANCH   3   4
BRANCH   3   6
HETATM    6  C   UNL     1      -8.412  18.073  67.440  1.00  0.00    -0.240 C  
HETATM    7  S   UNL     1      -7.408  17.164  66.466  1.00  0.00    -0.300 SA 
HETATM    8 ZN   UNL     1      -9.040  15.804  66.928  1.00  0.00    -0.183 Zn 
HETATM    9  S   UNL     1     -10.532  15.585  65.453  1.00  0.00    -0.415 SA 
HETATM   10  S   UNL     1      -9.548  17.107  68.528  1.00  0.00    -0.297 SA 
HETATM   11  C   UNL     1     -10.307  13.895  66.126  1.00  0.00    -0.301 C  
HETATM   12  S   UNL     1      -8.943  13.614  67.031  1.00  0.00    -0.218 SA 
BRANCH  11  13
HETATM   13  N   UNL     1     -11.386  12.947  66.086  1.00  0.00    -0.303 NA 
BRANCH  13  14
HETATM   14  C   UNL     1     -12.530  13.163  65.204  1.00  0.00    -0.483 C  
HETATM   15  C   UNL     1     -12.505  12.154  64.056  1.00  0.00    -0.541 C  
ENDBRANCH  13  14
BRANCH  13  16
HETATM   16  C   UNL     1     -11.325  11.745  66.911  1.00  0.00    -0.320 C  
HETATM   17  C   UNL     1     -11.904  11.958  68.307  1.00  0.00    -0.343 C  
ENDBRANCH  13  16
ENDBRANCH  11  13
ENDBRANCH   3   6
ENDBRANCH   2   3
TORSDOF 6
ENDMDL
MODEL       13
REMARK 921   NORMALIZED FREE ENERGY PREDICTED BY IDOCK:   -4.57 KCAL/MOL
REMARK 922        TOTAL FREE ENERGY PREDICTED BY IDOCK:   -6.06 KCAL/MOL
REMARK 923 INTER-LIGAND FREE ENERGY PREDICTED BY IDOCK:   -5.67 KCAL/MOL
REMARK 924 INTRA-LIGAND FREE ENERGY PREDICTED BY IDOCK:   -0.39 KCAL/MOL
REMARK 927      BINDING AFFINITY PREDICTED BY RF-SCORE:    0.00 PKD
ROOT
HETATM    1  C   UNL     1     -11.072  11.002  67.507  1.00  0.00    -0.366 C  
HETATM    2  C   UNL     1     -11.775  12.287  67.055  1.00  0.00    -0.329 C  
ENDROOT
BRANCH   2   3
HETATM    3  N   UNL     1     -11.142  13.065  65.972  1.00  0.00    -0.275 NA 
BRANCH   3   4
HETATM    4  C   UNL     1     -10.535  12.409  64.796  1.00  0.00    -0.304 C  
HETATM    5  C   UNL     1     -11.562  11.956  63.748  1.00  0.00    -0.555 C  
ENDBRANCH   3   4
BRANCH   3   6
HETATM    6  C   UNL     1     -11.181  14.512  66.094  1.00  0.00    -0.339 C  
HETATM    7  S   UNL     1     -11.188  15.537  64.779  1.00  0.00    -0.323 SA 
HETATM    8 ZN   UNL     1     -10.273  16.729  66.350  1.00  0.00    -0.247 Zn 
HETATM    9  S   UNL     1      -8.168  16.856  66.334  1.00  0.00    -0.313 SA 
HETATM   10  S   UNL     1     -11.075  15.337  67.742  1.00  0.00    -0.323 SA 
HETATM   11  C   UNL     1      -8.721  18.538  66.805  1.00  0.00    -0.278 C  
HETATM   12  S   UNL     1     -10.317  18.915  66.542  1.00  0.00    -0.452 SA 
BRANCH  11  13
HETATM   13  N   UNL     1      -7.875  19.385  67.600  1.00  0.00    -0.268 NA 
BRANCH  13  14
HETATM   14  C   UNL     1      -7.489  18.989  68.952  1.00  0.00    -0.329 C  
HETATM   15  C   UNL     1      -6.376  19.901  69.469  1.00  0.00    -0.382 C  
ENDBRANCH  13  14
BRANCH  13  16
HETATM   16  C   UNL     1      -7.373  20.637  67.041  1.00  0.00    -0.316 C  
HETATM   17  C   UNL     1      -6.659  20.442  65.707  1.00  0.00    -0.272 C  
ENDBRANCH  13  16
ENDBRANCH  11  13
ENDBRANCH   3   6
ENDBRANCH   2   3
TORSDOF 6
ENDMDL
MODEL       14
REMARK 921   NORMALIZED FREE ENERGY PREDICTED BY IDOCK:   -4.54 KCAL/MOL
REMARK 922        TOTAL FREE ENERGY PREDICTED BY IDOCK:   -6.03 KCAL/MOL
REMARK 923 INTER-LIGAND FREE ENERGY PREDICTED BY IDOCK:   -5.80 KCAL/MOL
REMARK 924 INTRA-LIGAND FREE ENERGY PREDICTED BY IDOCK:   -0.24 KCAL/MOL
REMARK 927      BINDING AFFINITY PREDICTED BY RF-SCORE:    0.00 PKD
ROOT
HETATM    1  C   UNL     1     -10.179  19.723  66.056  1.00  0.00    -0.600 C  
HETATM    2  C   UNL     1     -10.438  18.228  66.282  1.00  0.00    -0.376 C  
ENDROOT
BRANCH   2   3
HETATM    3  N   UNL     1      -9.284  17.314  66.190  1.00  0.00    -0.467 NA 
BRANCH   3   4
HETATM    4  C   UNL     1      -7.894  17.816  66.174  1.00  0.00    -0.227 C  
HETATM    5  C   UNL     1      -7.348  18.152  67.568  1.00  0.00    -0.213 C  
ENDBRANCH   3   4
BRANCH   3   6
HETATM    6  C   UNL     1      -9.573  15.891  66.158  1.00  0.00    -0.333 C  
HETATM    7  S   UNL     1     -10.873  15.244  65.339  1.00  0.00    -0.408 SA 
HETATM    8 ZN   UNL     1     -10.512  13.813  66.936  1.00  0.00    -0.249 Zn 
HETATM    9  S   UNL     1     -11.757  13.958  68.632  1.00  0.00    -0.380 SA 
HETATM   10  S   UNL     1      -8.590  14.692  67.160  1.00  0.00    -0.223 SA 
HETATM   11  C   UNL     1     -11.549  12.156  68.373  1.00  0.00    -0.327 C  
HETATM   12  S   UNL     1     -10.950  11.663  66.904  1.00  0.00    -0.304 SA 
BRANCH  11  13
HETATM   13  N   UNL     1     -11.653  11.246  69.480  1.00  0.00    -0.297 NA 
BRANCH  13  14
HETATM   14  C   UNL     1     -11.098   9.898  69.387  1.00  0.00    -0.199 C  
HETATM   15  C   UNL     1      -9.690   9.868  69.982  1.00  0.00    -0.274 C  
ENDBRANCH  13  14
BRANCH  13  16
HETATM   16  C   UNL     1     -12.292  11.681  70.718  1.00  0.00    -0.358 C  
HETATM   17  C   UNL     1     -12.916  10.527  71.497  1.00  0.00    -0.565 C  
ENDBRANCH  13  16
ENDBRANCH  11  13
ENDBRANCH   3   6
ENDBRANCH   2   3
TORSDOF 6
ENDMDL
MODEL       15
REMARK 921   NORMALIZED FREE ENERGY PREDICTED BY IDOCK:   -4.54 KCAL/MOL
REMARK 922        TOTAL FREE ENERGY PREDICTED BY IDOCK:   -6.03 KCAL/MOL
REMARK 923 INTER-LIGAND FREE ENERGY PREDICTED BY IDOCK:   -5.65 KCAL/MOL
REMARK 924 INTRA-LIGAND FREE ENERGY PREDICTED BY IDOCK:   -0.38 KCAL/MOL
REMARK 927      BINDING AFFINITY PREDICTED BY RF-SCORE:    0.00 PKD
ROOT
HETATM    1  C   UNL     1     -11.561  12.204  63.895  1.00  0.00    -0.532 C  
HETATM    2  C   UNL     1     -10.598  12.843  64.902  1.00  0.00    -0.323 C  
ENDROOT
BRANCH   2   3
HETATM    3  N   UNL     1     -11.182  13.450  66.113  1.00  0.00    -0.292 NA 
BRANCH   3   4
HETATM    4  C   UNL     1     -11.736  12.625  67.206  1.00  0.00    -0.370 C  
HETATM    5  C   UNL     1     -11.026  11.275  67.377  1.00  0.00    -0.337 C  
ENDBRANCH   3   4
BRANCH   3   6
HETATM    6  C   UNL     1     -11.149  14.899  66.204  1.00  0.00    -0.335 C  
HETATM    7  S   UNL     1     -11.129  15.895  64.866  1.00  0.00    -0.301 SA 
HETATM    8 ZN   UNL     1     -10.131  17.075  66.397  1.00  0.00    -0.238 Zn 
HETATM    9  S   UNL     1      -8.023  17.099  66.344  1.00  0.00    -0.316 SA 
HETATM   10  S   UNL     1     -10.975  15.753  67.832  1.00  0.00    -0.315 SA 
HETATM   11  C   UNL     1      -8.486  18.815  66.787  1.00  0.00    -0.287 C  
HETATM   12  S   UNL     1     -10.067  19.263  66.541  1.00  0.00    -0.452 SA 
BRANCH  11  13
HETATM   13  N   UNL     1      -7.587  19.637  67.550  1.00  0.00    -0.257 NA 
BRANCH  13  14
HETATM   14  C   UNL     1      -7.106  20.907  67.011  1.00  0.00    -0.315 C  
HETATM   15  C   UNL     1      -6.321  20.666  65.722  1.00  0.00    -0.275 C  
ENDBRANCH  13  14
BRANCH  13  16
HETATM   16  C   UNL     1      -7.174  19.214  68.884  1.00  0.00    -0.341 C  
HETATM   17  C   UNL     1      -6.181  20.178  69.526  1.00  0.00    -0.370 C  
ENDBRANCH  13  16
ENDBRANCH  11  13
ENDBRANCH   3   6
ENDBRANCH   2   3
TORSDOF 6
ENDMDL
MODEL       16
REMARK 921   NORMALIZED FREE ENERGY PREDICTED BY IDOCK:   -4.51 KCAL/MOL
REMARK 922        TOTAL FREE ENERGY PREDICTED BY IDOCK:   -5.99 KCAL/MOL
REMARK 923 INTER-LIGAND FREE ENERGY PREDICTED BY IDOCK:   -5.57 KCAL/MOL
REMARK 924 INTRA-LIGAND FREE ENERGY PREDICTED BY IDOCK:   -0.43 KCAL/MOL
REMARK 927      BINDING AFFINITY PREDICTED BY RF-SCORE:    0.00 PKD
ROOT
HETATM    1  C   UNL     1      -7.469  20.104  67.735  1.00  0.00    -0.327 C  
HETATM    2  C   UNL     1      -8.453  19.429  68.697  1.00  0.00    -0.359 C  
ENDROOT
BRANCH   2   3
HETATM    3  N   UNL     1      -9.580  18.682  68.107  1.00  0.00    -0.316 NA 
BRANCH   3   4
HETATM    4  C   UNL     1     -10.703  19.370  67.436  1.00  0.00    -0.479 C  
HETATM    5  C   UNL     1     -10.579  19.398  65.907  1.00  0.00    -0.551 C  
ENDBRANCH   3   4
BRANCH   3   6
HETATM    6  C   UNL     1      -9.516  17.232  68.176  1.00  0.00    -0.278 C  
HETATM    7  S   UNL     1      -8.112  16.369  67.920  1.00  0.00    -0.160 SA 
HETATM    8 ZN   UNL     1      -9.680  14.975  67.349  1.00  0.00    -0.201 Zn 
HETATM    9  S   UNL     1     -10.072  14.790  65.285  1.00  0.00    -0.301 SA 
HETATM   10  S   UNL     1     -11.040  16.216  68.411  1.00  0.00    -0.355 SA 
HETATM   11  C   UNL     1     -10.216  13.081  65.931  1.00  0.00    -0.292 C  
HETATM   12  S   UNL     1      -9.594  12.784  67.442  1.00  0.00    -0.205 SA 
BRANCH  11  13
HETATM   13  N   UNL     1     -11.056  12.122  65.267  1.00  0.00    -0.312 NA 
BRANCH  13  14
HETATM   14  C   UNL     1     -10.600  10.749  65.069  1.00  0.00    -0.173 C  
HETATM   15  C   UNL     1      -9.341  10.733  64.202  1.00  0.00    -0.286 C  
ENDBRANCH  13  14
BRANCH  13  16
HETATM   16  C   UNL     1     -12.387  12.516  64.814  1.00  0.00    -0.474 C  
HETATM   17  C   UNL     1     -12.738  11.938  63.446  1.00  0.00    -0.496 C  
ENDBRANCH  13  16
ENDBRANCH  11  13
ENDBRANCH   3   6
ENDBRANCH   2   3
TORSDOF 6
ENDMDL
MODEL       17
REMARK 921   NORMALIZED FREE ENERGY PREDICTED BY IDOCK:   -4.49 KCAL/MOL
REMARK 922        TOTAL FREE ENERGY PREDICTED BY IDOCK:   -5.96 KCAL/MOL
REMARK 923 INTER-LIGAND FREE ENERGY PREDICTED BY IDOCK:   -5.88 KCAL/MOL
REMARK 924 INTRA-LIGAND FREE ENERGY PREDICTED BY IDOCK:   -0.07 KCAL/MOL
REMARK 927      BINDING AFFINITY PREDICTED BY RF-SCORE:    0.00 PKD
ROOT
HETATM    1  C   UNL     1     -10.053  20.547  67.770  1.00  0.00    -0.368 C  
HETATM    2  C   UNL     1      -9.715  19.540  68.876  1.00  0.00    -0.426 C  
ENDROOT
BRANCH   2   3
HETATM    3  N   UNL     1      -9.161  18.236  68.463  1.00  0.00    -0.313 NA 
BRANCH   3   4
HETATM    4  C   UNL     1      -7.721  17.929  68.587  1.00  0.00    -0.289 C  
HETATM    5  C   UNL     1      -6.884  19.107  69.105  1.00  0.00    -0.361 C  
ENDBRANCH   3   4
BRANCH   3   6
HETATM    6  C   UNL     1     -10.104  17.249  67.968  1.00  0.00    -0.324 C  
HETATM    7  S   UNL     1     -10.900  16.171  68.961  1.00  0.00    -0.323 SA 
HETATM    8 ZN   UNL     1     -10.806  15.133  67.052  1.00  0.00    -0.266 Zn 
HETATM    9  S   UNL     1      -9.286  13.686  66.839  1.00  0.00    -0.239 SA 
HETATM   10  S   UNL     1     -10.382  17.014  66.157  1.00  0.00    -0.272 SA 
HETATM   11  C   UNL     1     -10.735  12.951  65.994  1.00  0.00    -0.277 C  
HETATM   12  S   UNL     1     -12.219  13.635  66.295  1.00  0.00    -0.418 SA 
BRANCH  11  13
HETATM   13  N   UNL     1     -10.552  12.003  64.929  1.00  0.00    -0.279 NA 
BRANCH  13  14
HETATM   14  C   UNL     1      -9.915  10.714  65.185  1.00  0.00    -0.303 C  
HETATM   15  C   UNL     1      -9.413  10.107  63.876  1.00  0.00    -0.332 C  
ENDBRANCH  13  14
BRANCH  13  16
HETATM   16  C   UNL     1     -11.031  12.320  63.587  1.00  0.00    -0.471 C  
HETATM   17  C   UNL     1     -12.503  11.971  63.390  1.00  0.00    -0.625 C  
ENDBRANCH  13  16
ENDBRANCH  11  13
ENDBRANCH   3   6
ENDBRANCH   2   3
TORSDOF 6
ENDMDL
MODEL       18
REMARK 921   NORMALIZED FREE ENERGY PREDICTED BY IDOCK:   -4.46 KCAL/MOL
REMARK 922        TOTAL FREE ENERGY PREDICTED BY IDOCK:   -5.92 KCAL/MOL
REMARK 923 INTER-LIGAND FREE ENERGY PREDICTED BY IDOCK:   -5.57 KCAL/MOL
REMARK 924 INTRA-LIGAND FREE ENERGY PREDICTED BY IDOCK:   -0.36 KCAL/MOL
REMARK 927      BINDING AFFINITY PREDICTED BY RF-SCORE:    0.00 PKD
ROOT
HETATM    1  C   UNL     1     -13.020  10.359  71.065  1.00  0.00    -0.490 C  
HETATM    2  C   UNL     1     -12.151  11.454  70.435  1.00  0.00    -0.384 C  
ENDROOT
BRANCH   2   3
HETATM    3  N   UNL     1     -11.419  11.117  69.199  1.00  0.00    -0.268 NA 
BRANCH   3   4
HETATM    4  C   UNL     1     -10.721   9.824  69.036  1.00  0.00    -0.217 C  
HETATM    5  C   UNL     1      -9.537   9.642  69.996  1.00  0.00    -0.281 C  
ENDBRANCH   3   4
BRANCH   3   6
HETATM    6  C   UNL     1     -11.450  12.098  68.128  1.00  0.00    -0.317 C  
HETATM    7  S   UNL     1     -10.864  11.794  66.597  1.00  0.00    -0.288 SA 
HETATM    8 ZN   UNL     1     -10.651  13.948  66.807  1.00  0.00    -0.257 Zn 
HETATM    9  S   UNL     1      -8.731  14.661  67.311  1.00  0.00    -0.220 SA 
HETATM   10  S   UNL     1     -12.016  13.829  68.432  1.00  0.00    -0.304 SA 
HETATM   11  C   UNL     1      -9.367  15.882  66.102  1.00  0.00    -0.350 C  
HETATM   12  S   UNL     1     -10.689  15.440  65.198  1.00  0.00    -0.443 SA 
BRANCH  11  13
HETATM   13  N   UNL     1      -8.902  17.242  66.130  1.00  0.00    -0.482 NA 
BRANCH  13  14
HETATM   14  C   UNL     1      -9.851  18.347  66.232  1.00  0.00    -0.331 C  
HETATM   15  C   UNL     1     -10.545  18.319  67.594  1.00  0.00    -0.427 C  
ENDBRANCH  13  14
BRANCH  13  16
HETATM   16  C   UNL     1      -7.470  17.519  66.084  1.00  0.00    -0.299 C  
HETATM   17  C   UNL     1      -6.975  18.268  67.318  1.00  0.00    -0.210 C  
ENDBRANCH  13  16
ENDBRANCH  11  13
ENDBRANCH   3   6
ENDBRANCH   2   3
TORSDOF 6
ENDMDL
MODEL       19
REMARK 921   NORMALIZED FREE ENERGY PREDICTED BY IDOCK:   -4.44 KCAL/MOL
REMARK 922        TOTAL FREE ENERGY PREDICTED BY IDOCK:   -5.89 KCAL/MOL
REMARK 923 INTER-LIGAND FREE ENERGY PREDICTED BY IDOCK:   -5.60 KCAL/MOL
REMARK 924 INTRA-LIGAND FREE ENERGY PREDICTED BY IDOCK:   -0.29 KCAL/MOL
REMARK 927      BINDING AFFINITY PREDICTED BY RF-SCORE:    0.00 PKD
ROOT
HETATM    1  C   UNL     1     -14.399  14.018  72.009  1.00  0.00    -0.548 C  
HETATM    2  C   UNL     1     -12.972  13.461  72.065  1.00  0.00    -0.310 C  
ENDROOT
BRANCH   2   3
HETATM    3  N   UNL     1     -12.325  13.113  70.786  1.00  0.00    -0.360 NA 
BRANCH   3   4
HETATM    4  C   UNL     1     -12.061  11.710  70.404  1.00  0.00    -0.373 C  
HETATM    5  C   UNL     1     -12.739  10.686  71.324  1.00  0.00    -0.537 C  
ENDBRANCH   3   4
BRANCH   3   6
HETATM    6  C   UNL     1     -11.998  14.212  69.895  1.00  0.00    -0.338 C  
HETATM    7  S   UNL     1     -11.690  14.007  68.268  1.00  0.00    -0.370 SA 
HETATM    8 ZN   UNL     1     -10.565  15.796  68.779  1.00  0.00    -0.200 Zn 
HETATM    9  S   UNL     1      -8.498  15.545  69.117  1.00  0.00    -0.259 SA 
HETATM   10  S   UNL     1     -11.750  15.925  70.538  1.00  0.00    -0.349 SA 
HETATM   11  C   UNL     1      -8.622  17.134  68.212  1.00  0.00    -0.241 C  
HETATM   12  S   UNL     1     -10.057  17.460  67.442  1.00  0.00    -0.332 SA 
BRANCH  11  13
HETATM   13  N   UNL     1      -7.619  18.149  68.385  1.00  0.00    -0.274 NA 
BRANCH  13  14
HETATM   14  C   UNL     1      -7.996  19.558  68.457  1.00  0.00    -0.348 C  
HETATM   15  C   UNL     1      -7.556  20.285  67.186  1.00  0.00    -0.354 C  
ENDBRANCH  13  14
BRANCH  13  16
HETATM   16  C   UNL     1      -6.217  17.767  68.519  1.00  0.00    -0.184 C  
HETATM   17  C   UNL     1      -5.590  18.274  69.815  1.00  0.00    -0.225 C  
ENDBRANCH  13  16
ENDBRANCH  11  13
ENDBRANCH   3   6
ENDBRANCH   2   3
TORSDOF 6
ENDMDL
MODEL       20
REMARK 921   NORMALIZED FREE ENERGY PREDICTED BY IDOCK:   -4.42 KCAL/MOL
REMARK 922        TOTAL FREE ENERGY PREDICTED BY IDOCK:   -5.86 KCAL/MOL
REMARK 923 INTER-LIGAND FREE ENERGY PREDICTED BY IDOCK:   -5.56 KCAL/MOL
REMARK 924 INTRA-LIGAND FREE ENERGY PREDICTED BY IDOCK:   -0.31 KCAL/MOL
REMARK 927      BINDING AFFINITY PREDICTED BY RF-SCORE:    0.00 PKD
ROOT
HETATM    1  C   UNL     1      -9.462   9.918  69.883  1.00  0.00    -0.256 C  
HETATM    2  C   UNL     1     -10.736  10.125  69.054  1.00  0.00    -0.221 C  
ENDROOT
BRANCH   2   3
HETATM    3  N   UNL     1     -11.520  11.350  69.304  1.00  0.00    -0.273 NA 
BRANCH   3   4
HETATM    4  C   UNL     1     -12.216  11.580  70.587  1.00  0.00    -0.378 C  
HETATM    5  C   UNL     1     -12.850  10.313  71.176  1.00  0.00    -0.504 C  
ENDBRANCH   3   4
BRANCH   3   6
HETATM    6  C   UNL     1     -11.541  12.344  68.245  1.00  0.00    -0.333 C  
HETATM    7  S   UNL     1     -11.089  12.012  66.675  1.00  0.00    -0.325 SA 
HETATM    8 ZN   UNL     1     -10.682  14.137  66.885  1.00  0.00    -0.263 Zn 
HETATM    9  S   UNL     1      -8.680  14.683  67.260  1.00  0.00    -0.220 SA 
HETATM   10  S   UNL     1     -11.939  14.112  68.599  1.00  0.00    -0.303 SA 
HETATM   11  C   UNL     1      -9.292  15.967  66.106  1.00  0.00    -0.342 C  
HETATM   12  S   UNL     1     -10.705  15.648  65.293  1.00  0.00    -0.428 SA 
BRANCH  11  13
HETATM   13  N   UNL     1      -8.715  17.284  66.111  1.00  0.00    -0.481 NA 
BRANCH  13  14
HETATM   14  C   UNL     1      -7.265  17.456  66.098  1.00  0.00    -0.292 C  
HETATM   15  C   UNL     1      -6.913  18.932  65.908  1.00  0.00    -0.304 C  
ENDBRANCH  13  14
BRANCH  13  16
HETATM   16  C   UNL     1      -9.584  18.456  66.100  1.00  0.00    -0.187 C  
HETATM   17  C   UNL     1     -10.332  18.648  67.416  1.00  0.00    -0.447 C  
ENDBRANCH  13  16
ENDBRANCH  11  13
ENDBRANCH   3   6
ENDBRANCH   2   3
TORSDOF 6
ENDMDL
MODEL       21
REMARK 921   NORMALIZED FREE ENERGY PREDICTED BY IDOCK:   -4.40 KCAL/MOL
REMARK 922        TOTAL FREE ENERGY PREDICTED BY IDOCK:   -5.84 KCAL/MOL
REMARK 923 INTER-LIGAND FREE ENERGY PREDICTED BY IDOCK:   -5.46 KCAL/MOL
REMARK 924 INTRA-LIGAND FREE ENERGY PREDICTED BY IDOCK:   -0.39 KCAL/MOL
REMARK 927      BINDING AFFINITY PREDICTED BY RF-SCORE:    0.00 PKD
ROOT
HETATM    1  C   UNL     1      -9.495  10.823  62.715  1.00  0.00    -0.358 C  
HETATM    2  C   UNL     1     -10.423  11.254  63.857  1.00  0.00    -0.391 C  
ENDROOT
BRANCH   2   3
HETATM    3  N   UNL     1      -9.877  11.221  65.228  1.00  0.00    -0.235 NA 
BRANCH   3   4
HETATM    4  C   UNL     1      -8.840  10.247  65.629  1.00  0.00    -0.168 C  
HETATM    5  C   UNL     1      -9.412   8.948  66.213  1.00  0.00    -0.304 C  
ENDBRANCH   3   4
BRANCH   3   6
HETATM    6  C   UNL     1     -10.374  12.220  66.158  1.00  0.00    -0.242 C  
HETATM    7  S   UNL     1     -11.858  12.963  65.990  1.00  0.00    -0.445 SA 
HETATM    8 ZN   UNL     1     -10.672  14.431  67.070  1.00  0.00    -0.260 Zn 
HETATM    9  S   UNL     1      -9.849  16.002  65.929  1.00  0.00    -0.344 SA 
HETATM   10  S   UNL     1      -9.320  12.857  67.533  1.00  0.00    -0.198 SA 
HETATM   11  C   UNL     1     -10.372  16.801  67.493  1.00  0.00    -0.301 C  
HETATM   12  S   UNL     1     -11.411  15.949  68.471  1.00  0.00    -0.366 SA 
BRANCH  11  13
HETATM   13  N   UNL     1      -9.709  17.987  67.961  1.00  0.00    -0.296 NA 
BRANCH  13  14
HETATM   14  C   UNL     1     -10.365  19.288  67.869  1.00  0.00    -0.417 C  
HETATM   15  C   UNL     1     -10.650  19.630  66.407  1.00  0.00    -0.592 C  
ENDBRANCH  13  14
BRANCH  13  16
HETATM   16  C   UNL     1      -8.381  17.886  68.559  1.00  0.00    -0.300 C  
HETATM   17  C   UNL     1      -7.329  18.686  67.796  1.00  0.00    -0.242 C  
ENDBRANCH  13  16
ENDBRANCH  11  13
ENDBRANCH   3   6
ENDBRANCH   2   3
TORSDOF 6
ENDMDL
MODEL       22
REMARK 921   NORMALIZED FREE ENERGY PREDICTED BY IDOCK:   -4.38 KCAL/MOL
REMARK 922        TOTAL FREE ENERGY PREDICTED BY IDOCK:   -5.82 KCAL/MOL
REMARK 923 INTER-LIGAND FREE ENERGY PREDICTED BY IDOCK:   -5.42 KCAL/MOL
REMARK 924 INTRA-LIGAND FREE ENERGY PREDICTED BY IDOCK:   -0.39 KCAL/MOL
REMARK 927      BINDING AFFINITY PREDICTED BY RF-SCORE:    0.00 PKD
ROOT
HETATM    1  C   UNL     1     -12.578  12.640  64.471  1.00  0.00    -0.491 C  
HETATM    2  C   UNL     1     -11.505  11.980  65.345  1.00  0.00    -0.305 C  
ENDROOT
BRANCH   2   3
HETATM    3  N   UNL     1     -11.117  12.673  66.588  1.00  0.00    -0.263 NA 
BRANCH   3   4
HETATM    4  C   UNL     1     -11.804  12.412  67.871  1.00  0.00    -0.308 C  
HETATM    5  C   UNL     1     -12.016  13.673  68.720  1.00  0.00    -0.394 C  
ENDBRANCH   3   4
BRANCH   3   6
HETATM    6  C   UNL     1      -9.997  13.594  66.505  1.00  0.00    -0.288 C  
HETATM    7  S   UNL     1      -8.573  13.377  67.346  1.00  0.00    -0.213 SA 
HETATM    8 ZN   UNL     1      -8.687  15.532  67.084  1.00  0.00    -0.156 Zn 
HETATM    9  S   UNL     1      -9.392  16.647  68.730  1.00  0.00    -0.252 SA 
HETATM   10  S   UNL     1     -10.127  15.176  65.562  1.00  0.00    -0.369 SA 
HETATM   11  C   UNL     1      -8.044  17.672  68.031  1.00  0.00    -0.243 C  
HETATM   12  S   UNL     1      -7.005  16.936  66.964  1.00  0.00    -0.222 SA 
BRANCH  11  13
HETATM   13  N   UNL     1      -8.054  19.099  68.200  1.00  0.00    -0.304 NA 
BRANCH  13  14
HETATM   14  C   UNL     1      -6.801  19.845  68.277  1.00  0.00    -0.295 C  
HETATM   15  C   UNL     1      -6.332  19.934  69.729  1.00  0.00    -0.402 C  
ENDBRANCH  13  14
BRANCH  13  16
HETATM   16  C   UNL     1      -9.327  19.812  68.266  1.00  0.00    -0.329 C  
HETATM   17  C   UNL     1      -9.856  20.202  66.889  1.00  0.00    -0.593 C  
ENDBRANCH  13  16
ENDBRANCH  11  13
ENDBRANCH   3   6
ENDBRANCH   2   3
TORSDOF 6
ENDMDL
MODEL       23
REMARK 921   NORMALIZED FREE ENERGY PREDICTED BY IDOCK:   -4.37 KCAL/MOL
REMARK 922        TOTAL FREE ENERGY PREDICTED BY IDOCK:   -5.80 KCAL/MOL
REMARK 923 INTER-LIGAND FREE ENERGY PREDICTED BY IDOCK:   -5.38 KCAL/MOL
REMARK 924 INTRA-LIGAND FREE ENERGY PREDICTED BY IDOCK:   -0.41 KCAL/MOL
REMARK 927      BINDING AFFINITY PREDICTED BY RF-SCORE:    0.00 PKD
ROOT
HETATM    1  C   UNL     1     -11.193   7.748  72.707  1.00  0.00    -0.456 C  
HETATM    2  C   UNL     1     -11.771   8.127  71.339  1.00  0.00    -0.285 C  
ENDROOT
BRANCH   2   3
HETATM    3  N   UNL     1     -11.132   7.542  70.144  1.00  0.00    -0.255 NA 
BRANCH   3   4
HETATM    4  C   UNL     1     -11.269   6.109  69.812  1.00  0.00    -0.423 C  
HETATM    5  C   UNL     1     -10.003   5.290  70.095  1.00  0.00    -0.313 C  
ENDBRANCH   3   4
BRANCH   3   6
HETATM    6  C   UNL     1     -10.395   8.450  69.282  1.00  0.00    -0.214 C  
HETATM    7  S   UNL     1      -9.391   9.647  69.866  1.00  0.00    -0.237 SA 
HETATM    8 ZN   UNL     1     -10.043  10.420  67.941  1.00  0.00    -0.151 Zn 
HETATM    9  S   UNL     1     -11.609  11.832  67.972  1.00  0.00    -0.301 SA 
HETATM   10  S   UNL     1     -10.635   8.438  67.451  1.00  0.00    -0.173 SA 
HETATM   11  C   UNL     1     -10.474  12.441  66.669  1.00  0.00    -0.229 C  
HETATM   12  S   UNL     1      -8.943  11.797  66.632  1.00  0.00    -0.195 SA 
BRANCH  11  13
HETATM   13  N   UNL     1     -10.975  13.238  65.583  1.00  0.00    -0.276 NA 
BRANCH  13  14
HETATM   14  C   UNL     1     -12.183  12.839  64.867  1.00  0.00    -0.463 C  
HETATM   15  C   UNL     1     -11.815  12.011  63.636  1.00  0.00    -0.602 C  
ENDBRANCH  13  14
BRANCH  13  16
HETATM   16  C   UNL     1     -10.287  14.471  65.212  1.00  0.00    -0.410 C  
HETATM   17  C   UNL     1     -11.250  15.584  64.810  1.00  0.00    -0.399 C  
ENDBRANCH  13  16
ENDBRANCH  11  13
ENDBRANCH   3   6
ENDBRANCH   2   3
TORSDOF 6
ENDMDL
MODEL       24
REMARK 921   NORMALIZED FREE ENERGY PREDICTED BY IDOCK:   -4.36 KCAL/MOL
REMARK 922        TOTAL FREE ENERGY PREDICTED BY IDOCK:   -5.79 KCAL/MOL
REMARK 923 INTER-LIGAND FREE ENERGY PREDICTED BY IDOCK:   -5.36 KCAL/MOL
REMARK 924 INTRA-LIGAND FREE ENERGY PREDICTED BY IDOCK:   -0.43 KCAL/MOL
REMARK 927      BINDING AFFINITY PREDICTED BY RF-SCORE:    0.00 PKD
ROOT
HETATM    1  C   UNL     1     -10.095  20.061  66.216  1.00  0.00    -0.603 C  
HETATM    2  C   UNL     1     -10.437  19.342  67.526  1.00  0.00    -0.459 C  
ENDROOT
BRANCH   2   3
HETATM    3  N   UNL     1      -9.783  18.044  67.782  1.00  0.00    -0.283 NA 
BRANCH   3   4
HETATM    4  C   UNL     1      -8.474  17.953  68.462  1.00  0.00    -0.298 C  
HETATM    5  C   UNL     1      -7.458  17.072  67.722  1.00  0.00    -0.177 C  
ENDBRANCH   3   4
BRANCH   3   6
HETATM    6  C   UNL     1     -10.505  16.852  67.372  1.00  0.00    -0.310 C  
HETATM    7  S   UNL     1     -11.216  15.800  68.453  1.00  0.00    -0.370 SA 
HETATM    8 ZN   UNL     1     -10.771  14.543  66.736  1.00  0.00    -0.265 Zn 
HETATM    9  S   UNL     1      -9.029  13.361  66.857  1.00  0.00    -0.171 SA 
HETATM   10  S   UNL     1     -10.564  16.329  65.602  1.00  0.00    -0.296 SA 
HETATM   11  C   UNL     1     -10.254  12.281  66.026  1.00  0.00    -0.243 C  
HETATM   12  S   UNL     1     -11.849  12.737  66.109  1.00  0.00    -0.417 SA 
BRANCH  11  13
HETATM   13  N   UNL     1      -9.820  11.243  65.132  1.00  0.00    -0.240 NA 
BRANCH  13  14
HETATM   14  C   UNL     1     -10.429  11.098  63.813  1.00  0.00    -0.381 C  
HETATM   15  C   UNL     1      -9.351  11.134  62.730  1.00  0.00    -0.377 C  
ENDBRANCH  13  14
BRANCH  13  16
HETATM   16  C   UNL     1      -8.742  10.345  65.535  1.00  0.00    -0.177 C  
HETATM   17  C   UNL     1      -9.245   8.959  65.928  1.00  0.00    -0.290 C  
ENDBRANCH  13  16
ENDBRANCH  11  13
ENDBRANCH   3   6
ENDBRANCH   2   3
TORSDOF 6
ENDMDL
MODEL       25
REMARK 921   NORMALIZED FREE ENERGY PREDICTED BY IDOCK:   -4.36 KCAL/MOL
REMARK 922        TOTAL FREE ENERGY PREDICTED BY IDOCK:   -5.78 KCAL/MOL
REMARK 923 INTER-LIGAND FREE ENERGY PREDICTED BY IDOCK:   -5.40 KCAL/MOL
REMARK 924 INTRA-LIGAND FREE ENERGY PREDICTED BY IDOCK:   -0.38 KCAL/MOL
REMARK 927      BINDING AFFINITY PREDICTED BY RF-SCORE:    0.00 PKD
ROOT
HETATM    1  C   UNL     1     -12.413  10.398  71.201  1.00  0.00    -0.509 C  
HETATM    2  C   UNL     1     -12.089  11.545  70.237  1.00  0.00    -0.359 C  
ENDROOT
BRANCH   2   3
HETATM    3  N   UNL     1     -10.965  11.353  69.302  1.00  0.00    -0.238 NA 
BRANCH   3   4
HETATM    4  C   UNL     1     -10.171  10.107  69.285  1.00  0.00    -0.223 C  
HETATM    5  C   UNL     1     -10.594   9.125  68.184  1.00  0.00    -0.235 C  
ENDBRANCH   3   4
BRANCH   3   6
HETATM    6  C   UNL     1     -10.698  12.430  68.365  1.00  0.00    -0.235 C  
HETATM    7  S   UNL     1      -9.268  12.567  67.516  1.00  0.00    -0.197 SA 
HETATM    8 ZN   UNL     1      -9.970  14.620  67.669  1.00  0.00    -0.209 Zn 
HETATM    9  S   UNL     1      -9.094  15.807  69.176  1.00  0.00    -0.272 SA 
HETATM   10  S   UNL     1     -11.884  13.830  68.152  1.00  0.00    -0.366 SA 
HETATM   11  C   UNL     1      -9.274  16.943  67.750  1.00  0.00    -0.230 C  
HETATM   12  S   UNL     1      -9.569  16.258  66.266  1.00  0.00    -0.331 SA 
BRANCH  11  13
HETATM   13  N   UNL     1      -9.412  18.358  67.961  1.00  0.00    -0.281 NA 
BRANCH  13  14
HETATM   14  C   UNL     1      -8.386  19.102  68.687  1.00  0.00    -0.368 C  
HETATM   15  C   UNL     1      -7.048  19.001  67.955  1.00  0.00    -0.254 C  
ENDBRANCH  13  14
BRANCH  13  16
HETATM   16  C   UNL     1     -10.572  19.061  67.421  1.00  0.00    -0.474 C  
HETATM   17  C   UNL     1     -10.221  19.946  66.229  1.00  0.00    -0.614 C  
ENDBRANCH  13  16
ENDBRANCH  11  13
ENDBRANCH   3   6
ENDBRANCH   2   3
TORSDOF 6
ENDMDL
MODEL       26
REMARK 921   NORMALIZED FREE ENERGY PREDICTED BY IDOCK:   -4.35 KCAL/MOL
REMARK 922        TOTAL FREE ENERGY PREDICTED BY IDOCK:   -5.77 KCAL/MOL
REMARK 923 INTER-LIGAND FREE ENERGY PREDICTED BY IDOCK:   -5.45 KCAL/MOL
REMARK 924 INTRA-LIGAND FREE ENERGY PREDICTED BY IDOCK:   -0.32 KCAL/MOL
REMARK 927      BINDING AFFINITY PREDICTED BY RF-SCORE:    0.00 PKD
ROOT
HETATM    1  C   UNL     1     -13.069  10.806  71.745  1.00  0.00    -0.573 C  
HETATM    2  C   UNL     1     -12.341  11.637  70.682  1.00  0.00    -0.344 C  
ENDROOT
BRANCH   2   3
HETATM    3  N   UNL     1     -12.445  13.106  70.777  1.00  0.00    -0.339 NA 
BRANCH   3   4
HETATM    4  C   UNL     1     -12.889  13.776  72.017  1.00  0.00    -0.288 C  
HETATM    5  C   UNL     1     -14.375  14.159  72.009  1.00  0.00    -0.599 C  
ENDBRANCH   3   4
BRANCH   3   6
HETATM    6  C   UNL     1     -12.048  13.870  69.607  1.00  0.00    -0.349 C  
HETATM    7  S   UNL     1     -11.537  13.161  68.186  1.00  0.00    -0.361 SA 
HETATM    8 ZN   UNL     1     -10.544  15.096  68.179  1.00  0.00    -0.221 Zn 
HETATM    9  S   UNL     1      -8.527  15.123  68.794  1.00  0.00    -0.192 SA 
HETATM   10  S   UNL     1     -11.939  15.713  69.658  1.00  0.00    -0.298 SA 
HETATM   11  C   UNL     1      -8.592  16.309  67.399  1.00  0.00    -0.178 C  
HETATM   12  S   UNL     1      -9.933  16.257  66.420  1.00  0.00    -0.319 SA 
BRANCH  11  13
HETATM   13  N   UNL     1      -7.654  17.395  67.324  1.00  0.00    -0.187 NA 
BRANCH  13  14
HETATM   14  C   UNL     1      -7.248  18.109  68.532  1.00  0.00    -0.268 C  
HETATM   15  C   UNL     1      -8.223  19.251  68.819  1.00  0.00    -0.390 C  
ENDBRANCH  13  14
BRANCH  13  16
HETATM   16  C   UNL     1      -7.080  17.768  66.035  1.00  0.00    -0.300 C  
HETATM   17  C   UNL     1      -5.554  17.755  66.043  1.00  0.00    -0.241 C  
ENDBRANCH  13  16
ENDBRANCH  11  13
ENDBRANCH   3   6
ENDBRANCH   2   3
TORSDOF 6
ENDMDL
MODEL       27
REMARK 921   NORMALIZED FREE ENERGY PREDICTED BY IDOCK:   -4.33 KCAL/MOL
REMARK 922        TOTAL FREE ENERGY PREDICTED BY IDOCK:   -5.75 KCAL/MOL
REMARK 923 INTER-LIGAND FREE ENERGY PREDICTED BY IDOCK:   -5.45 KCAL/MOL
REMARK 924 INTRA-LIGAND FREE ENERGY PREDICTED BY IDOCK:   -0.30 KCAL/MOL
REMARK 927      BINDING AFFINITY PREDICTED BY RF-SCORE:    0.00 PKD
ROOT
HETATM    1  C   UNL     1      -5.584  17.619  66.172  1.00  0.00    -0.241 C  
HETATM    2  C   UNL     1      -6.105  17.318  67.582  1.00  0.00    -0.146 C  
ENDROOT
BRANCH   2   3
HETATM    3  N   UNL     1      -7.479  17.746  67.907  1.00  0.00    -0.206 NA 
BRANCH   3   4
HETATM    4  C   UNL     1      -7.789  19.138  68.295  1.00  0.00    -0.315 C  
HETATM    5  C   UNL     1      -6.880  19.681  69.406  1.00  0.00    -0.377 C  
ENDBRANCH   3   4
BRANCH   3   6
HETATM    6  C   UNL     1      -8.525  16.745  67.785  1.00  0.00    -0.193 C  
HETATM    7  S   UNL     1     -10.050  17.087  67.204  1.00  0.00    -0.299 SA 
HETATM    8 ZN   UNL     1     -10.375  15.387  68.520  1.00  0.00    -0.202 Zn 
HETATM    9  S   UNL     1     -11.105  15.815  70.451  1.00  0.00    -0.382 SA 
HETATM   10  S   UNL     1      -8.283  15.026  68.413  1.00  0.00    -0.159 SA 
HETATM   11  C   UNL     1     -11.987  14.286  69.960  1.00  0.00    -0.334 C  
HETATM   12  S   UNL     1     -11.954  13.873  68.352  1.00  0.00    -0.305 SA 
BRANCH  11  13
HETATM   13  N   UNL     1     -12.455  13.364  70.959  1.00  0.00    -0.371 NA 
BRANCH  13  14
HETATM   14  C   UNL     1     -13.096  13.853  72.176  1.00  0.00    -0.406 C  
HETATM   15  C   UNL     1     -14.293  14.735  71.821  1.00  0.00    -0.656 C  
ENDBRANCH  13  14
BRANCH  13  16
HETATM   16  C   UNL     1     -12.313  11.928  70.742  1.00  0.00    -0.320 C  
HETATM   17  C   UNL     1     -13.091  11.099  71.759  1.00  0.00    -0.536 C  
ENDBRANCH  13  16
ENDBRANCH  11  13
ENDBRANCH   3   6
ENDBRANCH   2   3
TORSDOF 6
ENDMDL
MODEL       28
REMARK 921   NORMALIZED FREE ENERGY PREDICTED BY IDOCK:   -4.33 KCAL/MOL
REMARK 922        TOTAL FREE ENERGY PREDICTED BY IDOCK:   -5.74 KCAL/MOL
REMARK 923 INTER-LIGAND FREE ENERGY PREDICTED BY IDOCK:   -5.35 KCAL/MOL
REMARK 924 INTRA-LIGAND FREE ENERGY PREDICTED BY IDOCK:   -0.40 KCAL/MOL
REMARK 927      BINDING AFFINITY PREDICTED BY RF-SCORE:    0.00 PKD
ROOT
HETATM    1  C   UNL     1      -9.787   5.308  69.755  1.00  0.00    -0.282 C  
HETATM    2  C   UNL     1     -11.103   6.093  69.702  1.00  0.00    -0.419 C  
ENDROOT
BRANCH   2   3
HETATM    3  N   UNL     1     -11.067   7.511  70.112  1.00  0.00    -0.255 NA 
BRANCH   3   4
HETATM    4  C   UNL     1     -11.728   7.979  71.348  1.00  0.00    -0.287 C  
HETATM    5  C   UNL     1     -10.966   7.610  72.629  1.00  0.00    -0.405 C  
ENDBRANCH   3   4
BRANCH   3   6
HETATM    6  C   UNL     1     -10.315   8.421  69.266  1.00  0.00    -0.214 C  
HETATM    7  S   UNL     1      -9.319   9.614  69.871  1.00  0.00    -0.237 SA 
HETATM    8 ZN   UNL     1      -9.938  10.396  67.939  1.00  0.00    -0.150 Zn 
HETATM    9  S   UNL     1     -11.503  11.810  67.950  1.00  0.00    -0.316 SA 
HETATM   10  S   UNL     1     -10.525   8.417  67.432  1.00  0.00    -0.253 SA 
HETATM   11  C   UNL     1     -10.346  12.422  66.668  1.00  0.00    -0.226 C  
HETATM   12  S   UNL     1      -8.816  11.776  66.654  1.00  0.00    -0.181 SA 
BRANCH  11  13
HETATM   13  N   UNL     1     -10.828  13.224  65.577  1.00  0.00    -0.281 NA 
BRANCH  13  14
HETATM   14  C   UNL     1     -11.465  14.514  65.831  1.00  0.00    -0.345 C  
HETATM   15  C   UNL     1     -10.882  15.579  64.901  1.00  0.00    -0.447 C  
ENDBRANCH  13  14
BRANCH  13  16
HETATM   16  C   UNL     1     -10.655  12.760  64.205  1.00  0.00    -0.415 C  
HETATM   17  C   UNL     1     -11.949  12.229  63.594  1.00  0.00    -0.633 C  
ENDBRANCH  13  16
ENDBRANCH  11  13
ENDBRANCH   3   6
ENDBRANCH   2   3
TORSDOF 6
ENDMDL
MODEL       29
REMARK 921   NORMALIZED FREE ENERGY PREDICTED BY IDOCK:   -4.29 KCAL/MOL
REMARK 922        TOTAL FREE ENERGY PREDICTED BY IDOCK:   -5.70 KCAL/MOL
REMARK 923 INTER-LIGAND FREE ENERGY PREDICTED BY IDOCK:   -5.35 KCAL/MOL
REMARK 924 INTRA-LIGAND FREE ENERGY PREDICTED BY IDOCK:   -0.35 KCAL/MOL
REMARK 927      BINDING AFFINITY PREDICTED BY RF-SCORE:    0.00 PKD
ROOT
HETATM    1  C   UNL     1     -11.909   8.236  72.376  1.00  0.00    -0.461 C  
HETATM    2  C   UNL     1     -10.578   8.102  71.627  1.00  0.00    -0.232 C  
ENDROOT
BRANCH   2   3
HETATM    3  N   UNL     1     -10.629   7.640  70.226  1.00  0.00    -0.225 NA 
BRANCH   3   4
HETATM    4  C   UNL     1     -11.302   6.381  69.846  1.00  0.00    -0.434 C  
HETATM    5  C   UNL     1     -10.410   5.141  69.990  1.00  0.00    -0.347 C  
ENDBRANCH   3   4
BRANCH   3   6
HETATM    6  C   UNL     1     -10.022   8.503  69.228  1.00  0.00    -0.195 C  
HETATM    7  S   UNL     1      -8.960   9.731  69.609  1.00  0.00    -0.226 SA 
HETATM    8 ZN   UNL     1      -9.870  10.401  67.751  1.00  0.00    -0.152 Zn 
HETATM    9  S   UNL     1     -11.430  11.810  67.919  1.00  0.00    -0.316 SA 
HETATM   10  S   UNL     1     -10.503   8.395  67.448  1.00  0.00    -0.253 SA 
HETATM   11  C   UNL     1     -10.485  12.352  66.446  1.00  0.00    -0.243 C  
HETATM   12  S   UNL     1      -8.967  11.710  66.238  1.00  0.00    -0.163 SA 
BRANCH  11  13
HETATM   13  N   UNL     1     -11.134  13.090  65.397  1.00  0.00    -0.273 NA 
BRANCH  13  14
HETATM   14  C   UNL     1     -11.692  14.414  65.658  1.00  0.00    -0.356 C  
HETATM   15  C   UNL     1     -10.931  15.471  64.858  1.00  0.00    -0.452 C  
ENDBRANCH  13  14
BRANCH  13  16
HETATM   16  C   UNL     1     -11.211  12.523  64.054  1.00  0.00    -0.403 C  
HETATM   17  C   UNL     1     -12.626  12.093  63.676  1.00  0.00    -0.616 C  
ENDBRANCH  13  16
ENDBRANCH  11  13
ENDBRANCH   3   6
ENDBRANCH   2   3
TORSDOF 6
ENDMDL
MODEL       30
REMARK 921   NORMALIZED FREE ENERGY PREDICTED BY IDOCK:   -4.29 KCAL/MOL
REMARK 922        TOTAL FREE ENERGY PREDICTED BY IDOCK:   -5.69 KCAL/MOL
REMARK 923 INTER-LIGAND FREE ENERGY PREDICTED BY IDOCK:   -5.30 KCAL/MOL
REMARK 924 INTRA-LIGAND FREE ENERGY PREDICTED BY IDOCK:   -0.39 KCAL/MOL
REMARK 927      BINDING AFFINITY PREDICTED BY RF-SCORE:    0.00 PKD
ROOT
HETATM    1  C   UNL     1      -6.253  18.691  65.354  1.00  0.00    -0.314 C  
HETATM    2  C   UNL     1      -7.281  17.728  65.958  1.00  0.00    -0.287 C  
ENDROOT
BRANCH   2   3
HETATM    3  N   UNL     1      -8.598  18.281  66.328  1.00  0.00    -0.447 NA 
BRANCH   3   4
HETATM    4  C   UNL     1      -8.937  19.702  66.102  1.00  0.00    -0.334 C  
HETATM    5  C   UNL     1     -10.414  19.933  65.757  1.00  0.00    -0.518 C  
ENDBRANCH   3   4
BRANCH   3   6
HETATM    6  C   UNL     1      -9.567  17.354  66.887  1.00  0.00    -0.277 C  
HETATM    7  S   UNL     1      -9.919  17.275  68.515  1.00  0.00    -0.339 SA 
HETATM    8 ZN   UNL     1     -10.350  15.267  67.802  1.00  0.00    -0.223 Zn 
HETATM    9  S   UNL     1      -8.864  13.808  68.137  1.00  0.00    -0.188 SA 
HETATM   10  S   UNL     1     -10.384  16.074  65.836  1.00  0.00    -0.384 SA 
HETATM   11  C   UNL     1     -10.442  12.926  68.434  1.00  0.00    -0.251 C  
HETATM   12  S   UNL     1     -11.804  13.854  68.641  1.00  0.00    -0.375 SA 
BRANCH  11  13
HETATM   13  N   UNL     1     -10.529  11.505  68.234  1.00  0.00    -0.190 NA 
BRANCH  13  14
HETATM   14  C   UNL     1     -10.151  10.583  69.301  1.00  0.00    -0.224 C  
HETATM   15  C   UNL     1     -11.391  10.150  70.085  1.00  0.00    -0.372 C  
ENDBRANCH  13  14
BRANCH  13  16
HETATM   16  C   UNL     1     -11.026  10.981  66.966  1.00  0.00    -0.272 C  
HETATM   17  C   UNL     1     -10.024  10.060  66.276  1.00  0.00    -0.310 C  
ENDBRANCH  13  16
ENDBRANCH  11  13
ENDBRANCH   3   6
ENDBRANCH   2   3
TORSDOF 6
ENDMDL
MODEL       31
REMARK 921   NORMALIZED FREE ENERGY PREDICTED BY IDOCK:   -4.26 KCAL/MOL
REMARK 922        TOTAL FREE ENERGY PREDICTED BY IDOCK:   -5.65 KCAL/MOL
REMARK 923 INTER-LIGAND FREE ENERGY PREDICTED BY IDOCK:   -5.30 KCAL/MOL
REMARK 924 INTRA-LIGAND FREE ENERGY PREDICTED BY IDOCK:   -0.35 KCAL/MOL
REMARK 927      BINDING AFFINITY PREDICTED BY RF-SCORE:    0.00 PKD
ROOT
HETATM    1  C   UNL     1     -10.337  15.207  66.034  1.00  0.00    -0.326 C  
HETATM    2  C   UNL     1     -10.415  14.349  64.766  1.00  0.00    -0.367 C  
ENDROOT
BRANCH   2   3
HETATM    3  N   UNL     1     -10.569  12.891  64.937  1.00  0.00    -0.309 NA 
BRANCH   3   4
HETATM    4  C   UNL     1     -11.015  12.021  63.830  1.00  0.00    -0.426 C  
HETATM    5  C   UNL     1     -12.520  12.114  63.544  1.00  0.00    -0.666 C  
ENDBRANCH   3   4
BRANCH   3   6
HETATM    6  C   UNL     1     -10.222  12.342  66.236  1.00  0.00    -0.238 C  
HETATM    7  S   UNL     1      -8.691  11.802  66.618  1.00  0.00    -0.167 SA 
HETATM    8 ZN   UNL     1      -9.983  10.631  67.916  1.00  0.00    -0.152 Zn 
HETATM    9  S   UNL     1     -10.428   8.669  67.283  1.00  0.00    -0.250 SA 
HETATM   10  S   UNL     1     -11.507  12.062  67.533  1.00  0.00    -0.327 SA 
HETATM   11  C   UNL     1     -10.207   8.523  69.096  1.00  0.00    -0.211 C  
HETATM   12  S   UNL     1      -9.469   9.790  69.877  1.00  0.00    -0.223 SA 
BRANCH  11  13
HETATM   13  N   UNL     1     -10.876   7.482  69.828  1.00  0.00    -0.245 NA 
BRANCH  13  14
HETATM   14  C   UNL     1     -11.307   7.704  71.205  1.00  0.00    -0.264 C  
HETATM   15  C   UNL     1     -12.695   7.102  71.425  1.00  0.00    -0.433 C  
ENDBRANCH  13  14
BRANCH  13  16
HETATM   16  C   UNL     1     -11.152   6.203  69.180  1.00  0.00    -0.378 C  
HETATM   17  C   UNL     1     -10.130   5.128  69.540  1.00  0.00    -0.316 C  
ENDBRANCH  13  16
ENDBRANCH  11  13
ENDBRANCH   3   6
ENDBRANCH   2   3
TORSDOF 6
ENDMDL
MODEL       32
REMARK 921   NORMALIZED FREE ENERGY PREDICTED BY IDOCK:   -4.25 KCAL/MOL
REMARK 922        TOTAL FREE ENERGY PREDICTED BY IDOCK:   -5.63 KCAL/MOL
REMARK 923 INTER-LIGAND FREE ENERGY PREDICTED BY IDOCK:   -5.27 KCAL/MOL
REMARK 924 INTRA-LIGAND FREE ENERGY PREDICTED BY IDOCK:   -0.36 KCAL/MOL
REMARK 927      BINDING AFFINITY PREDICTED BY RF-SCORE:    0.00 PKD
ROOT
HETATM    1  C   UNL     1     -12.110  12.104  63.348  1.00  0.00    -0.608 C  
HETATM    2  C   UNL     1     -10.735  12.235  64.013  1.00  0.00    -0.396 C  
ENDROOT
BRANCH   2   3
HETATM    3  N   UNL     1     -10.630  13.115  65.193  1.00  0.00    -0.307 NA 
BRANCH   3   4
HETATM    4  C   UNL     1     -10.948  14.556  65.119  1.00  0.00    -0.379 C  
HETATM    5  C   UNL     1      -9.811  15.460  65.616  1.00  0.00    -0.387 C  
ENDBRANCH   3   4
BRANCH   3   6
HETATM    6  C   UNL     1     -10.240  12.490  66.445  1.00  0.00    -0.244 C  
HETATM    7  S   UNL     1      -8.706  11.903  66.732  1.00  0.00    -0.180 SA 
HETATM    8 ZN   UNL     1      -9.967  10.687  68.020  1.00  0.00    -0.147 Zn 
HETATM    9  S   UNL     1     -10.478   8.771  67.304  1.00  0.00    -0.244 SA 
HETATM   10  S   UNL     1     -11.476  12.165  67.778  1.00  0.00    -0.343 SA 
HETATM   11  C   UNL     1     -10.185   8.523  69.096  1.00  0.00    -0.211 C  
HETATM   12  S   UNL     1      -9.389   9.733  69.910  1.00  0.00    -0.219 SA 
BRANCH  11  13
HETATM   13  N   UNL     1     -10.844   7.457  69.800  1.00  0.00    -0.247 NA 
BRANCH  13  14
HETATM   14  C   UNL     1     -11.276   7.639  71.182  1.00  0.00    -0.261 C  
HETATM   15  C   UNL     1     -12.759   7.292  71.318  1.00  0.00    -0.400 C  
ENDBRANCH  13  14
BRANCH  13  16
HETATM   16  C   UNL     1     -11.108   6.194  69.118  1.00  0.00    -0.378 C  
HETATM   17  C   UNL     1     -10.117   5.099  69.501  1.00  0.00    -0.316 C  
ENDBRANCH  13  16
ENDBRANCH  11  13
ENDBRANCH   3   6
ENDBRANCH   2   3
TORSDOF 6
ENDMDL
MODEL       33
REMARK 921   NORMALIZED FREE ENERGY PREDICTED BY IDOCK:   -4.24 KCAL/MOL
REMARK 922        TOTAL FREE ENERGY PREDICTED BY IDOCK:   -5.62 KCAL/MOL
REMARK 923 INTER-LIGAND FREE ENERGY PREDICTED BY IDOCK:   -5.26 KCAL/MOL
REMARK 924 INTRA-LIGAND FREE ENERGY PREDICTED BY IDOCK:   -0.36 KCAL/MOL
REMARK 927      BINDING AFFINITY PREDICTED BY RF-SCORE:    0.00 PKD
ROOT
HETATM    1  C   UNL     1     -12.564  13.378  65.382  1.00  0.00    -0.528 C  
HETATM    2  C   UNL     1     -11.739  12.154  65.798  1.00  0.00    -0.327 C  
ENDROOT
BRANCH   2   3
HETATM    3  N   UNL     1     -11.293  12.079  67.203  1.00  0.00    -0.315 NA 
BRANCH   3   4
HETATM    4  C   UNL     1     -11.531  10.878  68.031  1.00  0.00    -0.281 C  
HETATM    5  C   UNL     1     -10.373  10.550  68.983  1.00  0.00    -0.232 C  
ENDBRANCH   3   4
BRANCH   3   6
HETATM    6  C   UNL     1     -10.569  13.224  67.725  1.00  0.00    -0.241 C  
HETATM    7  S   UNL     1     -11.276  14.387  68.690  1.00  0.00    -0.274 SA 
HETATM    8 ZN   UNL     1      -9.660  15.456  67.704  1.00  0.00    -0.196 Zn 
HETATM    9  S   UNL     1     -10.188  16.636  66.038  1.00  0.00    -0.332 SA 
HETATM   10  S   UNL     1      -8.823  13.561  67.229  1.00  0.00    -0.231 SA 
HETATM   11  C   UNL     1      -8.923  17.629  66.916  1.00  0.00    -0.246 C  
HETATM   12  S   UNL     1      -8.562  17.192  68.478  1.00  0.00    -0.257 SA 
BRANCH  11  13
HETATM   13  N   UNL     1      -8.106  18.567  66.196  1.00  0.00    -0.451 NA 
BRANCH  13  14
HETATM   14  C   UNL     1      -6.811  18.161  65.657  1.00  0.00    -0.206 C  
HETATM   15  C   UNL     1      -6.156  19.333  64.926  1.00  0.00    -0.313 C  
ENDBRANCH  13  14
BRANCH  13  16
HETATM   16  C   UNL     1      -8.588  19.927  65.975  1.00  0.00    -0.251 C  
HETATM   17  C   UNL     1      -9.725  20.310  66.919  1.00  0.00    -0.584 C  
ENDBRANCH  13  16
ENDBRANCH  11  13
ENDBRANCH   3   6
ENDBRANCH   2   3
TORSDOF 6
ENDMDL
MODEL       34
REMARK 921   NORMALIZED FREE ENERGY PREDICTED BY IDOCK:   -4.22 KCAL/MOL
REMARK 922        TOTAL FREE ENERGY PREDICTED BY IDOCK:   -5.60 KCAL/MOL
REMARK 923 INTER-LIGAND FREE ENERGY PREDICTED BY IDOCK:   -5.22 KCAL/MOL
REMARK 924 INTRA-LIGAND FREE ENERGY PREDICTED BY IDOCK:   -0.38 KCAL/MOL
REMARK 927      BINDING AFFINITY PREDICTED BY RF-SCORE:    0.00 PKD
ROOT
HETATM    1  C   UNL     1     -12.153  11.281  70.012  1.00  0.00    -0.425 C  
HETATM    2  C   UNL     1     -11.804  12.685  69.503  1.00  0.00    -0.312 C  
ENDROOT
BRANCH   2   3
HETATM    3  N   UNL     1     -11.644  12.862  68.047  1.00  0.00    -0.320 NA 
BRANCH   3   4
HETATM    4  C   UNL     1     -11.574  11.708  67.127  1.00  0.00    -0.212 C  
HETATM    5  C   UNL     1     -10.147  11.192  66.899  1.00  0.00    -0.250 C  
ENDBRANCH   3   4
BRANCH   3   6
HETATM    6  C   UNL     1     -11.601  14.226  67.552  1.00  0.00    -0.363 C  
HETATM    7  S   UNL     1     -11.446  14.605  65.935  1.00  0.00    -0.313 SA 
HETATM    8 ZN   UNL     1     -10.578  16.322  66.946  1.00  0.00    -0.274 Zn 
HETATM    9  S   UNL     1      -8.474  16.377  67.075  1.00  0.00    -0.218 SA 
HETATM   10  S   UNL     1     -11.566  15.665  68.710  1.00  0.00    -0.378 SA 
HETATM   11  C   UNL     1      -8.954  18.115  66.750  1.00  0.00    -0.282 C  
HETATM   12  S   UNL     1     -10.500  18.387  66.207  1.00  0.00    -0.330 SA 
BRANCH  11  13
HETATM   13  N   UNL     1      -8.118  19.195  67.196  1.00  0.00    -0.258 NA 
BRANCH  13  14
HETATM   14  C   UNL     1      -7.991  19.496  68.619  1.00  0.00    -0.346 C  
HETATM   15  C   UNL     1      -6.522  19.713  68.982  1.00  0.00    -0.349 C  
ENDBRANCH  13  14
BRANCH  13  16
HETATM   16  C   UNL     1      -7.367  19.980  66.221  1.00  0.00    -0.289 C  
HETATM   17  C   UNL     1      -6.489  19.115  65.320  1.00  0.00    -0.305 C  
ENDBRANCH  13  16
ENDBRANCH  11  13
ENDBRANCH   3   6
ENDBRANCH   2   3
TORSDOF 6
ENDMDL
MODEL       35
REMARK 921   NORMALIZED FREE ENERGY PREDICTED BY IDOCK:   -4.22 KCAL/MOL
REMARK 922        TOTAL FREE ENERGY PREDICTED BY IDOCK:   -5.60 KCAL/MOL
REMARK 923 INTER-LIGAND FREE ENERGY PREDICTED BY IDOCK:   -5.27 KCAL/MOL
REMARK 924 INTRA-LIGAND FREE ENERGY PREDICTED BY IDOCK:   -0.33 KCAL/MOL
REMARK 927      BINDING AFFINITY PREDICTED BY RF-SCORE:    0.00 PKD
ROOT
HETATM    1  C   UNL     1     -10.508   7.713  66.871  1.00  0.00    -0.388 C  
HETATM    2  C   UNL     1     -10.160   9.160  66.502  1.00  0.00    -0.287 C  
ENDROOT
BRANCH   2   3
HETATM    3  N   UNL     1     -10.741  10.234  67.332  1.00  0.00    -0.275 NA 
BRANCH   3   4
HETATM    4  C   UNL     1     -11.080  10.020  68.754  1.00  0.00    -0.173 C  
HETATM    5  C   UNL     1      -9.852   9.867  69.661  1.00  0.00    -0.255 C  
ENDBRANCH   3   4
BRANCH   3   6
HETATM    6  C   UNL     1     -10.926  11.527  66.697  1.00  0.00    -0.296 C  
HETATM    7  S   UNL     1     -10.225  11.936  65.240  1.00  0.00    -0.280 SA 
HETATM    8 ZN   UNL     1     -10.466  13.849  66.246  1.00  0.00    -0.259 Zn 
HETATM    9  S   UNL     1      -8.756  14.637  67.196  1.00  0.00    -0.230 SA 
HETATM   10  S   UNL     1     -11.847  12.886  67.544  1.00  0.00    -0.310 SA 
HETATM   11  C   UNL     1      -9.575  16.097  66.451  1.00  0.00    -0.287 C  
HETATM   12  S   UNL     1     -10.739  15.810  65.300  1.00  0.00    -0.411 SA 
BRANCH  11  13
HETATM   13  N   UNL     1      -9.400  17.402  67.027  1.00  0.00    -0.253 NA 
BRANCH  13  14
HETATM   14  C   UNL     1     -10.558  18.226  67.361  1.00  0.00    -0.401 C  
HETATM   15  C   UNL     1     -10.425  19.605  66.713  1.00  0.00    -0.605 C  
ENDBRANCH  13  14
BRANCH  13  16
HETATM   16  C   UNL     1      -8.055  17.895  67.307  1.00  0.00    -0.212 C  
HETATM   17  C   UNL     1      -7.116  17.757  66.112  1.00  0.00    -0.347 C  
ENDBRANCH  13  16
ENDBRANCH  11  13
ENDBRANCH   3   6
ENDBRANCH   2   3
TORSDOF 6
ENDMDL
MODEL       36
REMARK 921   NORMALIZED FREE ENERGY PREDICTED BY IDOCK:   -4.22 KCAL/MOL
REMARK 922        TOTAL FREE ENERGY PREDICTED BY IDOCK:   -5.60 KCAL/MOL
REMARK 923 INTER-LIGAND FREE ENERGY PREDICTED BY IDOCK:   -5.24 KCAL/MOL
REMARK 924 INTRA-LIGAND FREE ENERGY PREDICTED BY IDOCK:   -0.36 KCAL/MOL
REMARK 927      BINDING AFFINITY PREDICTED BY RF-SCORE:    0.00 PKD
ROOT
HETATM    1  C   UNL     1     -12.336  12.081  63.476  1.00  0.00    -0.661 C  
HETATM    2  C   UNL     1     -10.896  12.301  63.953  1.00  0.00    -0.412 C  
ENDROOT
BRANCH   2   3
HETATM    3  N   UNL     1     -10.690  13.189  65.113  1.00  0.00    -0.304 NA 
BRANCH   3   4
HETATM    4  C   UNL     1     -10.941  14.643  65.034  1.00  0.00    -0.405 C  
HETATM    5  C   UNL     1      -9.852  15.490  65.705  1.00  0.00    -0.392 C  
ENDBRANCH   3   4
BRANCH   3   6
HETATM    6  C   UNL     1     -10.270  12.561  66.354  1.00  0.00    -0.244 C  
HETATM    7  S   UNL     1      -8.719  12.008  66.616  1.00  0.00    -0.132 SA 
HETATM    8 ZN   UNL     1      -9.934  10.750  67.907  1.00  0.00    -0.157 Zn 
HETATM    9  S   UNL     1     -10.409   8.829  67.178  1.00  0.00    -0.287 SA 
HETATM   10  S   UNL     1     -11.481  12.193  67.699  1.00  0.00    -0.337 SA 
HETATM   11  C   UNL     1     -10.087   8.571  68.963  1.00  0.00    -0.199 C  
HETATM   12  S   UNL     1      -9.310   9.791  69.780  1.00  0.00    -0.227 SA 
BRANCH  11  13
HETATM   13  N   UNL     1     -10.712   7.482  69.664  1.00  0.00    -0.240 NA 
BRANCH  13  14
HETATM   14  C   UNL     1     -11.008   6.230  68.974  1.00  0.00    -0.372 C  
HETATM   15  C   UNL     1     -10.353   5.059  69.708  1.00  0.00    -0.286 C  
ENDBRANCH  13  14
BRANCH  13  16
HETATM   16  C   UNL     1     -11.026   7.619  71.083  1.00  0.00    -0.246 C  
HETATM   17  C   UNL     1     -12.525   7.723  71.347  1.00  0.00    -0.342 C  
ENDBRANCH  13  16
ENDBRANCH  11  13
ENDBRANCH   3   6
ENDBRANCH   2   3
TORSDOF 6
ENDMDL
MODEL       37
REMARK 921   NORMALIZED FREE ENERGY PREDICTED BY IDOCK:   -4.22 KCAL/MOL
REMARK 922        TOTAL FREE ENERGY PREDICTED BY IDOCK:   -5.59 KCAL/MOL
REMARK 923 INTER-LIGAND FREE ENERGY PREDICTED BY IDOCK:   -5.32 KCAL/MOL
REMARK 924 INTRA-LIGAND FREE ENERGY PREDICTED BY IDOCK:   -0.27 KCAL/MOL
REMARK 927      BINDING AFFINITY PREDICTED BY RF-SCORE:    0.00 PKD
ROOT
HETATM    1  C   UNL     1     -11.126  15.710  70.230  1.00  0.00    -0.361 C  
HETATM    2  C   UNL     1     -11.784  15.752  68.846  1.00  0.00    -0.394 C  
ENDROOT
BRANCH   2   3
HETATM    3  N   UNL     1     -10.950  15.387  67.684  1.00  0.00    -0.309 NA 
BRANCH   3   4
HETATM    4  C   UNL     1     -10.325  16.411  66.823  1.00  0.00    -0.293 C  
HETATM    5  C   UNL     1     -10.510  17.844  67.340  1.00  0.00    -0.390 C  
ENDBRANCH   3   4
BRANCH   3   6
HETATM    6  C   UNL     1     -10.736  13.969  67.449  1.00  0.00    -0.283 C  
HETATM    7  S   UNL     1     -11.867  12.986  66.716  1.00  0.00    -0.370 SA 
HETATM    8 ZN   UNL     1     -10.744  11.619  67.980  1.00  0.00    -0.176 Zn 
HETATM    9  S   UNL     1     -11.620  11.109  69.830  1.00  0.00    -0.360 SA 
HETATM   10  S   UNL     1      -9.232  13.109  68.087  1.00  0.00    -0.205 SA 
HETATM   11  C   UNL     1     -10.861   9.549  69.240  1.00  0.00    -0.191 C  
HETATM   12  S   UNL     1     -10.419   9.476  67.641  1.00  0.00    -0.270 SA 
BRANCH  11  13
HETATM   13  N   UNL     1     -10.437   8.547  70.179  1.00  0.00    -0.215 NA 
BRANCH  13  14
HETATM   14  C   UNL     1     -10.047   7.217  69.719  1.00  0.00    -0.194 C  
HETATM   15  C   UNL     1     -11.285   6.336  69.552  1.00  0.00    -0.500 C  
ENDBRANCH  13  14
BRANCH  13  16
HETATM   16  C   UNL     1     -10.368   8.870  71.601  1.00  0.00    -0.345 C  
HETATM   17  C   UNL     1     -11.539   8.296  72.393  1.00  0.00    -0.464 C  
ENDBRANCH  13  16
ENDBRANCH  11  13
ENDBRANCH   3   6
ENDBRANCH   2   3
TORSDOF 6
ENDMDL
MODEL       38
REMARK 921   NORMALIZED FREE ENERGY PREDICTED BY IDOCK:   -4.22 KCAL/MOL
REMARK 922        TOTAL FREE ENERGY PREDICTED BY IDOCK:   -5.59 KCAL/MOL
REMARK 923 INTER-LIGAND FREE ENERGY PREDICTED BY IDOCK:   -5.29 KCAL/MOL
REMARK 924 INTRA-LIGAND FREE ENERGY PREDICTED BY IDOCK:   -0.31 KCAL/MOL
REMARK 927      BINDING AFFINITY PREDICTED BY RF-SCORE:    0.00 PKD
ROOT
HETATM    1  C   UNL     1     -13.369   9.012  71.482  1.00  0.00    -0.394 C  
HETATM    2  C   UNL     1     -12.331  10.118  71.702  1.00  0.00    -0.377 C  
ENDROOT
BRANCH   2   3
HETATM    3  N   UNL     1     -11.292  10.294  70.669  1.00  0.00    -0.333 NA 
BRANCH   3   4
HETATM    4  C   UNL     1     -10.032   9.523  70.694  1.00  0.00    -0.276 C  
HETATM    5  C   UNL     1      -9.808   8.757  72.005  1.00  0.00    -0.376 C  
ENDBRANCH   3   4
BRANCH   3   6
HETATM    6  C   UNL     1     -11.583  11.231  69.598  1.00  0.00    -0.330 C  
HETATM    7  S   UNL     1     -11.230  10.924  67.998  1.00  0.00    -0.317 SA 
HETATM    8 ZN   UNL     1     -11.174  13.094  68.125  1.00  0.00    -0.214 Zn 
HETATM    9  S   UNL     1      -9.267  13.981  68.290  1.00  0.00    -0.198 SA 
HETATM   10  S   UNL     1     -12.241  12.919  69.955  1.00  0.00    -0.159 SA 
HETATM   11  C   UNL     1     -10.196  15.102  67.178  1.00  0.00    -0.247 C  
HETATM   12  S   UNL     1     -11.603  14.521  66.514  1.00  0.00    -0.354 SA 
BRANCH  11  13
HETATM   13  N   UNL     1      -9.853  16.496  67.100  1.00  0.00    -0.249 NA 
BRANCH  13  14
HETATM   14  C   UNL     1      -8.874  16.965  66.123  1.00  0.00    -0.244 C  
HETATM   15  C   UNL     1      -7.464  16.864  66.704  1.00  0.00    -0.303 C  
ENDBRANCH  13  14
BRANCH  13  16
HETATM   16  C   UNL     1     -10.510  17.454  67.984  1.00  0.00    -0.383 C  
HETATM   17  C   UNL     1     -10.598  18.851  67.377  1.00  0.00    -0.534 C  
ENDBRANCH  13  16
ENDBRANCH  11  13
ENDBRANCH   3   6
ENDBRANCH   2   3
TORSDOF 6
ENDMDL
MODEL       39
REMARK 921   NORMALIZED FREE ENERGY PREDICTED BY IDOCK:   -4.21 KCAL/MOL
REMARK 922        TOTAL FREE ENERGY PREDICTED BY IDOCK:   -5.59 KCAL/MOL
REMARK 923 INTER-LIGAND FREE ENERGY PREDICTED BY IDOCK:   -5.20 KCAL/MOL
REMARK 924 INTRA-LIGAND FREE ENERGY PREDICTED BY IDOCK:   -0.38 KCAL/MOL
REMARK 927      BINDING AFFINITY PREDICTED BY RF-SCORE:    0.00 PKD
ROOT
HETATM    1  C   UNL     1     -11.477  15.019  65.343  1.00  0.00    -0.287 C  
HETATM    2  C   UNL     1     -10.371  14.097  64.819  1.00  0.00    -0.359 C  
ENDROOT
BRANCH   2   3
HETATM    3  N   UNL     1     -10.540  12.645  65.024  1.00  0.00    -0.294 NA 
BRANCH   3   4
HETATM    4  C   UNL     1     -10.969  11.749  63.930  1.00  0.00    -0.407 C  
HETATM    5  C   UNL     1     -12.409  12.000  63.461  1.00  0.00    -0.661 C  
ENDBRANCH   3   4
BRANCH   3   6
HETATM    6  C   UNL     1     -10.223  12.127  66.343  1.00  0.00    -0.220 C  
HETATM    7  S   UNL     1      -8.700  11.603  66.775  1.00  0.00    -0.191 SA 
HETATM    8 ZN   UNL     1     -10.020  10.455  68.066  1.00  0.00    -0.144 Zn 
HETATM    9  S   UNL     1     -10.440   8.477  67.467  1.00  0.00    -0.230 SA 
HETATM   10  S   UNL     1     -11.540  11.869  67.612  1.00  0.00    -0.284 SA 
HETATM   11  C   UNL     1     -10.264   8.372  69.288  1.00  0.00    -0.208 C  
HETATM   12  S   UNL     1      -9.552   9.660  70.058  1.00  0.00    -0.247 SA 
BRANCH  11  13
HETATM   13  N   UNL     1     -10.947   7.345  70.025  1.00  0.00    -0.259 NA 
BRANCH  13  14
HETATM   14  C   UNL     1     -11.125   6.014  69.451  1.00  0.00    -0.375 C  
HETATM   15  C   UNL     1     -10.127   5.036  70.073  1.00  0.00    -0.342 C  
ENDBRANCH  13  14
BRANCH  13  16
HETATM   16  C   UNL     1     -11.440   7.625  71.370  1.00  0.00    -0.264 C  
HETATM   17  C   UNL     1     -12.926   7.317  71.529  1.00  0.00    -0.434 C  
ENDBRANCH  13  16
ENDBRANCH  11  13
ENDBRANCH   3   6
ENDBRANCH   2   3
TORSDOF 6
ENDMDL
MODEL       40
REMARK 921   NORMALIZED FREE ENERGY PREDICTED BY IDOCK:   -4.16 KCAL/MOL
REMARK 922        TOTAL FREE ENERGY PREDICTED BY IDOCK:   -5.52 KCAL/MOL
REMARK 923 INTER-LIGAND FREE ENERGY PREDICTED BY IDOCK:   -5.29 KCAL/MOL
REMARK 924 INTRA-LIGAND FREE ENERGY PREDICTED BY IDOCK:   -0.23 KCAL/MOL
REMARK 927      BINDING AFFINITY PREDICTED BY RF-SCORE:    0.00 PKD
ROOT
HETATM    1  C   UNL     1      -9.298  10.211  69.555  1.00  0.00    -0.230 C  
HETATM    2  C   UNL     1     -10.755  10.333  69.096  1.00  0.00    -0.228 C  
ENDROOT
BRANCH   2   3
HETATM    3  N   UNL     1     -11.527  11.496  69.575  1.00  0.00    -0.290 NA 
BRANCH   3   4
HETATM    4  C   UNL     1     -12.309  11.448  70.828  1.00  0.00    -0.386 C  
HETATM    5  C   UNL     1     -12.473  10.031  71.394  1.00  0.00    -0.510 C  
ENDBRANCH   3   4
BRANCH   3   6
HETATM    6  C   UNL     1     -11.448  12.709  68.780  1.00  0.00    -0.306 C  
HETATM    7  S   UNL     1     -10.720  12.770  67.281  1.00  0.00    -0.240 SA 
HETATM    8 ZN   UNL     1     -10.513  14.800  68.033  1.00  0.00    -0.223 Zn 
HETATM    9  S   UNL     1      -8.646  15.311  68.869  1.00  0.00    -0.222 SA 
HETATM   10  S   UNL     1     -12.029  14.330  69.447  1.00  0.00    -0.333 SA 
HETATM   11  C   UNL     1      -9.155  16.809  67.945  1.00  0.00    -0.224 C  
HETATM   12  S   UNL     1     -10.387  16.640  66.843  1.00  0.00    -0.280 SA 
BRANCH  11  13
HETATM   13  N   UNL     1      -8.685  18.106  68.348  1.00  0.00    -0.287 NA 
BRANCH  13  14
HETATM   14  C   UNL     1      -9.606  19.079  68.930  1.00  0.00    -0.363 C  
HETATM   15  C   UNL     1     -10.031  20.097  67.872  1.00  0.00    -0.537 C  
ENDBRANCH  13  14
BRANCH  13  16
HETATM   16  C   UNL     1      -7.273  18.443  68.202  1.00  0.00    -0.261 C  
HETATM   17  C   UNL     1      -6.763  19.344  69.322  1.00  0.00    -0.370 C  
ENDBRANCH  13  16
ENDBRANCH  11  13
ENDBRANCH   3   6
ENDBRANCH   2   3
TORSDOF 6
ENDMDL
MODEL       41
REMARK 921   NORMALIZED FREE ENERGY PREDICTED BY IDOCK:   -4.14 KCAL/MOL
REMARK 922        TOTAL FREE ENERGY PREDICTED BY IDOCK:   -5.49 KCAL/MOL
REMARK 923 INTER-LIGAND FREE ENERGY PREDICTED BY IDOCK:   -5.14 KCAL/MOL
REMARK 924 INTRA-LIGAND FREE ENERGY PREDICTED BY IDOCK:   -0.35 KCAL/MOL
REMARK 927      BINDING AFFINITY PREDICTED BY RF-SCORE:    0.00 PKD
ROOT
HETATM    1  C   UNL     1     -11.320   6.244  69.717  1.00  0.00    -0.506 C  
HETATM    2  C   UNL     1     -10.065   7.123  69.766  1.00  0.00    -0.195 C  
ENDROOT
BRANCH   2   3
HETATM    3  N   UNL     1     -10.239   8.541  70.137  1.00  0.00    -0.191 NA 
BRANCH   3   4
HETATM    4  C   UNL     1      -9.811   9.059  71.453  1.00  0.00    -0.311 C  
HETATM    5  C   UNL     1     -10.317   8.222  72.636  1.00  0.00    -0.374 C  
ENDBRANCH   3   4
BRANCH   3   6
HETATM    6  C   UNL     1     -10.813   9.417  69.131  1.00  0.00    -0.155 C  
HETATM    7  S   UNL     1     -10.462   9.292  67.506  1.00  0.00    -0.260 SA 
HETATM    8 ZN   UNL     1     -10.975  11.390  67.758  1.00  0.00    -0.177 Zn 
HETATM    9  S   UNL     1      -9.365  12.743  67.917  1.00  0.00    -0.214 SA 
HETATM   10  S   UNL     1     -11.877  10.850  69.605  1.00  0.00    -0.359 SA 
HETATM   11  C   UNL     1     -10.604  13.629  66.900  1.00  0.00    -0.271 C  
HETATM   12  S   UNL     1     -11.836  12.727  66.245  1.00  0.00    -0.404 SA 
BRANCH  11  13
HETATM   13  N   UNL     1     -10.645  15.066  66.893  1.00  0.00    -0.291 NA 
BRANCH  13  14
HETATM   14  C   UNL     1     -10.097  15.818  65.767  1.00  0.00    -0.371 C  
HETATM   15  C   UNL     1     -11.180  16.049  64.713  1.00  0.00    -0.348 C  
ENDBRANCH  13  14
BRANCH  13  16
HETATM   16  C   UNL     1     -11.266  15.778  68.006  1.00  0.00    -0.338 C  
HETATM   17  C   UNL     1     -10.653  17.156  68.239  1.00  0.00    -0.375 C  
ENDBRANCH  13  16
ENDBRANCH  11  13
ENDBRANCH   3   6
ENDBRANCH   2   3
TORSDOF 6
ENDMDL
MODEL       42
REMARK 921   NORMALIZED FREE ENERGY PREDICTED BY IDOCK:   -4.13 KCAL/MOL
REMARK 922        TOTAL FREE ENERGY PREDICTED BY IDOCK:   -5.47 KCAL/MOL
REMARK 923 INTER-LIGAND FREE ENERGY PREDICTED BY IDOCK:   -5.10 KCAL/MOL
REMARK 924 INTRA-LIGAND FREE ENERGY PREDICTED BY IDOCK:   -0.38 KCAL/MOL
REMARK 927      BINDING AFFINITY PREDICTED BY RF-SCORE:    0.00 PKD
ROOT
HETATM    1  C   UNL     1      -9.886  20.583  67.366  1.00  0.00    -0.574 C  
HETATM    2  C   UNL     1      -9.296  19.558  68.342  1.00  0.00    -0.367 C  
ENDROOT
BRANCH   2   3
HETATM    3  N   UNL     1      -8.786  18.295  67.777  1.00  0.00    -0.253 NA 
BRANCH   3   4
HETATM    4  C   UNL     1      -7.354  18.106  67.461  1.00  0.00    -0.208 C  
HETATM    5  C   UNL     1      -6.934  18.735  66.126  1.00  0.00    -0.285 C  
ENDBRANCH   3   4
BRANCH   3   6
HETATM    6  C   UNL     1      -9.748  17.224  67.585  1.00  0.00    -0.272 C  
HETATM    7  S   UNL     1     -10.591  16.520  68.840  1.00  0.00    -0.348 SA 
HETATM    8 ZN   UNL     1     -10.496  14.946  67.343  1.00  0.00    -0.234 Zn 
HETATM    9  S   UNL     1      -9.015  13.470  67.619  1.00  0.00    -0.214 SA 
HETATM   10  S   UNL     1     -10.005  16.453  65.927  1.00  0.00    -0.311 SA 
HETATM   11  C   UNL     1     -10.471  12.544  67.004  1.00  0.00    -0.231 C  
HETATM   12  S   UNL     1     -11.939  13.320  67.046  1.00  0.00    -0.331 SA 
BRANCH  11  13
HETATM   13  N   UNL     1     -10.298  11.312  66.284  1.00  0.00    -0.239 NA 
BRANCH  13  14
HETATM   14  C   UNL     1      -9.757  11.316  64.928  1.00  0.00    -0.256 C  
HETATM   15  C   UNL     1     -10.893  11.425  63.910  1.00  0.00    -0.463 C  
ENDBRANCH  13  14
BRANCH  13  16
HETATM   16  C   UNL     1     -10.637  10.045  66.925  1.00  0.00    -0.192 C  
HETATM   17  C   UNL     1      -9.713   8.906  66.503  1.00  0.00    -0.322 C  
ENDBRANCH  13  16
ENDBRANCH  11  13
ENDBRANCH   3   6
ENDBRANCH   2   3
TORSDOF 6
ENDMDL
MODEL       43
REMARK 921   NORMALIZED FREE ENERGY PREDICTED BY IDOCK:   -4.11 KCAL/MOL
REMARK 922        TOTAL FREE ENERGY PREDICTED BY IDOCK:   -5.44 KCAL/MOL
REMARK 923 INTER-LIGAND FREE ENERGY PREDICTED BY IDOCK:   -5.10 KCAL/MOL
REMARK 924 INTRA-LIGAND FREE ENERGY PREDICTED BY IDOCK:   -0.34 KCAL/MOL
REMARK 927      BINDING AFFINITY PREDICTED BY RF-SCORE:    0.00 PKD
ROOT
HETATM    1  C   UNL     1     -11.355  15.852  64.481  1.00  0.00    -0.316 C  
HETATM    2  C   UNL     1     -10.320  15.757  65.608  1.00  0.00    -0.388 C  
ENDROOT
BRANCH   2   3
HETATM    3  N   UNL     1     -10.699  15.006  66.821  1.00  0.00    -0.303 NA 
BRANCH   3   4
HETATM    4  C   UNL     1     -11.268  15.680  68.007  1.00  0.00    -0.339 C  
HETATM    5  C   UNL     1     -10.769  17.120  68.192  1.00  0.00    -0.366 C  
ENDBRANCH   3   4
BRANCH   3   6
HETATM    6  C   UNL     1     -10.528  13.565  66.781  1.00  0.00    -0.273 C  
HETATM    7  S   UNL     1     -11.681  12.526  66.170  1.00  0.00    -0.397 SA 
HETATM    8 ZN   UNL     1     -10.616  11.309  67.623  1.00  0.00    -0.175 Zn 
HETATM    9  S   UNL     1     -11.528  11.079  69.511  1.00  0.00    -0.329 SA 
HETATM   10  S   UNL     1      -9.059  12.753  67.552  1.00  0.00    -0.204 SA 
HETATM   11  C   UNL     1     -10.813   9.431  69.148  1.00  0.00    -0.155 C  
HETATM   12  S   UNL     1     -10.356   9.130  67.580  1.00  0.00    -0.273 SA 
BRANCH  11  13
HETATM   13  N   UNL     1     -10.431   8.553  70.219  1.00  0.00    -0.215 NA 
BRANCH  13  14
HETATM   14  C   UNL     1      -9.948   7.204  69.935  1.00  0.00    -0.182 C  
HETATM   15  C   UNL     1     -11.122   6.227  69.879  1.00  0.00    -0.469 C  
ENDBRANCH  13  14
BRANCH  13  16
HETATM   16  C   UNL     1     -10.499   9.022  71.600  1.00  0.00    -0.355 C  
HETATM   17  C   UNL     1      -9.452   8.367  72.496  1.00  0.00    -0.360 C  
ENDBRANCH  13  16
ENDBRANCH  11  13
ENDBRANCH   3   6
ENDBRANCH   2   3
TORSDOF 6
ENDMDL
MODEL       44
REMARK 921   NORMALIZED FREE ENERGY PREDICTED BY IDOCK:   -4.10 KCAL/MOL
REMARK 922        TOTAL FREE ENERGY PREDICTED BY IDOCK:   -5.43 KCAL/MOL
REMARK 923 INTER-LIGAND FREE ENERGY PREDICTED BY IDOCK:   -5.15 KCAL/MOL
REMARK 924 INTRA-LIGAND FREE ENERGY PREDICTED BY IDOCK:   -0.28 KCAL/MOL
REMARK 927      BINDING AFFINITY PREDICTED BY RF-SCORE:    0.00 PKD
ROOT
HETATM    1  C   UNL     1     -10.754  16.040  69.776  1.00  0.00    -0.331 C  
HETATM    2  C   UNL     1     -11.589  15.762  68.520  1.00  0.00    -0.362 C  
ENDROOT
BRANCH   2   3
HETATM    3  N   UNL     1     -10.880  15.262  67.327  1.00  0.00    -0.313 NA 
BRANCH   3   4
HETATM    4  C   UNL     1     -10.357  16.179  66.292  1.00  0.00    -0.328 C  
HETATM    5  C   UNL     1     -10.927  15.914  64.893  1.00  0.00    -0.427 C  
ENDBRANCH   3   4
BRANCH   3   6
HETATM    6  C   UNL     1     -10.681  13.826  67.234  1.00  0.00    -0.283 C  
HETATM    7  S   UNL     1     -11.789  12.796  66.534  1.00  0.00    -0.368 SA 
HETATM    8 ZN   UNL     1     -10.760  11.536  67.976  1.00  0.00    -0.170 Zn 
HETATM    9  S   UNL     1     -11.742  11.210  69.814  1.00  0.00    -0.376 SA 
HETATM   10  S   UNL     1      -9.228  13.008  68.028  1.00  0.00    -0.215 SA 
HETATM   11  C   UNL     1     -10.983   9.592  69.412  1.00  0.00    -0.190 C  
HETATM   12  S   UNL     1     -10.458   9.365  67.852  1.00  0.00    -0.237 SA 
BRANCH  11  13
HETATM   13  N   UNL     1     -10.627   8.675  70.460  1.00  0.00    -0.210 NA 
BRANCH  13  14
HETATM   14  C   UNL     1      -9.372   8.834  71.189  1.00  0.00    -0.233 C  
HETATM   15  C   UNL     1      -9.516   8.283  72.608  1.00  0.00    -0.354 C  
ENDBRANCH  13  14
BRANCH  13  16
HETATM   16  C   UNL     1     -11.541   7.595  70.818  1.00  0.00    -0.265 C  
HETATM   17  C   UNL     1     -11.324   6.338  69.981  1.00  0.00    -0.486 C  
ENDBRANCH  13  16
ENDBRANCH  11  13
ENDBRANCH   3   6
ENDBRANCH   2   3
TORSDOF 6
ENDMDL
MODEL       45
REMARK 921   NORMALIZED FREE ENERGY PREDICTED BY IDOCK:   -4.08 KCAL/MOL
REMARK 922        TOTAL FREE ENERGY PREDICTED BY IDOCK:   -5.40 KCAL/MOL
REMARK 923 INTER-LIGAND FREE ENERGY PREDICTED BY IDOCK:   -4.98 KCAL/MOL
REMARK 924 INTRA-LIGAND FREE ENERGY PREDICTED BY IDOCK:   -0.42 KCAL/MOL
REMARK 927      BINDING AFFINITY PREDICTED BY RF-SCORE:    0.00 PKD
ROOT
HETATM    1  C   UNL     1     -13.084   8.180  71.753  1.00  0.00    -0.367 C  
HETATM    2  C   UNL     1     -12.242   7.016  71.217  1.00  0.00    -0.377 C  
ENDROOT
BRANCH   2   3
HETATM    3  N   UNL     1     -10.775   7.171  71.236  1.00  0.00    -0.226 NA 
BRANCH   3   4
HETATM    4  C   UNL     1      -9.938   6.525  72.269  1.00  0.00    -0.163 C  
HETATM    5  C   UNL     1     -10.112   7.134  73.667  1.00  0.00    -0.389 C  
ENDBRANCH   3   4
BRANCH   3   6
HETATM    6  C   UNL     1     -10.182   7.953  70.165  1.00  0.00    -0.202 C  
HETATM    7  S   UNL     1      -9.151   9.235  70.436  1.00  0.00    -0.261 SA 
HETATM    8 ZN   UNL     1     -10.066   9.712  68.523  1.00  0.00    -0.149 Zn 
HETATM    9  S   UNL     1     -11.659  11.094  68.557  1.00  0.00    -0.305 SA 
HETATM   10  S   UNL     1     -10.653   7.673  68.402  1.00  0.00    -0.065 SA 
HETATM   11  C   UNL     1     -10.719  11.522  67.044  1.00  0.00    -0.259 C  
HETATM   12  S   UNL     1      -9.186  10.899  66.900  1.00  0.00    -0.162 SA 
BRANCH  11  13
HETATM   13  N   UNL     1     -11.379  12.146  65.931  1.00  0.00    -0.344 NA 
BRANCH  13  14
HETATM   14  C   UNL     1     -11.142  11.675  64.569  1.00  0.00    -0.301 C  
HETATM   15  C   UNL     1     -12.251  12.171  63.641  1.00  0.00    -0.663 C  
ENDBRANCH  13  14
BRANCH  13  16
HETATM   16  C   UNL     1     -12.316  13.241  66.165  1.00  0.00    -0.358 C  
HETATM   17  C   UNL     1     -11.631  14.501  66.685  1.00  0.00    -0.385 C  
ENDBRANCH  13  16
ENDBRANCH  11  13
ENDBRANCH   3   6
ENDBRANCH   2   3
TORSDOF 6
ENDMDL
MODEL       46
REMARK 921   NORMALIZED FREE ENERGY PREDICTED BY IDOCK:   -4.07 KCAL/MOL
REMARK 922        TOTAL FREE ENERGY PREDICTED BY IDOCK:   -5.40 KCAL/MOL
REMARK 923 INTER-LIGAND FREE ENERGY PREDICTED BY IDOCK:   -5.03 KCAL/MOL
REMARK 924 INTRA-LIGAND FREE ENERGY PREDICTED BY IDOCK:   -0.37 KCAL/MOL
REMARK 927      BINDING AFFINITY PREDICTED BY RF-SCORE:    0.00 PKD
ROOT
HETATM    1  C   UNL     1     -10.671  15.577  67.937  1.00  0.00    -0.294 C  
HETATM    2  C   UNL     1      -9.680  14.989  66.925  1.00  0.00    -0.238 C  
ENDROOT
BRANCH   2   3
HETATM    3  N   UNL     1     -10.144  13.861  66.094  1.00  0.00    -0.300 NA 
BRANCH   3   4
HETATM    4  C   UNL     1     -10.680  14.067  64.732  1.00  0.00    -0.427 C  
HETATM    5  C   UNL     1     -12.172  14.423  64.707  1.00  0.00    -0.458 C  
ENDBRANCH   3   4
BRANCH   3   6
HETATM    6  C   UNL     1     -10.010  12.530  66.659  1.00  0.00    -0.236 C  
HETATM    7  S   UNL     1     -10.910  11.225  66.141  1.00  0.00    -0.175 SA 
HETATM    8 ZN   UNL     1     -10.448  10.737  68.209  1.00  0.00    -0.153 Zn 
HETATM    9  S   UNL     1     -11.961  11.113  69.629  1.00  0.00    -0.365 SA 
HETATM   10  S   UNL     1      -8.921  12.214  68.117  1.00  0.00    -0.191 SA 
HETATM   11  C   UNL     1     -11.212   9.532  70.171  1.00  0.00    -0.234 C  
HETATM   12  S   UNL     1     -10.250   8.732  69.078  1.00  0.00    -0.208 SA 
BRANCH  11  13
HETATM   13  N   UNL     1     -11.248   9.147  71.556  1.00  0.00    -0.335 NA 
BRANCH  13  14
HETATM   14  C   UNL     1     -12.495   9.219  72.312  1.00  0.00    -0.307 C  
HETATM   15  C   UNL     1     -13.584   8.409  71.608  1.00  0.00    -0.380 C  
ENDBRANCH  13  14
BRANCH  13  16
HETATM   16  C   UNL     1     -10.036   8.653  72.202  1.00  0.00    -0.318 C  
HETATM   17  C   UNL     1     -10.320   7.565  73.233  1.00  0.00    -0.412 C  
ENDBRANCH  13  16
ENDBRANCH  11  13
ENDBRANCH   3   6
ENDBRANCH   2   3
TORSDOF 6
ENDMDL
MODEL       47
REMARK 921   NORMALIZED FREE ENERGY PREDICTED BY IDOCK:   -4.07 KCAL/MOL
REMARK 922        TOTAL FREE ENERGY PREDICTED BY IDOCK:   -5.39 KCAL/MOL
REMARK 923 INTER-LIGAND FREE ENERGY PREDICTED BY IDOCK:   -4.99 KCAL/MOL
REMARK 924 INTRA-LIGAND FREE ENERGY PREDICTED BY IDOCK:   -0.40 KCAL/MOL
REMARK 927      BINDING AFFINITY PREDICTED BY RF-SCORE:    0.00 PKD
ROOT
HETATM    1  C   UNL     1     -13.761  13.228  72.258  1.00  0.00    -0.686 C  
HETATM    2  C   UNL     1     -12.446  13.425  71.496  1.00  0.00    -0.154 C  
ENDROOT
BRANCH   2   3
HETATM    3  N   UNL     1     -12.284  12.706  70.218  1.00  0.00    -0.313 NA 
BRANCH   3   4
HETATM    4  C   UNL     1     -12.470  11.243  70.120  1.00  0.00    -0.221 C  
HETATM    5  C   UNL     1     -11.272  10.437  70.640  1.00  0.00    -0.358 C  
ENDBRANCH   3   4
BRANCH   3   6
HETATM    6  C   UNL     1     -11.976  13.508  69.046  1.00  0.00    -0.335 C  
HETATM    7  S   UNL     1     -11.565  12.847  67.571  1.00  0.00    -0.369 SA 
HETATM    8 ZN   UNL     1     -10.583  14.786  67.553  1.00  0.00    -0.237 Zn 
HETATM    9  S   UNL     1      -8.527  14.808  68.023  1.00  0.00    -0.159 SA 
HETATM   10  S   UNL     1     -11.871  15.349  69.147  1.00  0.00    -0.311 SA 
HETATM   11  C   UNL     1      -8.698  16.035  66.674  1.00  0.00    -0.274 C  
HETATM   12  S   UNL     1     -10.105  16.005  65.791  1.00  0.00    -0.361 SA 
BRANCH  11  13
HETATM   13  N   UNL     1      -7.772  17.129  66.565  1.00  0.00    -0.257 NA 
BRANCH  13  14
HETATM   14  C   UNL     1      -6.336  16.878  66.476  1.00  0.00    -0.118 C  
HETATM   15  C   UNL     1      -5.652  18.006  65.703  1.00  0.00    -0.216 C  
ENDBRANCH  13  14
BRANCH  13  16
HETATM   16  C   UNL     1      -8.272  18.500  66.514  1.00  0.00    -0.281 C  
HETATM   17  C   UNL     1      -8.799  18.985  67.861  1.00  0.00    -0.335 C  
ENDBRANCH  13  16
ENDBRANCH  11  13
ENDBRANCH   3   6
ENDBRANCH   2   3
TORSDOF 6
ENDMDL
MODEL       48
REMARK 921   NORMALIZED FREE ENERGY PREDICTED BY IDOCK:   -4.06 KCAL/MOL
REMARK 922        TOTAL FREE ENERGY PREDICTED BY IDOCK:   -5.38 KCAL/MOL
REMARK 923 INTER-LIGAND FREE ENERGY PREDICTED BY IDOCK:   -4.96 KCAL/MOL
REMARK 924 INTRA-LIGAND FREE ENERGY PREDICTED BY IDOCK:   -0.42 KCAL/MOL
REMARK 927      BINDING AFFINITY PREDICTED BY RF-SCORE:    0.00 PKD
ROOT
HETATM    1  C   UNL     1     -11.950  14.078  68.624  1.00  0.00    -0.389 C  
HETATM    2  C   UNL     1     -11.689  12.730  67.943  1.00  0.00    -0.357 C  
ENDROOT
BRANCH   2   3
HETATM    3  N   UNL     1     -10.918  12.740  66.685  1.00  0.00    -0.264 NA 
BRANCH   3   4
HETATM    4  C   UNL     1     -11.323  11.929  65.518  1.00  0.00    -0.277 C  
HETATM    5  C   UNL     1     -12.401  12.595  64.652  1.00  0.00    -0.546 C  
ENDBRANCH   3   4
BRANCH   3   6
HETATM    6  C   UNL     1      -9.763  13.619  66.629  1.00  0.00    -0.284 C  
HETATM    7  S   UNL     1      -8.293  13.237  67.317  1.00  0.00    -0.149 SA 
HETATM    8 ZN   UNL     1      -8.318  15.411  67.342  1.00  0.00    -0.133 Zn 
HETATM    9  S   UNL     1      -8.841  16.328  69.167  1.00  0.00    -0.168 SA 
HETATM   10  S   UNL     1      -9.884  15.315  65.907  1.00  0.00    -0.370 SA 
HETATM   11  C   UNL     1      -7.500  17.381  68.497  1.00  0.00    -0.251 C  
HETATM   12  S   UNL     1      -6.582  16.751  67.265  1.00  0.00    -0.190 SA 
BRANCH  11  13
HETATM   13  N   UNL     1      -7.426  18.774  68.847  1.00  0.00    -0.310 NA 
BRANCH  13  14
HETATM   14  C   UNL     1      -6.152  19.374  69.231  1.00  0.00    -0.275 C  
HETATM   15  C   UNL     1      -6.063  20.804  68.697  1.00  0.00    -0.351 C  
ENDBRANCH  13  14
BRANCH  13  16
HETATM   16  C   UNL     1      -8.628  19.600  68.789  1.00  0.00    -0.236 C  
HETATM   17  C   UNL     1      -9.269  19.610  67.405  1.00  0.00    -0.412 C  
ENDBRANCH  13  16
ENDBRANCH  11  13
ENDBRANCH   3   6
ENDBRANCH   2   3
TORSDOF 6
ENDMDL
MODEL       49
REMARK 921   NORMALIZED FREE ENERGY PREDICTED BY IDOCK:   -4.06 KCAL/MOL
REMARK 922        TOTAL FREE ENERGY PREDICTED BY IDOCK:   -5.38 KCAL/MOL
REMARK 923 INTER-LIGAND FREE ENERGY PREDICTED BY IDOCK:   -4.91 KCAL/MOL
REMARK 924 INTRA-LIGAND FREE ENERGY PREDICTED BY IDOCK:   -0.46 KCAL/MOL
REMARK 927      BINDING AFFINITY PREDICTED BY RF-SCORE:    0.00 PKD
ROOT
HETATM    1  C   UNL     1     -12.187  14.316  70.615  1.00  0.00    -0.427 C  
HETATM    2  C   UNL     1     -12.243  15.634  69.835  1.00  0.00    -0.294 C  
ENDROOT
BRANCH   2   3
HETATM    3  N   UNL     1     -11.217  15.858  68.798  1.00  0.00    -0.337 NA 
BRANCH   3   4
HETATM    4  C   UNL     1     -10.484  17.137  68.692  1.00  0.00    -0.366 C  
HETATM    5  C   UNL     1     -10.476  17.723  67.273  1.00  0.00    -0.356 C  
ENDBRANCH   3   4
BRANCH   3   6
HETATM    6  C   UNL     1     -10.927  14.745  67.910  1.00  0.00    -0.278 C  
HETATM    7  S   UNL     1     -12.025  14.151  66.805  1.00  0.00    -0.441 SA 
HETATM    8 ZN   UNL     1     -10.768  12.434  67.250  1.00  0.00    -0.209 Zn 
HETATM    9  S   UNL     1     -11.532  11.039  68.634  1.00  0.00    -0.322 SA 
HETATM   10  S   UNL     1      -9.347  13.799  68.046  1.00  0.00    -0.204 SA 
HETATM   11  C   UNL     1     -10.705  10.011  67.363  1.00  0.00    -0.274 C  
HETATM   12  S   UNL     1     -10.327  10.744  65.921  1.00  0.00    -0.210 SA 
BRANCH  11  13
HETATM   13  N   UNL     1     -10.181   8.716  67.703  1.00  0.00    -0.223 NA 
BRANCH  13  14
HETATM   14  C   UNL     1     -10.644   7.522  67.003  1.00  0.00    -0.339 C  
HETATM   15  C   UNL     1     -10.880   6.387  68.000  1.00  0.00    -0.396 C  
ENDBRANCH  13  14
BRANCH  13  16
HETATM   16  C   UNL     1      -9.156   8.598  68.737  1.00  0.00    -0.142 C  
HETATM   17  C   UNL     1      -7.762   8.951  68.226  1.00  0.00    -0.096 C  
ENDBRANCH  13  16
ENDBRANCH  11  13
ENDBRANCH   3   6
ENDBRANCH   2   3
TORSDOF 6
ENDMDL
MODEL       50
REMARK 921   NORMALIZED FREE ENERGY PREDICTED BY IDOCK:   -4.04 KCAL/MOL
REMARK 922        TOTAL FREE ENERGY PREDICTED BY IDOCK:   -5.35 KCAL/MOL
REMARK 923 INTER-LIGAND FREE ENERGY PREDICTED BY IDOCK:   -5.04 KCAL/MOL
REMARK 924 INTRA-LIGAND FREE ENERGY PREDICTED BY IDOCK:   -0.31 KCAL/MOL
REMARK 927      BINDING AFFINITY PREDICTED BY RF-SCORE:    0.00 PKD
ROOT
HETATM    1  C   UNL     1     -11.047   6.623  69.039  1.00  0.00    -0.318 C  
HETATM    2  C   UNL     1     -10.046   7.783  69.000  1.00  0.00    -0.196 C  
ENDROOT
BRANCH   2   3
HETATM    3  N   UNL     1     -10.386   9.002  69.759  1.00  0.00    -0.204 NA 
BRANCH   3   4
HETATM    4  C   UNL     1     -10.094   9.127  71.202  1.00  0.00    -0.314 C  
HETATM    5  C   UNL     1     -11.199   8.560  72.103  1.00  0.00    -0.432 C  
ENDBRANCH   3   4
BRANCH   3   6
HETATM    6  C   UNL     1     -10.985  10.095  69.013  1.00  0.00    -0.226 C  
HETATM    7  S   UNL     1     -10.831  10.263  67.361  1.00  0.00    -0.244 SA 
HETATM    8 ZN   UNL     1     -11.114  12.303  68.056  1.00  0.00    -0.187 Zn 
HETATM    9  S   UNL     1      -9.377  13.482  68.255  1.00  0.00    -0.183 SA 
HETATM   10  S   UNL     1     -11.850  11.481  69.873  1.00  0.00    -0.361 SA 
HETATM   11  C   UNL     1     -10.634  14.634  67.584  1.00  0.00    -0.256 C  
HETATM   12  S   UNL     1     -12.010  13.965  66.938  1.00  0.00    -0.428 SA 
BRANCH  11  13
HETATM   13  N   UNL     1     -10.541  16.044  67.846  1.00  0.00    -0.292 NA 
BRANCH  13  14
HETATM   14  C   UNL     1     -10.554  16.545  69.218  1.00  0.00    -0.327 C  
HETATM   15  C   UNL     1     -11.668  15.865  70.014  1.00  0.00    -0.340 C  
ENDBRANCH  13  14
BRANCH  13  16
HETATM   16  C   UNL     1     -10.403  16.980  66.735  1.00  0.00    -0.302 C  
HETATM   17  C   UNL     1     -10.535  18.436  67.171  1.00  0.00    -0.434 C  
ENDBRANCH  13  16
ENDBRANCH  11  13
ENDBRANCH   3   6
ENDBRANCH   2   3
TORSDOF 6
ENDMDL
MODEL       51
REMARK 921   NORMALIZED FREE ENERGY PREDICTED BY IDOCK:   -4.02 KCAL/MOL
REMARK 922        TOTAL FREE ENERGY PREDICTED BY IDOCK:   -5.33 KCAL/MOL
REMARK 923 INTER-LIGAND FREE ENERGY PREDICTED BY IDOCK:   -5.02 KCAL/MOL
REMARK 924 INTRA-LIGAND FREE ENERGY PREDICTED BY IDOCK:   -0.32 KCAL/MOL
REMARK 927      BINDING AFFINITY PREDICTED BY RF-SCORE:    0.00 PKD
ROOT
HETATM    1  C   UNL     1      -8.910  11.025  62.363  1.00  0.00    -0.358 C  
HETATM    2  C   UNL     1      -9.851  10.717  63.533  1.00  0.00    -0.347 C  
ENDROOT
BRANCH   2   3
HETATM    3  N   UNL     1     -10.073  11.784  64.528  1.00  0.00    -0.265 NA 
BRANCH   3   4
HETATM    4  C   UNL     1     -10.679  13.080  64.157  1.00  0.00    -0.402 C  
HETATM    5  C   UNL     1     -12.024  12.942  63.431  1.00  0.00    -0.612 C  
ENDBRANCH   3   4
BRANCH   3   6
HETATM    6  C   UNL     1      -9.707  11.488  65.902  1.00  0.00    -0.232 C  
HETATM    7  S   UNL     1      -8.260  10.777  66.327  1.00  0.00    -0.164 SA 
HETATM    8 ZN   UNL     1      -9.608  10.184  67.927  1.00  0.00    -0.139 Zn 
HETATM    9  S   UNL     1     -10.429   8.246  67.800  1.00  0.00    -0.182 SA 
HETATM   10  S   UNL     1     -10.901  11.746  67.288  1.00  0.00    -0.268 SA 
HETATM   11  C   UNL     1     -10.075   8.474  69.583  1.00  0.00    -0.202 C  
HETATM   12  S   UNL     1      -9.069   9.727  70.004  1.00  0.00    -0.181 SA 
BRANCH  11  13
HETATM   13  N   UNL     1     -10.839   7.765  70.572  1.00  0.00    -0.238 NA 
BRANCH  13  14
HETATM   14  C   UNL     1     -11.433   6.467  70.260  1.00  0.00    -0.411 C  
HETATM   15  C   UNL     1     -10.334   5.432  70.020  1.00  0.00    -0.366 C  
ENDBRANCH  13  14
BRANCH  13  16
HETATM   16  C   UNL     1     -11.000   8.332  71.907  1.00  0.00    -0.287 C  
HETATM   17  C   UNL     1     -10.190   7.589  72.965  1.00  0.00    -0.360 C  
ENDBRANCH  13  16
ENDBRANCH  11  13
ENDBRANCH   3   6
ENDBRANCH   2   3
TORSDOF 6
ENDMDL
MODEL       52
REMARK 921   NORMALIZED FREE ENERGY PREDICTED BY IDOCK:   -4.01 KCAL/MOL
REMARK 922        TOTAL FREE ENERGY PREDICTED BY IDOCK:   -5.31 KCAL/MOL
REMARK 923 INTER-LIGAND FREE ENERGY PREDICTED BY IDOCK:   -4.89 KCAL/MOL
REMARK 924 INTRA-LIGAND FREE ENERGY PREDICTED BY IDOCK:   -0.42 KCAL/MOL
REMARK 927      BINDING AFFINITY PREDICTED BY RF-SCORE:    0.00 PKD
ROOT
HETATM    1  C   UNL     1     -10.331  19.867  66.456  1.00  0.00    -0.608 C  
HETATM    2  C   UNL     1     -10.708  18.739  67.425  1.00  0.00    -0.424 C  
ENDROOT
BRANCH   2   3
HETATM    3  N   UNL     1      -9.760  17.617  67.566  1.00  0.00    -0.274 NA 
BRANCH   3   4
HETATM    4  C   UNL     1      -8.298  17.826  67.542  1.00  0.00    -0.226 C  
HETATM    5  C   UNL     1      -7.613  17.228  66.306  1.00  0.00    -0.360 C  
ENDBRANCH   3   4
BRANCH   3   6
HETATM    6  C   UNL     1     -10.331  16.298  67.774  1.00  0.00    -0.287 C  
HETATM    7  S   UNL     1     -10.342  15.532  69.256  1.00  0.00    -0.270 SA 
HETATM    8 ZN   UNL     1     -10.355  13.889  67.833  1.00  0.00    -0.213 Zn 
HETATM    9  S   UNL     1      -8.504  12.952  67.455  1.00  0.00    -0.197 SA 
HETATM   10  S   UNL     1     -10.964  15.294  66.359  1.00  0.00    -0.261 SA 
HETATM   11  C   UNL     1      -9.712  11.575  67.483  1.00  0.00    -0.179 C  
HETATM   12  S   UNL     1     -11.207  11.889  68.136  1.00  0.00    -0.283 SA 
BRANCH  11  13
HETATM   13  N   UNL     1      -9.459  10.371  66.740  1.00  0.00    -0.163 NA 
BRANCH  13  14
HETATM   14  C   UNL     1      -9.346   9.087  67.426  1.00  0.00    -0.139 C  
HETATM   15  C   UNL     1     -10.351   8.092  66.847  1.00  0.00    -0.408 C  
ENDBRANCH  13  14
BRANCH  13  16
HETATM   16  C   UNL     1      -9.344  10.428  65.286  1.00  0.00    -0.214 C  
HETATM   17  C   UNL     1     -10.541  11.106  64.626  1.00  0.00    -0.386 C  
ENDBRANCH  13  16
ENDBRANCH  11  13
ENDBRANCH   3   6
ENDBRANCH   2   3
TORSDOF 6
ENDMDL
MODEL       53
REMARK 921   NORMALIZED FREE ENERGY PREDICTED BY IDOCK:   -4.00 KCAL/MOL
REMARK 922        TOTAL FREE ENERGY PREDICTED BY IDOCK:   -5.30 KCAL/MOL
REMARK 923 INTER-LIGAND FREE ENERGY PREDICTED BY IDOCK:   -4.90 KCAL/MOL
REMARK 924 INTRA-LIGAND FREE ENERGY PREDICTED BY IDOCK:   -0.40 KCAL/MOL
REMARK 927      BINDING AFFINITY PREDICTED BY RF-SCORE:    0.00 PKD
ROOT
HETATM    1  C   UNL     1     -10.538   8.020  67.285  1.00  0.00    -0.360 C  
HETATM    2  C   UNL     1     -10.196   9.413  66.746  1.00  0.00    -0.250 C  
ENDROOT
BRANCH   2   3
HETATM    3  N   UNL     1     -10.275  10.547  67.687  1.00  0.00    -0.188 NA 
BRANCH   3   4
HETATM    4  C   UNL     1     -10.992  10.441  68.974  1.00  0.00    -0.238 C  
HETATM    5  C   UNL     1     -12.025  11.554  69.195  1.00  0.00    -0.386 C  
ENDBRANCH   3   4
BRANCH   3   6
HETATM    6  C   UNL     1      -9.577  11.764  67.310  1.00  0.00    -0.176 C  
HETATM    7  S   UNL     1      -8.232  12.331  68.117  1.00  0.00    -0.173 SA 
HETATM    8 ZN   UNL     1      -9.125  14.131  67.286  1.00  0.00    -0.162 Zn 
HETATM    9  S   UNL     1     -10.300  15.293  68.596  1.00  0.00    -0.240 SA 
HETATM   10  S   UNL     1     -10.227  12.867  65.979  1.00  0.00    -0.287 SA 
HETATM   11  C   UNL     1      -9.390  16.524  67.589  1.00  0.00    -0.212 C  
HETATM   12  S   UNL     1      -8.085  15.978  66.719  1.00  0.00    -0.276 SA 
BRANCH  11  13
HETATM   13  N   UNL     1      -9.943  17.831  67.365  1.00  0.00    -0.311 NA 
BRANCH  13  14
HETATM   14  C   UNL     1      -9.948  18.827  68.434  1.00  0.00    -0.392 C  
HETATM   15  C   UNL     1      -8.515  19.229  68.783  1.00  0.00    -0.382 C  
ENDBRANCH  13  14
BRANCH  13  16
HETATM   16  C   UNL     1     -10.478  18.177  66.051  1.00  0.00    -0.335 C  
HETATM   17  C   UNL     1     -10.539  19.683  65.818  1.00  0.00    -0.537 C  
ENDBRANCH  13  16
ENDBRANCH  11  13
ENDBRANCH   3   6
ENDBRANCH   2   3
TORSDOF 6
ENDMDL
MODEL       54
REMARK 921   NORMALIZED FREE ENERGY PREDICTED BY IDOCK:   -4.00 KCAL/MOL
REMARK 922        TOTAL FREE ENERGY PREDICTED BY IDOCK:   -5.30 KCAL/MOL
REMARK 923 INTER-LIGAND FREE ENERGY PREDICTED BY IDOCK:   -4.85 KCAL/MOL
REMARK 924 INTRA-LIGAND FREE ENERGY PREDICTED BY IDOCK:   -0.45 KCAL/MOL
REMARK 927      BINDING AFFINITY PREDICTED BY RF-SCORE:    0.00 PKD
ROOT
HETATM    1  C   UNL     1      -9.611   5.372  69.015  1.00  0.00    -0.191 C  
HETATM    2  C   UNL     1     -10.996   6.030  69.028  1.00  0.00    -0.339 C  
ENDROOT
BRANCH   2   3
HETATM    3  N   UNL     1     -11.154   7.269  69.813  1.00  0.00    -0.221 NA 
BRANCH   3   4
HETATM    4  C   UNL     1     -12.029   7.330  71.003  1.00  0.00    -0.327 C  
HETATM    5  C   UNL     1     -11.752   6.220  72.026  1.00  0.00    -0.374 C  
ENDBRANCH   3   4
BRANCH   3   6
HETATM    6  C   UNL     1     -10.375   8.419  69.389  1.00  0.00    -0.215 C  
HETATM    7  S   UNL     1      -9.602   9.441  70.457  1.00  0.00    -0.262 SA 
HETATM    8 ZN   UNL     1      -9.996  10.707  68.734  1.00  0.00    -0.146 Zn 
HETATM    9  S   UNL     1     -11.674  11.978  68.862  1.00  0.00    -0.326 SA 
HETATM   10  S   UNL     1     -10.305   8.927  67.615  1.00  0.00    -0.252 SA 
HETATM   11  C   UNL     1     -10.403  12.988  68.013  1.00  0.00    -0.234 C  
HETATM   12  S   UNL     1      -8.832  12.451  68.086  1.00  0.00    -0.182 SA 
BRANCH  11  13
HETATM   13  N   UNL     1     -10.791  14.041  67.116  1.00  0.00    -0.283 NA 
BRANCH  13  14
HETATM   14  C   UNL     1     -10.683  15.439  67.523  1.00  0.00    -0.295 C  
HETATM   15  C   UNL     1     -11.615  15.715  68.703  1.00  0.00    -0.391 C  
ENDBRANCH  13  14
BRANCH  13  16
HETATM   16  C   UNL     1     -11.269  13.712  65.776  1.00  0.00    -0.295 C  
HETATM   17  C   UNL     1     -12.785  13.832  65.646  1.00  0.00    -0.523 C  
ENDBRANCH  13  16
ENDBRANCH  11  13
ENDBRANCH   3   6
ENDBRANCH   2   3
TORSDOF 6
ENDMDL
MODEL       55
REMARK 921   NORMALIZED FREE ENERGY PREDICTED BY IDOCK:   -3.99 KCAL/MOL
REMARK 922        TOTAL FREE ENERGY PREDICTED BY IDOCK:   -5.29 KCAL/MOL
REMARK 923 INTER-LIGAND FREE ENERGY PREDICTED BY IDOCK:   -4.95 KCAL/MOL
REMARK 924 INTRA-LIGAND FREE ENERGY PREDICTED BY IDOCK:   -0.35 KCAL/MOL
REMARK 927      BINDING AFFINITY PREDICTED BY RF-SCORE:    0.00 PKD
ROOT
HETATM    1  C   UNL     1      -7.404  18.530  66.016  1.00  0.00    -0.275 C  
HETATM    2  C   UNL     1      -8.193  17.269  66.392  1.00  0.00    -0.282 C  
ENDROOT
BRANCH   2   3
HETATM    3  N   UNL     1      -9.664  17.376  66.444  1.00  0.00    -0.290 NA 
BRANCH   3   4
HETATM    4  C   UNL     1     -10.366  18.627  66.091  1.00  0.00    -0.443 C  
HETATM    5  C   UNL     1     -10.715  19.498  67.306  1.00  0.00    -0.604 C  
ENDBRANCH   3   4
BRANCH   3   6
HETATM    6  C   UNL     1     -10.397  16.179  66.817  1.00  0.00    -0.291 C  
HETATM    7  S   UNL     1     -10.966  15.903  68.360  1.00  0.00    -0.347 SA 
HETATM    8 ZN   UNL     1     -10.673  13.903  67.558  1.00  0.00    -0.242 Zn 
HETATM    9  S   UNL     1      -8.900  12.910  68.124  1.00  0.00    -0.181 SA 
HETATM   10  S   UNL     1     -10.626  14.786  65.626  1.00  0.00    -0.367 SA 
HETATM   11  C   UNL     1     -10.179  11.598  68.135  1.00  0.00    -0.197 C  
HETATM   12  S   UNL     1     -11.768  12.085  68.118  1.00  0.00    -0.299 SA 
BRANCH  11  13
HETATM   13  N   UNL     1      -9.816  10.227  67.906  1.00  0.00    -0.155 NA 
BRANCH  13  14
HETATM   14  C   UNL     1     -10.407   9.479  66.800  1.00  0.00    -0.228 C  
HETATM   15  C   UNL     1      -9.338   9.149  65.758  1.00  0.00    -0.309 C  
ENDBRANCH  13  14
BRANCH  13  16
HETATM   16  C   UNL     1      -8.826   9.586  68.767  1.00  0.00    -0.132 C  
HETATM   17  C   UNL     1      -9.288   9.481  70.217  1.00  0.00    -0.305 C  
ENDBRANCH  13  16
ENDBRANCH  11  13
ENDBRANCH   3   6
ENDBRANCH   2   3
TORSDOF 6
ENDMDL
MODEL       56
REMARK 921   NORMALIZED FREE ENERGY PREDICTED BY IDOCK:   -3.99 KCAL/MOL
REMARK 922        TOTAL FREE ENERGY PREDICTED BY IDOCK:   -5.29 KCAL/MOL
REMARK 923 INTER-LIGAND FREE ENERGY PREDICTED BY IDOCK:   -4.85 KCAL/MOL
REMARK 924 INTRA-LIGAND FREE ENERGY PREDICTED BY IDOCK:   -0.44 KCAL/MOL
REMARK 927      BINDING AFFINITY PREDICTED BY RF-SCORE:    0.00 PKD
ROOT
HETATM    1  C   UNL     1     -10.627  17.771  67.830  1.00  0.00    -0.392 C  
HETATM    2  C   UNL     1     -10.440  16.757  68.965  1.00  0.00    -0.336 C  
ENDROOT
BRANCH   2   3
HETATM    3  N   UNL     1     -11.209  15.501  68.890  1.00  0.00    -0.283 NA 
BRANCH   3   4
HETATM    4  C   UNL     1     -12.278  15.185  69.860  1.00  0.00    -0.314 C  
HETATM    5  C   UNL     1     -12.167  13.775  70.457  1.00  0.00    -0.440 C  
ENDBRANCH   3   4
BRANCH   3   6
HETATM    6  C   UNL     1     -10.898  14.604  67.791  1.00  0.00    -0.267 C  
HETATM    7  S   UNL     1     -12.027  14.117  66.664  1.00  0.00    -0.443 SA 
HETATM    8 ZN   UNL     1     -10.598  12.479  66.695  1.00  0.00    -0.224 Zn 
HETATM    9  S   UNL     1     -11.127  10.786  67.835  1.00  0.00    -0.319 SA 
HETATM   10  S   UNL     1      -9.238  13.809  67.644  1.00  0.00    -0.219 SA 
HETATM   11  C   UNL     1     -10.320  10.095  66.342  1.00  0.00    -0.188 C  
HETATM   12  S   UNL     1     -10.123  11.113  65.044  1.00  0.00    -0.303 SA 
BRANCH  11  13
HETATM   13  N   UNL     1      -9.662   8.818  66.397  1.00  0.00    -0.247 NA 
BRANCH  13  14
HETATM   14  C   UNL     1      -8.658   8.458  65.399  1.00  0.00    -0.167 C  
HETATM   15  C   UNL     1      -7.484   7.745  66.070  1.00  0.00    -0.078 C  
ENDBRANCH  13  14
BRANCH  13  16
HETATM   16  C   UNL     1      -9.980   7.885  67.474  1.00  0.00    -0.192 C  
HETATM   17  C   UNL     1     -10.990   6.822  67.054  1.00  0.00    -0.439 C  
ENDBRANCH  13  16
ENDBRANCH  11  13
ENDBRANCH   3   6
ENDBRANCH   2   3
TORSDOF 6
ENDMDL
MODEL       57
REMARK 921   NORMALIZED FREE ENERGY PREDICTED BY IDOCK:   -3.99 KCAL/MOL
REMARK 922        TOTAL FREE ENERGY PREDICTED BY IDOCK:   -5.29 KCAL/MOL
REMARK 923 INTER-LIGAND FREE ENERGY PREDICTED BY IDOCK:   -4.96 KCAL/MOL
REMARK 924 INTRA-LIGAND FREE ENERGY PREDICTED BY IDOCK:   -0.33 KCAL/MOL
REMARK 927      BINDING AFFINITY PREDICTED BY RF-SCORE:    0.00 PKD
ROOT
HETATM    1  C   UNL     1      -7.602  19.854  65.856  1.00  0.00    -0.334 C  
HETATM    2  C   UNL     1      -7.844  19.842  67.369  1.00  0.00    -0.285 C  
ENDROOT
BRANCH   2   3
HETATM    3  N   UNL     1      -7.240  18.743  68.147  1.00  0.00    -0.246 NA 
BRANCH   3   4
HETATM    4  C   UNL     1      -5.827  18.779  68.577  1.00  0.00    -0.205 C  
HETATM    5  C   UNL     1      -5.618  19.446  69.943  1.00  0.00    -0.256 C  
ENDBRANCH   3   4
BRANCH   3   6
HETATM    6  C   UNL     1      -8.112  17.639  68.511  1.00  0.00    -0.283 C  
HETATM    7  S   UNL     1      -7.549  16.210  69.161  1.00  0.00    -0.219 SA 
HETATM    8 ZN   UNL     1      -9.387  15.626  68.156  1.00  0.00    -0.179 Zn 
HETATM    9  S   UNL     1      -9.181  14.745  66.251  1.00  0.00    -0.190 SA 
HETATM   10  S   UNL     1      -9.920  17.684  68.137  1.00  0.00    -0.351 SA 
HETATM   11  C   UNL     1     -10.534  13.799  67.045  1.00  0.00    -0.274 C  
HETATM   12  S   UNL     1     -10.709  13.957  68.690  1.00  0.00    -0.262 SA 
BRANCH  11  13
HETATM   13  N   UNL     1     -11.545  13.165  66.245  1.00  0.00    -0.339 NA 
BRANCH  13  14
HETATM   14  C   UNL     1     -12.649  13.944  65.692  1.00  0.00    -0.517 C  
HETATM   15  C   UNL     1     -12.277  14.472  64.306  1.00  0.00    -0.441 C  
ENDBRANCH  13  14
BRANCH  13  16
HETATM   16  C   UNL     1     -11.452  11.737  65.958  1.00  0.00    -0.215 C  
HETATM   17  C   UNL     1     -10.442  11.421  64.858  1.00  0.00    -0.363 C  
ENDBRANCH  13  16
ENDBRANCH  11  13
ENDBRANCH   3   6
ENDBRANCH   2   3
TORSDOF 6
ENDMDL
MODEL       58
REMARK 921   NORMALIZED FREE ENERGY PREDICTED BY IDOCK:   -3.97 KCAL/MOL
REMARK 922        TOTAL FREE ENERGY PREDICTED BY IDOCK:   -5.26 KCAL/MOL
REMARK 923 INTER-LIGAND FREE ENERGY PREDICTED BY IDOCK:   -4.77 KCAL/MOL
REMARK 924 INTRA-LIGAND FREE ENERGY PREDICTED BY IDOCK:   -0.48 KCAL/MOL
REMARK 927      BINDING AFFINITY PREDICTED BY RF-SCORE:    0.00 PKD
ROOT
HETATM    1  C   UNL     1      -7.085  20.851  67.020  1.00  0.00    -0.379 C  
HETATM    2  C   UNL     1      -7.121  19.837  68.170  1.00  0.00    -0.292 C  
ENDROOT
BRANCH   2   3
HETATM    3  N   UNL     1      -8.296  18.949  68.260  1.00  0.00    -0.318 NA 
BRANCH   3   4
HETATM    4  C   UNL     1      -9.658  19.480  68.476  1.00  0.00    -0.399 C  
HETATM    5  C   UNL     1     -10.592  19.279  67.276  1.00  0.00    -0.590 C  
ENDBRANCH   3   4
BRANCH   3   6
HETATM    6  C   UNL     1      -8.060  17.527  68.083  1.00  0.00    -0.249 C  
HETATM    7  S   UNL     1      -7.055  16.910  66.904  1.00  0.00    -0.240 SA 
HETATM    8 ZN   UNL     1      -8.484  15.308  67.246  1.00  0.00    -0.133 Zn 
HETATM    9  S   UNL     1     -10.069  15.146  65.863  1.00  0.00    -0.352 SA 
HETATM   10  S   UNL     1      -8.985  16.272  69.073  1.00  0.00    -0.231 SA 
HETATM   11  C   UNL     1      -9.604  13.411  66.227  1.00  0.00    -0.235 C  
HETATM   12  S   UNL     1      -8.143  13.157  66.976  1.00  0.00     0.066 SA 
BRANCH  11  13
HETATM   13  N   UNL     1     -10.575  12.358  66.106  1.00  0.00    -0.249 NA 
BRANCH  13  14
HETATM   14  C   UNL     1     -11.945  12.556  66.571  1.00  0.00    -0.296 C  
HETATM   15  C   UNL     1     -11.951  12.867  68.068  1.00  0.00    -0.323 C  
ENDBRANCH  13  14
BRANCH  13  16
HETATM   16  C   UNL     1     -10.196  11.092  65.486  1.00  0.00    -0.263 C  
HETATM   17  C   UNL     1     -10.225   9.924  66.468  1.00  0.00    -0.292 C  
ENDBRANCH  13  16
ENDBRANCH  11  13
ENDBRANCH   3   6
ENDBRANCH   2   3
TORSDOF 6
ENDMDL
MODEL       59
REMARK 921   NORMALIZED FREE ENERGY PREDICTED BY IDOCK:   -3.92 KCAL/MOL
REMARK 922        TOTAL FREE ENERGY PREDICTED BY IDOCK:   -5.20 KCAL/MOL
REMARK 923 INTER-LIGAND FREE ENERGY PREDICTED BY IDOCK:   -4.84 KCAL/MOL
REMARK 924 INTRA-LIGAND FREE ENERGY PREDICTED BY IDOCK:   -0.36 KCAL/MOL
REMARK 927      BINDING AFFINITY PREDICTED BY RF-SCORE:    0.00 PKD
ROOT
HETATM    1  C   UNL     1     -11.143   6.320  69.037  1.00  0.00    -0.446 C  
HETATM    2  C   UNL     1     -10.019   7.363  69.054  1.00  0.00    -0.176 C  
ENDROOT
BRANCH   2   3
HETATM    3  N   UNL     1     -10.282   8.637  69.750  1.00  0.00    -0.200 NA 
BRANCH   3   4
HETATM    4  C   UNL     1      -9.910   8.842  71.165  1.00  0.00    -0.275 C  
HETATM    5  C   UNL     1     -10.938   8.280  72.157  1.00  0.00    -0.396 C  
ENDBRANCH   3   4
BRANCH   3   6
HETATM    6  C   UNL     1     -10.886   9.701  68.966  1.00  0.00    -0.183 C  
HETATM    7  S   UNL     1     -10.599   9.908  67.337  1.00  0.00    -0.265 SA 
HETATM    8 ZN   UNL     1     -11.082  11.912  68.029  1.00  0.00    -0.181 Zn 
HETATM    9  S   UNL     1      -9.454  13.201  68.395  1.00  0.00    -0.116 SA 
HETATM   10  S   UNL     1     -11.917  11.009  69.763  1.00  0.00    -0.373 SA 
HETATM   11  C   UNL     1     -10.724  14.278  67.629  1.00  0.00    -0.258 C  
HETATM   12  S   UNL     1     -11.988  13.529  66.855  1.00  0.00    -0.383 SA 
BRANCH  11  13
HETATM   13  N   UNL     1     -10.751  15.686  67.915  1.00  0.00    -0.286 NA 
BRANCH  13  14
HETATM   14  C   UNL     1     -10.638  16.664  66.836  1.00  0.00    -0.229 C  
HETATM   15  C   UNL     1     -10.626  18.080  67.411  1.00  0.00    -0.378 C  
ENDBRANCH  13  14
BRANCH  13  16
HETATM   16  C   UNL     1     -10.922  16.142  69.291  1.00  0.00    -0.315 C  
HETATM   17  C   UNL     1     -12.031  15.395  70.026  1.00  0.00    -0.383 C  
ENDBRANCH  13  16
ENDBRANCH  11  13
ENDBRANCH   3   6
ENDBRANCH   2   3
TORSDOF 6
ENDMDL
MODEL       60
REMARK 921   NORMALIZED FREE ENERGY PREDICTED BY IDOCK:   -3.90 KCAL/MOL
REMARK 922        TOTAL FREE ENERGY PREDICTED BY IDOCK:   -5.17 KCAL/MOL
REMARK 923 INTER-LIGAND FREE ENERGY PREDICTED BY IDOCK:   -4.78 KCAL/MOL
REMARK 924 INTRA-LIGAND FREE ENERGY PREDICTED BY IDOCK:   -0.38 KCAL/MOL
REMARK 927      BINDING AFFINITY PREDICTED BY RF-SCORE:    0.00 PKD
ROOT
HETATM    1  C   UNL     1      -9.682  19.902  66.283  1.00  0.00    -0.551 C  
HETATM    2  C   UNL     1     -10.481  18.609  66.489  1.00  0.00    -0.420 C  
ENDROOT
BRANCH   2   3
HETATM    3  N   UNL     1      -9.723  17.346  66.570  1.00  0.00    -0.281 NA 
BRANCH   3   4
HETATM    4  C   UNL     1      -8.303  17.263  66.168  1.00  0.00    -0.203 C  
HETATM    5  C   UNL     1      -7.528  16.148  66.883  1.00  0.00    -0.266 C  
ENDBRANCH   3   4
BRANCH   3   6
HETATM    6  C   UNL     1     -10.424  16.192  67.106  1.00  0.00    -0.305 C  
HETATM    7  S   UNL     1     -10.705  15.971  68.735  1.00  0.00    -0.303 SA 
HETATM    8 ZN   UNL     1     -10.656  13.945  67.946  1.00  0.00    -0.221 Zn 
HETATM    9  S   UNL     1      -8.854  12.879  68.196  1.00  0.00    -0.181 SA 
HETATM   10  S   UNL     1     -10.935  14.791  66.016  1.00  0.00    -0.333 SA 
HETATM   11  C   UNL     1     -10.165  11.630  68.481  1.00  0.00    -0.210 C  
HETATM   12  S   UNL     1     -11.705  12.192  68.748  1.00  0.00    -0.317 SA 
BRANCH  11  13
HETATM   13  N   UNL     1      -9.912  10.239  68.224  1.00  0.00    -0.144 NA 
BRANCH  13  14
HETATM   14  C   UNL     1     -10.606   9.547  67.141  1.00  0.00    -0.225 C  
HETATM   15  C   UNL     1      -9.841   9.723  65.830  1.00  0.00    -0.360 C  
ENDBRANCH  13  14
BRANCH  13  16
HETATM   16  C   UNL     1      -8.932   9.520  69.032  1.00  0.00    -0.144 C  
HETATM   17  C   UNL     1      -9.318   9.454  70.506  1.00  0.00    -0.319 C  
ENDBRANCH  13  16
ENDBRANCH  11  13
ENDBRANCH   3   6
ENDBRANCH   2   3
TORSDOF 6
ENDMDL
MODEL       61
REMARK 921   NORMALIZED FREE ENERGY PREDICTED BY IDOCK:   -3.88 KCAL/MOL
REMARK 922        TOTAL FREE ENERGY PREDICTED BY IDOCK:   -5.14 KCAL/MOL
REMARK 923 INTER-LIGAND FREE ENERGY PREDICTED BY IDOCK:   -4.75 KCAL/MOL
REMARK 924 INTRA-LIGAND FREE ENERGY PREDICTED BY IDOCK:   -0.38 KCAL/MOL
REMARK 927      BINDING AFFINITY PREDICTED BY RF-SCORE:    0.00 PKD
ROOT
HETATM    1  C   UNL     1     -10.899  15.181  66.213  1.00  0.00    -0.333 C  
HETATM    2  C   UNL     1     -12.060  14.187  66.337  1.00  0.00    -0.451 C  
ENDROOT
BRANCH   2   3
HETATM    3  N   UNL     1     -11.789  12.777  65.998  1.00  0.00    -0.420 NA 
BRANCH   3   4
HETATM    4  C   UNL     1     -12.282  12.170  64.744  1.00  0.00    -0.264 C  
HETATM    5  C   UNL     1     -11.926  12.980  63.490  1.00  0.00    -0.615 C  
ENDBRANCH   3   4
BRANCH   3   6
HETATM    6  C   UNL     1     -10.977  12.020  66.934  1.00  0.00    -0.281 C  
HETATM    7  S   UNL     1      -9.363  11.687  66.679  1.00  0.00    -0.199 SA 
HETATM    8 ZN   UNL     1     -10.029  10.044  67.937  1.00  0.00    -0.139 Zn 
HETATM    9  S   UNL     1     -10.473   8.228  66.961  1.00  0.00    -0.262 SA 
HETATM   10  S   UNL     1     -11.722  11.233  68.429  1.00  0.00    -0.260 SA 
HETATM   11  C   UNL     1      -9.646   7.719  68.515  1.00  0.00    -0.149 C  
HETATM   12  S   UNL     1      -8.812   8.888  69.350  1.00  0.00    -0.146 SA 
BRANCH  11  13
HETATM   13  N   UNL     1      -9.929   6.439  69.104  1.00  0.00    -0.146 NA 
BRANCH  13  14
HETATM   14  C   UNL     1      -8.954   5.355  69.026  1.00  0.00    -0.107 C  
HETATM   15  C   UNL     1      -9.521   4.195  68.208  1.00  0.00    -0.213 C  
ENDBRANCH  13  14
BRANCH  13  16
HETATM   16  C   UNL     1     -11.190   6.230  69.809  1.00  0.00    -0.430 C  
HETATM   17  C   UNL     1     -10.995   5.983  71.302  1.00  0.00    -0.340 C  
ENDBRANCH  13  16
ENDBRANCH  11  13
ENDBRANCH   3   6
ENDBRANCH   2   3
TORSDOF 6
ENDMDL
MODEL       62
REMARK 921   NORMALIZED FREE ENERGY PREDICTED BY IDOCK:   -3.87 KCAL/MOL
REMARK 922        TOTAL FREE ENERGY PREDICTED BY IDOCK:   -5.13 KCAL/MOL
REMARK 923 INTER-LIGAND FREE ENERGY PREDICTED BY IDOCK:   -4.78 KCAL/MOL
REMARK 924 INTRA-LIGAND FREE ENERGY PREDICTED BY IDOCK:   -0.34 KCAL/MOL
REMARK 927      BINDING AFFINITY PREDICTED BY RF-SCORE:    0.00 PKD
ROOT
HETATM    1  C   UNL     1     -12.123  10.505  70.918  1.00  0.00    -0.487 C  
HETATM    2  C   UNL     1     -11.767   9.023  71.084  1.00  0.00    -0.302 C  
ENDROOT
BRANCH   2   3
HETATM    3  N   UNL     1     -10.338   8.655  71.035  1.00  0.00    -0.205 NA 
BRANCH   3   4
HETATM    4  C   UNL     1      -9.666   7.995  72.172  1.00  0.00    -0.221 C  
HETATM    5  C   UNL     1     -10.639   7.430  73.216  1.00  0.00    -0.442 C  
ENDBRANCH   3   4
BRANCH   3   6
HETATM    6  C   UNL     1      -9.630   8.934  69.797  1.00  0.00    -0.171 C  
HETATM    7  S   UNL     1      -8.348   9.995  69.701  1.00  0.00    -0.161 SA 
HETATM    8 ZN   UNL     1      -9.203  10.045  67.702  1.00  0.00    -0.129 Zn 
HETATM    9  S   UNL     1     -10.474  11.669  67.260  1.00  0.00    -0.225 SA 
HETATM   10  S   UNL     1     -10.203   8.233  68.188  1.00  0.00    -0.207 SA 
HETATM   11  C   UNL     1      -9.513  11.412  65.721  1.00  0.00    -0.233 C  
HETATM   12  S   UNL     1      -8.147  10.471  65.826  1.00  0.00    -0.154 SA 
BRANCH  11  13
HETATM   13  N   UNL     1     -10.064  11.789  64.449  1.00  0.00    -0.271 NA 
BRANCH  13  14
HETATM   14  C   UNL     1     -10.112  10.830  63.348  1.00  0.00    -0.284 C  
HETATM   15  C   UNL     1      -8.932  11.055  62.404  1.00  0.00    -0.345 C  
ENDBRANCH  13  14
BRANCH  13  16
HETATM   16  C   UNL     1     -10.605  13.132  64.263  1.00  0.00    -0.412 C  
HETATM   17  C   UNL     1     -12.095  13.126  63.933  1.00  0.00    -0.536 C  
ENDBRANCH  13  16
ENDBRANCH  11  13
ENDBRANCH   3   6
ENDBRANCH   2   3
TORSDOF 6
ENDMDL
MODEL       63
REMARK 921   NORMALIZED FREE ENERGY PREDICTED BY IDOCK:   -3.87 KCAL/MOL
REMARK 922        TOTAL FREE ENERGY PREDICTED BY IDOCK:   -5.13 KCAL/MOL
REMARK 923 INTER-LIGAND FREE ENERGY PREDICTED BY IDOCK:   -4.64 KCAL/MOL
REMARK 924 INTRA-LIGAND FREE ENERGY PREDICTED BY IDOCK:   -0.49 KCAL/MOL
REMARK 927      BINDING AFFINITY PREDICTED BY RF-SCORE:    0.00 PKD
ROOT
HETATM    1  C   UNL     1      -8.315  16.182  66.425  1.00  0.00    -0.357 C  
HETATM    2  C   UNL     1      -9.601  15.539  65.892  1.00  0.00    -0.348 C  
ENDROOT
BRANCH   2   3
HETATM    3  N   UNL     1     -10.394  14.721  66.829  1.00  0.00    -0.265 NA 
BRANCH   3   4
HETATM    4  C   UNL     1     -11.260  15.336  67.857  1.00  0.00    -0.331 C  
HETATM    5  C   UNL     1     -11.233  14.597  69.203  1.00  0.00    -0.291 C  
ENDBRANCH   3   4
BRANCH   3   6
HETATM    6  C   UNL     1     -10.319  13.280  66.669  1.00  0.00    -0.274 C  
HETATM    7  S   UNL     1     -11.571  12.365  66.054  1.00  0.00    -0.400 SA 
HETATM    8 ZN   UNL     1     -10.504  10.973  67.340  1.00  0.00    -0.173 Zn 
HETATM    9  S   UNL     1     -11.318  10.647  69.258  1.00  0.00    -0.293 SA 
HETATM   10  S   UNL     1      -8.863  12.322  67.281  1.00  0.00    -0.197 SA 
HETATM   11  C   UNL     1     -10.733   8.994  68.726  1.00  0.00    -0.108 C  
HETATM   12  S   UNL     1     -10.388   8.793  67.113  1.00  0.00    -0.287 SA 
BRANCH  11  13
HETATM   13  N   UNL     1     -10.347   8.011  69.700  1.00  0.00    -0.216 NA 
BRANCH  13  14
HETATM   14  C   UNL     1     -10.764   8.145  71.093  1.00  0.00    -0.221 C  
HETATM   15  C   UNL     1      -9.561   8.495  71.970  1.00  0.00    -0.371 C  
ENDBRANCH  13  14
BRANCH  13  16
HETATM   16  C   UNL     1      -9.557   6.854  69.289  1.00  0.00    -0.149 C  
HETATM   17  C   UNL     1     -10.305   5.537  69.469  1.00  0.00    -0.357 C  
ENDBRANCH  13  16
ENDBRANCH  11  13
ENDBRANCH   3   6
ENDBRANCH   2   3
TORSDOF 6
ENDMDL
MODEL       64
REMARK 921   NORMALIZED FREE ENERGY PREDICTED BY IDOCK:   -3.87 KCAL/MOL
REMARK 922        TOTAL FREE ENERGY PREDICTED BY IDOCK:   -5.12 KCAL/MOL
REMARK 923 INTER-LIGAND FREE ENERGY PREDICTED BY IDOCK:   -4.73 KCAL/MOL
REMARK 924 INTRA-LIGAND FREE ENERGY PREDICTED BY IDOCK:   -0.39 KCAL/MOL
REMARK 927      BINDING AFFINITY PREDICTED BY RF-SCORE:    0.00 PKD
ROOT
HETATM    1  C   UNL     1      -9.961   7.662  70.149  1.00  0.00    -0.186 C  
HETATM    2  C   UNL     1     -10.383   8.837  69.260  1.00  0.00    -0.214 C  
ENDROOT
BRANCH   2   3
HETATM    3  N   UNL     1     -11.134   9.938  69.895  1.00  0.00    -0.261 NA 
BRANCH   3   4
HETATM    4  C   UNL     1     -11.559   9.875  71.309  1.00  0.00    -0.379 C  
HETATM    5  C   UNL     1     -13.008   9.405  71.493  1.00  0.00    -0.449 C  
ENDBRANCH   3   4
BRANCH   3   6
HETATM    6  C   UNL     1     -11.400  11.109  69.078  1.00  0.00    -0.276 C  
HETATM    7  S   UNL     1     -11.050  11.182  67.449  1.00  0.00    -0.297 SA 
HETATM    8 ZN   UNL     1     -10.946  13.258  68.088  1.00  0.00    -0.214 Zn 
HETATM    9  S   UNL     1      -9.020  14.037  68.453  1.00  0.00    -0.167 SA 
HETATM   10  S   UNL     1     -12.021  12.678  69.827  1.00  0.00    -0.240 SA 
HETATM   11  C   UNL     1      -9.920  15.411  67.642  1.00  0.00    -0.225 C  
HETATM   12  S   UNL     1     -11.339  15.036  66.863  1.00  0.00    -0.255 SA 
BRANCH  11  13
HETATM   13  N   UNL     1      -9.546  16.776  67.896  1.00  0.00    -0.233 NA 
BRANCH  13  14
HETATM   14  C   UNL     1     -10.559  17.770  68.238  1.00  0.00    -0.319 C  
HETATM   15  C   UNL     1     -10.664  18.816  67.127  1.00  0.00    -0.469 C  
ENDBRANCH  13  14
BRANCH  13  16
HETATM   16  C   UNL     1      -8.140  17.163  67.841  1.00  0.00    -0.201 C  
HETATM   17  C   UNL     1      -7.548  17.036  66.440  1.00  0.00    -0.350 C  
ENDBRANCH  13  16
ENDBRANCH  11  13
ENDBRANCH   3   6
ENDBRANCH   2   3
TORSDOF 6
ENDMDL
MODEL       65
REMARK 921   NORMALIZED FREE ENERGY PREDICTED BY IDOCK:   -3.86 KCAL/MOL
REMARK 922        TOTAL FREE ENERGY PREDICTED BY IDOCK:   -5.11 KCAL/MOL
REMARK 923 INTER-LIGAND FREE ENERGY PREDICTED BY IDOCK:   -4.71 KCAL/MOL
REMARK 924 INTRA-LIGAND FREE ENERGY PREDICTED BY IDOCK:   -0.40 KCAL/MOL
REMARK 927      BINDING AFFINITY PREDICTED BY RF-SCORE:    0.00 PKD
ROOT
HETATM    1  C   UNL     1     -11.057   5.086  72.982  1.00  0.00    -0.378 C  
HETATM    2  C   UNL     1     -10.386   5.890  71.863  1.00  0.00    -0.210 C  
ENDROOT
BRANCH   2   3
HETATM    3  N   UNL     1     -11.171   6.970  71.235  1.00  0.00    -0.255 NA 
BRANCH   3   4
HETATM    4  C   UNL     1     -12.642   7.039  71.364  1.00  0.00    -0.386 C  
HETATM    5  C   UNL     1     -13.168   8.456  71.630  1.00  0.00    -0.360 C  
ENDBRANCH   3   4
BRANCH   3   6
HETATM    6  C   UNL     1     -10.428   7.991  70.517  1.00  0.00    -0.214 C  
HETATM    7  S   UNL     1      -9.519   9.162  71.281  1.00  0.00    -0.181 SA 
HETATM    8 ZN   UNL     1     -10.090  10.102  69.405  1.00  0.00    -0.159 Zn 
HETATM    9  S   UNL     1     -11.720  11.438  69.477  1.00  0.00    -0.379 SA 
HETATM   10  S   UNL     1     -10.557   8.158  68.683  1.00  0.00    -0.043 SA 
HETATM   11  C   UNL     1     -10.540  12.224  68.317  1.00  0.00    -0.227 C  
HETATM   12  S   UNL     1      -8.981  11.650  68.314  1.00  0.00    -0.183 SA 
BRANCH  11  13
HETATM   13  N   UNL     1     -11.012  13.107  67.286  1.00  0.00    -0.263 NA 
BRANCH  13  14
HETATM   14  C   UNL     1     -11.971  12.637  66.290  1.00  0.00    -0.374 C  
HETATM   15  C   UNL     1     -12.639  13.827  65.602  1.00  0.00    -0.551 C  
ENDBRANCH  13  14
BRANCH  13  16
HETATM   16  C   UNL     1     -10.552  14.492  67.252  1.00  0.00    -0.280 C  
HETATM   17  C   UNL     1     -11.006  15.293  68.469  1.00  0.00    -0.266 C  
ENDBRANCH  13  16
ENDBRANCH  11  13
ENDBRANCH   3   6
ENDBRANCH   2   3
TORSDOF 6
ENDMDL
MODEL       66
REMARK 921   NORMALIZED FREE ENERGY PREDICTED BY IDOCK:   -3.86 KCAL/MOL
REMARK 922        TOTAL FREE ENERGY PREDICTED BY IDOCK:   -5.10 KCAL/MOL
REMARK 923 INTER-LIGAND FREE ENERGY PREDICTED BY IDOCK:   -4.73 KCAL/MOL
REMARK 924 INTRA-LIGAND FREE ENERGY PREDICTED BY IDOCK:   -0.37 KCAL/MOL
REMARK 927      BINDING AFFINITY PREDICTED BY RF-SCORE:    0.00 PKD
ROOT
HETATM    1  C   UNL     1     -11.694  15.720  70.752  1.00  0.00    -0.430 C  
HETATM    2  C   UNL     1     -11.657  14.755  69.561  1.00  0.00    -0.304 C  
ENDROOT
BRANCH   2   3
HETATM    3  N   UNL     1     -11.197  15.289  68.265  1.00  0.00    -0.299 NA 
BRANCH   3   4
HETATM    4  C   UNL     1     -11.030  16.739  68.037  1.00  0.00    -0.296 C  
HETATM    5  C   UNL     1      -9.567  17.202  68.080  1.00  0.00    -0.267 C  
ENDBRANCH   3   4
BRANCH   3   6
HETATM    6  C   UNL     1     -10.872  14.320  67.233  1.00  0.00    -0.284 C  
HETATM    7  S   UNL     1     -12.005  13.699  66.177  1.00  0.00    -0.439 SA 
HETATM    8 ZN   UNL     1     -10.507  12.128  66.301  1.00  0.00    -0.219 Zn 
HETATM    9  S   UNL     1     -10.938  10.511  67.586  1.00  0.00    -0.305 SA 
HETATM   10  S   UNL     1      -9.184  13.583  67.108  1.00  0.00    -0.244 SA 
HETATM   11  C   UNL     1     -10.137   9.736  66.132  1.00  0.00    -0.245 C  
HETATM   12  S   UNL     1     -10.011  10.653  64.753  1.00  0.00    -0.345 SA 
BRANCH  11  13
HETATM   13  N   UNL     1      -9.425   8.495  66.271  1.00  0.00    -0.224 NA 
BRANCH  13  14
HETATM   14  C   UNL     1      -9.731   7.584  67.371  1.00  0.00    -0.159 C  
HETATM   15  C   UNL     1     -10.887   6.662  66.983  1.00  0.00    -0.467 C  
ENDBRANCH  13  14
BRANCH  13  16
HETATM   16  C   UNL     1      -8.409   8.129  65.289  1.00  0.00    -0.152 C  
HETATM   17  C   UNL     1      -7.004   8.089  65.883  1.00  0.00    -0.057 C  
ENDBRANCH  13  16
ENDBRANCH  11  13
ENDBRANCH   3   6
ENDBRANCH   2   3
TORSDOF 6
ENDMDL
MODEL       67
REMARK 921   NORMALIZED FREE ENERGY PREDICTED BY IDOCK:   -3.84 KCAL/MOL
REMARK 922        TOTAL FREE ENERGY PREDICTED BY IDOCK:   -5.08 KCAL/MOL
REMARK 923 INTER-LIGAND FREE ENERGY PREDICTED BY IDOCK:   -4.67 KCAL/MOL
REMARK 924 INTRA-LIGAND FREE ENERGY PREDICTED BY IDOCK:   -0.41 KCAL/MOL
REMARK 927      BINDING AFFINITY PREDICTED BY RF-SCORE:    0.00 PKD
ROOT
HETATM    1  C   UNL     1      -7.979   7.488  64.741  1.00  0.00    -0.132 C  
HETATM    2  C   UNL     1      -8.053   8.599  65.794  1.00  0.00    -0.114 C  
ENDROOT
BRANCH   2   3
HETATM    3  N   UNL     1      -9.308   8.730  66.560  1.00  0.00    -0.186 NA 
BRANCH   3   4
HETATM    4  C   UNL     1      -9.704   7.735  67.579  1.00  0.00    -0.158 C  
HETATM    5  C   UNL     1     -10.875   6.844  67.143  1.00  0.00    -0.447 C  
ENDBRANCH   3   4
BRANCH   3   6
HETATM    6  C   UNL     1     -10.118   9.906  66.299  1.00  0.00    -0.241 C  
HETATM    7  S   UNL     1     -10.090  10.728  64.848  1.00  0.00    -0.332 SA 
HETATM    8 ZN   UNL     1     -10.660  12.254  66.288  1.00  0.00    -0.229 Zn 
HETATM    9  S   UNL     1      -9.128  13.542  66.954  1.00  0.00    -0.214 SA 
HETATM   10  S   UNL     1     -11.146  10.676  67.626  1.00  0.00    -0.285 SA 
HETATM   11  C   UNL     1     -10.592  14.630  66.777  1.00  0.00    -0.288 C  
HETATM   12  S   UNL     1     -11.877  14.039  65.905  1.00  0.00    -0.401 SA 
BRANCH  11  13
HETATM   13  N   UNL     1     -10.714  15.819  67.575  1.00  0.00    -0.313 NA 
BRANCH  13  14
HETATM   14  C   UNL     1      -9.942  17.014  67.246  1.00  0.00    -0.275 C  
HETATM   15  C   UNL     1      -9.677  17.832  68.510  1.00  0.00    -0.343 C  
ENDBRANCH  13  14
BRANCH  13  16
HETATM   16  C   UNL     1     -11.639  15.842  68.704  1.00  0.00    -0.380 C  
HETATM   17  C   UNL     1     -11.500  14.618  69.604  1.00  0.00    -0.329 C  
ENDBRANCH  13  16
ENDBRANCH  11  13
ENDBRANCH   3   6
ENDBRANCH   2   3
TORSDOF 6
ENDMDL
MODEL       68
REMARK 921   NORMALIZED FREE ENERGY PREDICTED BY IDOCK:   -3.82 KCAL/MOL
REMARK 922        TOTAL FREE ENERGY PREDICTED BY IDOCK:   -5.06 KCAL/MOL
REMARK 923 INTER-LIGAND FREE ENERGY PREDICTED BY IDOCK:   -4.67 KCAL/MOL
REMARK 924 INTRA-LIGAND FREE ENERGY PREDICTED BY IDOCK:   -0.39 KCAL/MOL
REMARK 927      BINDING AFFINITY PREDICTED BY RF-SCORE:    0.00 PKD
ROOT
HETATM    1  C   UNL     1     -14.289   7.950  71.599  1.00  0.00    -0.595 C  
HETATM    2  C   UNL     1     -13.316   8.886  72.325  1.00  0.00    -0.449 C  
ENDROOT
BRANCH   2   3
HETATM    3  N   UNL     1     -11.872   8.626  72.164  1.00  0.00    -0.367 NA 
BRANCH   3   4
HETATM    4  C   UNL     1     -11.194   7.531  72.888  1.00  0.00    -0.346 C  
HETATM    5  C   UNL     1     -11.296   6.172  72.181  1.00  0.00    -0.347 C  
ENDBRANCH   3   4
BRANCH   3   6
HETATM    6  C   UNL     1     -11.153   9.469  71.225  1.00  0.00    -0.379 C  
HETATM    7  S   UNL     1     -11.886  10.675  70.336  1.00  0.00    -0.374 SA 
HETATM    8 ZN   UNL     1     -10.193  10.089  69.104  1.00  0.00    -0.159 Zn 
HETATM    9  S   UNL     1     -10.600   8.776  67.504  1.00  0.00    -0.161 SA 
HETATM   10  S   UNL     1      -9.374   9.166  70.834  1.00  0.00    -0.256 SA 
HETATM   11  C   UNL     1      -9.364   9.947  66.828  1.00  0.00    -0.151 C  
HETATM   12  S   UNL     1      -9.102  11.351  67.677  1.00  0.00    -0.158 SA 
BRANCH  11  13
HETATM   13  N   UNL     1      -8.487   9.544  65.763  1.00  0.00    -0.130 NA 
BRANCH  13  14
HETATM   14  C   UNL     1      -7.555   8.436  65.951  1.00  0.00    -0.082 C  
HETATM   15  C   UNL     1      -7.977   7.243  65.093  1.00  0.00    -0.128 C  
ENDBRANCH  13  14
BRANCH  13  16
HETATM   16  C   UNL     1      -8.550  10.228  64.475  1.00  0.00    -0.186 C  
HETATM   17  C   UNL     1      -9.975  10.594  64.071  1.00  0.00    -0.401 C  
ENDBRANCH  13  16
ENDBRANCH  11  13
ENDBRANCH   3   6
ENDBRANCH   2   3
TORSDOF 6
ENDMDL
MODEL       69
REMARK 921   NORMALIZED FREE ENERGY PREDICTED BY IDOCK:   -3.78 KCAL/MOL
REMARK 922        TOTAL FREE ENERGY PREDICTED BY IDOCK:   -5.01 KCAL/MOL
REMARK 923 INTER-LIGAND FREE ENERGY PREDICTED BY IDOCK:   -4.54 KCAL/MOL
REMARK 924 INTRA-LIGAND FREE ENERGY PREDICTED BY IDOCK:   -0.47 KCAL/MOL
REMARK 927      BINDING AFFINITY PREDICTED BY RF-SCORE:    0.00 PKD
ROOT
HETATM    1  C   UNL     1     -10.981   6.190  69.720  1.00  0.00    -0.459 C  
HETATM    2  C   UNL     1     -11.274   6.620  71.162  1.00  0.00    -0.292 C  
ENDROOT
BRANCH   2   3
HETATM    3  N   UNL     1     -10.405   7.653  71.756  1.00  0.00    -0.195 NA 
BRANCH   3   4
HETATM    4  C   UNL     1      -9.573   7.380  72.946  1.00  0.00    -0.176 C  
HETATM    5  C   UNL     1     -10.312   6.605  74.045  1.00  0.00    -0.377 C  
ENDBRANCH   3   4
BRANCH   3   6
HETATM    6  C   UNL     1     -10.369   8.944  71.090  1.00  0.00    -0.268 C  
HETATM    7  S   UNL     1     -11.717   9.907  70.896  1.00  0.00    -0.391 SA 
HETATM    8 ZN   UNL     1     -10.445  10.466  69.223  1.00  0.00    -0.164 Zn 
HETATM    9  S   UNL     1     -10.902   9.594  67.358  1.00  0.00    -0.066 SA 
HETATM   10  S   UNL     1      -8.833   9.554  70.266  1.00  0.00    -0.222 SA 
HETATM   11  C   UNL     1     -10.434  11.318  66.951  1.00  0.00    -0.245 C  
HETATM   12  S   UNL     1     -10.386  12.408  68.203  1.00  0.00    -0.231 SA 
BRANCH  11  13
HETATM   13  N   UNL     1      -9.885  11.637  65.661  1.00  0.00    -0.234 NA 
BRANCH  13  14
HETATM   14  C   UNL     1      -8.781  10.855  65.112  1.00  0.00    -0.122 C  
HETATM   15  C   UNL     1      -9.259  10.047  63.905  1.00  0.00    -0.317 C  
ENDBRANCH  13  14
BRANCH  13  16
HETATM   16  C   UNL     1     -10.455  12.732  64.883  1.00  0.00    -0.321 C  
HETATM   17  C   UNL     1     -11.966  12.607  64.709  1.00  0.00    -0.458 C  
ENDBRANCH  13  16
ENDBRANCH  11  13
ENDBRANCH   3   6
ENDBRANCH   2   3
TORSDOF 6
ENDMDL
MODEL       70
REMARK 921   NORMALIZED FREE ENERGY PREDICTED BY IDOCK:   -3.76 KCAL/MOL
REMARK 922        TOTAL FREE ENERGY PREDICTED BY IDOCK:   -4.98 KCAL/MOL
REMARK 923 INTER-LIGAND FREE ENERGY PREDICTED BY IDOCK:   -4.74 KCAL/MOL
REMARK 924 INTRA-LIGAND FREE ENERGY PREDICTED BY IDOCK:   -0.24 KCAL/MOL
REMARK 927      BINDING AFFINITY PREDICTED BY RF-SCORE:    0.00 PKD
ROOT
HETATM    1  C   UNL     1      -9.018   6.793  68.754  1.00  0.00    -0.130 C  
HETATM    2  C   UNL     1     -10.411   7.357  69.058  1.00  0.00    -0.210 C  
ENDROOT
BRANCH   2   3
HETATM    3  N   UNL     1     -10.558   8.200  70.260  1.00  0.00    -0.224 NA 
BRANCH   3   4
HETATM    4  C   UNL     1     -10.718   7.612  71.607  1.00  0.00    -0.211 C  
HETATM    5  C   UNL     1     -11.870   6.603  71.702  1.00  0.00    -0.383 C  
ENDBRANCH   3   4
BRANCH   3   6
HETATM    6  C   UNL     1     -10.494   9.638  70.066  1.00  0.00    -0.261 C  
HETATM    7  S   UNL     1     -11.791  10.652  70.334  1.00  0.00    -0.374 SA 
HETATM    8 ZN   UNL     1     -10.620  11.705  68.836  1.00  0.00    -0.172 Zn 
HETATM    9  S   UNL     1     -11.273  11.535  66.837  1.00  0.00    -0.252 SA 
HETATM   10  S   UNL     1      -8.992  10.443  69.356  1.00  0.00    -0.101 SA 
HETATM   11  C   UNL     1     -10.732  13.279  66.992  1.00  0.00    -0.260 C  
HETATM   12  S   UNL     1     -10.521  13.876  68.527  1.00  0.00    -0.251 SA 
BRANCH  11  13
HETATM   13  N   UNL     1     -10.266  14.000  65.839  1.00  0.00    -0.310 NA 
BRANCH  13  14
HETATM   14  C   UNL     1      -9.489  15.226  65.996  1.00  0.00    -0.337 C  
HETATM   15  C   UNL     1     -10.369  16.444  65.711  1.00  0.00    -0.388 C  
ENDBRANCH  13  14
BRANCH  13  16
HETATM   16  C   UNL     1     -10.545  13.486  64.501  1.00  0.00    -0.424 C  
HETATM   17  C   UNL     1     -11.967  13.792  64.039  1.00  0.00    -0.451 C  
ENDBRANCH  13  16
ENDBRANCH  11  13
ENDBRANCH   3   6
ENDBRANCH   2   3
TORSDOF 6
ENDMDL
MODEL       71
REMARK 921   NORMALIZED FREE ENERGY PREDICTED BY IDOCK:   -3.76 KCAL/MOL
REMARK 922        TOTAL FREE ENERGY PREDICTED BY IDOCK:   -4.98 KCAL/MOL
REMARK 923 INTER-LIGAND FREE ENERGY PREDICTED BY IDOCK:   -4.59 KCAL/MOL
REMARK 924 INTRA-LIGAND FREE ENERGY PREDICTED BY IDOCK:   -0.39 KCAL/MOL
REMARK 927      BINDING AFFINITY PREDICTED BY RF-SCORE:    0.00 PKD
ROOT
HETATM    1  C   UNL     1     -11.083   6.117  68.429  1.00  0.00    -0.343 C  
HETATM    2  C   UNL     1     -10.938   6.558  66.967  1.00  0.00    -0.396 C  
ENDROOT
BRANCH   2   3
HETATM    3  N   UNL     1      -9.602   6.993  66.516  1.00  0.00    -0.170 NA 
BRANCH   3   4
HETATM    4  C   UNL     1      -8.685   6.077  65.805  1.00  0.00    -0.151 C  
HETATM    5  C   UNL     1      -9.341   4.753  65.392  1.00  0.00    -0.161 C  
ENDBRANCH   3   4
BRANCH   3   6
HETATM    6  C   UNL     1      -9.243   8.378  66.763  1.00  0.00    -0.171 C  
HETATM    7  S   UNL     1      -8.347   8.866  68.083  1.00  0.00    -0.126 SA 
HETATM    8 ZN   UNL     1      -9.541  10.618  67.600  1.00  0.00    -0.148 Zn 
HETATM    9  S   UNL     1     -11.271  10.931  68.764  1.00  0.00    -0.295 SA 
HETATM   10  S   UNL     1      -9.889   9.740  65.696  1.00  0.00    -0.273 SA 
HETATM   11  C   UNL     1     -10.582  12.610  68.515  1.00  0.00    -0.243 C  
HETATM   12  S   UNL     1      -9.014  12.716  67.975  1.00  0.00    -0.203 SA 
BRANCH  11  13
HETATM   13  N   UNL     1     -11.443  13.761  68.536  1.00  0.00    -0.284 NA 
BRANCH  13  14
HETATM   14  C   UNL     1     -11.579  14.607  67.354  1.00  0.00    -0.389 C  
HETATM   15  C   UNL     1     -12.281  13.837  66.235  1.00  0.00    -0.489 C  
ENDBRANCH  13  14
BRANCH  13  16
HETATM   16  C   UNL     1     -12.210  14.068  69.739  1.00  0.00    -0.341 C  
HETATM   17  C   UNL     1     -12.071  15.526  70.170  1.00  0.00    -0.404 C  
ENDBRANCH  13  16
ENDBRANCH  11  13
ENDBRANCH   3   6
ENDBRANCH   2   3
TORSDOF 6
ENDMDL
MODEL       72
REMARK 921   NORMALIZED FREE ENERGY PREDICTED BY IDOCK:   -3.72 KCAL/MOL
REMARK 922        TOTAL FREE ENERGY PREDICTED BY IDOCK:   -4.92 KCAL/MOL
REMARK 923 INTER-LIGAND FREE ENERGY PREDICTED BY IDOCK:   -4.72 KCAL/MOL
REMARK 924 INTRA-LIGAND FREE ENERGY PREDICTED BY IDOCK:   -0.20 KCAL/MOL
REMARK 927      BINDING AFFINITY PREDICTED BY RF-SCORE:    0.00 PKD
ROOT
HETATM    1  C   UNL     1     -11.875  15.441  69.381  1.00  0.00    -0.372 C  
HETATM    2  C   UNL     1     -11.202  15.499  68.005  1.00  0.00    -0.332 C  
ENDROOT
BRANCH   2   3
HETATM    3  N   UNL     1     -11.035  14.229  67.273  1.00  0.00    -0.291 NA 
BRANCH   3   4
HETATM    4  C   UNL     1     -11.212  14.146  65.809  1.00  0.00    -0.312 C  
HETATM    5  C   UNL     1     -12.657  13.858  65.380  1.00  0.00    -0.538 C  
ENDBRANCH   3   4
BRANCH   3   6
HETATM    6  C   UNL     1     -10.646  13.067  68.054  1.00  0.00    -0.235 C  
HETATM    7  S   UNL     1      -9.074  12.518  68.149  1.00  0.00    -0.192 SA 
HETATM    8 ZN   UNL     1     -10.261  10.728  68.486  1.00  0.00    -0.147 Zn 
HETATM    9  S   UNL     1     -10.523   9.444  66.834  1.00  0.00    -0.173 SA 
HETATM   10  S   UNL     1     -11.907  12.011  68.892  1.00  0.00    -0.271 SA 
HETATM   11  C   UNL     1     -10.299   8.313  68.258  1.00  0.00    -0.198 C  
HETATM   12  S   UNL     1      -9.684   8.964  69.657  1.00  0.00    -0.179 SA 
BRANCH  11  13
HETATM   13  N   UNL     1     -10.874   6.996  68.237  1.00  0.00    -0.175 NA 
BRANCH  13  14
HETATM   14  C   UNL     1     -11.368   6.384  69.468  1.00  0.00    -0.393 C  
HETATM   15  C   UNL     1     -10.390   5.314  69.952  1.00  0.00    -0.374 C  
ENDBRANCH  13  14
BRANCH  13  16
HETATM   16  C   UNL     1     -10.992   6.277  66.973  1.00  0.00    -0.364 C  
HETATM   17  C   UNL     1      -9.645   5.791  66.444  1.00  0.00    -0.175 C  
ENDBRANCH  13  16
ENDBRANCH  11  13
ENDBRANCH   3   6
ENDBRANCH   2   3
TORSDOF 6
ENDMDL
MODEL       73
REMARK 921   NORMALIZED FREE ENERGY PREDICTED BY IDOCK:   -3.71 KCAL/MOL
REMARK 922        TOTAL FREE ENERGY PREDICTED BY IDOCK:   -4.91 KCAL/MOL
REMARK 923 INTER-LIGAND FREE ENERGY PREDICTED BY IDOCK:   -4.59 KCAL/MOL
REMARK 924 INTRA-LIGAND FREE ENERGY PREDICTED BY IDOCK:   -0.31 KCAL/MOL
REMARK 927      BINDING AFFINITY PREDICTED BY RF-SCORE:    0.00 PKD
ROOT
HETATM    1  C   UNL     1     -11.124  12.042  64.740  1.00  0.00    -0.369 C  
HETATM    2  C   UNL     1     -11.983  12.605  65.877  1.00  0.00    -0.438 C  
ENDROOT
BRANCH   2   3
HETATM    3  N   UNL     1     -11.288  13.303  66.976  1.00  0.00    -0.299 NA 
BRANCH   3   4
HETATM    4  C   UNL     1     -11.257  14.778  67.064  1.00  0.00    -0.345 C  
HETATM    5  C   UNL     1     -10.540  15.302  68.315  1.00  0.00    -0.244 C  
ENDBRANCH   3   4
BRANCH   3   6
HETATM    6  C   UNL     1     -10.669  12.472  67.994  1.00  0.00    -0.221 C  
HETATM    7  S   UNL     1      -9.062  12.029  67.955  1.00  0.00    -0.192 SA 
HETATM    8 ZN   UNL     1     -10.010  10.416  69.062  1.00  0.00    -0.154 Zn 
HETATM    9  S   UNL     1     -10.436   8.654  67.984  1.00  0.00    -0.160 SA 
HETATM   10  S   UNL     1     -11.669  11.714  69.349  1.00  0.00    -0.360 SA 
HETATM   11  C   UNL     1      -9.872   8.059  69.622  1.00  0.00    -0.184 C  
HETATM   12  S   UNL     1      -9.085   9.149  70.598  1.00  0.00    -0.266 SA 
BRANCH  11  13
HETATM   13  N   UNL     1     -10.323   6.792  70.129  1.00  0.00    -0.198 NA 
BRANCH  13  14
HETATM   14  C   UNL     1      -9.363   5.743  70.463  1.00  0.00    -0.162 C  
HETATM   15  C   UNL     1     -10.009   4.717  71.393  1.00  0.00    -0.267 C  
ENDBRANCH  13  14
BRANCH  13  16
HETATM   16  C   UNL     1     -11.749   6.562  70.340  1.00  0.00    -0.375 C  
HETATM   17  C   UNL     1     -12.376   7.579  71.289  1.00  0.00    -0.356 C  
ENDBRANCH  13  16
ENDBRANCH  11  13
ENDBRANCH   3   6
ENDBRANCH   2   3
TORSDOF 6
ENDMDL
MODEL       74
REMARK 921   NORMALIZED FREE ENERGY PREDICTED BY IDOCK:   -3.70 KCAL/MOL
REMARK 922        TOTAL FREE ENERGY PREDICTED BY IDOCK:   -4.90 KCAL/MOL
REMARK 923 INTER-LIGAND FREE ENERGY PREDICTED BY IDOCK:   -4.54 KCAL/MOL
REMARK 924 INTRA-LIGAND FREE ENERGY PREDICTED BY IDOCK:   -0.36 KCAL/MOL
REMARK 927      BINDING AFFINITY PREDICTED BY RF-SCORE:    0.00 PKD
ROOT
HETATM    1  C   UNL     1     -11.569  15.902  70.774  1.00  0.00    -0.441 C  
HETATM    2  C   UNL     1     -12.036  15.707  69.326  1.00  0.00    -0.320 C  
ENDROOT
BRANCH   2   3
HETATM    3  N   UNL     1     -11.090  16.063  68.251  1.00  0.00    -0.340 NA 
BRANCH   3   4
HETATM    4  C   UNL     1     -10.223  17.256  68.342  1.00  0.00    -0.358 C  
HETATM    5  C   UNL     1     -10.695  18.425  67.466  1.00  0.00    -0.399 C  
ENDBRANCH   3   4
BRANCH   3   6
HETATM    6  C   UNL     1     -11.018  15.162  67.115  1.00  0.00    -0.326 C  
HETATM    7  S   UNL     1     -12.261  14.138  66.682  1.00  0.00    -0.327 SA 
HETATM    8 ZN   UNL     1     -10.486  13.122  65.947  1.00  0.00    -0.252 Zn 
HETATM    9  S   UNL     1      -9.728  11.561  67.145  1.00  0.00    -0.184 SA 
HETATM   10  S   UNL     1      -9.461  14.975  66.138  1.00  0.00    -0.299 SA 
HETATM   11  C   UNL     1      -9.524  10.956  65.428  1.00  0.00    -0.214 C  
HETATM   12  S   UNL     1     -10.363  11.753  64.236  1.00  0.00    -0.344 SA 
BRANCH  11  13
HETATM   13  N   UNL     1      -8.489  10.011  65.108  1.00  0.00    -0.145 NA 
BRANCH  13  14
HETATM   14  C   UNL     1      -8.119   8.967  66.059  1.00  0.00    -0.111 C  
HETATM   15  C   UNL     1      -9.247   7.941  66.178  1.00  0.00    -0.208 C  
ENDBRANCH  13  14
BRANCH  13  16
HETATM   16  C   UNL     1      -7.822  10.078  63.811  1.00  0.00    -0.152 C  
HETATM   17  C   UNL     1      -6.334   9.755  63.897  1.00  0.00    -0.118 C  
ENDBRANCH  13  16
ENDBRANCH  11  13
ENDBRANCH   3   6
ENDBRANCH   2   3
TORSDOF 6
ENDMDL
MODEL       75
REMARK 921   NORMALIZED FREE ENERGY PREDICTED BY IDOCK:   -3.70 KCAL/MOL
REMARK 922        TOTAL FREE ENERGY PREDICTED BY IDOCK:   -4.89 KCAL/MOL
REMARK 923 INTER-LIGAND FREE ENERGY PREDICTED BY IDOCK:   -4.52 KCAL/MOL
REMARK 924 INTRA-LIGAND FREE ENERGY PREDICTED BY IDOCK:   -0.37 KCAL/MOL
REMARK 927      BINDING AFFINITY PREDICTED BY RF-SCORE:    0.00 PKD
ROOT
HETATM    1  C   UNL     1     -10.393   4.741  66.109  1.00  0.00    -0.337 C  
HETATM    2  C   UNL     1      -9.504   5.925  66.508  1.00  0.00    -0.155 C  
ENDROOT
BRANCH   2   3
HETATM    3  N   UNL     1     -10.031   6.863  67.518  1.00  0.00    -0.139 NA 
BRANCH   3   4
HETATM    4  C   UNL     1     -10.991   6.430  68.555  1.00  0.00    -0.319 C  
HETATM    5  C   UNL     1     -10.347   5.612  69.683  1.00  0.00    -0.346 C  
ENDBRANCH   3   4
BRANCH   3   6
HETATM    6  C   UNL     1      -9.531   8.225  67.474  1.00  0.00    -0.149 C  
HETATM    7  S   UNL     1      -8.874   8.998  68.798  1.00  0.00    -0.137 SA 
HETATM    8 ZN   UNL     1      -9.661  10.628  67.594  1.00  0.00    -0.148 Zn 
HETATM    9  S   UNL     1     -11.533  11.409  68.170  1.00  0.00    -0.304 SA 
HETATM   10  S   UNL     1      -9.723   9.268  65.962  1.00  0.00    -0.282 SA 
HETATM   11  C   UNL     1     -10.563  12.880  67.667  1.00  0.00    -0.223 C  
HETATM   12  S   UNL     1      -8.919  12.693  67.523  1.00  0.00    -0.198 SA 
BRANCH  11  13
HETATM   13  N   UNL     1     -11.228  14.055  67.173  1.00  0.00    -0.303 NA 
BRANCH  13  14
HETATM   14  C   UNL     1     -11.994  14.005  65.931  1.00  0.00    -0.408 C  
HETATM   15  C   UNL     1     -11.121  14.447  64.757  1.00  0.00    -0.402 C  
ENDBRANCH  13  14
BRANCH  13  16
HETATM   16  C   UNL     1     -11.160  15.299  67.934  1.00  0.00    -0.321 C  
HETATM   17  C   UNL     1     -11.684  15.147  69.359  1.00  0.00    -0.355 C  
ENDBRANCH  13  16
ENDBRANCH  11  13
ENDBRANCH   3   6
ENDBRANCH   2   3
TORSDOF 6
ENDMDL
MODEL       76
REMARK 921   NORMALIZED FREE ENERGY PREDICTED BY IDOCK:   -3.69 KCAL/MOL
REMARK 922        TOTAL FREE ENERGY PREDICTED BY IDOCK:   -4.89 KCAL/MOL
REMARK 923 INTER-LIGAND FREE ENERGY PREDICTED BY IDOCK:   -4.41 KCAL/MOL
REMARK 924 INTRA-LIGAND FREE ENERGY PREDICTED BY IDOCK:   -0.47 KCAL/MOL
REMARK 927      BINDING AFFINITY PREDICTED BY RF-SCORE:    0.00 PKD
ROOT
HETATM    1  C   UNL     1      -7.435   9.419  70.033  1.00  0.00    -0.107 C  
HETATM    2  C   UNL     1      -8.199   8.126  69.722  1.00  0.00    -0.122 C  
ENDROOT
BRANCH   2   3
HETATM    3  N   UNL     1      -9.669   8.157  69.843  1.00  0.00    -0.175 NA 
BRANCH   3   4
HETATM    4  C   UNL     1     -10.389   7.291  70.800  1.00  0.00    -0.202 C  
HETATM    5  C   UNL     1     -11.654   6.651  70.215  1.00  0.00    -0.454 C  
ENDBRANCH   3   4
BRANCH   3   6
HETATM    6  C   UNL     1     -10.377   9.111  69.008  1.00  0.00    -0.215 C  
HETATM    7  S   UNL     1     -10.303   9.096  67.342  1.00  0.00    -0.271 SA 
HETATM    8 ZN   UNL     1     -10.710  11.178  67.815  1.00  0.00    -0.170 Zn 
HETATM    9  S   UNL     1      -9.060  12.491  67.794  1.00  0.00    -0.200 SA 
HETATM   10  S   UNL     1     -11.309  10.524  69.747  1.00  0.00    -0.322 SA 
HETATM   11  C   UNL     1     -10.425  13.466  67.059  1.00  0.00    -0.257 C  
HETATM   12  S   UNL     1     -11.773  12.632  66.561  1.00  0.00    -0.388 SA 
BRANCH  11  13
HETATM   13  N   UNL     1     -10.428  14.901  67.155  1.00  0.00    -0.267 NA 
BRANCH  13  14
HETATM   14  C   UNL     1     -10.311  15.556  68.455  1.00  0.00    -0.230 C  
HETATM   15  C   UNL     1     -11.637  15.467  69.209  1.00  0.00    -0.369 C  
ENDBRANCH  13  14
BRANCH  13  16
HETATM   16  C   UNL     1     -10.519  15.707  65.942  1.00  0.00    -0.344 C  
HETATM   17  C   UNL     1     -10.080  17.152  66.162  1.00  0.00    -0.317 C  
ENDBRANCH  13  16
ENDBRANCH  11  13
ENDBRANCH   3   6
ENDBRANCH   2   3
TORSDOF 6
ENDMDL
MODEL       77
REMARK 921   NORMALIZED FREE ENERGY PREDICTED BY IDOCK:   -3.62 KCAL/MOL
REMARK 922        TOTAL FREE ENERGY PREDICTED BY IDOCK:   -4.79 KCAL/MOL
REMARK 923 INTER-LIGAND FREE ENERGY PREDICTED BY IDOCK:   -4.70 KCAL/MOL
REMARK 924 INTRA-LIGAND FREE ENERGY PREDICTED BY IDOCK:   -0.09 KCAL/MOL
REMARK 927      BINDING AFFINITY PREDICTED BY RF-SCORE:    0.00 PKD
ROOT
HETATM    1  C   UNL     1      -9.947  19.966  69.327  1.00  0.00    -0.268 C  
HETATM    2  C   UNL     1      -8.957  19.176  68.462  1.00  0.00    -0.363 C  
ENDROOT
BRANCH   2   3
HETATM    3  N   UNL     1      -9.500  18.086  67.629  1.00  0.00    -0.261 NA 
BRANCH   3   4
HETATM    4  C   UNL     1     -10.472  18.344  66.547  1.00  0.00    -0.381 C  
HETATM    5  C   UNL     1     -10.221  19.661  65.799  1.00  0.00    -0.446 C  
ENDBRANCH   3   4
BRANCH   3   6
HETATM    6  C   UNL     1      -9.001  16.747  67.892  1.00  0.00    -0.219 C  
HETATM    7  S   UNL     1      -7.751  16.055  67.033  1.00  0.00    -0.241 SA 
HETATM    8 ZN   UNL     1      -8.919  14.346  67.700  1.00  0.00    -0.158 Zn 
HETATM    9  S   UNL     1     -10.243  13.501  66.294  1.00  0.00    -0.305 SA 
HETATM   10  S   UNL     1      -9.827  15.642  69.120  1.00  0.00    -0.264 SA 
HETATM   11  C   UNL     1      -9.545  12.060  67.183  1.00  0.00    -0.192 C  
HETATM   12  S   UNL     1      -8.180  12.318  68.095  1.00  0.00    -0.173 SA 
BRANCH  11  13
HETATM   13  N   UNL     1     -10.294  10.838  67.289  1.00  0.00    -0.208 NA 
BRANCH  13  14
HETATM   14  C   UNL     1     -10.098   9.762  66.321  1.00  0.00    -0.243 C  
HETATM   15  C   UNL     1     -10.317   8.406  66.991  1.00  0.00    -0.385 C  
ENDBRANCH  13  14
BRANCH  13  16
HETATM   16  C   UNL     1     -11.237  10.660  68.389  1.00  0.00    -0.288 C  
HETATM   17  C   UNL     1     -11.982  11.944  68.739  1.00  0.00    -0.307 C  
ENDBRANCH  13  16
ENDBRANCH  11  13
ENDBRANCH   3   6
ENDBRANCH   2   3
TORSDOF 6
ENDMDL
MODEL       78
REMARK 921   NORMALIZED FREE ENERGY PREDICTED BY IDOCK:   -3.62 KCAL/MOL
REMARK 922        TOTAL FREE ENERGY PREDICTED BY IDOCK:   -4.78 KCAL/MOL
REMARK 923 INTER-LIGAND FREE ENERGY PREDICTED BY IDOCK:   -4.36 KCAL/MOL
REMARK 924 INTRA-LIGAND FREE ENERGY PREDICTED BY IDOCK:   -0.42 KCAL/MOL
REMARK 927      BINDING AFFINITY PREDICTED BY RF-SCORE:    0.00 PKD
ROOT
HETATM    1  C   UNL     1     -11.877  15.768  71.774  1.00  0.00    -0.549 C  
HETATM    2  C   UNL     1     -12.640  15.431  70.488  1.00  0.00    -0.423 C  
ENDROOT
BRANCH   2   3
HETATM    3  N   UNL     1     -11.858  15.304  69.244  1.00  0.00    -0.328 NA 
BRANCH   3   4
HETATM    4  C   UNL     1     -11.121  16.449  68.668  1.00  0.00    -0.352 C  
HETATM    5  C   UNL     1      -9.599  16.345  68.836  1.00  0.00    -0.252 C  
ENDBRANCH   3   4
BRANCH   3   6
HETATM    6  C   UNL     1     -11.808  13.989  68.630  1.00  0.00    -0.361 C  
HETATM    7  S   UNL     1     -11.551  12.587  69.497  1.00  0.00    -0.252 SA 
HETATM    8 ZN   UNL     1     -10.787  12.110  67.518  1.00  0.00    -0.205 Zn 
HETATM    9  S   UNL     1      -8.698  12.235  67.258  1.00  0.00    -0.196 SA 
HETATM   10  S   UNL     1     -11.880  13.784  66.796  1.00  0.00    -0.436 SA 
HETATM   11  C   UNL     1      -9.189  10.757  66.293  1.00  0.00    -0.173 C  
HETATM   12  S   UNL     1     -10.699  10.128  66.581  1.00  0.00    -0.019 SA 
BRANCH  11  13
HETATM   13  N   UNL     1      -8.406  10.332  65.164  1.00  0.00    -0.157 NA 
BRANCH  13  14
HETATM   14  C   UNL     1      -6.952  10.242  65.263  1.00  0.00    -0.130 C  
HETATM   15  C   UNL     1      -6.531   8.793  65.507  1.00  0.00    -0.063 C  
ENDBRANCH  13  14
BRANCH  13  16
HETATM   16  C   UNL     1      -9.071   9.961  63.920  1.00  0.00    -0.259 C  
HETATM   17  C   UNL     1      -8.410  10.579  62.691  1.00  0.00    -0.208 C  
ENDBRANCH  13  16
ENDBRANCH  11  13
ENDBRANCH   3   6
ENDBRANCH   2   3
TORSDOF 6
ENDMDL
MODEL       79
REMARK 921   NORMALIZED FREE ENERGY PREDICTED BY IDOCK:   -3.61 KCAL/MOL
REMARK 922        TOTAL FREE ENERGY PREDICTED BY IDOCK:   -4.77 KCAL/MOL
REMARK 923 INTER-LIGAND FREE ENERGY PREDICTED BY IDOCK:   -4.43 KCAL/MOL
REMARK 924 INTRA-LIGAND FREE ENERGY PREDICTED BY IDOCK:   -0.34 KCAL/MOL
REMARK 927      BINDING AFFINITY PREDICTED BY RF-SCORE:    0.00 PKD
ROOT
HETATM    1  C   UNL     1     -11.788  11.890  63.570  1.00  0.00    -0.560 C  
HETATM    2  C   UNL     1     -10.458  12.554  63.942  1.00  0.00    -0.434 C  
ENDROOT
BRANCH   2   3
HETATM    3  N   UNL     1     -10.156  12.721  65.377  1.00  0.00    -0.281 NA 
BRANCH   3   4
HETATM    4  C   UNL     1     -10.676  13.866  66.153  1.00  0.00    -0.283 C  
HETATM    5  C   UNL     1     -12.155  13.724  66.539  1.00  0.00    -0.483 C  
ENDBRANCH   3   4
BRANCH   3   6
HETATM    6  C   UNL     1      -9.358  11.683  66.006  1.00  0.00    -0.227 C  
HETATM    7  S   UNL     1      -8.571  10.491  65.145  1.00  0.00    -0.166 SA 
HETATM    8 ZN   UNL     1      -8.942   9.565  67.077  1.00  0.00    -0.123 Zn 
HETATM    9  S   UNL     1     -10.600   8.267  67.198  1.00  0.00    -0.185 SA 
HETATM   10  S   UNL     1      -9.277  11.519  67.843  1.00  0.00    -0.174 SA 
HETATM   11  C   UNL     1      -9.311   7.454  68.215  1.00  0.00    -0.140 C  
HETATM   12  S   UNL     1      -7.749   7.991  68.035  1.00  0.00    -0.120 SA 
BRANCH  11  13
HETATM   13  N   UNL     1      -9.680   6.582  69.296  1.00  0.00    -0.144 NA 
BRANCH  13  14
HETATM   14  C   UNL     1      -8.677   6.116  70.249  1.00  0.00    -0.145 C  
HETATM   15  C   UNL     1      -8.651   4.588  70.280  1.00  0.00    -0.104 C  
ENDBRANCH  13  14
BRANCH  13  16
HETATM   16  C   UNL     1     -11.075   6.182  69.460  1.00  0.00    -0.420 C  
HETATM   17  C   UNL     1     -11.712   6.769  70.716  1.00  0.00    -0.439 C  
ENDBRANCH  13  16
ENDBRANCH  11  13
ENDBRANCH   3   6
ENDBRANCH   2   3
TORSDOF 6
ENDMDL
MODEL       80
REMARK 921   NORMALIZED FREE ENERGY PREDICTED BY IDOCK:   -3.57 KCAL/MOL
REMARK 922        TOTAL FREE ENERGY PREDICTED BY IDOCK:   -4.72 KCAL/MOL
REMARK 923 INTER-LIGAND FREE ENERGY PREDICTED BY IDOCK:   -4.43 KCAL/MOL
REMARK 924 INTRA-LIGAND FREE ENERGY PREDICTED BY IDOCK:   -0.30 KCAL/MOL
REMARK 927      BINDING AFFINITY PREDICTED BY RF-SCORE:    0.00 PKD
ROOT
HETATM    1  C   UNL     1     -12.281  14.982  70.827  1.00  0.00    -0.386 C  
HETATM    2  C   UNL     1     -12.154  14.105  69.576  1.00  0.00    -0.340 C  
ENDROOT
BRANCH   2   3
HETATM    3  N   UNL     1     -11.433  14.669  68.419  1.00  0.00    -0.296 NA 
BRANCH   3   4
HETATM    4  C   UNL     1     -11.188  16.120  68.287  1.00  0.00    -0.343 C  
HETATM    5  C   UNL     1      -9.797  16.554  68.770  1.00  0.00    -0.254 C  
ENDBRANCH   3   4
BRANCH   3   6
HETATM    6  C   UNL     1     -10.934  13.726  67.433  1.00  0.00    -0.284 C  
HETATM    7  S   UNL     1     -11.905  13.022  66.273  1.00  0.00    -0.415 SA 
HETATM    8 ZN   UNL     1     -10.315  11.567  66.560  1.00  0.00    -0.198 Zn 
HETATM    9  S   UNL     1     -10.753   9.924  67.807  1.00  0.00    -0.263 SA 
HETATM   10  S   UNL     1      -9.192  13.117  67.485  1.00  0.00    -0.217 SA 
HETATM   11  C   UNL     1      -9.753   9.209  66.449  1.00  0.00    -0.262 C  
HETATM   12  S   UNL     1      -9.557  10.133  65.082  1.00  0.00    -0.312 SA 
BRANCH  11  13
HETATM   13  N   UNL     1      -8.968   8.025  66.669  1.00  0.00    -0.142 NA 
BRANCH  13  14
HETATM   14  C   UNL     1      -7.680   8.107  67.350  1.00  0.00    -0.102 C  
HETATM   15  C   UNL     1      -7.771   7.449  68.727  1.00  0.00    -0.119 C  
ENDBRANCH  13  14
BRANCH  13  16
HETATM   16  C   UNL     1      -9.477   6.728  66.234  1.00  0.00    -0.067 C  
HETATM   17  C   UNL     1     -10.796   6.358  66.905  1.00  0.00    -0.428 C  
ENDBRANCH  13  16
ENDBRANCH  11  13
ENDBRANCH   3   6
ENDBRANCH   2   3
TORSDOF 6
ENDMDL
MODEL       81
REMARK 921   NORMALIZED FREE ENERGY PREDICTED BY IDOCK:   -3.56 KCAL/MOL
REMARK 922        TOTAL FREE ENERGY PREDICTED BY IDOCK:   -4.71 KCAL/MOL
REMARK 923 INTER-LIGAND FREE ENERGY PREDICTED BY IDOCK:   -4.52 KCAL/MOL
REMARK 924 INTRA-LIGAND FREE ENERGY PREDICTED BY IDOCK:   -0.19 KCAL/MOL
REMARK 927      BINDING AFFINITY PREDICTED BY RF-SCORE:    0.00 PKD
ROOT
HETATM    1  C   UNL     1     -10.086  19.840  69.168  1.00  0.00    -0.372 C  
HETATM    2  C   UNL     1      -9.180  19.394  68.014  1.00  0.00    -0.327 C  
ENDROOT
BRANCH   2   3
HETATM    3  N   UNL     1      -9.669  18.304  67.147  1.00  0.00    -0.295 NA 
BRANCH   3   4
HETATM    4  C   UNL     1     -10.604  18.559  66.031  1.00  0.00    -0.331 C  
HETATM    5  C   UNL     1     -10.521  19.986  65.475  1.00  0.00    -0.315 C  
ENDBRANCH   3   4
BRANCH   3   6
HETATM    6  C   UNL     1      -9.154  16.972  67.411  1.00  0.00    -0.222 C  
HETATM    7  S   UNL     1      -8.515  15.990  66.225  1.00  0.00    -0.212 SA 
HETATM    8 ZN   UNL     1      -9.262  14.583  67.705  1.00  0.00    -0.170 Zn 
HETATM    9  S   UNL     1     -11.138  13.704  67.308  1.00  0.00    -0.301 SA 
HETATM   10  S   UNL     1      -9.306  16.201  69.083  1.00  0.00    -0.216 SA 
HETATM   11  C   UNL     1     -10.144  12.347  68.034  1.00  0.00    -0.214 C  
HETATM   12  S   UNL     1      -8.499  12.566  68.111  1.00  0.00    -0.177 SA 
BRANCH  11  13
HETATM   13  N   UNL     1     -10.787  11.269  68.734  1.00  0.00    -0.195 NA 
BRANCH  13  14
HETATM   14  C   UNL     1     -12.120  11.446  69.303  1.00  0.00    -0.289 C  
HETATM   15  C   UNL     1     -12.091  12.532  70.379  1.00  0.00    -0.380 C  
ENDBRANCH  13  14
BRANCH  13  16
HETATM   16  C   UNL     1     -10.114   9.978  68.852  1.00  0.00    -0.190 C  
HETATM   17  C   UNL     1      -9.699   9.660  70.286  1.00  0.00    -0.314 C  
ENDBRANCH  13  16
ENDBRANCH  11  13
ENDBRANCH   3   6
ENDBRANCH   2   3
TORSDOF 6
ENDMDL
MODEL       82
REMARK 921   NORMALIZED FREE ENERGY PREDICTED BY IDOCK:   -3.56 KCAL/MOL
REMARK 922        TOTAL FREE ENERGY PREDICTED BY IDOCK:   -4.70 KCAL/MOL
REMARK 923 INTER-LIGAND FREE ENERGY PREDICTED BY IDOCK:   -4.33 KCAL/MOL
REMARK 924 INTRA-LIGAND FREE ENERGY PREDICTED BY IDOCK:   -0.37 KCAL/MOL
REMARK 927      BINDING AFFINITY PREDICTED BY RF-SCORE:    0.00 PKD
ROOT
HETATM    1  C   UNL     1     -10.925  15.287  66.089  1.00  0.00    -0.307 C  
HETATM    2  C   UNL     1     -11.921  14.121  66.086  1.00  0.00    -0.422 C  
ENDROOT
BRANCH   2   3
HETATM    3  N   UNL     1     -11.384  12.767  65.850  1.00  0.00    -0.310 NA 
BRANCH   3   4
HETATM    4  C   UNL     1     -11.587  12.063  64.566  1.00  0.00    -0.317 C  
HETATM    5  C   UNL     1     -12.174  12.955  63.464  1.00  0.00    -0.595 C  
ENDBRANCH   3   4
BRANCH   3   6
HETATM    6  C   UNL     1     -10.609  12.171  66.924  1.00  0.00    -0.229 C  
HETATM    7  S   UNL     1      -8.945  12.055  66.891  1.00  0.00    -0.202 SA 
HETATM    8 ZN   UNL     1      -9.548  10.391  68.154  1.00  0.00    -0.134 Zn 
HETATM    9  S   UNL     1      -9.616   8.490  67.241  1.00  0.00    -0.185 SA 
HETATM   10  S   UNL     1     -11.433  11.352  68.360  1.00  0.00    -0.313 SA 
HETATM   11  C   UNL     1      -8.940   8.168  68.913  1.00  0.00    -0.141 C  
HETATM   12  S   UNL     1      -8.384   9.476  69.774  1.00  0.00    -0.182 SA 
BRANCH  11  13
HETATM   13  N   UNL     1      -9.126   6.887  69.538  1.00  0.00    -0.142 NA 
BRANCH  13  14
HETATM   14  C   UNL     1     -10.140   6.709  70.574  1.00  0.00    -0.187 C  
HETATM   15  C   UNL     1     -11.489   6.376  69.936  1.00  0.00    -0.483 C  
ENDBRANCH  13  14
BRANCH  13  16
HETATM   16  C   UNL     1      -8.316   5.749  69.114  1.00  0.00    -0.105 C  
HETATM   17  C   UNL     1      -6.992   6.171  68.484  1.00  0.00    -0.076 C  
ENDBRANCH  13  16
ENDBRANCH  11  13
ENDBRANCH   3   6
ENDBRANCH   2   3
TORSDOF 6
ENDMDL
MODEL       83
REMARK 921   NORMALIZED FREE ENERGY PREDICTED BY IDOCK:   -3.55 KCAL/MOL
REMARK 922        TOTAL FREE ENERGY PREDICTED BY IDOCK:   -4.69 KCAL/MOL
REMARK 923 INTER-LIGAND FREE ENERGY PREDICTED BY IDOCK:   -4.24 KCAL/MOL
REMARK 924 INTRA-LIGAND FREE ENERGY PREDICTED BY IDOCK:   -0.45 KCAL/MOL
REMARK 927      BINDING AFFINITY PREDICTED BY RF-SCORE:    0.00 PKD
ROOT
HETATM    1  C   UNL     1     -11.034   6.265  67.882  1.00  0.00    -0.421 C  
HETATM    2  C   UNL     1      -9.503   6.213  67.951  1.00  0.00    -0.115 C  
ENDROOT
BRANCH   2   3
HETATM    3  N   UNL     1      -8.832   7.137  68.886  1.00  0.00    -0.131 NA 
BRANCH   3   4
HETATM    4  C   UNL     1      -8.305   6.679  70.188  1.00  0.00    -0.135 C  
HETATM    5  C   UNL     1      -9.401   6.317  71.200  1.00  0.00    -0.169 C  
ENDBRANCH   3   4
BRANCH   3   6
HETATM    6  C   UNL     1      -8.674   8.513  68.450  1.00  0.00    -0.143 C  
HETATM    7  S   UNL     1      -8.515   9.793  69.508  1.00  0.00    -0.185 SA 
HETATM    8 ZN   UNL     1      -9.396  10.699  67.739  1.00  0.00    -0.136 Zn 
HETATM    9  S   UNL     1     -11.479  11.027  67.783  1.00  0.00    -0.190 SA 
HETATM   10  S   UNL     1      -8.785   8.970  66.664  1.00  0.00    -0.131 SA 
HETATM   11  C   UNL     1     -10.804  12.507  66.940  1.00  0.00    -0.248 C  
HETATM   12  S   UNL     1      -9.170  12.778  67.071  1.00  0.00    -0.226 SA 
BRANCH  11  13
HETATM   13  N   UNL     1     -11.610  13.240  66.002  1.00  0.00    -0.335 NA 
BRANCH  13  14
HETATM   14  C   UNL     1     -11.723  14.692  66.099  1.00  0.00    -0.313 C  
HETATM   15  C   UNL     1     -11.160  15.348  64.839  1.00  0.00    -0.435 C  
ENDBRANCH  13  14
BRANCH  13  16
HETATM   16  C   UNL     1     -12.296  12.530  64.927  1.00  0.00    -0.470 C  
HETATM   17  C   UNL     1     -11.339  11.747  64.034  1.00  0.00    -0.461 C  
ENDBRANCH  13  16
ENDBRANCH  11  13
ENDBRANCH   3   6
ENDBRANCH   2   3
TORSDOF 6
ENDMDL
MODEL       84
REMARK 921   NORMALIZED FREE ENERGY PREDICTED BY IDOCK:   -3.54 KCAL/MOL
REMARK 922        TOTAL FREE ENERGY PREDICTED BY IDOCK:   -4.68 KCAL/MOL
REMARK 923 INTER-LIGAND FREE ENERGY PREDICTED BY IDOCK:   -4.42 KCAL/MOL
REMARK 924 INTRA-LIGAND FREE ENERGY PREDICTED BY IDOCK:   -0.25 KCAL/MOL
REMARK 927      BINDING AFFINITY PREDICTED BY RF-SCORE:    0.00 PKD
ROOT
HETATM    1  C   UNL     1     -12.398  14.195  66.130  1.00  0.00    -0.463 C  
HETATM    2  C   UNL     1     -10.998  13.649  66.432  1.00  0.00    -0.297 C  
ENDROOT
BRANCH   2   3
HETATM    3  N   UNL     1     -10.843  12.184  66.520  1.00  0.00    -0.258 NA 
BRANCH   3   4
HETATM    4  C   UNL     1     -10.952  11.317  65.329  1.00  0.00    -0.137 C  
HETATM    5  C   UNL     1      -9.631  10.640  64.940  1.00  0.00    -0.323 C  
ENDBRANCH   3   4
BRANCH   3   6
HETATM    6  C   UNL     1     -10.533  11.634  67.829  1.00  0.00    -0.187 C  
HETATM    7  S   UNL     1      -8.976  11.338  68.348  1.00  0.00    -0.167 SA 
HETATM    8 ZN   UNL     1     -10.169   9.902  69.464  1.00  0.00    -0.159 Zn 
HETATM    9  S   UNL     1     -10.209   7.929  68.721  1.00  0.00    -0.205 SA 
HETATM   10  S   UNL     1     -11.871  11.078  68.974  1.00  0.00    -0.288 SA 
HETATM   11  C   UNL     1     -10.142   7.728  70.541  1.00  0.00    -0.192 C  
HETATM   12  S   UNL     1      -9.710   9.058  71.437  1.00  0.00    -0.275 SA 
BRANCH  11  13
HETATM   13  N   UNL     1     -10.691   6.554  71.163  1.00  0.00    -0.233 NA 
BRANCH  13  14
HETATM   14  C   UNL     1     -10.178   5.229  70.827  1.00  0.00    -0.246 C  
HETATM   15  C   UNL     1     -10.105   4.360  72.083  1.00  0.00    -0.262 C  
ENDBRANCH  13  14
BRANCH  13  16
HETATM   16  C   UNL     1     -11.749   6.690  72.160  1.00  0.00    -0.304 C  
HETATM   17  C   UNL     1     -13.086   7.097  71.548  1.00  0.00    -0.427 C  
ENDBRANCH  13  16
ENDBRANCH  11  13
ENDBRANCH   3   6
ENDBRANCH   2   3
TORSDOF 6
ENDMDL
MODEL       85
REMARK 921   NORMALIZED FREE ENERGY PREDICTED BY IDOCK:   -3.52 KCAL/MOL
REMARK 922        TOTAL FREE ENERGY PREDICTED BY IDOCK:   -4.65 KCAL/MOL
REMARK 923 INTER-LIGAND FREE ENERGY PREDICTED BY IDOCK:   -4.28 KCAL/MOL
REMARK 924 INTRA-LIGAND FREE ENERGY PREDICTED BY IDOCK:   -0.37 KCAL/MOL
REMARK 927      BINDING AFFINITY PREDICTED BY RF-SCORE:    0.00 PKD
ROOT
HETATM    1  C   UNL     1     -12.630  12.518  63.955  1.00  0.00    -0.485 C  
HETATM    2  C   UNL     1     -11.914  12.581  65.309  1.00  0.00    -0.438 C  
ENDROOT
BRANCH   2   3
HETATM    3  N   UNL     1     -10.586  11.945  65.407  1.00  0.00    -0.261 NA 
BRANCH   3   4
HETATM    4  C   UNL     1      -9.716  11.774  64.226  1.00  0.00    -0.146 C  
HETATM    5  C   UNL     1      -9.730  10.350  63.655  1.00  0.00    -0.338 C  
ENDBRANCH   3   4
BRANCH   3   6
HETATM    6  C   UNL     1     -10.153  11.532  66.731  1.00  0.00    -0.215 C  
HETATM    7  S   UNL     1      -8.550  11.319  67.140  1.00  0.00    -0.152 SA 
HETATM    8 ZN   UNL     1      -9.602   9.974  68.485  1.00  0.00    -0.136 Zn 
HETATM    9  S   UNL     1      -9.647   7.938  67.939  1.00  0.00    -0.151 SA 
HETATM   10  S   UNL     1     -11.373  11.061  68.034  1.00  0.00    -0.294 SA 
HETATM   11  C   UNL     1      -9.423   7.916  69.757  1.00  0.00    -0.163 C  
HETATM   12  S   UNL     1      -8.956   9.336  70.483  1.00  0.00    -0.251 SA 
BRANCH  11  13
HETATM   13  N   UNL     1      -9.883   6.797  70.533  1.00  0.00    -0.176 NA 
BRANCH  13  14
HETATM   14  C   UNL     1      -9.687   6.768  71.980  1.00  0.00    -0.153 C  
HETATM   15  C   UNL     1     -11.038   6.820  72.693  1.00  0.00    -0.301 C  
ENDBRANCH  13  14
BRANCH  13  16
HETATM   16  C   UNL     1     -10.576   5.695  69.874  1.00  0.00    -0.328 C  
HETATM   17  C   UNL     1      -9.802   4.382  69.949  1.00  0.00    -0.290 C  
ENDBRANCH  13  16
ENDBRANCH  11  13
ENDBRANCH   3   6
ENDBRANCH   2   3
TORSDOF 6
ENDMDL
MODEL       86
REMARK 921   NORMALIZED FREE ENERGY PREDICTED BY IDOCK:   -3.52 KCAL/MOL
REMARK 922        TOTAL FREE ENERGY PREDICTED BY IDOCK:   -4.65 KCAL/MOL
REMARK 923 INTER-LIGAND FREE ENERGY PREDICTED BY IDOCK:   -4.20 KCAL/MOL
REMARK 924 INTRA-LIGAND FREE ENERGY PREDICTED BY IDOCK:   -0.45 KCAL/MOL
REMARK 927      BINDING AFFINITY PREDICTED BY RF-SCORE:    0.00 PKD
ROOT
HETATM    1  C   UNL     1     -10.894   3.101  73.366  1.00  0.00    -0.307 C  
HETATM    2  C   UNL     1     -11.222   4.590  73.522  1.00  0.00    -0.303 C  
ENDROOT
BRANCH   2   3
HETATM    3  N   UNL     1     -10.338   5.557  72.845  1.00  0.00    -0.186 NA 
BRANCH   3   4
HETATM    4  C   UNL     1      -9.257   6.261  73.567  1.00  0.00    -0.131 C  
HETATM    5  C   UNL     1      -9.101   7.731  73.155  1.00  0.00    -0.280 C  
ENDBRANCH   3   4
BRANCH   3   6
HETATM    6  C   UNL     1     -10.548   5.756  71.421  1.00  0.00    -0.253 C  
HETATM    7  S   UNL     1      -9.477   5.226  70.259  1.00  0.00    -0.180 SA 
HETATM    8 ZN   UNL     1     -10.448   6.930  69.319  1.00  0.00    -0.168 Zn 
HETATM    9  S   UNL     1      -9.389   8.753  69.346  1.00  0.00    -0.158 SA 
HETATM   10  S   UNL     1     -11.969   6.756  70.794  1.00  0.00    -0.321 SA 
HETATM   11  C   UNL     1     -10.174   8.708  67.691  1.00  0.00    -0.239 C  
HETATM   12  S   UNL     1     -10.767   7.246  67.171  1.00  0.00    -0.296 SA 
BRANCH  11  13
HETATM   13  N   UNL     1     -10.488   9.929  67.002  1.00  0.00    -0.240 NA 
BRANCH  13  14
HETATM   14  C   UNL     1     -11.186  11.011  67.692  1.00  0.00    -0.305 C  
HETATM   15  C   UNL     1     -11.483  12.150  66.717  1.00  0.00    -0.418 C  
ENDBRANCH  13  14
BRANCH  13  16
HETATM   16  C   UNL     1     -10.080  10.102  65.611  1.00  0.00    -0.254 C  
HETATM   17  C   UNL     1      -8.566  10.051  65.430  1.00  0.00    -0.162 C  
ENDBRANCH  13  16
ENDBRANCH  11  13
ENDBRANCH   3   6
ENDBRANCH   2   3
TORSDOF 6
ENDMDL
MODEL       87
REMARK 921   NORMALIZED FREE ENERGY PREDICTED BY IDOCK:   -3.50 KCAL/MOL
REMARK 922        TOTAL FREE ENERGY PREDICTED BY IDOCK:   -4.63 KCAL/MOL
REMARK 923 INTER-LIGAND FREE ENERGY PREDICTED BY IDOCK:   -4.23 KCAL/MOL
REMARK 924 INTRA-LIGAND FREE ENERGY PREDICTED BY IDOCK:   -0.40 KCAL/MOL
REMARK 927      BINDING AFFINITY PREDICTED BY RF-SCORE:    0.00 PKD
ROOT
HETATM    1  C   UNL     1     -10.557  17.987  67.639  1.00  0.00    -0.413 C  
HETATM    2  C   UNL     1     -10.970  16.530  67.881  1.00  0.00    -0.288 C  
ENDROOT
BRANCH   2   3
HETATM    3  N   UNL     1     -10.508  15.520  66.910  1.00  0.00    -0.295 NA 
BRANCH   3   4
HETATM    4  C   UNL     1     -10.660  15.715  65.453  1.00  0.00    -0.415 C  
HETATM    5  C   UNL     1     -11.062  14.438  64.703  1.00  0.00    -0.363 C  
ENDBRANCH   3   4
BRANCH   3   6
HETATM    6  C   UNL     1      -9.854  14.340  67.450  1.00  0.00    -0.235 C  
HETATM    7  S   UNL     1      -8.232  14.018  67.233  1.00  0.00    -0.136 SA 
HETATM    8 ZN   UNL     1      -9.117  12.047  67.481  1.00  0.00    -0.151 Zn 
HETATM    9  S   UNL     1      -9.486  10.950  65.718  1.00  0.00    -0.222 SA 
HETATM   10  S   UNL     1     -10.819  13.018  68.304  1.00  0.00    -0.256 SA 
HETATM   11  C   UNL     1      -8.892   9.698  66.916  1.00  0.00    -0.131 C  
HETATM   12  S   UNL     1      -8.140  10.255  68.288  1.00  0.00    -0.110 SA 
BRANCH  11  13
HETATM   13  N   UNL     1      -9.295   8.324  66.791  1.00  0.00    -0.169 NA 
BRANCH  13  14
HETATM   14  C   UNL     1      -8.354   7.317  66.308  1.00  0.00    -0.129 C  
HETATM   15  C   UNL     1      -7.989   7.596  64.850  1.00  0.00    -0.135 C  
ENDBRANCH  13  14
BRANCH  13  16
HETATM   16  C   UNL     1     -10.646   7.927  67.177  1.00  0.00    -0.313 C  
HETATM   17  C   UNL     1     -10.885   6.428  67.025  1.00  0.00    -0.464 C  
ENDBRANCH  13  16
ENDBRANCH  11  13
ENDBRANCH   3   6
ENDBRANCH   2   3
TORSDOF 6
ENDMDL
MODEL       88
REMARK 921   NORMALIZED FREE ENERGY PREDICTED BY IDOCK:   -3.50 KCAL/MOL
REMARK 922        TOTAL FREE ENERGY PREDICTED BY IDOCK:   -4.63 KCAL/MOL
REMARK 923 INTER-LIGAND FREE ENERGY PREDICTED BY IDOCK:   -4.26 KCAL/MOL
REMARK 924 INTRA-LIGAND FREE ENERGY PREDICTED BY IDOCK:   -0.37 KCAL/MOL
REMARK 927      BINDING AFFINITY PREDICTED BY RF-SCORE:    0.00 PKD
ROOT
HETATM    1  C   UNL     1     -11.969  14.611  71.158  1.00  0.00    -0.405 C  
HETATM    2  C   UNL     1     -12.632  13.600  70.215  1.00  0.00    -0.186 C  
ENDROOT
BRANCH   2   3
HETATM    3  N   UNL     1     -11.747  12.697  69.454  1.00  0.00    -0.314 NA 
BRANCH   3   4
HETATM    4  C   UNL     1     -10.656  13.213  68.602  1.00  0.00    -0.239 C  
HETATM    5  C   UNL     1     -11.151  13.970  67.362  1.00  0.00    -0.317 C  
ENDBRANCH   3   4
BRANCH   3   6
HETATM    6  C   UNL     1     -11.970  11.270  69.613  1.00  0.00    -0.353 C  
HETATM    7  S   UNL     1     -12.882  10.623  70.851  1.00  0.00    -0.360 SA 
HETATM    8 ZN   UNL     1     -11.484   9.032  70.360  1.00  0.00    -0.242 Zn 
HETATM    9  S   UNL     1      -9.798   8.837  71.612  1.00  0.00    -0.320 SA 
HETATM   10  S   UNL     1     -11.125  10.041  68.525  1.00  0.00    -0.115 SA 
HETATM   11  C   UNL     1     -10.291   7.112  71.242  1.00  0.00    -0.198 C  
HETATM   12  S   UNL     1     -11.806   6.874  70.603  1.00  0.00    -0.337 SA 
BRANCH  11  13
HETATM   13  N   UNL     1      -9.315   6.057  71.262  1.00  0.00    -0.156 NA 
BRANCH  13  14
HETATM   14  C   UNL     1      -8.818   5.531  72.531  1.00  0.00    -0.130 C  
HETATM   15  C   UNL     1      -9.963   4.895  73.319  1.00  0.00    -0.181 C  
ENDBRANCH  13  14
BRANCH  13  16
HETATM   16  C   UNL     1      -8.838   5.487  70.006  1.00  0.00    -0.128 C  
HETATM   17  C   UNL     1      -9.564   4.200  69.630  1.00  0.00    -0.277 C  
ENDBRANCH  13  16
ENDBRANCH  11  13
ENDBRANCH   3   6
ENDBRANCH   2   3
TORSDOF 6
ENDMDL
MODEL       89
REMARK 921   NORMALIZED FREE ENERGY PREDICTED BY IDOCK:   -3.50 KCAL/MOL
REMARK 922        TOTAL FREE ENERGY PREDICTED BY IDOCK:   -4.62 KCAL/MOL
REMARK 923 INTER-LIGAND FREE ENERGY PREDICTED BY IDOCK:   -4.26 KCAL/MOL
REMARK 924 INTRA-LIGAND FREE ENERGY PREDICTED BY IDOCK:   -0.36 KCAL/MOL
REMARK 927      BINDING AFFINITY PREDICTED BY RF-SCORE:    0.00 PKD
ROOT
HETATM    1  C   UNL     1     -10.608  16.293  69.652  1.00  0.00    -0.320 C  
HETATM    2  C   UNL     1     -11.629  15.771  68.635  1.00  0.00    -0.386 C  
ENDROOT
BRANCH   2   3
HETATM    3  N   UNL     1     -11.647  14.319  68.372  1.00  0.00    -0.302 NA 
BRANCH   3   4
HETATM    4  C   UNL     1     -12.041  13.346  69.412  1.00  0.00    -0.269 C  
HETATM    5  C   UNL     1     -11.419  11.956  69.218  1.00  0.00    -0.366 C  
ENDBRANCH   3   4
BRANCH   3   6
HETATM    6  C   UNL     1     -11.303  13.890  67.028  1.00  0.00    -0.326 C  
HETATM    7  S   UNL     1     -12.405  13.209  65.977  1.00  0.00    -0.270 SA 
HETATM    8 ZN   UNL     1     -10.503  12.375  65.333  1.00  0.00    -0.244 Zn 
HETATM    9  S   UNL     1     -10.055  10.424  65.996  1.00  0.00    -0.231 SA 
HETATM   10  S   UNL     1      -9.557  13.932  66.428  1.00  0.00    -0.251 SA 
HETATM   11  C   UNL     1      -9.443  10.469  64.270  1.00  0.00    -0.285 C  
HETATM   12  S   UNL     1      -9.971  11.717  63.308  1.00  0.00    -0.380 SA 
BRANCH  11  13
HETATM   13  N   UNL     1      -8.361   9.617  63.860  1.00  0.00    -0.158 NA 
BRANCH  13  14
HETATM   14  C   UNL     1      -7.490  10.005  62.754  1.00  0.00    -0.130 C  
HETATM   15  C   UNL     1      -6.109  10.390  63.283  1.00  0.00    -0.122 C  
ENDBRANCH  13  14
BRANCH  13  16
HETATM   16  C   UNL     1      -8.112   8.368  64.574  1.00  0.00    -0.152 C  
HETATM   17  C   UNL     1      -7.965   7.173  63.636  1.00  0.00    -0.070 C  
ENDBRANCH  13  16
ENDBRANCH  11  13
ENDBRANCH   3   6
ENDBRANCH   2   3
TORSDOF 6
ENDMDL
MODEL       90
REMARK 921   NORMALIZED FREE ENERGY PREDICTED BY IDOCK:   -3.45 KCAL/MOL
REMARK 922        TOTAL FREE ENERGY PREDICTED BY IDOCK:   -4.55 KCAL/MOL
REMARK 923 INTER-LIGAND FREE ENERGY PREDICTED BY IDOCK:   -4.12 KCAL/MOL
REMARK 924 INTRA-LIGAND FREE ENERGY PREDICTED BY IDOCK:   -0.43 KCAL/MOL
REMARK 927      BINDING AFFINITY PREDICTED BY RF-SCORE:    0.00 PKD
ROOT
HETATM    1  C   UNL     1     -12.186  13.690  66.272  1.00  0.00    -0.484 C  
HETATM    2  C   UNL     1     -11.368  13.565  67.562  1.00  0.00    -0.308 C  
ENDROOT
BRANCH   2   3
HETATM    3  N   UNL     1     -10.502  12.379  67.707  1.00  0.00    -0.214 NA 
BRANCH   3   4
HETATM    4  C   UNL     1      -9.103  12.376  67.231  1.00  0.00    -0.187 C  
HETATM    5  C   UNL     1      -8.073  12.186  68.353  1.00  0.00    -0.149 C  
ENDBRANCH   3   4
BRANCH   3   6
HETATM    6  C   UNL     1     -11.073  11.226  68.380  1.00  0.00    -0.240 C  
HETATM    7  S   UNL     1     -11.942  11.336  69.799  1.00  0.00    -0.368 SA 
HETATM    8 ZN   UNL     1     -11.103   9.332  69.869  1.00  0.00    -0.214 Zn 
HETATM    9  S   UNL     1      -9.373   9.074  71.047  1.00  0.00    -0.270 SA 
HETATM   10  S   UNL     1     -10.747   9.510  67.781  1.00  0.00    -0.190 SA 
HETATM   11  C   UNL     1     -10.355   7.556  71.344  1.00  0.00    -0.194 C  
HETATM   12  S   UNL     1     -11.952   7.583  70.887  1.00  0.00    -0.206 SA 
BRANCH  11  13
HETATM   13  N   UNL     1      -9.703   6.329  71.710  1.00  0.00    -0.154 NA 
BRANCH  13  14
HETATM   14  C   UNL     1      -9.559   5.248  70.740  1.00  0.00    -0.176 C  
HETATM   15  C   UNL     1      -9.765   3.897  71.424  1.00  0.00    -0.246 C  
ENDBRANCH  13  14
BRANCH  13  16
HETATM   16  C   UNL     1      -9.154   6.173  73.054  1.00  0.00    -0.130 C  
HETATM   17  C   UNL     1     -10.106   6.667  74.139  1.00  0.00    -0.390 C  
ENDBRANCH  13  16
ENDBRANCH  11  13
ENDBRANCH   3   6
ENDBRANCH   2   3
TORSDOF 6
ENDMDL
MODEL       91
REMARK 921   NORMALIZED FREE ENERGY PREDICTED BY IDOCK:   -3.44 KCAL/MOL
REMARK 922        TOTAL FREE ENERGY PREDICTED BY IDOCK:   -4.55 KCAL/MOL
REMARK 923 INTER-LIGAND FREE ENERGY PREDICTED BY IDOCK:   -4.15 KCAL/MOL
REMARK 924 INTRA-LIGAND FREE ENERGY PREDICTED BY IDOCK:   -0.40 KCAL/MOL
REMARK 927      BINDING AFFINITY PREDICTED BY RF-SCORE:    0.00 PKD
ROOT
HETATM    1  C   UNL     1      -9.726   7.738  70.135  1.00  0.00    -0.183 C  
HETATM    2  C   UNL     1      -9.316   8.636  68.961  1.00  0.00    -0.146 C  
ENDROOT
BRANCH   2   3
HETATM    3  N   UNL     1     -10.180   8.631  67.765  1.00  0.00    -0.212 NA 
BRANCH   3   4
HETATM    4  C   UNL     1     -10.675   7.373  67.168  1.00  0.00    -0.330 C  
HETATM    5  C   UNL     1      -9.560   6.482  66.604  1.00  0.00    -0.201 C  
ENDBRANCH   3   4
BRANCH   3   6
HETATM    6  C   UNL     1     -10.560   9.925  67.223  1.00  0.00    -0.252 C  
HETATM    7  S   UNL     1     -10.119  10.439  65.700  1.00  0.00    -0.249 SA 
HETATM    8 ZN   UNL     1     -10.357  12.291  66.814  1.00  0.00    -0.207 Zn 
HETATM    9  S   UNL     1      -8.593  13.190  67.539  1.00  0.00    -0.209 SA 
HETATM   10  S   UNL     1     -11.448  11.172  68.256  1.00  0.00    -0.297 SA 
HETATM   11  C   UNL     1      -9.627  14.598  66.988  1.00  0.00    -0.240 C  
HETATM   12  S   UNL     1     -10.923  14.252  66.008  1.00  0.00    -0.319 SA 
BRANCH  11  13
HETATM   13  N   UNL     1      -9.472  15.894  67.591  1.00  0.00    -0.218 NA 
BRANCH  13  14
HETATM   14  C   UNL     1     -10.613  16.568  68.203  1.00  0.00    -0.329 C  
HETATM   15  C   UNL     1     -10.714  18.003  67.687  1.00  0.00    -0.360 C  
ENDBRANCH  13  14
BRANCH  13  16
HETATM   16  C   UNL     1      -8.157  16.528  67.616  1.00  0.00    -0.163 C  
HETATM   17  C   UNL     1      -7.538  16.544  69.010  1.00  0.00    -0.233 C  
ENDBRANCH  13  16
ENDBRANCH  11  13
ENDBRANCH   3   6
ENDBRANCH   2   3
TORSDOF 6
ENDMDL
MODEL       92
REMARK 921   NORMALIZED FREE ENERGY PREDICTED BY IDOCK:   -3.43 KCAL/MOL
REMARK 922        TOTAL FREE ENERGY PREDICTED BY IDOCK:   -4.53 KCAL/MOL
REMARK 923 INTER-LIGAND FREE ENERGY PREDICTED BY IDOCK:   -4.16 KCAL/MOL
REMARK 924 INTRA-LIGAND FREE ENERGY PREDICTED BY IDOCK:   -0.37 KCAL/MOL
REMARK 927      BINDING AFFINITY PREDICTED BY RF-SCORE:    0.00 PKD
ROOT
HETATM    1  C   UNL     1      -9.387   3.737  70.514  1.00  0.00    -0.228 C  
HETATM    2  C   UNL     1     -10.103   5.088  70.403  1.00  0.00    -0.260 C  
ENDROOT
BRANCH   2   3
HETATM    3  N   UNL     1     -10.108   5.958  71.595  1.00  0.00    -0.186 NA 
BRANCH   3   4
HETATM    4  C   UNL     1      -9.634   5.477  72.910  1.00  0.00    -0.147 C  
HETATM    5  C   UNL     1     -10.294   6.190  74.098  1.00  0.00    -0.308 C  
ENDBRANCH   3   4
BRANCH   3   6
HETATM    6  C   UNL     1     -10.560   7.325  71.410  1.00  0.00    -0.211 C  
HETATM    7  S   UNL     1     -12.153   7.727  71.123  1.00  0.00    -0.252 SA 
HETATM    8 ZN   UNL     1     -11.042   9.342  70.182  1.00  0.00    -0.204 Zn 
HETATM    9  S   UNL     1     -10.783   9.218  68.093  1.00  0.00    -0.096 SA 
HETATM   10  S   UNL     1      -9.362   8.728  71.331  1.00  0.00    -0.270 SA 
HETATM   11  C   UNL     1     -11.086  10.997  68.408  1.00  0.00    -0.251 C  
HETATM   12  S   UNL     1     -11.716  11.410  69.889  1.00  0.00    -0.354 SA 
BRANCH  11  13
HETATM   13  N   UNL     1     -10.559  11.993  67.516  1.00  0.00    -0.217 NA 
BRANCH  13  14
HETATM   14  C   UNL     1      -9.694  13.056  68.020  1.00  0.00    -0.224 C  
HETATM   15  C   UNL     1      -8.252  12.556  68.118  1.00  0.00    -0.170 C  
ENDBRANCH  13  14
BRANCH  13  16
HETATM   16  C   UNL     1     -10.869  11.926  66.091  1.00  0.00    -0.292 C  
HETATM   17  C   UNL     1     -11.956  12.912  65.677  1.00  0.00    -0.490 C  
ENDBRANCH  13  16
ENDBRANCH  11  13
ENDBRANCH   3   6
ENDBRANCH   2   3
TORSDOF 6
ENDMDL
MODEL       93
REMARK 921   NORMALIZED FREE ENERGY PREDICTED BY IDOCK:   -3.42 KCAL/MOL
REMARK 922        TOTAL FREE ENERGY PREDICTED BY IDOCK:   -4.52 KCAL/MOL
REMARK 923 INTER-LIGAND FREE ENERGY PREDICTED BY IDOCK:   -4.15 KCAL/MOL
REMARK 924 INTRA-LIGAND FREE ENERGY PREDICTED BY IDOCK:   -0.37 KCAL/MOL
REMARK 927      BINDING AFFINITY PREDICTED BY RF-SCORE:    0.00 PKD
ROOT
HETATM    1  C   UNL     1      -6.965   4.245  64.672  1.00  0.00    -0.050 C  
HETATM    2  C   UNL     1      -7.083   4.795  66.098  1.00  0.00    -0.075 C  
ENDROOT
BRANCH   2   3
HETATM    3  N   UNL     1      -8.440   5.024  66.630  1.00  0.00    -0.107 NA 
BRANCH   3   4
HETATM    4  C   UNL     1      -9.481   3.976  66.583  1.00  0.00    -0.197 C  
HETATM    5  C   UNL     1      -9.359   2.939  67.707  1.00  0.00    -0.247 C  
ENDBRANCH   3   4
BRANCH   3   6
HETATM    6  C   UNL     1      -8.696   6.315  67.244  1.00  0.00    -0.105 C  
HETATM    7  S   UNL     1      -7.728   6.965  68.437  1.00  0.00    -0.118 SA 
HETATM    8 ZN   UNL     1      -9.676   7.853  68.819  1.00  0.00    -0.147 Zn 
HETATM    9  S   UNL     1     -10.831   6.974  70.349  1.00  0.00    -0.265 SA 
HETATM   10  S   UNL     1     -10.219   7.280  66.846  1.00  0.00    -0.258 SA 
HETATM   11  C   UNL     1     -11.123   8.773  70.535  1.00  0.00    -0.246 C  
HETATM   12  S   UNL     1     -10.077   9.799  69.752  1.00  0.00    -0.254 SA 
BRANCH  11  13
HETATM   13  N   UNL     1     -12.348   9.255  71.114  1.00  0.00    -0.307 NA 
BRANCH  13  14
HETATM   14  C   UNL     1     -13.026   8.490  72.157  1.00  0.00    -0.363 C  
HETATM   15  C   UNL     1     -14.287   7.836  71.593  1.00  0.00    -0.607 C  
ENDBRANCH  13  14
BRANCH  13  16
HETATM   16  C   UNL     1     -12.903  10.532  70.675  1.00  0.00    -0.325 C  
HETATM   17  C   UNL     1     -13.192  11.478  71.837  1.00  0.00    -0.479 C  
ENDBRANCH  13  16
ENDBRANCH  11  13
ENDBRANCH   3   6
ENDBRANCH   2   3
TORSDOF 6
ENDMDL
MODEL       94
REMARK 921   NORMALIZED FREE ENERGY PREDICTED BY IDOCK:   -3.39 KCAL/MOL
REMARK 922        TOTAL FREE ENERGY PREDICTED BY IDOCK:   -4.48 KCAL/MOL
REMARK 923 INTER-LIGAND FREE ENERGY PREDICTED BY IDOCK:   -4.06 KCAL/MOL
REMARK 924 INTRA-LIGAND FREE ENERGY PREDICTED BY IDOCK:   -0.42 KCAL/MOL
REMARK 927      BINDING AFFINITY PREDICTED BY RF-SCORE:    0.00 PKD
ROOT
HETATM    1  C   UNL     1      -9.398  13.223  66.719  1.00  0.00    -0.254 C  
HETATM    2  C   UNL     1      -9.025  11.779  67.073  1.00  0.00    -0.186 C  
ENDROOT
BRANCH   2   3
HETATM    3  N   UNL     1      -9.925  10.708  66.605  1.00  0.00    -0.205 NA 
BRANCH   3   4
HETATM    4  C   UNL     1     -10.035  10.354  65.175  1.00  0.00    -0.322 C  
HETATM    5  C   UNL     1      -8.742   9.774  64.585  1.00  0.00    -0.218 C  
ENDBRANCH   3   4
BRANCH   3   6
HETATM    6  C   UNL     1     -10.668   9.984  67.621  1.00  0.00    -0.284 C  
HETATM    7  S   UNL     1     -11.594  10.739  68.785  1.00  0.00    -0.238 SA 
HETATM    8 ZN   UNL     1     -11.011   8.870  69.731  1.00  0.00    -0.217 Zn 
HETATM    9  S   UNL     1      -9.392   8.960  71.079  1.00  0.00    -0.268 SA 
HETATM   10  S   UNL     1     -10.522   8.151  67.791  1.00  0.00    -0.183 SA 
HETATM   11  C   UNL     1     -10.567   7.789  71.857  1.00  0.00    -0.223 C  
HETATM   12  S   UNL     1     -12.121   7.770  71.271  1.00  0.00    -0.292 SA 
BRANCH  11  13
HETATM   13  N   UNL     1     -10.090   6.763  72.745  1.00  0.00    -0.173 NA 
BRANCH  13  14
HETATM   14  C   UNL     1      -9.478   7.116  74.023  1.00  0.00    -0.263 C  
HETATM   15  C   UNL     1      -8.052   6.570  74.090  1.00  0.00    -0.128 C  
ENDBRANCH  13  14
BRANCH  13  16
HETATM   16  C   UNL     1     -10.245   5.359  72.379  1.00  0.00    -0.195 C  
HETATM   17  C   UNL     1     -11.270   4.634  73.247  1.00  0.00    -0.411 C  
ENDBRANCH  13  16
ENDBRANCH  11  13
ENDBRANCH   3   6
ENDBRANCH   2   3
TORSDOF 6
ENDMDL
MODEL       95
REMARK 921   NORMALIZED FREE ENERGY PREDICTED BY IDOCK:   -3.38 KCAL/MOL
REMARK 922        TOTAL FREE ENERGY PREDICTED BY IDOCK:   -4.46 KCAL/MOL
REMARK 923 INTER-LIGAND FREE ENERGY PREDICTED BY IDOCK:   -3.99 KCAL/MOL
REMARK 924 INTRA-LIGAND FREE ENERGY PREDICTED BY IDOCK:   -0.46 KCAL/MOL
REMARK 927      BINDING AFFINITY PREDICTED BY RF-SCORE:    0.00 PKD
ROOT
HETATM    1  C   UNL     1      -7.975   6.968  63.592  1.00  0.00    -0.070 C  
HETATM    2  C   UNL     1      -7.412   7.172  65.003  1.00  0.00    -0.093 C  
ENDROOT
BRANCH   2   3
HETATM    3  N   UNL     1      -8.306   7.768  66.014  1.00  0.00    -0.126 NA 
BRANCH   3   4
HETATM    4  C   UNL     1      -9.198   6.938  66.850  1.00  0.00    -0.145 C  
HETATM    5  C   UNL     1     -10.560   7.588  67.127  1.00  0.00    -0.415 C  
ENDBRANCH   3   4
BRANCH   3   6
HETATM    6  C   UNL     1      -8.240   9.209  66.181  1.00  0.00    -0.111 C  
HETATM    7  S   UNL     1      -7.642   9.941  67.556  1.00  0.00    -0.091 SA 
HETATM    8 ZN   UNL     1      -9.049  11.401  66.771  1.00  0.00    -0.150 Zn 
HETATM    9  S   UNL     1     -10.956  11.454  67.672  1.00  0.00    -0.269 SA 
HETATM   10  S   UNL     1      -8.961  10.353  64.924  1.00  0.00    -0.213 SA 
HETATM   11  C   UNL     1     -10.549  13.214  67.365  1.00  0.00    -0.242 C  
HETATM   12  S   UNL     1      -8.966  13.580  67.022  1.00  0.00    -0.212 SA 
BRANCH  11  13
HETATM   13  N   UNL     1     -11.597  14.179  67.174  1.00  0.00    -0.356 NA 
BRANCH  13  14
HETATM   14  C   UNL     1     -11.743  15.305  68.092  1.00  0.00    -0.279 C  
HETATM   15  C   UNL     1     -11.779  14.804  69.536  1.00  0.00    -0.358 C  
ENDBRANCH  13  14
BRANCH  13  16
HETATM   16  C   UNL     1     -12.504  14.048  66.038  1.00  0.00    -0.455 C  
HETATM   17  C   UNL     1     -11.984  14.747  64.785  1.00  0.00    -0.408 C  
ENDBRANCH  13  16
ENDBRANCH  11  13
ENDBRANCH   3   6
ENDBRANCH   2   3
TORSDOF 6
ENDMDL
MODEL       96
REMARK 921   NORMALIZED FREE ENERGY PREDICTED BY IDOCK:   -3.37 KCAL/MOL
REMARK 922        TOTAL FREE ENERGY PREDICTED BY IDOCK:   -4.45 KCAL/MOL
REMARK 923 INTER-LIGAND FREE ENERGY PREDICTED BY IDOCK:   -4.19 KCAL/MOL
REMARK 924 INTRA-LIGAND FREE ENERGY PREDICTED BY IDOCK:   -0.26 KCAL/MOL
REMARK 927      BINDING AFFINITY PREDICTED BY RF-SCORE:    0.00 PKD
ROOT
HETATM    1  C   UNL     1      -6.035   9.534  64.819  1.00  0.00    -0.074 C  
HETATM    2  C   UNL     1      -6.411  10.684  65.760  1.00  0.00    -0.117 C  
ENDROOT
BRANCH   2   3
HETATM    3  N   UNL     1      -7.809  10.755  66.225  1.00  0.00    -0.153 NA 
BRANCH   3   4
HETATM    4  C   UNL     1      -8.823   9.770  65.794  1.00  0.00    -0.153 C  
HETATM    5  C   UNL     1      -9.632  10.218  64.570  1.00  0.00    -0.378 C  
ENDBRANCH   3   4
BRANCH   3   6
HETATM    6  C   UNL     1      -8.137  11.815  67.163  1.00  0.00    -0.169 C  
HETATM    7  S   UNL     1      -9.630  11.956  67.893  1.00  0.00    -0.199 SA 
HETATM    8 ZN   UNL     1      -8.889  13.999  67.848  1.00  0.00    -0.144 Zn 
HETATM    9  S   UNL     1      -9.619  15.235  66.303  1.00  0.00    -0.325 SA 
HETATM   10  S   UNL     1      -6.953  13.189  67.507  1.00  0.00    -0.115 SA 
HETATM   11  C   UNL     1      -9.542  16.335  67.766  1.00  0.00    -0.223 C  
HETATM   12  S   UNL     1      -9.381  15.612  69.253  1.00  0.00    -0.274 SA 
BRANCH  11  13
HETATM   13  N   UNL     1      -9.366  17.752  67.602  1.00  0.00    -0.249 NA 
BRANCH  13  14
HETATM   14  C   UNL     1      -8.032  18.316  67.420  1.00  0.00    -0.231 C  
HETATM   15  C   UNL     1      -7.538  18.930  68.730  1.00  0.00    -0.368 C  
ENDBRANCH  13  14
BRANCH  13  16
HETATM   16  C   UNL     1     -10.532  18.630  67.588  1.00  0.00    -0.423 C  
HETATM   17  C   UNL     1     -10.313  19.886  66.751  1.00  0.00    -0.599 C  
ENDBRANCH  13  16
ENDBRANCH  11  13
ENDBRANCH   3   6
ENDBRANCH   2   3
TORSDOF 6
ENDMDL
MODEL       97
REMARK 921   NORMALIZED FREE ENERGY PREDICTED BY IDOCK:   -3.37 KCAL/MOL
REMARK 922        TOTAL FREE ENERGY PREDICTED BY IDOCK:   -4.45 KCAL/MOL
REMARK 923 INTER-LIGAND FREE ENERGY PREDICTED BY IDOCK:   -3.98 KCAL/MOL
REMARK 924 INTRA-LIGAND FREE ENERGY PREDICTED BY IDOCK:   -0.46 KCAL/MOL
REMARK 927      BINDING AFFINITY PREDICTED BY RF-SCORE:    0.00 PKD
ROOT
HETATM    1  C   UNL     1     -11.909  12.850  64.035  1.00  0.00    -0.512 C  
HETATM    2  C   UNL     1     -11.859  12.634  65.552  1.00  0.00    -0.431 C  
ENDROOT
BRANCH   2   3
HETATM    3  N   UNL     1     -10.565  12.850  66.229  1.00  0.00    -0.263 NA 
BRANCH   3   4
HETATM    4  C   UNL     1      -9.995  14.203  66.402  1.00  0.00    -0.293 C  
HETATM    5  C   UNL     1     -10.952  15.189  67.085  1.00  0.00    -0.326 C  
ENDBRANCH   3   4
BRANCH   3   6
HETATM    6  C   UNL     1      -9.895  11.675  66.757  1.00  0.00    -0.200 C  
HETATM    7  S   UNL     1     -10.252  10.123  66.263  1.00  0.00    -0.190 SA 
HETATM    8 ZN   UNL     1      -9.514   9.856  68.290  1.00  0.00    -0.132 Zn 
HETATM    9  S   UNL     1     -10.967   9.620  69.800  1.00  0.00    -0.225 SA 
HETATM   10  S   UNL     1      -8.683  11.806  68.144  1.00  0.00    -0.172 SA 
HETATM   11  C   UNL     1      -9.635   8.452  70.266  1.00  0.00    -0.165 C  
HETATM   12  S   UNL     1      -8.507   8.084  69.104  1.00  0.00    -0.137 SA 
BRANCH  11  13
HETATM   13  N   UNL     1      -9.438   8.086  71.641  1.00  0.00    -0.155 NA 
BRANCH  13  14
HETATM   14  C   UNL     1     -10.472   7.356  72.370  1.00  0.00    -0.233 C  
HETATM   15  C   UNL     1     -10.959   6.167  71.541  1.00  0.00    -0.328 C  
ENDBRANCH  13  14
BRANCH  13  16
HETATM   16  C   UNL     1      -8.182   8.420  72.307  1.00  0.00    -0.140 C  
HETATM   17  C   UNL     1      -7.415   7.185  72.771  1.00  0.00    -0.082 C  
ENDBRANCH  13  16
ENDBRANCH  11  13
ENDBRANCH   3   6
ENDBRANCH   2   3
TORSDOF 6
ENDMDL
MODEL       98
REMARK 921   NORMALIZED FREE ENERGY PREDICTED BY IDOCK:   -3.36 KCAL/MOL
REMARK 922        TOTAL FREE ENERGY PREDICTED BY IDOCK:   -4.44 KCAL/MOL
REMARK 923 INTER-LIGAND FREE ENERGY PREDICTED BY IDOCK:   -4.12 KCAL/MOL
REMARK 924 INTRA-LIGAND FREE ENERGY PREDICTED BY IDOCK:   -0.32 KCAL/MOL
REMARK 927      BINDING AFFINITY PREDICTED BY RF-SCORE:    0.00 PKD
ROOT
HETATM    1  C   UNL     1      -7.723   6.703  67.811  1.00  0.00    -0.107 C  
HETATM    2  C   UNL     1      -7.617   7.533  66.527  1.00  0.00    -0.089 C  
ENDROOT
BRANCH   2   3
HETATM    3  N   UNL     1      -8.216   8.881  66.535  1.00  0.00    -0.113 NA 
BRANCH   3   4
HETATM    4  C   UNL     1      -7.956   9.856  65.455  1.00  0.00    -0.128 C  
HETATM    5  C   UNL     1      -8.850   9.659  64.224  1.00  0.00    -0.260 C  
ENDBRANCH   3   4
BRANCH   3   6
HETATM    6  C   UNL     1      -9.112   9.195  67.635  1.00  0.00    -0.122 C  
HETATM    7  S   UNL     1     -10.708   8.714  67.675  1.00  0.00    -0.026 SA 
HETATM    8 ZN   UNL     1     -10.688  10.519  68.887  1.00  0.00    -0.162 Zn 
HETATM    9  S   UNL     1     -11.332  12.294  67.948  1.00  0.00    -0.321 SA 
HETATM   10  S   UNL     1      -8.579  10.292  69.021  1.00  0.00    -0.171 SA 
HETATM   11  C   UNL     1     -12.016  12.404  69.644  1.00  0.00    -0.274 C  
HETATM   12  S   UNL     1     -12.039  11.009  70.546  1.00  0.00    -0.399 SA 
BRANCH  11  13
HETATM   13  N   UNL     1     -12.272  13.685  70.243  1.00  0.00    -0.349 NA 
BRANCH  13  14
HETATM   14  C   UNL     1     -11.952  14.916  69.525  1.00  0.00    -0.310 C  
HETATM   15  C   UNL     1     -10.769  15.619  70.192  1.00  0.00    -0.355 C  
ENDBRANCH  13  14
BRANCH  13  16
HETATM   16  C   UNL     1     -12.884  13.756  71.566  1.00  0.00    -0.362 C  
HETATM   17  C   UNL     1     -14.102  14.675  71.603  1.00  0.00    -0.571 C  
ENDBRANCH  13  16
ENDBRANCH  11  13
ENDBRANCH   3   6
ENDBRANCH   2   3
TORSDOF 6
ENDMDL
MODEL       99
REMARK 921   NORMALIZED FREE ENERGY PREDICTED BY IDOCK:   -3.36 KCAL/MOL
REMARK 922        TOTAL FREE ENERGY PREDICTED BY IDOCK:   -4.43 KCAL/MOL
REMARK 923 INTER-LIGAND FREE ENERGY PREDICTED BY IDOCK:   -4.20 KCAL/MOL
REMARK 924 INTRA-LIGAND FREE ENERGY PREDICTED BY IDOCK:   -0.23 KCAL/MOL
REMARK 927      BINDING AFFINITY PREDICTED BY RF-SCORE:    0.00 PKD
ROOT
HETATM    1  C   UNL     1     -11.797  11.737  68.861  1.00  0.00    -0.381 C  
HETATM    2  C   UNL     1     -10.987  10.470  68.562  1.00  0.00    -0.252 C  
ENDROOT
BRANCH   2   3
HETATM    3  N   UNL     1     -10.185  10.450  67.323  1.00  0.00    -0.200 NA 
BRANCH   3   4
HETATM    4  C   UNL     1     -10.164   9.273  66.429  1.00  0.00    -0.228 C  
HETATM    5  C   UNL     1      -9.367   9.499  65.137  1.00  0.00    -0.316 C  
ENDBRANCH   3   4
BRANCH   3   6
HETATM    6  C   UNL     1      -9.448  11.658  66.998  1.00  0.00    -0.182 C  
HETATM    7  S   UNL     1      -7.938  11.999  67.617  1.00  0.00    -0.162 SA 
HETATM    8 ZN   UNL     1      -8.782  13.963  67.221  1.00  0.00    -0.148 Zn 
HETATM    9  S   UNL     1      -9.600  14.990  68.872  1.00  0.00    -0.222 SA 
HETATM   10  S   UNL     1     -10.206  12.996  65.974  1.00  0.00    -0.290 SA 
HETATM   11  C   UNL     1      -8.760  16.294  67.896  1.00  0.00    -0.175 C  
HETATM   12  S   UNL     1      -7.680  15.798  66.735  1.00  0.00    -0.104 SA 
BRANCH  11  13
HETATM   13  N   UNL     1      -9.215  17.656  67.961  1.00  0.00    -0.264 NA 
BRANCH  13  14
HETATM   14  C   UNL     1     -10.511  18.031  67.403  1.00  0.00    -0.387 C  
HETATM   15  C   UNL     1     -10.481  17.911  65.879  1.00  0.00    -0.253 C  
ENDBRANCH  13  14
BRANCH  13  16
HETATM   16  C   UNL     1      -8.388  18.665  68.615  1.00  0.00    -0.313 C  
HETATM   17  C   UNL     1      -7.905  19.745  67.651  1.00  0.00    -0.326 C  
ENDBRANCH  13  16
ENDBRANCH  11  13
ENDBRANCH   3   6
ENDBRANCH   2   3
TORSDOF 6
ENDMDL
MODEL      100
REMARK 921   NORMALIZED FREE ENERGY PREDICTED BY IDOCK:   -3.33 KCAL/MOL
REMARK 922        TOTAL FREE ENERGY PREDICTED BY IDOCK:   -4.39 KCAL/MOL
REMARK 923 INTER-LIGAND FREE ENERGY PREDICTED BY IDOCK:   -4.05 KCAL/MOL
REMARK 924 INTRA-LIGAND FREE ENERGY PREDICTED BY IDOCK:   -0.34 KCAL/MOL
REMARK 927      BINDING AFFINITY PREDICTED BY RF-SCORE:    0.00 PKD
ROOT
HETATM    1  C   UNL     1     -10.151   9.597  67.716  1.00  0.00    -0.232 C  
HETATM    2  C   UNL     1     -10.463   9.938  66.254  1.00  0.00    -0.101 C  
ENDROOT
BRANCH   2   3
HETATM    3  N   UNL     1     -10.096  11.285  65.776  1.00  0.00    -0.237 NA 
BRANCH   3   4
HETATM    4  C   UNL     1     -10.202  11.660  64.350  1.00  0.00    -0.300 C  
HETATM    5  C   UNL     1     -11.371  12.608  64.051  1.00  0.00    -0.466 C  
ENDBRANCH   3   4
BRANCH   3   6
HETATM    6  C   UNL     1      -9.665  12.244  66.778  1.00  0.00    -0.213 C  
HETATM    7  S   UNL     1     -10.729  13.154  67.685  1.00  0.00    -0.242 SA 
HETATM    8 ZN   UNL     1      -8.936  14.382  67.616  1.00  0.00    -0.158 Zn 
HETATM    9  S   UNL     1      -8.921  15.952  66.208  1.00  0.00    -0.349 SA 
HETATM   10  S   UNL     1      -7.878  12.637  67.021  1.00  0.00     0.038 SA 
HETATM   11  C   UNL     1      -8.099  16.658  67.686  1.00  0.00    -0.171 C  
HETATM   12  S   UNL     1      -8.277  15.839  69.119  1.00  0.00    -0.254 SA 
BRANCH  11  13
HETATM   13  N   UNL     1      -7.139  17.719  67.546  1.00  0.00    -0.183 NA 
BRANCH  13  14
HETATM   14  C   UNL     1      -7.225  18.911  68.384  1.00  0.00    -0.280 C  
HETATM   15  C   UNL     1      -8.595  19.569  68.222  1.00  0.00    -0.380 C  
ENDBRANCH  13  14
BRANCH  13  16
HETATM   16  C   UNL     1      -6.053  17.590  66.578  1.00  0.00    -0.213 C  
HETATM   17  C   UNL     1      -6.255  18.467  65.347  1.00  0.00    -0.307 C  
ENDBRANCH  13  16
ENDBRANCH  11  13
ENDBRANCH   3   6
ENDBRANCH   2   3
TORSDOF 6
ENDMDL
MODEL      101
REMARK 921   NORMALIZED FREE ENERGY PREDICTED BY IDOCK:   -3.32 KCAL/MOL
REMARK 922        TOTAL FREE ENERGY PREDICTED BY IDOCK:   -4.39 KCAL/MOL
REMARK 923 INTER-LIGAND FREE ENERGY PREDICTED BY IDOCK:   -4.02 KCAL/MOL
REMARK 924 INTRA-LIGAND FREE ENERGY PREDICTED BY IDOCK:   -0.37 KCAL/MOL
REMARK 927      BINDING AFFINITY PREDICTED BY RF-SCORE:    0.00 PKD
ROOT
HETATM    1  C   UNL     1      -6.709   5.838  70.968  1.00  0.00    -0.053 C  
HETATM    2  C   UNL     1      -7.688   7.017  70.909  1.00  0.00    -0.095 C  
ENDROOT
BRANCH   2   3
HETATM    3  N   UNL     1      -7.872   7.685  69.606  1.00  0.00    -0.106 NA 
BRANCH   3   4
HETATM    4  C   UNL     1      -7.246   7.169  68.372  1.00  0.00    -0.091 C  
HETATM    5  C   UNL     1      -8.196   7.140  67.167  1.00  0.00    -0.118 C  
ENDBRANCH   3   4
BRANCH   3   6
HETATM    6  C   UNL     1      -8.735   8.854  69.583  1.00  0.00    -0.140 C  
HETATM    7  S   UNL     1     -10.385   8.773  69.810  1.00  0.00    -0.215 SA 
HETATM    8 ZN   UNL     1     -10.125  10.551  68.586  1.00  0.00    -0.147 Zn 
HETATM    9  S   UNL     1     -10.481  10.333  66.519  1.00  0.00    -0.132 SA 
HETATM   10  S   UNL     1      -8.075  10.523  69.148  1.00  0.00    -0.142 SA 
HETATM   11  C   UNL     1     -11.177  11.977  66.929  1.00  0.00    -0.320 C  
HETATM   12  S   UNL     1     -11.423  12.319  68.536  1.00  0.00    -0.327 SA 
BRANCH  11  13
HETATM   13  N   UNL     1     -11.254  13.005  65.927  1.00  0.00    -0.284 NA 
BRANCH  13  14
HETATM   14  C   UNL     1     -10.175  13.977  65.777  1.00  0.00    -0.328 C  
HETATM   15  C   UNL     1     -10.692  15.231  65.072  1.00  0.00    -0.461 C  
ENDBRANCH  13  14
BRANCH  13  16
HETATM   16  C   UNL     1     -12.407  13.058  65.032  1.00  0.00    -0.473 C  
HETATM   17  C   UNL     1     -12.264  12.128  63.831  1.00  0.00    -0.587 C  
ENDBRANCH  13  16
ENDBRANCH  11  13
ENDBRANCH   3   6
ENDBRANCH   2   3
TORSDOF 6
ENDMDL
MODEL      102
REMARK 921   NORMALIZED FREE ENERGY PREDICTED BY IDOCK:   -3.32 KCAL/MOL
REMARK 922        TOTAL FREE ENERGY PREDICTED BY IDOCK:   -4.38 KCAL/MOL
REMARK 923 INTER-LIGAND FREE ENERGY PREDICTED BY IDOCK:   -3.93 KCAL/MOL
REMARK 924 INTRA-LIGAND FREE ENERGY PREDICTED BY IDOCK:   -0.45 KCAL/MOL
REMARK 927      BINDING AFFINITY PREDICTED BY RF-SCORE:    0.00 PKD
ROOT
HETATM    1  C   UNL     1     -11.815  14.190  68.361  1.00  0.00    -0.388 C  
HETATM    2  C   UNL     1     -11.799  13.036  67.352  1.00  0.00    -0.357 C  
ENDROOT
BRANCH   2   3
HETATM    3  N   UNL     1     -10.976  13.202  66.139  1.00  0.00    -0.281 NA 
BRANCH   3   4
HETATM    4  C   UNL     1     -10.991  14.455  65.355  1.00  0.00    -0.339 C  
HETATM    5  C   UNL     1     -12.187  14.566  64.399  1.00  0.00    -0.480 C  
ENDBRANCH   3   4
BRANCH   3   6
HETATM    6  C   UNL     1     -10.114  12.092  65.772  1.00  0.00    -0.247 C  
HETATM    7  S   UNL     1     -10.403  11.111  64.455  1.00  0.00    -0.351 SA 
HETATM    8 ZN   UNL     1      -9.297   9.826  65.817  1.00  0.00    -0.145 Zn 
HETATM    9  S   UNL     1     -10.433   8.473  66.969  1.00  0.00    -0.239 SA 
HETATM   10  S   UNL     1      -8.695  11.588  66.841  1.00  0.00    -0.186 SA 
HETATM   11  C   UNL     1      -8.934   7.527  66.504  1.00  0.00    -0.162 C  
HETATM   12  S   UNL     1      -7.998   8.142  65.277  1.00  0.00    -0.133 SA 
BRANCH  11  13
HETATM   13  N   UNL     1      -8.463   6.456  67.338  1.00  0.00    -0.109 NA 
BRANCH  13  14
HETATM   14  C   UNL     1      -9.138   5.161  67.332  1.00  0.00    -0.113 C  
HETATM   15  C   UNL     1      -9.892   4.956  68.646  1.00  0.00    -0.221 C  
ENDBRANCH  13  14
BRANCH  13  16
HETATM   16  C   UNL     1      -7.284   6.654  68.175  1.00  0.00    -0.088 C  
HETATM   17  C   UNL     1      -7.499   7.709  69.256  1.00  0.00    -0.094 C  
ENDBRANCH  13  16
ENDBRANCH  11  13
ENDBRANCH   3   6
ENDBRANCH   2   3
TORSDOF 6
ENDMDL
MODEL      103
REMARK 921   NORMALIZED FREE ENERGY PREDICTED BY IDOCK:   -3.32 KCAL/MOL
REMARK 922        TOTAL FREE ENERGY PREDICTED BY IDOCK:   -4.37 KCAL/MOL
REMARK 923 INTER-LIGAND FREE ENERGY PREDICTED BY IDOCK:   -4.08 KCAL/MOL
REMARK 924 INTRA-LIGAND FREE ENERGY PREDICTED BY IDOCK:   -0.29 KCAL/MOL
REMARK 927      BINDING AFFINITY PREDICTED BY RF-SCORE:    0.00 PKD
ROOT
HETATM    1  C   UNL     1     -10.554  18.004  67.650  1.00  0.00    -0.413 C  
HETATM    2  C   UNL     1     -11.033  16.570  67.903  1.00  0.00    -0.288 C  
ENDROOT
BRANCH   2   3
HETATM    3  N   UNL     1     -10.580  15.524  66.965  1.00  0.00    -0.306 NA 
BRANCH   3   4
HETATM    4  C   UNL     1     -10.716  15.681  65.502  1.00  0.00    -0.389 C  
HETATM    5  C   UNL     1     -10.952  14.356  64.763  1.00  0.00    -0.409 C  
ENDBRANCH   3   4
BRANCH   3   6
HETATM    6  C   UNL     1      -9.953  14.349  67.544  1.00  0.00    -0.224 C  
HETATM    7  S   UNL     1      -8.309  14.077  67.498  1.00  0.00    -0.204 SA 
HETATM    8 ZN   UNL     1      -9.154  12.077  67.599  1.00  0.00    -0.149 Zn 
HETATM    9  S   UNL     1      -9.297  11.019  65.780  1.00  0.00    -0.218 SA 
HETATM   10  S   UNL     1     -10.964  12.977  68.256  1.00  0.00    -0.273 SA 
HETATM   11  C   UNL     1      -8.798   9.751  67.005  1.00  0.00    -0.135 C  
HETATM   12  S   UNL     1      -8.216  10.291  68.464  1.00  0.00    -0.117 SA 
BRANCH  11  13
HETATM   13  N   UNL     1      -9.143   8.370  66.804  1.00  0.00    -0.149 NA 
BRANCH  13  14
HETATM   14  C   UNL     1     -10.499   7.899  67.071  1.00  0.00    -0.349 C  
HETATM   15  C   UNL     1     -10.575   7.285  68.469  1.00  0.00    -0.207 C  
ENDBRANCH  13  14
BRANCH  13  16
HETATM   16  C   UNL     1      -8.138   7.439  66.301  1.00  0.00    -0.117 C  
HETATM   17  C   UNL     1      -8.754   6.198  65.660  1.00  0.00    -0.133 C  
ENDBRANCH  13  16
ENDBRANCH  11  13
ENDBRANCH   3   6
ENDBRANCH   2   3
TORSDOF 6
ENDMDL
MODEL      104
REMARK 921   NORMALIZED FREE ENERGY PREDICTED BY IDOCK:   -3.31 KCAL/MOL
REMARK 922        TOTAL FREE ENERGY PREDICTED BY IDOCK:   -4.36 KCAL/MOL
REMARK 923 INTER-LIGAND FREE ENERGY PREDICTED BY IDOCK:   -4.15 KCAL/MOL
REMARK 924 INTRA-LIGAND FREE ENERGY PREDICTED BY IDOCK:   -0.22 KCAL/MOL
REMARK 927      BINDING AFFINITY PREDICTED BY RF-SCORE:    0.00 PKD
ROOT
HETATM    1  C   UNL     1      -8.027   8.205  73.732  1.00  0.00    -0.266 C  
HETATM    2  C   UNL     1      -7.947   7.955  72.221  1.00  0.00    -0.121 C  
ENDROOT
BRANCH   2   3
HETATM    3  N   UNL     1      -9.213   7.954  71.463  1.00  0.00    -0.133 NA 
BRANCH   3   4
HETATM    4  C   UNL     1     -10.133   6.798  71.487  1.00  0.00    -0.181 C  
HETATM    5  C   UNL     1     -11.068   6.784  72.705  1.00  0.00    -0.301 C  
ENDBRANCH   3   4
BRANCH   3   6
HETATM    6  C   UNL     1      -9.537   9.161  70.722  1.00  0.00    -0.275 C  
HETATM    7  S   UNL     1     -11.064   9.829  70.691  1.00  0.00    -0.354 SA 
HETATM    8 ZN   UNL     1     -10.192  10.462  68.803  1.00  0.00    -0.150 Zn 
HETATM    9  S   UNL     1     -10.732   9.352  67.094  1.00  0.00    -0.071 SA 
HETATM   10  S   UNL     1      -8.293   9.973  69.625  1.00  0.00    -0.161 SA 
HETATM   11  C   UNL     1     -10.686  11.089  66.512  1.00  0.00    -0.241 C  
HETATM   12  S   UNL     1     -10.676  12.279  67.671  1.00  0.00    -0.228 SA 
BRANCH  11  13
HETATM   13  N   UNL     1     -10.409  11.386  65.133  1.00  0.00    -0.276 NA 
BRANCH  13  14
HETATM   14  C   UNL     1     -10.638  12.727  64.604  1.00  0.00    -0.349 C  
HETATM   15  C   UNL     1     -12.006  12.797  63.926  1.00  0.00    -0.554 C  
ENDBRANCH  13  14
BRANCH  13  16
HETATM   16  C   UNL     1      -9.866  10.347  64.263  1.00  0.00    -0.322 C  
HETATM   17  C   UNL     1      -8.349  10.223  64.369  1.00  0.00    -0.166 C  
ENDBRANCH  13  16
ENDBRANCH  11  13
ENDBRANCH   3   6
ENDBRANCH   2   3
TORSDOF 6
ENDMDL
MODEL      105
REMARK 921   NORMALIZED FREE ENERGY PREDICTED BY IDOCK:   -3.30 KCAL/MOL
REMARK 922        TOTAL FREE ENERGY PREDICTED BY IDOCK:   -4.36 KCAL/MOL
REMARK 923 INTER-LIGAND FREE ENERGY PREDICTED BY IDOCK:   -4.05 KCAL/MOL
REMARK 924 INTRA-LIGAND FREE ENERGY PREDICTED BY IDOCK:   -0.30 KCAL/MOL
REMARK 927      BINDING AFFINITY PREDICTED BY RF-SCORE:    0.00 PKD
ROOT
HETATM    1  C   UNL     1     -11.597  12.333  65.873  1.00  0.00    -0.450 C  
HETATM    2  C   UNL     1     -10.424  11.774  66.687  1.00  0.00    -0.224 C  
ENDROOT
BRANCH   2   3
HETATM    3  N   UNL     1     -10.716  11.258  68.038  1.00  0.00    -0.191 NA 
BRANCH   3   4
HETATM    4  C   UNL     1     -11.566  12.005  68.989  1.00  0.00    -0.313 C  
HETATM    5  C   UNL     1     -12.240  11.114  70.040  1.00  0.00    -0.402 C  
ENDBRANCH   3   4
BRANCH   3   6
HETATM    6  C   UNL     1     -10.164   9.959  68.380  1.00  0.00    -0.178 C  
HETATM    7  S   UNL     1     -10.632   8.545  67.631  1.00  0.00    -0.139 SA 
HETATM    8 ZN   UNL     1      -9.986   7.889  69.601  1.00  0.00    -0.172 Zn 
HETATM    9  S   UNL     1     -11.503   7.541  71.024  1.00  0.00    -0.282 SA 
HETATM   10  S   UNL     1      -8.991   9.758  69.792  1.00  0.00    -0.221 SA 
HETATM   11  C   UNL     1     -10.289   6.201  71.317  1.00  0.00    -0.217 C  
HETATM   12  S   UNL     1      -9.157   5.928  70.132  1.00  0.00    -0.146 SA 
BRANCH  11  13
HETATM   13  N   UNL     1     -10.168   5.601  72.617  1.00  0.00    -0.181 NA 
BRANCH  13  14
HETATM   14  C   UNL     1      -8.910   5.678  73.355  1.00  0.00    -0.123 C  
HETATM   15  C   UNL     1      -8.755   7.062  73.985  1.00  0.00    -0.200 C  
ENDBRANCH  13  14
BRANCH  13  16
HETATM   16  C   UNL     1     -11.320   4.936  73.218  1.00  0.00    -0.327 C  
HETATM   17  C   UNL     1     -11.116   3.432  73.375  1.00  0.00    -0.288 C  
ENDBRANCH  13  16
ENDBRANCH  11  13
ENDBRANCH   3   6
ENDBRANCH   2   3
TORSDOF 6
ENDMDL
MODEL      106
REMARK 921   NORMALIZED FREE ENERGY PREDICTED BY IDOCK:   -3.29 KCAL/MOL
REMARK 922        TOTAL FREE ENERGY PREDICTED BY IDOCK:   -4.34 KCAL/MOL
REMARK 923 INTER-LIGAND FREE ENERGY PREDICTED BY IDOCK:   -3.93 KCAL/MOL
REMARK 924 INTRA-LIGAND FREE ENERGY PREDICTED BY IDOCK:   -0.41 KCAL/MOL
REMARK 927      BINDING AFFINITY PREDICTED BY RF-SCORE:    0.00 PKD
ROOT
HETATM    1  C   UNL     1     -11.150   6.468  67.056  1.00  0.00    -0.411 C  
HETATM    2  C   UNL     1      -9.777   5.975  66.586  1.00  0.00    -0.157 C  
ENDROOT
BRANCH   2   3
HETATM    3  N   UNL     1      -8.588   6.499  67.286  1.00  0.00    -0.112 NA 
BRANCH   3   4
HETATM    4  C   UNL     1      -7.641   5.606  67.987  1.00  0.00    -0.085 C  
HETATM    5  C   UNL     1      -6.336   5.371  67.215  1.00  0.00    -0.039 C  
ENDBRANCH   3   4
BRANCH   3   6
HETATM    6  C   UNL     1      -8.366   7.933  67.220  1.00  0.00    -0.122 C  
HETATM    7  S   UNL     1      -8.047   8.869  68.563  1.00  0.00    -0.109 SA 
HETATM    8 ZN   UNL     1      -8.983  10.261  67.179  1.00  0.00    -0.128 Zn 
HETATM    9  S   UNL     1     -11.030  10.664  67.486  1.00  0.00    -0.297 SA 
HETATM   10  S   UNL     1      -8.568   8.860  65.636  1.00  0.00    -0.176 SA 
HETATM   11  C   UNL     1     -10.315  12.283  67.013  1.00  0.00    -0.219 C  
HETATM   12  S   UNL     1      -8.662  12.430  67.072  1.00  0.00    -0.196 SA 
BRANCH  11  13
HETATM   13  N   UNL     1     -11.131  13.279  66.375  1.00  0.00    -0.292 NA 
BRANCH  13  14
HETATM   14  C   UNL     1     -11.058  13.484  64.931  1.00  0.00    -0.346 C  
HETATM   15  C   UNL     1     -12.123  14.487  64.488  1.00  0.00    -0.501 C  
ENDBRANCH  13  14
BRANCH  13  16
HETATM   16  C   UNL     1     -12.061  14.073  67.173  1.00  0.00    -0.401 C  
HETATM   17  C   UNL     1     -11.352  15.047  68.109  1.00  0.00    -0.343 C  
ENDBRANCH  13  16
ENDBRANCH  11  13
ENDBRANCH   3   6
ENDBRANCH   2   3
TORSDOF 6
ENDMDL
MODEL      107
REMARK 921   NORMALIZED FREE ENERGY PREDICTED BY IDOCK:   -3.29 KCAL/MOL
REMARK 922        TOTAL FREE ENERGY PREDICTED BY IDOCK:   -4.34 KCAL/MOL
REMARK 923 INTER-LIGAND FREE ENERGY PREDICTED BY IDOCK:   -3.88 KCAL/MOL
REMARK 924 INTRA-LIGAND FREE ENERGY PREDICTED BY IDOCK:   -0.46 KCAL/MOL
REMARK 927      BINDING AFFINITY PREDICTED BY RF-SCORE:    0.00 PKD
ROOT
HETATM    1  C   UNL     1      -8.666   5.011  69.266  1.00  0.00    -0.107 C  
HETATM    2  C   UNL     1      -8.211   6.344  69.872  1.00  0.00    -0.126 C  
ENDROOT
BRANCH   2   3
HETATM    3  N   UNL     1      -8.075   7.496  68.959  1.00  0.00    -0.125 NA 
BRANCH   3   4
HETATM    4  C   UNL     1      -7.150   7.471  67.807  1.00  0.00    -0.085 C  
HETATM    5  C   UNL     1      -7.860   7.326  66.454  1.00  0.00    -0.106 C  
ENDBRANCH   3   4
BRANCH   3   6
HETATM    6  C   UNL     1      -8.926   8.644  69.220  1.00  0.00    -0.145 C  
HETATM    7  S   UNL     1     -10.576   8.528  69.427  1.00  0.00    -0.156 SA 
HETATM    8 ZN   UNL     1     -10.299  10.544  68.662  1.00  0.00    -0.151 Zn 
HETATM    9  S   UNL     1     -10.661  10.830  66.604  1.00  0.00    -0.203 SA 
HETATM   10  S   UNL     1      -8.249  10.362  69.194  1.00  0.00    -0.156 SA 
HETATM   11  C   UNL     1     -11.339  12.336  67.399  1.00  0.00    -0.325 C  
HETATM   12  S   UNL     1     -11.579  12.286  69.042  1.00  0.00    -0.332 SA 
BRANCH  11  13
HETATM   13  N   UNL     1     -11.407  13.573  66.671  1.00  0.00    -0.313 NA 
BRANCH  13  14
HETATM   14  C   UNL     1     -12.538  13.854  65.791  1.00  0.00    -0.494 C  
HETATM   15  C   UNL     1     -12.051  14.046  64.355  1.00  0.00    -0.486 C  
ENDBRANCH  13  14
BRANCH  13  16
HETATM   16  C   UNL     1     -10.353  14.569  66.836  1.00  0.00    -0.264 C  
HETATM   17  C   UNL     1     -10.855  15.858  67.480  1.00  0.00    -0.305 C  
ENDBRANCH  13  16
ENDBRANCH  11  13
ENDBRANCH   3   6
ENDBRANCH   2   3
TORSDOF 6
ENDMDL
MODEL      108
REMARK 921   NORMALIZED FREE ENERGY PREDICTED BY IDOCK:   -3.29 KCAL/MOL
REMARK 922        TOTAL FREE ENERGY PREDICTED BY IDOCK:   -4.34 KCAL/MOL
REMARK 923 INTER-LIGAND FREE ENERGY PREDICTED BY IDOCK:   -4.12 KCAL/MOL
REMARK 924 INTRA-LIGAND FREE ENERGY PREDICTED BY IDOCK:   -0.21 KCAL/MOL
REMARK 927      BINDING AFFINITY PREDICTED BY RF-SCORE:    0.00 PKD
ROOT
HETATM    1  C   UNL     1     -11.939  12.032  63.553  1.00  0.00    -0.605 C  
HETATM    2  C   UNL     1     -10.771  12.224  64.528  1.00  0.00    -0.319 C  
ENDROOT
BRANCH   2   3
HETATM    3  N   UNL     1     -11.094  12.351  65.962  1.00  0.00    -0.295 NA 
BRANCH   3   4
HETATM    4  C   UNL     1     -12.212  13.193  66.436  1.00  0.00    -0.329 C  
HETATM    5  C   UNL     1     -11.760  14.532  67.036  1.00  0.00    -0.412 C  
ENDBRANCH   3   4
BRANCH   3   6
HETATM    6  C   UNL     1     -10.289  11.575  66.888  1.00  0.00    -0.223 C  
HETATM    7  S   UNL     1      -8.648  11.347  66.699  1.00  0.00    -0.171 SA 
HETATM    8 ZN   UNL     1      -9.283   9.587  67.806  1.00  0.00    -0.122 Zn 
HETATM    9  S   UNL     1      -9.574   7.822  66.688  1.00  0.00    -0.214 SA 
HETATM   10  S   UNL     1     -11.063  10.646  68.285  1.00  0.00    -0.291 SA 
HETATM   11  C   UNL     1      -8.799   7.250  68.246  1.00  0.00    -0.127 C  
HETATM   12  S   UNL     1      -8.075   8.400  69.203  1.00  0.00    -0.120 SA 
BRANCH  11  13
HETATM   13  N   UNL     1      -9.039   5.919  68.732  1.00  0.00    -0.116 NA 
BRANCH  13  14
HETATM   14  C   UNL     1     -10.084   5.668  69.720  1.00  0.00    -0.218 C  
HETATM   15  C   UNL     1     -11.382   6.355  69.297  1.00  0.00    -0.405 C  
ENDBRANCH  13  14
BRANCH  13  16
HETATM   16  C   UNL     1      -8.252   4.805  68.211  1.00  0.00    -0.088 C  
HETATM   17  C   UNL     1      -7.001   5.265  67.468  1.00  0.00    -0.065 C  
ENDBRANCH  13  16
ENDBRANCH  11  13
ENDBRANCH   3   6
ENDBRANCH   2   3
TORSDOF 6
ENDMDL
MODEL      109
REMARK 921   NORMALIZED FREE ENERGY PREDICTED BY IDOCK:   -3.28 KCAL/MOL
REMARK 922        TOTAL FREE ENERGY PREDICTED BY IDOCK:   -4.33 KCAL/MOL
REMARK 923 INTER-LIGAND FREE ENERGY PREDICTED BY IDOCK:   -3.93 KCAL/MOL
REMARK 924 INTRA-LIGAND FREE ENERGY PREDICTED BY IDOCK:   -0.39 KCAL/MOL
REMARK 927      BINDING AFFINITY PREDICTED BY RF-SCORE:    0.00 PKD
ROOT
HETATM    1  C   UNL     1      -8.911   7.893  73.732  1.00  0.00    -0.332 C  
HETATM    2  C   UNL     1      -8.289   6.708  72.984  1.00  0.00    -0.117 C  
ENDROOT
BRANCH   2   3
HETATM    3  N   UNL     1      -9.206   5.781  72.293  1.00  0.00    -0.145 NA 
BRANCH   3   4
HETATM    4  C   UNL     1      -9.732   4.570  72.957  1.00  0.00    -0.137 C  
HETATM    5  C   UNL     1     -11.148   4.747  73.522  1.00  0.00    -0.412 C  
ENDBRANCH   3   4
BRANCH   3   6
HETATM    6  C   UNL     1      -9.604   6.135  70.942  1.00  0.00    -0.173 C  
HETATM    7  S   UNL     1      -8.609   5.940  69.618  1.00  0.00    -0.122 SA 
HETATM    8 ZN   UNL     1      -9.912   7.582  69.041  1.00  0.00    -0.156 Zn 
HETATM    9  S   UNL     1      -9.124   9.528  69.244  1.00  0.00    -0.172 SA 
HETATM   10  S   UNL     1     -11.214   6.976  70.608  1.00  0.00    -0.303 SA 
HETATM   11  C   UNL     1     -10.079   9.585  67.681  1.00  0.00    -0.205 C  
HETATM   12  S   UNL     1     -10.516   8.132  67.004  1.00  0.00    -0.276 SA 
BRANCH  11  13
HETATM   13  N   UNL     1     -10.638  10.825  67.216  1.00  0.00    -0.241 NA 
BRANCH  13  14
HETATM   14  C   UNL     1     -11.784  11.422  67.897  1.00  0.00    -0.228 C  
HETATM   15  C   UNL     1     -11.347  12.671  68.662  1.00  0.00    -0.331 C  
ENDBRANCH  13  14
BRANCH  13  16
HETATM   16  C   UNL     1     -10.040  11.506  66.073  1.00  0.00    -0.232 C  
HETATM   17  C   UNL     1     -10.775  11.222  64.766  1.00  0.00    -0.352 C  
ENDBRANCH  13  16
ENDBRANCH  11  13
ENDBRANCH   3   6
ENDBRANCH   2   3
TORSDOF 6
ENDMDL
MODEL      110
REMARK 921   NORMALIZED FREE ENERGY PREDICTED BY IDOCK:   -3.26 KCAL/MOL
REMARK 922        TOTAL FREE ENERGY PREDICTED BY IDOCK:   -4.30 KCAL/MOL
REMARK 923 INTER-LIGAND FREE ENERGY PREDICTED BY IDOCK:   -4.41 KCAL/MOL
REMARK 924 INTRA-LIGAND FREE ENERGY PREDICTED BY IDOCK:    0.11 KCAL/MOL
REMARK 927      BINDING AFFINITY PREDICTED BY RF-SCORE:    0.00 PKD
ROOT
HETATM    1  C   UNL     1     -12.896  12.590  64.828  1.00  0.00    -0.287 C  
HETATM    2  C   UNL     1     -12.161  11.942  63.650  1.00  0.00    -0.477 C  
ENDROOT
BRANCH   2   3
HETATM    3  N   UNL     1     -10.685  11.937  63.686  1.00  0.00    -0.399 NA 
BRANCH   3   4
HETATM    4  C   UNL     1      -9.883  11.334  62.602  1.00  0.00    -0.088 C  
HETATM    5  C   UNL     1      -9.260   9.982  62.978  1.00  0.00    -0.313 C  
ENDBRANCH   3   4
BRANCH   3   6
HETATM    6  C   UNL     1     -10.054  12.591  64.819  1.00  0.00    -0.227 C  
HETATM    7  S   UNL     1      -9.464  11.759  66.139  1.00  0.00    -0.224 SA 
HETATM    8 ZN   UNL     1      -9.964  13.714  66.949  1.00  0.00    -0.224 Zn 
HETATM    9  S   UNL     1     -11.801  13.869  67.972  1.00  0.00    -0.363 SA 
HETATM   10  S   UNL     1      -9.990  14.432  64.948  1.00  0.00     0.119 SA 
HETATM   11  C   UNL     1     -10.648  14.905  68.949  1.00  0.00    -0.247 C  
HETATM   12  S   UNL     1      -9.023  14.710  68.663  1.00  0.00    -0.172 SA 
BRANCH  11  13
HETATM   13  N   UNL     1     -11.143  16.008  69.727  1.00  0.00    -0.312 NA 
BRANCH  13  14
HETATM   14  C   UNL     1     -10.623  17.356  69.515  1.00  0.00     0.108 C  
HETATM   15  C   UNL     1     -10.624  17.690  68.023  1.00  0.00    -0.379 C  
ENDBRANCH  13  14
BRANCH  13  16
HETATM   16  C   UNL     1     -12.193  15.783  70.715  1.00  0.00    -0.399 C  
HETATM   17  C   UNL     1     -11.655  15.226  72.030  1.00  0.00    -0.529 C  
ENDBRANCH  13  16
ENDBRANCH  11  13
ENDBRANCH   3   6
ENDBRANCH   2   3
TORSDOF 6
ENDMDL
MODEL      111
REMARK 921   NORMALIZED FREE ENERGY PREDICTED BY IDOCK:   -3.25 KCAL/MOL
REMARK 922        TOTAL FREE ENERGY PREDICTED BY IDOCK:   -4.29 KCAL/MOL
REMARK 923 INTER-LIGAND FREE ENERGY PREDICTED BY IDOCK:   -3.94 KCAL/MOL
REMARK 924 INTRA-LIGAND FREE ENERGY PREDICTED BY IDOCK:   -0.35 KCAL/MOL
REMARK 927      BINDING AFFINITY PREDICTED BY RF-SCORE:    0.00 PKD
ROOT
HETATM    1  C   UNL     1      -6.033   9.492  67.022  1.00  0.00    -0.056 C  
HETATM    2  C   UNL     1      -6.827  10.038  65.829  1.00  0.00    -0.111 C  
ENDROOT
BRANCH   2   3
HETATM    3  N   UNL     1      -8.188   9.509  65.617  1.00  0.00    -0.117 NA 
BRANCH   3   4
HETATM    4  C   UNL     1      -8.423   8.106  65.215  1.00  0.00    -0.139 C  
HETATM    5  C   UNL     1      -9.215   7.297  66.250  1.00  0.00    -0.175 C  
ENDBRANCH   3   4
BRANCH   3   6
HETATM    6  C   UNL     1      -9.292  10.419  65.863  1.00  0.00    -0.182 C  
HETATM    7  S   UNL     1      -9.951  11.394  64.681  1.00  0.00    -0.284 SA 
HETATM    8 ZN   UNL     1     -10.344  12.485  66.520  1.00  0.00    -0.221 Zn 
HETATM    9  S   UNL     1      -9.028  14.069  66.977  1.00  0.00    -0.222 SA 
HETATM   10  S   UNL     1      -9.962  10.674  67.565  1.00  0.00    -0.177 SA 
HETATM   11  C   UNL     1     -10.678  14.692  67.472  1.00  0.00    -0.268 C  
HETATM   12  S   UNL     1     -12.004  13.868  66.903  1.00  0.00    -0.428 SA 
BRANCH  11  13
HETATM   13  N   UNL     1     -10.801  15.679  68.510  1.00  0.00    -0.268 NA 
BRANCH  13  14
HETATM   14  C   UNL     1     -10.910  15.275  69.909  1.00  0.00    -0.281 C  
HETATM   15  C   UNL     1     -12.380  15.204  70.322  1.00  0.00    -0.398 C  
ENDBRANCH  13  14
BRANCH  13  16
HETATM   16  C   UNL     1     -10.788  17.097  68.165  1.00  0.00    -0.316 C  
HETATM   17  C   UNL     1      -9.444  17.760  68.450  1.00  0.00    -0.297 C  
ENDBRANCH  13  16
ENDBRANCH  11  13
ENDBRANCH   3   6
ENDBRANCH   2   3
TORSDOF 6
ENDMDL
MODEL      112
REMARK 921   NORMALIZED FREE ENERGY PREDICTED BY IDOCK:   -3.20 KCAL/MOL
REMARK 922        TOTAL FREE ENERGY PREDICTED BY IDOCK:   -4.23 KCAL/MOL
REMARK 923 INTER-LIGAND FREE ENERGY PREDICTED BY IDOCK:   -3.89 KCAL/MOL
REMARK 924 INTRA-LIGAND FREE ENERGY PREDICTED BY IDOCK:   -0.34 KCAL/MOL
REMARK 927      BINDING AFFINITY PREDICTED BY RF-SCORE:    0.00 PKD
ROOT
HETATM    1  C   UNL     1     -10.403  15.137  65.262  1.00  0.00    -0.425 C  
HETATM    2  C   UNL     1     -10.114  13.913  66.138  1.00  0.00    -0.308 C  
ENDROOT
BRANCH   2   3
HETATM    3  N   UNL     1     -10.520  12.592  65.619  1.00  0.00    -0.270 NA 
BRANCH   3   4
HETATM    4  C   UNL     1     -10.601  12.317  64.170  1.00  0.00    -0.376 C  
HETATM    5  C   UNL     1     -12.033  12.079  63.670  1.00  0.00    -0.612 C  
ENDBRANCH   3   4
BRANCH   3   6
HETATM    6  C   UNL     1     -10.795  11.557  66.600  1.00  0.00    -0.287 C  
HETATM    7  S   UNL     1     -11.420  11.878  68.113  1.00  0.00    -0.338 SA 
HETATM    8 ZN   UNL     1     -10.298  10.039  68.404  1.00  0.00    -0.153 Zn 
HETATM    9  S   UNL     1      -8.375  10.230  69.249  1.00  0.00    -0.158 SA 
HETATM   10  S   UNL     1     -10.328   9.797  66.293  1.00  0.00    -0.106 SA 
HETATM   11  C   UNL     1      -9.061   8.716  70.019  1.00  0.00    -0.156 C  
HETATM   12  S   UNL     1     -10.698   8.471  69.887  1.00  0.00    -0.199 SA 
BRANCH  11  13
HETATM   13  N   UNL     1      -8.184   7.675  70.482  1.00  0.00    -0.119 NA 
BRANCH  13  14
HETATM   14  C   UNL     1      -7.716   7.661  71.865  1.00  0.00    -0.087 C  
HETATM   15  C   UNL     1      -8.795   7.082  72.779  1.00  0.00    -0.141 C  
ENDBRANCH  13  14
BRANCH  13  16
HETATM   16  C   UNL     1      -7.784   6.608  69.570  1.00  0.00    -0.104 C  
HETATM   17  C   UNL     1      -6.642   5.760  70.122  1.00  0.00    -0.047 C  
ENDBRANCH  13  16
ENDBRANCH  11  13
ENDBRANCH   3   6
ENDBRANCH   2   3
TORSDOF 6
ENDMDL
MODEL      113
REMARK 921   NORMALIZED FREE ENERGY PREDICTED BY IDOCK:   -3.20 KCAL/MOL
REMARK 922        TOTAL FREE ENERGY PREDICTED BY IDOCK:   -4.22 KCAL/MOL
REMARK 923 INTER-LIGAND FREE ENERGY PREDICTED BY IDOCK:   -3.84 KCAL/MOL
REMARK 924 INTRA-LIGAND FREE ENERGY PREDICTED BY IDOCK:   -0.38 KCAL/MOL
REMARK 927      BINDING AFFINITY PREDICTED BY RF-SCORE:    0.00 PKD
ROOT
HETATM    1  C   UNL     1     -11.537  13.209  69.055  1.00  0.00    -0.360 C  
HETATM    2  C   UNL     1     -10.361  13.129  68.075  1.00  0.00    -0.238 C  
ENDROOT
BRANCH   2   3
HETATM    3  N   UNL     1     -10.368  12.030  67.090  1.00  0.00    -0.212 NA 
BRANCH   3   4
HETATM    4  C   UNL     1     -10.869  12.222  65.713  1.00  0.00    -0.278 C  
HETATM    5  C   UNL     1     -10.565  13.613  65.139  1.00  0.00    -0.371 C  
ENDBRANCH   3   4
BRANCH   3   6
HETATM    6  C   UNL     1      -9.818  10.757  67.522  1.00  0.00    -0.172 C  
HETATM    7  S   UNL     1     -10.389   9.287  66.981  1.00  0.00    -0.240 SA 
HETATM    8 ZN   UNL     1      -9.576   8.828  68.945  1.00  0.00    -0.146 Zn 
HETATM    9  S   UNL     1     -10.959   8.689  70.530  1.00  0.00    -0.238 SA 
HETATM   10  S   UNL     1      -8.522  10.670  68.835  1.00  0.00    -0.148 SA 
HETATM   11  C   UNL     1      -9.756   7.347  70.859  1.00  0.00    -0.169 C  
HETATM   12  S   UNL     1      -8.748   6.908  69.613  1.00  0.00    -0.141 SA 
BRANCH  11  13
HETATM   13  N   UNL     1      -9.527   6.889  72.202  1.00  0.00    -0.140 NA 
BRANCH  13  14
HETATM   14  C   UNL     1      -9.172   5.496  72.459  1.00  0.00    -0.142 C  
HETATM   15  C   UNL     1     -10.403   4.603  72.302  1.00  0.00    -0.251 C  
ENDBRANCH  13  14
BRANCH  13  16
HETATM   16  C   UNL     1      -9.622   7.829  73.314  1.00  0.00    -0.283 C  
HETATM   17  C   UNL     1      -8.323   7.936  74.107  1.00  0.00    -0.312 C  
ENDBRANCH  13  16
ENDBRANCH  11  13
ENDBRANCH   3   6
ENDBRANCH   2   3
TORSDOF 6
ENDMDL
MODEL      114
REMARK 921   NORMALIZED FREE ENERGY PREDICTED BY IDOCK:   -3.19 KCAL/MOL
REMARK 922        TOTAL FREE ENERGY PREDICTED BY IDOCK:   -4.21 KCAL/MOL
REMARK 923 INTER-LIGAND FREE ENERGY PREDICTED BY IDOCK:   -3.91 KCAL/MOL
REMARK 924 INTRA-LIGAND FREE ENERGY PREDICTED BY IDOCK:   -0.29 KCAL/MOL
REMARK 927      BINDING AFFINITY PREDICTED BY RF-SCORE:    0.00 PKD
ROOT
HETATM    1  C   UNL     1     -11.592  13.749  69.217  1.00  0.00    -0.362 C  
HETATM    2  C   UNL     1     -10.673  12.544  69.448  1.00  0.00     0.178 C  
ENDROOT
BRANCH   2   3
HETATM    3  N   UNL     1      -9.729  12.191  68.371  1.00  0.00    -0.210 NA 
BRANCH   3   4
HETATM    4  C   UNL     1      -9.603  10.806  67.869  1.00  0.00    -0.160 C  
HETATM    5  C   UNL     1     -10.527   9.810  68.582  1.00  0.00    -0.233 C  
ENDBRANCH   3   4
BRANCH   3   6
HETATM    6  C   UNL     1      -8.956  13.276  67.793  1.00  0.00    -0.196 C  
HETATM    7  S   UNL     1      -7.515  13.814  68.438  1.00  0.00    -0.127 SA 
HETATM    8 ZN   UNL     1      -8.304  15.566  67.421  1.00  0.00    -0.135 Zn 
HETATM    9  S   UNL     1      -9.281  16.995  68.626  1.00  0.00    -0.255 SA 
HETATM   10  S   UNL     1      -9.598  14.253  66.363  1.00  0.00    -0.285 SA 
HETATM   11  C   UNL     1      -8.340  17.992  67.410  1.00  0.00    -0.232 C  
HETATM   12  S   UNL     1      -7.149  17.216  66.550  1.00  0.00    -0.280 SA 
BRANCH  11  13
HETATM   13  N   UNL     1      -8.792  19.306  67.042  1.00  0.00    -0.284 NA 
BRANCH  13  14
HETATM   14  C   UNL     1     -10.176  19.706  67.278  1.00  0.00    -0.433 C  
HETATM   15  C   UNL     1     -11.034  19.371  66.058  1.00  0.00    -0.255 C  
ENDBRANCH  13  14
BRANCH  13  16
HETATM   16  C   UNL     1      -7.853  20.257  66.456  1.00  0.00    -0.238 C  
HETATM   17  C   UNL     1      -6.923  20.882  67.492  1.00  0.00    -0.406 C  
ENDBRANCH  13  16
ENDBRANCH  11  13
ENDBRANCH   3   6
ENDBRANCH   2   3
TORSDOF 6
ENDMDL
MODEL      115
REMARK 921   NORMALIZED FREE ENERGY PREDICTED BY IDOCK:   -3.19 KCAL/MOL
REMARK 922        TOTAL FREE ENERGY PREDICTED BY IDOCK:   -4.20 KCAL/MOL
REMARK 923 INTER-LIGAND FREE ENERGY PREDICTED BY IDOCK:   -3.89 KCAL/MOL
REMARK 924 INTRA-LIGAND FREE ENERGY PREDICTED BY IDOCK:   -0.32 KCAL/MOL
REMARK 927      BINDING AFFINITY PREDICTED BY RF-SCORE:    0.00 PKD
ROOT
HETATM    1  C   UNL     1      -8.804   5.565  68.458  1.00  0.00    -0.104 C  
HETATM    2  C   UNL     1      -9.051   5.368  69.958  1.00  0.00    -0.130 C  
ENDROOT
BRANCH   2   3
HETATM    3  N   UNL     1      -8.736   6.497  70.855  1.00  0.00    -0.135 NA 
BRANCH   3   4
HETATM    4  C   UNL     1      -7.694   6.394  71.898  1.00  0.00    -0.096 C  
HETATM    5  C   UNL     1      -7.723   5.066  72.665  1.00  0.00    -0.097 C  
ENDBRANCH   3   4
BRANCH   3   6
HETATM    6  C   UNL     1      -9.469   7.732  70.638  1.00  0.00    -0.162 C  
HETATM    7  S   UNL     1     -11.132   7.800  70.536  1.00  0.00    -0.246 SA 
HETATM    8 ZN   UNL     1     -10.478   9.501  69.351  1.00  0.00    -0.172 Zn 
HETATM    9  S   UNL     1     -10.444   9.236  67.259  1.00  0.00    -0.241 SA 
HETATM   10  S   UNL     1      -8.589   9.322  70.307  1.00  0.00    -0.226 SA 
HETATM   11  C   UNL     1     -11.054  10.948  67.490  1.00  0.00    -0.310 C  
HETATM   12  S   UNL     1     -11.577  11.370  69.009  1.00  0.00    -0.347 SA 
BRANCH  11  13
HETATM   13  N   UNL     1     -10.842  11.939  66.471  1.00  0.00    -0.266 NA 
BRANCH  13  14
HETATM   14  C   UNL     1      -9.665  11.875  65.609  1.00  0.00    -0.227 C  
HETATM   15  C   UNL     1     -10.091  11.801  64.143  1.00  0.00    -0.344 C  
ENDBRANCH  13  14
BRANCH  13  16
HETATM   16  C   UNL     1     -11.825  13.000  66.277  1.00  0.00    -0.408 C  
HETATM   17  C   UNL     1     -11.439  14.297  66.982  1.00  0.00    -0.377 C  
ENDBRANCH  13  16
ENDBRANCH  11  13
ENDBRANCH   3   6
ENDBRANCH   2   3
TORSDOF 6
ENDMDL
MODEL      116
REMARK 921   NORMALIZED FREE ENERGY PREDICTED BY IDOCK:   -3.19 KCAL/MOL
REMARK 922        TOTAL FREE ENERGY PREDICTED BY IDOCK:   -4.20 KCAL/MOL
REMARK 923 INTER-LIGAND FREE ENERGY PREDICTED BY IDOCK:   -3.81 KCAL/MOL
REMARK 924 INTRA-LIGAND FREE ENERGY PREDICTED BY IDOCK:   -0.39 KCAL/MOL
REMARK 927      BINDING AFFINITY PREDICTED BY RF-SCORE:    0.00 PKD
ROOT
HETATM    1  C   UNL     1     -10.011  16.477  65.901  1.00  0.00    -0.342 C  
HETATM    2  C   UNL     1     -10.005  15.058  66.482  1.00  0.00    -0.263 C  
ENDROOT
BRANCH   2   3
HETATM    3  N   UNL     1     -10.543  13.973  65.638  1.00  0.00    -0.295 NA 
BRANCH   3   4
HETATM    4  C   UNL     1     -11.618  14.214  64.653  1.00  0.00    -0.406 C  
HETATM    5  C   UNL     1     -13.029  14.081  65.242  1.00  0.00    -0.315 C  
ENDBRANCH   3   4
BRANCH   3   6
HETATM    6  C   UNL     1      -9.936  12.662  65.787  1.00  0.00    -0.256 C  
HETATM    7  S   UNL     1     -10.434  11.324  64.925  1.00  0.00    -0.310 SA 
HETATM    8 ZN   UNL     1      -9.613  10.478  66.752  1.00  0.00    -0.151 Zn 
HETATM    9  S   UNL     1     -10.998   9.930  68.245  1.00  0.00    -0.148 SA 
HETATM   10  S   UNL     1      -8.646  12.345  67.070  1.00  0.00    -0.170 SA 
HETATM   11  C   UNL     1      -9.735   8.604  68.289  1.00  0.00    -0.155 C  
HETATM   12  S   UNL     1      -8.700   8.497  66.994  1.00  0.00    -0.127 SA 
BRANCH  11  13
HETATM   13  N   UNL     1      -9.493   7.870  69.501  1.00  0.00    -0.160 NA 
BRANCH  13  14
HETATM   14  C   UNL     1     -10.574   7.132  70.148  1.00  0.00    -0.230 C  
HETATM   15  C   UNL     1     -10.954   7.805  71.467  1.00  0.00    -0.267 C  
ENDBRANCH  13  14
BRANCH  13  16
HETATM   16  C   UNL     1      -8.150   7.840  70.073  1.00  0.00    -0.118 C  
HETATM   17  C   UNL     1      -7.607   6.422  70.225  1.00  0.00    -0.096 C  
ENDBRANCH  13  16
ENDBRANCH  11  13
ENDBRANCH   3   6
ENDBRANCH   2   3
TORSDOF 6
ENDMDL
MODEL      117
REMARK 921   NORMALIZED FREE ENERGY PREDICTED BY IDOCK:   -3.18 KCAL/MOL
REMARK 922        TOTAL FREE ENERGY PREDICTED BY IDOCK:   -4.19 KCAL/MOL
REMARK 923 INTER-LIGAND FREE ENERGY PREDICTED BY IDOCK:   -3.91 KCAL/MOL
REMARK 924 INTRA-LIGAND FREE ENERGY PREDICTED BY IDOCK:   -0.28 KCAL/MOL
REMARK 927      BINDING AFFINITY PREDICTED BY RF-SCORE:    0.00 PKD
ROOT
HETATM    1  C   UNL     1     -10.633   9.432  67.730  1.00  0.00    -0.317 C  
HETATM    2  C   UNL     1      -9.502   8.719  66.980  1.00  0.00    -0.169 C  
ENDROOT
BRANCH   2   3
HETATM    3  N   UNL     1      -8.946   9.388  65.788  1.00  0.00    -0.172 NA 
BRANCH   3   4
HETATM    4  C   UNL     1      -8.657   8.645  64.543  1.00  0.00    -0.070 C  
HETATM    5  C   UNL     1      -7.159   8.535  64.228  1.00  0.00    -0.082 C  
ENDBRANCH   3   4
BRANCH   3   6
HETATM    6  C   UNL     1      -8.735  10.822  65.878  1.00  0.00    -0.181 C  
HETATM    7  S   UNL     1      -7.479  11.506  66.736  1.00  0.00    -0.079 SA 
HETATM    8 ZN   UNL     1      -9.018  13.042  66.771  1.00  0.00    -0.179 Zn 
HETATM    9  S   UNL     1     -10.180  13.173  68.526  1.00  0.00    -0.176 SA 
HETATM   10  S   UNL     1      -9.946  12.015  65.158  1.00  0.00    -0.209 SA 
HETATM   11  C   UNL     1      -9.907  14.916  68.030  1.00  0.00    -0.216 C  
HETATM   12  S   UNL     1      -8.713  15.210  66.914  1.00  0.00    -0.271 SA 
BRANCH  11  13
HETATM   13  N   UNL     1     -10.856  15.932  68.395  1.00  0.00    -0.300 NA 
BRANCH  13  14
HETATM   14  C   UNL     1     -10.748  17.279  67.842  1.00  0.00    -0.351 C  
HETATM   15  C   UNL     1      -9.953  18.174  68.792  1.00  0.00    -0.389 C  
ENDBRANCH  13  14
BRANCH  13  16
HETATM   16  C   UNL     1     -11.952  15.607  69.302  1.00  0.00    -0.320 C  
HETATM   17  C   UNL     1     -11.593  15.840  70.766  1.00  0.00    -0.429 C  
ENDBRANCH  13  16
ENDBRANCH  11  13
ENDBRANCH   3   6
ENDBRANCH   2   3
TORSDOF 6
ENDMDL
MODEL      118
REMARK 921   NORMALIZED FREE ENERGY PREDICTED BY IDOCK:   -3.18 KCAL/MOL
REMARK 922        TOTAL FREE ENERGY PREDICTED BY IDOCK:   -4.19 KCAL/MOL
REMARK 923 INTER-LIGAND FREE ENERGY PREDICTED BY IDOCK:   -3.81 KCAL/MOL
REMARK 924 INTRA-LIGAND FREE ENERGY PREDICTED BY IDOCK:   -0.38 KCAL/MOL
REMARK 927      BINDING AFFINITY PREDICTED BY RF-SCORE:    0.00 PKD
ROOT
HETATM    1  C   UNL     1     -11.794  13.728  68.302  1.00  0.00    -0.413 C  
HETATM    2  C   UNL     1     -11.829  12.235  67.955  1.00  0.00    -0.305 C  
ENDROOT
BRANCH   2   3
HETATM    3  N   UNL     1     -11.294  11.828  66.642  1.00  0.00    -0.387 NA 
BRANCH   3   4
HETATM    4  C   UNL     1     -11.744  12.466  65.387  1.00  0.00    -0.402 C  
HETATM    5  C   UNL     1     -10.765  13.518  64.849  1.00  0.00    -0.391 C  
ENDBRANCH   3   4
BRANCH   3   6
HETATM    6  C   UNL     1     -10.271  10.797  66.640  1.00  0.00    -0.233 C  
HETATM    7  S   UNL     1      -9.807   9.976  65.264  1.00  0.00    -0.285 SA 
HETATM    8 ZN   UNL     1      -9.385   8.568  66.866  1.00  0.00    -0.131 Zn 
HETATM    9  S   UNL     1     -10.813   7.051  67.190  1.00  0.00    -0.303 SA 
HETATM   10  S   UNL     1      -9.501  10.209  68.212  1.00  0.00    -0.143 SA 
HETATM   11  C   UNL     1      -9.201   6.215  67.428  1.00  0.00    -0.112 C  
HETATM   12  S   UNL     1      -7.847   7.002  66.874  1.00  0.00    -0.108 SA 
BRANCH  11  13
HETATM   13  N   UNL     1      -9.098   5.064  68.282  1.00  0.00    -0.111 NA 
BRANCH  13  14
HETATM   14  C   UNL     1      -8.387   3.870  67.834  1.00  0.00    -0.093 C  
HETATM   15  C   UNL     1      -7.137   3.652  68.688  1.00  0.00    -0.050 C  
ENDBRANCH  13  14
BRANCH  13  16
HETATM   16  C   UNL     1      -9.684   5.099  69.618  1.00  0.00    -0.185 C  
HETATM   17  C   UNL     1      -9.133   6.237  70.473  1.00  0.00    -0.157 C  
ENDBRANCH  13  16
ENDBRANCH  11  13
ENDBRANCH   3   6
ENDBRANCH   2   3
TORSDOF 6
ENDMDL
MODEL      119
REMARK 921   NORMALIZED FREE ENERGY PREDICTED BY IDOCK:   -3.16 KCAL/MOL
REMARK 922        TOTAL FREE ENERGY PREDICTED BY IDOCK:   -4.16 KCAL/MOL
REMARK 923 INTER-LIGAND FREE ENERGY PREDICTED BY IDOCK:   -3.76 KCAL/MOL
REMARK 924 INTRA-LIGAND FREE ENERGY PREDICTED BY IDOCK:   -0.40 KCAL/MOL
REMARK 927      BINDING AFFINITY PREDICTED BY RF-SCORE:    0.00 PKD
ROOT
HETATM    1  C   UNL     1      -6.108   8.634  67.698  1.00  0.00    -0.048 C  
HETATM    2  C   UNL     1      -7.308   7.686  67.810  1.00  0.00    -0.099 C  
ENDROOT
BRANCH   2   3
HETATM    3  N   UNL     1      -8.087   7.425  66.584  1.00  0.00    -0.120 NA 
BRANCH   3   4
HETATM    4  C   UNL     1      -7.997   6.137  65.865  1.00  0.00    -0.112 C  
HETATM    5  C   UNL     1      -9.205   5.219  66.097  1.00  0.00    -0.158 C  
ENDBRANCH   3   4
BRANCH   3   6
HETATM    6  C   UNL     1      -8.983   8.477  66.138  1.00  0.00    -0.179 C  
HETATM    7  S   UNL     1      -8.723   9.369  64.754  1.00  0.00    -0.198 SA 
HETATM    8 ZN   UNL     1      -9.872  10.714  66.019  1.00  0.00    -0.176 Zn 
HETATM    9  S   UNL     1      -8.782  12.182  67.070  1.00  0.00    -0.191 SA 
HETATM   10  S   UNL     1     -10.420   9.012  67.168  1.00  0.00    -0.227 SA 
HETATM   11  C   UNL     1     -10.309  13.043  66.538  1.00  0.00    -0.274 C  
HETATM   12  S   UNL     1     -11.223  12.313  65.359  1.00  0.00    -0.338 SA 
BRANCH  11  13
HETATM   13  N   UNL     1     -10.815  14.157  67.293  1.00  0.00    -0.282 NA 
BRANCH  13  14
HETATM   14  C   UNL     1     -10.147  15.455  67.237  1.00  0.00    -0.238 C  
HETATM   15  C   UNL     1     -10.226  16.025  65.821  1.00  0.00    -0.401 C  
ENDBRANCH  13  14
BRANCH  13  16
HETATM   16  C   UNL     1     -12.022  13.998  68.098  1.00  0.00    -0.347 C  
HETATM   17  C   UNL     1     -11.856  14.527  69.519  1.00  0.00    -0.374 C  
ENDBRANCH  13  16
ENDBRANCH  11  13
ENDBRANCH   3   6
ENDBRANCH   2   3
TORSDOF 6
ENDMDL
MODEL      120
REMARK 921   NORMALIZED FREE ENERGY PREDICTED BY IDOCK:   -3.14 KCAL/MOL
REMARK 922        TOTAL FREE ENERGY PREDICTED BY IDOCK:   -4.14 KCAL/MOL
REMARK 923 INTER-LIGAND FREE ENERGY PREDICTED BY IDOCK:   -3.74 KCAL/MOL
REMARK 924 INTRA-LIGAND FREE ENERGY PREDICTED BY IDOCK:   -0.40 KCAL/MOL
REMARK 927      BINDING AFFINITY PREDICTED BY RF-SCORE:    0.00 PKD
ROOT
HETATM    1  C   UNL     1      -8.442   4.836  67.917  1.00  0.00    -0.103 C  
HETATM    2  C   UNL     1      -7.517   5.984  68.339  1.00  0.00    -0.086 C  
ENDROOT
BRANCH   2   3
HETATM    3  N   UNL     1      -8.143   7.279  68.667  1.00  0.00    -0.123 NA 
BRANCH   3   4
HETATM    4  C   UNL     1      -8.248   7.762  70.060  1.00  0.00    -0.121 C  
HETATM    5  C   UNL     1      -8.116   6.647  71.107  1.00  0.00    -0.112 C  
ENDBRANCH   3   4
BRANCH   3   6
HETATM    6  C   UNL     1      -8.616   8.081  67.553  1.00  0.00    -0.126 C  
HETATM    7  S   UNL     1      -7.593   8.794  66.445  1.00  0.00    -0.092 SA 
HETATM    8 ZN   UNL     1      -9.343  10.085  66.429  1.00  0.00    -0.142 Zn 
HETATM    9  S   UNL     1      -9.218  11.859  67.562  1.00  0.00    -0.183 SA 
HETATM   10  S   UNL     1     -10.405   8.498  67.364  1.00  0.00    -0.291 SA 
HETATM   11  C   UNL     1     -10.121  12.351  66.046  1.00  0.00    -0.251 C  
HETATM   12  S   UNL     1     -10.064  11.307  64.755  1.00  0.00    -0.306 SA 
BRANCH  11  13
HETATM   13  N   UNL     1     -11.040  13.456  66.074  1.00  0.00    -0.282 NA 
BRANCH  13  14
HETATM   14  C   UNL     1     -11.027  14.456  65.010  1.00  0.00    -0.389 C  
HETATM   15  C   UNL     1     -12.370  14.461  64.278  1.00  0.00    -0.402 C  
ENDBRANCH  13  14
BRANCH  13  16
HETATM   16  C   UNL     1     -12.011  13.563  67.158  1.00  0.00    -0.381 C  
HETATM   17  C   UNL     1     -11.726  14.736  68.090  1.00  0.00    -0.353 C  
ENDBRANCH  13  16
ENDBRANCH  11  13
ENDBRANCH   3   6
ENDBRANCH   2   3
TORSDOF 6
ENDMDL
MODEL      121
REMARK 921   NORMALIZED FREE ENERGY PREDICTED BY IDOCK:   -3.13 KCAL/MOL
REMARK 922        TOTAL FREE ENERGY PREDICTED BY IDOCK:   -4.13 KCAL/MOL
REMARK 923 INTER-LIGAND FREE ENERGY PREDICTED BY IDOCK:   -3.74 KCAL/MOL
REMARK 924 INTRA-LIGAND FREE ENERGY PREDICTED BY IDOCK:   -0.39 KCAL/MOL
REMARK 927      BINDING AFFINITY PREDICTED BY RF-SCORE:    0.00 PKD
ROOT
HETATM    1  C   UNL     1     -12.022  14.144  68.325  1.00  0.00    -0.367 C  
HETATM    2  C   UNL     1     -10.939  14.389  67.269  1.00  0.00    -0.297 C  
ENDROOT
BRANCH   2   3
HETATM    3  N   UNL     1     -10.511  13.237  66.451  1.00  0.00    -0.280 NA 
BRANCH   3   4
HETATM    4  C   UNL     1     -10.668  13.224  64.982  1.00  0.00    -0.333 C  
HETATM    5  C   UNL     1     -12.003  13.810  64.503  1.00  0.00    -0.458 C  
ENDBRANCH   3   4
BRANCH   3   6
HETATM    6  C   UNL     1      -9.888  12.129  67.153  1.00  0.00    -0.197 C  
HETATM    7  S   UNL     1      -8.246  12.035  67.433  1.00  0.00    -0.176 SA 
HETATM    8 ZN   UNL     1      -8.876   9.954  67.387  1.00  0.00    -0.123 Zn 
HETATM    9  S   UNL     1      -8.545   8.908  65.586  1.00  0.00    -0.176 SA 
HETATM   10  S   UNL     1     -10.865  10.648  67.667  1.00  0.00    -0.310 SA 
HETATM   11  C   UNL     1      -8.163   7.687  66.897  1.00  0.00    -0.120 C  
HETATM   12  S   UNL     1      -7.939   8.270  68.436  1.00  0.00    -0.120 SA 
BRANCH  11  13
HETATM   13  N   UNL     1      -8.312   6.280  66.645  1.00  0.00    -0.110 NA 
BRANCH  13  14
HETATM   14  C   UNL     1      -7.489   5.616  65.639  1.00  0.00    -0.074 C  
HETATM   15  C   UNL     1      -7.756   4.111  65.651  1.00  0.00    -0.090 C  
ENDBRANCH  13  14
BRANCH  13  16
HETATM   16  C   UNL     1      -9.274   5.503  67.422  1.00  0.00    -0.110 C  
HETATM   17  C   UNL     1     -10.708   5.990  67.240  1.00  0.00    -0.400 C  
ENDBRANCH  13  16
ENDBRANCH  11  13
ENDBRANCH   3   6
ENDBRANCH   2   3
TORSDOF 6
ENDMDL
MODEL      122
REMARK 921   NORMALIZED FREE ENERGY PREDICTED BY IDOCK:   -3.13 KCAL/MOL
REMARK 922        TOTAL FREE ENERGY PREDICTED BY IDOCK:   -4.13 KCAL/MOL
REMARK 923 INTER-LIGAND FREE ENERGY PREDICTED BY IDOCK:   -3.71 KCAL/MOL
REMARK 924 INTRA-LIGAND FREE ENERGY PREDICTED BY IDOCK:   -0.42 KCAL/MOL
REMARK 927      BINDING AFFINITY PREDICTED BY RF-SCORE:    0.00 PKD
ROOT
HETATM    1  C   UNL     1      -6.768   5.355  71.892  1.00  0.00    -0.061 C  
HETATM    2  C   UNL     1      -7.722   6.554  71.829  1.00  0.00    -0.095 C  
ENDROOT
BRANCH   2   3
HETATM    3  N   UNL     1      -8.814   6.505  70.838  1.00  0.00    -0.146 NA 
BRANCH   3   4
HETATM    4  C   UNL     1      -9.102   5.283  70.058  1.00  0.00    -0.128 C  
HETATM    5  C   UNL     1      -8.809   5.430  68.558  1.00  0.00    -0.103 C  
ENDBRANCH   3   4
BRANCH   3   6
HETATM    6  C   UNL     1      -9.624   7.702  70.692  1.00  0.00    -0.163 C  
HETATM    7  S   UNL     1     -11.280   7.663  70.498  1.00  0.00    -0.238 SA 
HETATM    8 ZN   UNL     1     -10.693   9.513  69.516  1.00  0.00    -0.184 Zn 
HETATM    9  S   UNL     1     -10.528   9.454  67.415  1.00  0.00    -0.265 SA 
HETATM   10  S   UNL     1      -8.849   9.373  70.563  1.00  0.00    -0.208 SA 
HETATM   11  C   UNL     1     -11.276  11.089  67.766  1.00  0.00    -0.308 C  
HETATM   12  S   UNL     1     -11.909  11.325  69.284  1.00  0.00    -0.364 SA 
BRANCH  11  13
HETATM   13  N   UNL     1     -11.085  12.186  66.858  1.00  0.00    -0.280 NA 
BRANCH  13  14
HETATM   14  C   UNL     1     -11.797  12.226  65.584  1.00  0.00    -0.360 C  
HETATM   15  C   UNL     1     -10.907  12.840  64.503  1.00  0.00    -0.373 C  
ENDBRANCH  13  14
BRANCH  13  16
HETATM   16  C   UNL     1     -10.193  13.283  67.224  1.00  0.00    -0.240 C  
HETATM   17  C   UNL     1      -8.809  12.800  67.648  1.00  0.00    -0.189 C  
ENDBRANCH  13  16
ENDBRANCH  11  13
ENDBRANCH   3   6
ENDBRANCH   2   3
TORSDOF 6
ENDMDL
MODEL      123
REMARK 921   NORMALIZED FREE ENERGY PREDICTED BY IDOCK:   -3.13 KCAL/MOL
REMARK 922        TOTAL FREE ENERGY PREDICTED BY IDOCK:   -4.12 KCAL/MOL
REMARK 923 INTER-LIGAND FREE ENERGY PREDICTED BY IDOCK:   -3.88 KCAL/MOL
REMARK 924 INTRA-LIGAND FREE ENERGY PREDICTED BY IDOCK:   -0.24 KCAL/MOL
REMARK 927      BINDING AFFINITY PREDICTED BY RF-SCORE:    0.00 PKD
ROOT
HETATM    1  C   UNL     1     -12.339  12.274  63.623  1.00  0.00    -0.664 C  
HETATM    2  C   UNL     1     -12.543  12.868  65.022  1.00  0.00    -0.472 C  
ENDROOT
BRANCH   2   3
HETATM    3  N   UNL     1     -11.379  13.502  65.670  1.00  0.00    -0.297 NA 
BRANCH   3   4
HETATM    4  C   UNL     1     -10.963  14.882  65.343  1.00  0.00    -0.364 C  
HETATM    5  C   UNL     1     -11.884  15.577  64.331  1.00  0.00    -0.222 C  
ENDBRANCH   3   4
BRANCH   3   6
HETATM    6  C   UNL     1     -10.684  12.722  66.679  1.00  0.00    -0.261 C  
HETATM    7  S   UNL     1      -9.060  12.906  67.014  1.00  0.00    -0.229 SA 
HETATM    8 ZN   UNL     1      -9.464  10.840  67.560  1.00  0.00    -0.144 Zn 
HETATM    9  S   UNL     1      -8.923   9.368  66.149  1.00  0.00    -0.173 SA 
HETATM   10  S   UNL     1     -11.528  11.347  67.577  1.00  0.00    -0.210 SA 
HETATM   11  C   UNL     1      -8.490   8.627  67.768  1.00  0.00    -0.125 C  
HETATM   12  S   UNL     1      -8.417   9.649  69.076  1.00  0.00    -0.140 SA 
BRANCH  11  13
HETATM   13  N   UNL     1      -8.476   7.200  67.933  1.00  0.00    -0.121 NA 
BRANCH  13  14
HETATM   14  C   UNL     1      -7.250   6.512  68.330  1.00  0.00    -0.085 C  
HETATM   15  C   UNL     1      -7.541   5.536  69.470  1.00  0.00    -0.071 C  
ENDBRANCH  13  14
BRANCH  13  16
HETATM   16  C   UNL     1      -9.702   6.435  67.731  1.00  0.00    -0.121 C  
HETATM   17  C   UNL     1      -9.732   5.714  66.387  1.00  0.00    -0.180 C  
ENDBRANCH  13  16
ENDBRANCH  11  13
ENDBRANCH   3   6
ENDBRANCH   2   3
TORSDOF 6
ENDMDL
MODEL      124
REMARK 921   NORMALIZED FREE ENERGY PREDICTED BY IDOCK:   -3.12 KCAL/MOL
REMARK 922        TOTAL FREE ENERGY PREDICTED BY IDOCK:   -4.12 KCAL/MOL
REMARK 923 INTER-LIGAND FREE ENERGY PREDICTED BY IDOCK:   -3.73 KCAL/MOL
REMARK 924 INTRA-LIGAND FREE ENERGY PREDICTED BY IDOCK:   -0.39 KCAL/MOL
REMARK 927      BINDING AFFINITY PREDICTED BY RF-SCORE:    0.00 PKD
ROOT
HETATM    1  C   UNL     1     -11.801  13.914  68.240  1.00  0.00    -0.412 C  
HETATM    2  C   UNL     1     -11.858  12.434  67.845  1.00  0.00    -0.308 C  
ENDROOT
BRANCH   2   3
HETATM    3  N   UNL     1     -10.998  11.992  66.730  1.00  0.00    -0.270 NA 
BRANCH   3   4
HETATM    4  C   UNL     1     -11.083  12.610  65.391  1.00  0.00    -0.292 C  
HETATM    5  C   UNL     1     -12.498  12.594  64.796  1.00  0.00    -0.555 C  
ENDBRANCH   3   4
BRANCH   3   6
HETATM    6  C   UNL     1     -10.031  10.949  67.020  1.00  0.00    -0.192 C  
HETATM    7  S   UNL     1      -9.815   9.610  66.049  1.00  0.00    -0.270 SA 
HETATM    8 ZN   UNL     1      -9.214   8.913  68.018  1.00  0.00    -0.131 Zn 
HETATM    9  S   UNL     1     -10.639   7.796  69.100  1.00  0.00    -0.136 SA 
HETATM   10  S   UNL     1      -9.057  10.955  68.589  1.00  0.00    -0.171 SA 
HETATM   11  C   UNL     1      -9.045   6.966  69.456  1.00  0.00    -0.142 C  
HETATM   12  S   UNL     1      -7.759   7.333  68.471  1.00  0.00    -0.122 SA 
BRANCH  11  13
HETATM   13  N   UNL     1      -8.862   6.241  70.684  1.00  0.00    -0.143 NA 
BRANCH  13  14
HETATM   14  C   UNL     1      -8.775   6.950  71.957  1.00  0.00    -0.125 C  
HETATM   15  C   UNL     1      -7.381   6.779  72.559  1.00  0.00    -0.090 C  
ENDBRANCH  13  14
BRANCH  13  16
HETATM   16  C   UNL     1      -8.791   4.783  70.660  1.00  0.00    -0.112 C  
HETATM   17  C   UNL     1      -9.837   4.128  71.558  1.00  0.00    -0.255 C  
ENDBRANCH  13  16
ENDBRANCH  11  13
ENDBRANCH   3   6
ENDBRANCH   2   3
TORSDOF 6
ENDMDL
MODEL      125
REMARK 921   NORMALIZED FREE ENERGY PREDICTED BY IDOCK:   -3.11 KCAL/MOL
REMARK 922        TOTAL FREE ENERGY PREDICTED BY IDOCK:   -4.10 KCAL/MOL
REMARK 923 INTER-LIGAND FREE ENERGY PREDICTED BY IDOCK:   -3.72 KCAL/MOL
REMARK 924 INTRA-LIGAND FREE ENERGY PREDICTED BY IDOCK:   -0.38 KCAL/MOL
REMARK 927      BINDING AFFINITY PREDICTED BY RF-SCORE:    0.00 PKD
ROOT
HETATM    1  C   UNL     1      -9.080  18.519  66.558  1.00  0.00    -0.299 C  
HETATM    2  C   UNL     1     -10.492  17.968  66.792  1.00  0.00    -0.328 C  
ENDROOT
BRANCH   2   3
HETATM    3  N   UNL     1     -10.626  16.785  67.663  1.00  0.00    -0.331 NA 
BRANCH   3   4
HETATM    4  C   UNL     1     -10.599  16.897  69.136  1.00  0.00    -0.330 C  
HETATM    5  C   UNL     1      -9.609  15.935  69.806  1.00  0.00    -0.084 C  
ENDBRANCH   3   4
BRANCH   3   6
HETATM    6  C   UNL     1     -10.829  15.505  67.006  1.00  0.00    -0.314 C  
HETATM    7  S   UNL     1     -11.997  14.413  67.480  1.00  0.00    -0.292 SA 
HETATM    8 ZN   UNL     1     -10.464  13.162  66.580  1.00  0.00    -0.252 Zn 
HETATM    9  S   UNL     1      -9.139  12.194  67.905  1.00  0.00    -0.191 SA 
HETATM   10  S   UNL     1      -9.693  14.923  65.672  1.00  0.00    -0.220 SA 
HETATM   11  C   UNL     1      -9.459  10.953  66.594  1.00  0.00    -0.179 C  
HETATM   12  S   UNL     1     -10.755  11.225  65.591  1.00  0.00    -0.174 SA 
BRANCH  11  13
HETATM   13  N   UNL     1      -8.481   9.944  66.295  1.00  0.00    -0.127 NA 
BRANCH  13  14
HETATM   14  C   UNL     1      -8.884   8.678  65.690  1.00  0.00    -0.187 C  
HETATM   15  C   UNL     1      -9.354   7.705  66.772  1.00  0.00    -0.218 C  
ENDBRANCH  13  14
BRANCH  13  16
HETATM   16  C   UNL     1      -7.070  10.198  66.569  1.00  0.00    -0.103 C  
HETATM   17  C   UNL     1      -6.271  10.512  65.308  1.00  0.00    -0.095 C  
ENDBRANCH  13  16
ENDBRANCH  11  13
ENDBRANCH   3   6
ENDBRANCH   2   3
TORSDOF 6
ENDMDL
MODEL      126
REMARK 921   NORMALIZED FREE ENERGY PREDICTED BY IDOCK:   -3.11 KCAL/MOL
REMARK 922        TOTAL FREE ENERGY PREDICTED BY IDOCK:   -4.10 KCAL/MOL
REMARK 923 INTER-LIGAND FREE ENERGY PREDICTED BY IDOCK:   -3.74 KCAL/MOL
REMARK 924 INTRA-LIGAND FREE ENERGY PREDICTED BY IDOCK:   -0.36 KCAL/MOL
REMARK 927      BINDING AFFINITY PREDICTED BY RF-SCORE:    0.00 PKD
ROOT
HETATM    1  C   UNL     1      -9.020   4.941  64.991  1.00  0.00    -0.147 C  
HETATM    2  C   UNL     1      -8.337   5.444  66.269  1.00  0.00    -0.115 C  
ENDROOT
BRANCH   2   3
HETATM    3  N   UNL     1      -7.958   6.869  66.324  1.00  0.00    -0.104 NA 
BRANCH   3   4
HETATM    4  C   UNL     1      -6.771   7.386  65.612  1.00  0.00    -0.048 C  
HETATM    5  C   UNL     1      -7.110   8.128  64.312  1.00  0.00    -0.078 C  
ENDBRANCH   3   4
BRANCH   3   6
HETATM    6  C   UNL     1      -8.832   7.752  67.076  1.00  0.00    -0.127 C  
HETATM    7  S   UNL     1     -10.487   7.558  67.143  1.00  0.00    -0.343 SA 
HETATM    8 ZN   UNL     1     -10.211   9.691  67.456  1.00  0.00    -0.151 Zn 
HETATM    9  S   UNL     1     -10.508  10.937  65.781  1.00  0.00    -0.171 SA 
HETATM   10  S   UNL     1      -8.178   9.267  67.906  1.00  0.00    -0.116 SA 
HETATM   11  C   UNL     1     -11.232  11.875  67.178  1.00  0.00    -0.319 C  
HETATM   12  S   UNL     1     -11.526  11.039  68.583  1.00  0.00    -0.322 SA 
BRANCH  11  13
HETATM   13  N   UNL     1     -11.292  13.311  67.137  1.00  0.00    -0.303 NA 
BRANCH  13  14
HETATM   14  C   UNL     1     -11.491  14.007  65.869  1.00  0.00    -0.330 C  
HETATM   15  C   UNL     1     -12.903  13.747  65.343  1.00  0.00    -0.455 C  
ENDBRANCH  13  14
BRANCH  13  16
HETATM   16  C   UNL     1     -11.183  14.076  68.375  1.00  0.00    -0.266 C  
HETATM   17  C   UNL     1     -11.219  15.584  68.140  1.00  0.00    -0.343 C  
ENDBRANCH  13  16
ENDBRANCH  11  13
ENDBRANCH   3   6
ENDBRANCH   2   3
TORSDOF 6
ENDMDL
MODEL      127
REMARK 921   NORMALIZED FREE ENERGY PREDICTED BY IDOCK:   -3.10 KCAL/MOL
REMARK 922        TOTAL FREE ENERGY PREDICTED BY IDOCK:   -4.08 KCAL/MOL
REMARK 923 INTER-LIGAND FREE ENERGY PREDICTED BY IDOCK:   -3.67 KCAL/MOL
REMARK 924 INTRA-LIGAND FREE ENERGY PREDICTED BY IDOCK:   -0.41 KCAL/MOL
REMARK 927      BINDING AFFINITY PREDICTED BY RF-SCORE:    0.00 PKD
ROOT
HETATM    1  C   UNL     1     -11.921  14.569  70.889  1.00  0.00    -0.389 C  
HETATM    2  C   UNL     1     -12.006  13.367  69.941  1.00  0.00    -0.338 C  
ENDROOT
BRANCH   2   3
HETATM    3  N   UNL     1     -11.418  13.517  68.596  1.00  0.00    -0.285 NA 
BRANCH   3   4
HETATM    4  C   UNL     1     -12.009  14.419  67.585  1.00  0.00    -0.343 C  
HETATM    5  C   UNL     1     -12.381  13.712  66.275  1.00  0.00    -0.464 C  
ENDBRANCH   3   4
BRANCH   3   6
HETATM    6  C   UNL     1     -10.203  12.770  68.322  1.00  0.00    -0.244 C  
HETATM    7  S   UNL     1      -8.853  13.451  67.619  1.00  0.00    -0.214 SA 
HETATM    8 ZN   UNL     1      -8.722  11.356  67.052  1.00  0.00    -0.134 Zn 
HETATM    9  S   UNL     1      -9.381  10.860  65.111  1.00  0.00    -0.226 SA 
HETATM   10  S   UNL     1     -10.117  10.947  68.603  1.00  0.00    -0.197 SA 
HETATM   11  C   UNL     1      -7.900   9.814  65.369  1.00  0.00    -0.122 C  
HETATM   12  S   UNL     1      -6.895  10.216  66.629  1.00  0.00    -0.088 SA 
BRANCH  11  13
HETATM   13  N   UNL     1      -7.764   8.562  64.676  1.00  0.00    -0.109 NA 
BRANCH  13  14
HETATM   14  C   UNL     1      -7.546   8.534  63.232  1.00  0.00    -0.119 C  
HETATM   15  C   UNL     1      -6.500   9.578  62.839  1.00  0.00    -0.101 C  
ENDBRANCH  13  14
BRANCH  13  16
HETATM   16  C   UNL     1      -7.817   7.310  65.425  1.00  0.00    -0.118 C  
HETATM   17  C   UNL     1      -9.090   7.174  66.255  1.00  0.00    -0.182 C  
ENDBRANCH  13  16
ENDBRANCH  11  13
ENDBRANCH   3   6
ENDBRANCH   2   3
TORSDOF 6
ENDMDL
MODEL      128
REMARK 921   NORMALIZED FREE ENERGY PREDICTED BY IDOCK:   -3.09 KCAL/MOL
REMARK 922        TOTAL FREE ENERGY PREDICTED BY IDOCK:   -4.08 KCAL/MOL
REMARK 923 INTER-LIGAND FREE ENERGY PREDICTED BY IDOCK:   -3.77 KCAL/MOL
REMARK 924 INTRA-LIGAND FREE ENERGY PREDICTED BY IDOCK:   -0.31 KCAL/MOL
REMARK 927      BINDING AFFINITY PREDICTED BY RF-SCORE:    0.00 PKD
ROOT
HETATM    1  C   UNL     1     -10.437   4.098  65.110  1.00  0.00    -0.174 C  
HETATM    2  C   UNL     1      -9.127   4.005  65.901  1.00  0.00    -0.143 C  
ENDROOT
BRANCH   2   3
HETATM    3  N   UNL     1      -8.236   5.181  65.885  1.00  0.00    -0.113 NA 
BRANCH   3   4
HETATM    4  C   UNL     1      -7.350   5.471  64.739  1.00  0.00    -0.064 C  
HETATM    5  C   UNL     1      -6.082   6.244  65.124  1.00  0.00    -0.030 C  
ENDBRANCH   3   4
BRANCH   3   6
HETATM    6  C   UNL     1      -8.300   6.069  67.033  1.00  0.00    -0.105 C  
HETATM    7  S   UNL     1      -7.725   5.653  68.541  1.00  0.00    -0.089 SA 
HETATM    8 ZN   UNL     1      -9.291   7.097  68.974  1.00  0.00    -0.137 Zn 
HETATM    9  S   UNL     1     -11.159   6.315  69.562  1.00  0.00    -0.421 SA 
HETATM   10  S   UNL     1      -9.172   7.695  66.938  1.00  0.00    -0.153 SA 
HETATM   11  C   UNL     1     -10.933   7.795  70.619  1.00  0.00    -0.249 C  
HETATM   12  S   UNL     1      -9.404   8.440  70.707  1.00  0.00    -0.172 SA 
BRANCH  11  13
HETATM   13  N   UNL     1     -12.074   8.505  71.130  1.00  0.00    -0.279 NA 
BRANCH  13  14
HETATM   14  C   UNL     1     -13.292   7.786  71.493  1.00  0.00    -0.320 C  
HETATM   15  C   UNL     1     -14.234   8.708  72.267  1.00  0.00    -0.497 C  
ENDBRANCH  13  14
BRANCH  13  16
HETATM   16  C   UNL     1     -12.004   9.951  71.313  1.00  0.00    -0.402 C  
HETATM   17  C   UNL     1     -12.143  10.719  70.002  1.00  0.00    -0.423 C  
ENDBRANCH  13  16
ENDBRANCH  11  13
ENDBRANCH   3   6
ENDBRANCH   2   3
TORSDOF 6
ENDMDL
MODEL      129
REMARK 921   NORMALIZED FREE ENERGY PREDICTED BY IDOCK:   -3.09 KCAL/MOL
REMARK 922        TOTAL FREE ENERGY PREDICTED BY IDOCK:   -4.07 KCAL/MOL
REMARK 923 INTER-LIGAND FREE ENERGY PREDICTED BY IDOCK:   -3.76 KCAL/MOL
REMARK 924 INTRA-LIGAND FREE ENERGY PREDICTED BY IDOCK:   -0.31 KCAL/MOL
REMARK 927      BINDING AFFINITY PREDICTED BY RF-SCORE:    0.00 PKD
ROOT
HETATM    1  C   UNL     1      -9.308   8.526  72.242  1.00  0.00    -0.363 C  
HETATM    2  C   UNL     1      -8.372   8.802  71.059  1.00  0.00    -0.171 C  
ENDROOT
BRANCH   2   3
HETATM    3  N   UNL     1      -8.457   7.896  69.897  1.00  0.00    -0.126 NA 
BRANCH   3   4
HETATM    4  C   UNL     1      -8.160   6.453  70.012  1.00  0.00    -0.121 C  
HETATM    5  C   UNL     1      -6.676   6.115  69.812  1.00  0.00    -0.052 C  
ENDBRANCH   3   4
BRANCH   3   6
HETATM    6  C   UNL     1      -8.890   8.480  68.639  1.00  0.00    -0.136 C  
HETATM    7  S   UNL     1      -7.837   8.871  67.406  1.00  0.00    -0.097 SA 
HETATM    8 ZN   UNL     1      -9.492  10.251  67.121  1.00  0.00    -0.144 Zn 
HETATM    9  S   UNL     1      -9.225  12.209  67.858  1.00  0.00    -0.194 SA 
HETATM   10  S   UNL     1     -10.648   8.975  68.367  1.00  0.00    -0.104 SA 
HETATM   11  C   UNL     1     -10.114  12.438  66.272  1.00  0.00    -0.240 C  
HETATM   12  S   UNL     1     -10.151  11.146  65.228  1.00  0.00    -0.293 SA 
BRANCH  11  13
HETATM   13  N   UNL     1     -10.953  13.587  66.068  1.00  0.00    -0.276 NA 
BRANCH  13  14
HETATM   14  C   UNL     1     -12.224  13.712  66.778  1.00  0.00    -0.369 C  
HETATM   15  C   UNL     1     -12.015  14.446  68.102  1.00  0.00    -0.320 C  
ENDBRANCH  13  14
BRANCH  13  16
HETATM   16  C   UNL     1     -10.519  14.650  65.168  1.00  0.00    -0.416 C  
HETATM   17  C   UNL     1      -9.450  15.546  65.787  1.00  0.00    -0.334 C  
ENDBRANCH  13  16
ENDBRANCH  11  13
ENDBRANCH   3   6
ENDBRANCH   2   3
TORSDOF 6
ENDMDL
MODEL      130
REMARK 921   NORMALIZED FREE ENERGY PREDICTED BY IDOCK:   -3.07 KCAL/MOL
REMARK 922        TOTAL FREE ENERGY PREDICTED BY IDOCK:   -4.04 KCAL/MOL
REMARK 923 INTER-LIGAND FREE ENERGY PREDICTED BY IDOCK:   -3.64 KCAL/MOL
REMARK 924 INTRA-LIGAND FREE ENERGY PREDICTED BY IDOCK:   -0.40 KCAL/MOL
REMARK 927      BINDING AFFINITY PREDICTED BY RF-SCORE:    0.00 PKD
ROOT
HETATM    1  C   UNL     1      -6.382   9.433  64.250  1.00  0.00    -0.089 C  
HETATM    2  C   UNL     1      -7.023  10.320  65.324  1.00  0.00    -0.130 C  
ENDROOT
BRANCH   2   3
HETATM    3  N   UNL     1      -8.313   9.880  65.890  1.00  0.00    -0.121 NA 
BRANCH   3   4
HETATM    4  C   UNL     1      -9.462   9.532  65.030  1.00  0.00    -0.204 C  
HETATM    5  C   UNL     1     -10.124  10.749  64.369  1.00  0.00    -0.419 C  
ENDBRANCH   3   4
BRANCH   3   6
HETATM    6  C   UNL     1      -8.389   9.763  67.336  1.00  0.00    -0.114 C  
HETATM    7  S   UNL     1      -7.219   9.007  68.252  1.00  0.00    -0.079 SA 
HETATM    8 ZN   UNL     1      -9.026   8.771  69.438  1.00  0.00    -0.127 Zn 
HETATM    9  S   UNL     1     -10.006   6.909  69.305  1.00  0.00    -0.163 SA 
HETATM   10  S   UNL     1      -9.885  10.321  68.264  1.00  0.00    -0.150 SA 
HETATM   11  C   UNL     1     -10.146   7.370  71.072  1.00  0.00    -0.190 C  
HETATM   12  S   UNL     1      -9.155   8.586  71.621  1.00  0.00    -0.250 SA 
BRANCH  11  13
HETATM   13  N   UNL     1     -11.239   6.881  71.867  1.00  0.00    -0.245 NA 
BRANCH  13  14
HETATM   14  C   UNL     1     -10.996   6.305  73.186  1.00  0.00    -0.223 C  
HETATM   15  C   UNL     1     -11.262   4.799  73.158  1.00  0.00    -0.390 C  
ENDBRANCH  13  14
BRANCH  13  16
HETATM   16  C   UNL     1     -12.605   6.988  71.363  1.00  0.00    -0.386 C  
HETATM   17  C   UNL     1     -13.327   8.230  71.879  1.00  0.00    -0.364 C  
ENDBRANCH  13  16
ENDBRANCH  11  13
ENDBRANCH   3   6
ENDBRANCH   2   3
TORSDOF 6
ENDMDL
MODEL      131
REMARK 921   NORMALIZED FREE ENERGY PREDICTED BY IDOCK:   -3.07 KCAL/MOL
REMARK 922        TOTAL FREE ENERGY PREDICTED BY IDOCK:   -4.04 KCAL/MOL
REMARK 923 INTER-LIGAND FREE ENERGY PREDICTED BY IDOCK:   -3.80 KCAL/MOL
REMARK 924 INTRA-LIGAND FREE ENERGY PREDICTED BY IDOCK:   -0.24 KCAL/MOL
REMARK 927      BINDING AFFINITY PREDICTED BY RF-SCORE:    0.00 PKD
ROOT
HETATM    1  C   UNL     1      -8.991   4.364  64.146  1.00  0.00    -0.151 C  
HETATM    2  C   UNL     1     -10.025   4.233  65.271  1.00  0.00    -0.219 C  
ENDROOT
BRANCH   2   3
HETATM    3  N   UNL     1      -9.522   3.954  66.630  1.00  0.00    -0.191 NA 
BRANCH   3   4
HETATM    4  C   UNL     1      -9.283   2.574  67.102  1.00  0.00    -0.109 C  
HETATM    5  C   UNL     1      -7.858   2.073  66.836  1.00  0.00    -0.067 C  
ENDBRANCH   3   4
BRANCH   3   6
HETATM    6  C   UNL     1      -9.230   5.101  67.471  1.00  0.00    -0.117 C  
HETATM    7  S   UNL     1      -8.418   4.984  68.923  1.00  0.00    -0.086 SA 
HETATM    8 ZN   UNL     1      -9.654   6.756  69.170  1.00  0.00    -0.137 Zn 
HETATM    9  S   UNL     1     -11.450   6.511  70.248  1.00  0.00    -0.397 SA 
HETATM   10  S   UNL     1      -9.875   6.781  67.057  1.00  0.00    -0.179 SA 
HETATM   11  C   UNL     1     -10.815   8.142  70.788  1.00  0.00    -0.228 C  
HETATM   12  S   UNL     1      -9.228   8.492  70.443  1.00  0.00    -0.168 SA 
BRANCH  11  13
HETATM   13  N   UNL     1     -11.721   9.158  71.251  1.00  0.00    -0.302 NA 
BRANCH  13  14
HETATM   14  C   UNL     1     -11.584  10.537  70.791  1.00  0.00    -0.338 C  
HETATM   15  C   UNL     1     -11.891  10.625  69.296  1.00  0.00    -0.309 C  
ENDBRANCH  13  14
BRANCH  13  16
HETATM   16  C   UNL     1     -12.803   8.802  72.164  1.00  0.00    -0.400 C  
HETATM   17  C   UNL     1     -14.151   8.682  71.460  1.00  0.00    -0.409 C  
ENDBRANCH  13  16
ENDBRANCH  11  13
ENDBRANCH   3   6
ENDBRANCH   2   3
TORSDOF 6
ENDMDL
MODEL      132
REMARK 921   NORMALIZED FREE ENERGY PREDICTED BY IDOCK:   -3.07 KCAL/MOL
REMARK 922        TOTAL FREE ENERGY PREDICTED BY IDOCK:   -4.04 KCAL/MOL
REMARK 923 INTER-LIGAND FREE ENERGY PREDICTED BY IDOCK:   -3.70 KCAL/MOL
REMARK 924 INTRA-LIGAND FREE ENERGY PREDICTED BY IDOCK:   -0.34 KCAL/MOL
REMARK 927      BINDING AFFINITY PREDICTED BY RF-SCORE:    0.00 PKD
ROOT
HETATM    1  C   UNL     1      -6.540   6.911  65.598  1.00  0.00    -0.051 C  
HETATM    2  C   UNL     1      -7.645   6.297  66.465  1.00  0.00    -0.094 C  
ENDROOT
BRANCH   2   3
HETATM    3  N   UNL     1      -7.753   6.760  67.862  1.00  0.00    -0.110 NA 
BRANCH   3   4
HETATM    4  C   UNL     1      -6.954   6.153  68.947  1.00  0.00    -0.072 C  
HETATM    5  C   UNL     1      -7.514   6.426  70.349  1.00  0.00    -0.094 C  
ENDBRANCH   3   4
BRANCH   3   6
HETATM    6  C   UNL     1      -8.651   7.873  68.118  1.00  0.00    -0.123 C  
HETATM    7  S   UNL     1     -10.307   7.704  68.215  1.00  0.00    -0.181 SA 
HETATM    8 ZN   UNL     1     -10.041   9.759  67.559  1.00  0.00    -0.148 Zn 
HETATM    9  S   UNL     1     -10.283  10.130  65.497  1.00  0.00    -0.135 SA 
HETATM   10  S   UNL     1      -8.024   9.607  68.211  1.00  0.00    -0.097 SA 
HETATM   11  C   UNL     1     -11.052  11.579  66.312  1.00  0.00    -0.263 C  
HETATM   12  S   UNL     1     -11.393  11.448  67.932  1.00  0.00    -0.304 SA 
BRANCH  11  13
HETATM   13  N   UNL     1     -11.111  12.847  65.637  1.00  0.00    -0.275 NA 
BRANCH  13  14
HETATM   14  C   UNL     1     -12.307  13.236  64.895  1.00  0.00    -0.425 C  
HETATM   15  C   UNL     1     -12.383  12.463  63.578  1.00  0.00    -0.648 C  
ENDBRANCH  13  14
BRANCH  13  16
HETATM   16  C   UNL     1      -9.978  13.763  65.717  1.00  0.00    -0.275 C  
HETATM   17  C   UNL     1     -10.390  15.224  65.561  1.00  0.00    -0.408 C  
ENDBRANCH  13  16
ENDBRANCH  11  13
ENDBRANCH   3   6
ENDBRANCH   2   3
TORSDOF 6
ENDMDL
MODEL      133
REMARK 921   NORMALIZED FREE ENERGY PREDICTED BY IDOCK:   -3.06 KCAL/MOL
REMARK 922        TOTAL FREE ENERGY PREDICTED BY IDOCK:   -4.03 KCAL/MOL
REMARK 923 INTER-LIGAND FREE ENERGY PREDICTED BY IDOCK:   -3.63 KCAL/MOL
REMARK 924 INTRA-LIGAND FREE ENERGY PREDICTED BY IDOCK:   -0.40 KCAL/MOL
REMARK 927      BINDING AFFINITY PREDICTED BY RF-SCORE:    0.00 PKD
ROOT
HETATM    1  C   UNL     1      -9.030  10.759  62.898  1.00  0.00    -0.284 C  
HETATM    2  C   UNL     1      -9.899  10.359  64.096  1.00  0.00    -0.313 C  
ENDROOT
BRANCH   2   3
HETATM    3  N   UNL     1      -9.223   9.743  65.254  1.00  0.00    -0.219 NA 
BRANCH   3   4
HETATM    4  C   UNL     1      -7.793   9.372  65.212  1.00  0.00    -0.109 C  
HETATM    5  C   UNL     1      -7.060   9.605  66.540  1.00  0.00    -0.089 C  
ENDBRANCH   3   4
BRANCH   3   6
HETATM    6  C   UNL     1     -10.016   9.556  66.455  1.00  0.00    -0.261 C  
HETATM    7  S   UNL     1     -10.398  10.800  67.499  1.00  0.00    -0.220 SA 
HETATM    8 ZN   UNL     1     -10.420   9.039  68.774  1.00  0.00    -0.181 Zn 
HETATM    9  S   UNL     1      -8.698   8.698  69.942  1.00  0.00    -0.137 SA 
HETATM   10  S   UNL     1     -10.545   7.873  67.002  1.00  0.00    -0.209 SA 
HETATM   11  C   UNL     1     -10.090   8.240  71.041  1.00  0.00    -0.191 C  
HETATM   12  S   UNL     1     -11.609   8.746  70.596  1.00  0.00    -0.147 SA 
BRANCH  11  13
HETATM   13  N   UNL     1      -9.902   7.274  72.088  1.00  0.00    -0.160 NA 
BRANCH  13  14
HETATM   14  C   UNL     1     -10.682   7.354  73.320  1.00  0.00    -0.391 C  
HETATM   15  C   UNL     1      -9.955   6.626  74.450  1.00  0.00    -0.359 C  
ENDBRANCH  13  14
BRANCH  13  16
HETATM   16  C   UNL     1      -8.946   6.186  71.907  1.00  0.00    -0.140 C  
HETATM   17  C   UNL     1      -9.473   5.084  70.993  1.00  0.00    -0.220 C  
ENDBRANCH  13  16
ENDBRANCH  11  13
ENDBRANCH   3   6
ENDBRANCH   2   3
TORSDOF 6
ENDMDL
MODEL      134
REMARK 921   NORMALIZED FREE ENERGY PREDICTED BY IDOCK:   -3.03 KCAL/MOL
REMARK 922        TOTAL FREE ENERGY PREDICTED BY IDOCK:   -3.99 KCAL/MOL
REMARK 923 INTER-LIGAND FREE ENERGY PREDICTED BY IDOCK:   -3.63 KCAL/MOL
REMARK 924 INTRA-LIGAND FREE ENERGY PREDICTED BY IDOCK:   -0.36 KCAL/MOL
REMARK 927      BINDING AFFINITY PREDICTED BY RF-SCORE:    0.00 PKD
ROOT
HETATM    1  C   UNL     1      -9.926   4.244  65.344  1.00  0.00    -0.233 C  
HETATM    2  C   UNL     1      -8.563   4.844  65.709  1.00  0.00    -0.128 C  
ENDROOT
BRANCH   2   3
HETATM    3  N   UNL     1      -8.329   6.260  65.369  1.00  0.00    -0.148 NA 
BRANCH   3   4
HETATM    4  C   UNL     1      -7.865   6.672  64.028  1.00  0.00    -0.112 C  
HETATM    5  C   UNL     1      -8.031   8.173  63.755  1.00  0.00    -0.137 C  
ENDBRANCH   3   4
BRANCH   3   6
HETATM    6  C   UNL     1      -8.617   7.240  66.402  1.00  0.00    -0.138 C  
HETATM    7  S   UNL     1      -7.459   7.831  67.446  1.00  0.00    -0.094 SA 
HETATM    8 ZN   UNL     1      -9.307   8.016  68.576  1.00  0.00    -0.137 Zn 
HETATM    9  S   UNL     1      -9.699   6.506  69.996  1.00  0.00    -0.165 SA 
HETATM   10  S   UNL     1     -10.345   7.802  66.734  1.00  0.00    -0.204 SA 
HETATM   11  C   UNL     1     -10.261   8.050  70.807  1.00  0.00    -0.194 C  
HETATM   12  S   UNL     1      -9.753   9.486  70.143  1.00  0.00    -0.259 SA 
BRANCH  11  13
HETATM   13  N   UNL     1     -11.297   8.013  71.803  1.00  0.00    -0.258 NA 
BRANCH  13  14
HETATM   14  C   UNL     1     -11.034   7.452  73.125  1.00  0.00    -0.359 C  
HETATM   15  C   UNL     1      -9.591   7.738  73.539  1.00  0.00    -0.332 C  
ENDBRANCH  13  14
BRANCH  13  16
HETATM   16  C   UNL     1     -12.613   8.566  71.499  1.00  0.00    -0.316 C  
HETATM   17  C   UNL     1     -13.690   7.492  71.377  1.00  0.00    -0.414 C  
ENDBRANCH  13  16
ENDBRANCH  11  13
ENDBRANCH   3   6
ENDBRANCH   2   3
TORSDOF 6
ENDMDL
MODEL      135
REMARK 921   NORMALIZED FREE ENERGY PREDICTED BY IDOCK:   -3.02 KCAL/MOL
REMARK 922        TOTAL FREE ENERGY PREDICTED BY IDOCK:   -3.98 KCAL/MOL
REMARK 923 INTER-LIGAND FREE ENERGY PREDICTED BY IDOCK:   -3.65 KCAL/MOL
REMARK 924 INTRA-LIGAND FREE ENERGY PREDICTED BY IDOCK:   -0.33 KCAL/MOL
REMARK 927      BINDING AFFINITY PREDICTED BY RF-SCORE:    0.00 PKD
ROOT
HETATM    1  C   UNL     1      -7.782  14.176  68.239  1.00  0.00    -0.139 C  
HETATM    2  C   UNL     1      -8.908  13.636  67.350  1.00  0.00    -0.221 C  
ENDROOT
BRANCH   2   3
HETATM    3  N   UNL     1      -9.985  12.868  68.005  1.00  0.00    -0.230 NA 
BRANCH   3   4
HETATM    4  C   UNL     1     -11.166  13.532  68.595  1.00  0.00    -0.278 C  
HETATM    5  C   UNL     1     -12.133  14.104  67.549  1.00  0.00    -0.363 C  
ENDBRANCH   3   4
BRANCH   3   6
HETATM    6  C   UNL     1      -9.852  11.422  68.007  1.00  0.00    -0.184 C  
HETATM    7  S   UNL     1     -10.991  10.401  67.341  1.00  0.00    -0.218 SA 
HETATM    8 ZN   UNL     1     -10.061   9.188  68.888  1.00  0.00    -0.163 Zn 
HETATM    9  S   UNL     1     -11.103   9.026  70.714  1.00  0.00    -0.289 SA 
HETATM   10  S   UNL     1      -8.462  10.589  68.892  1.00  0.00    -0.157 SA 
HETATM   11  C   UNL     1     -10.413   7.352  70.434  1.00  0.00    -0.221 C  
HETATM   12  S   UNL     1      -9.860   7.003  68.907  1.00  0.00    -0.153 SA 
BRANCH  11  13
HETATM   13  N   UNL     1     -10.129   6.488  71.547  1.00  0.00    -0.190 NA 
BRANCH  13  14
HETATM   14  C   UNL     1      -8.967   5.603  71.520  1.00  0.00    -0.140 C  
HETATM   15  C   UNL     1      -7.733   6.342  72.039  1.00  0.00    -0.096 C  
ENDBRANCH  13  14
BRANCH  13  16
HETATM   16  C   UNL     1     -10.991   6.515  72.724  1.00  0.00    -0.253 C  
HETATM   17  C   UNL     1     -10.891   5.241  73.558  1.00  0.00    -0.358 C  
ENDBRANCH  13  16
ENDBRANCH  11  13
ENDBRANCH   3   6
ENDBRANCH   2   3
TORSDOF 6
ENDMDL
MODEL      136
REMARK 921   NORMALIZED FREE ENERGY PREDICTED BY IDOCK:   -3.01 KCAL/MOL
REMARK 922        TOTAL FREE ENERGY PREDICTED BY IDOCK:   -3.97 KCAL/MOL
REMARK 923 INTER-LIGAND FREE ENERGY PREDICTED BY IDOCK:   -3.60 KCAL/MOL
REMARK 924 INTRA-LIGAND FREE ENERGY PREDICTED BY IDOCK:   -0.37 KCAL/MOL
REMARK 927      BINDING AFFINITY PREDICTED BY RF-SCORE:    0.00 PKD
ROOT
HETATM    1  C   UNL     1     -10.742   2.979  72.998  1.00  0.00    -0.221 C  
HETATM    2  C   UNL     1     -10.976   4.407  73.505  1.00  0.00    -0.295 C  
ENDROOT
BRANCH   2   3
HETATM    3  N   UNL     1      -9.968   5.427  73.157  1.00  0.00    -0.165 NA 
BRANCH   3   4
HETATM    4  C   UNL     1      -8.520   5.170  73.298  1.00  0.00    -0.113 C  
HETATM    5  C   UNL     1      -7.819   4.862  71.968  1.00  0.00    -0.108 C  
ENDBRANCH   3   4
BRANCH   3   6
HETATM    6  C   UNL     1     -10.463   6.686  72.627  1.00  0.00    -0.212 C  
HETATM    7  S   UNL     1     -11.984   6.861  71.966  1.00  0.00    -0.288 SA 
HETATM    8 ZN   UNL     1     -10.812   8.394  70.964  1.00  0.00    -0.212 Zn 
HETATM    9  S   UNL     1     -10.113   7.933  69.028  1.00  0.00    -0.204 SA 
HETATM   10  S   UNL     1      -9.372   8.171  72.512  1.00  0.00    -0.284 SA 
HETATM   11  C   UNL     1     -10.596   9.698  68.929  1.00  0.00    -0.217 C  
HETATM   12  S   UNL     1     -11.548  10.295  70.153  1.00  0.00    -0.304 SA 
BRANCH  11  13
HETATM   13  N   UNL     1      -9.963  10.572  67.980  1.00  0.00    -0.153 NA 
BRANCH  13  14
HETATM   14  C   UNL     1     -10.231  10.434  66.552  1.00  0.00    -0.229 C  
HETATM   15  C   UNL     1      -8.997   9.883  65.837  1.00  0.00    -0.183 C  
ENDBRANCH  13  14
BRANCH  13  16
HETATM   16  C   UNL     1      -9.067  11.625  68.451  1.00  0.00    -0.180 C  
HETATM   17  C   UNL     1      -9.598  13.025  68.156  1.00  0.00    -0.227 C  
ENDBRANCH  13  16
ENDBRANCH  11  13
ENDBRANCH   3   6
ENDBRANCH   2   3
TORSDOF 6
ENDMDL
MODEL      137
REMARK 921   NORMALIZED FREE ENERGY PREDICTED BY IDOCK:   -3.01 KCAL/MOL
REMARK 922        TOTAL FREE ENERGY PREDICTED BY IDOCK:   -3.96 KCAL/MOL
REMARK 923 INTER-LIGAND FREE ENERGY PREDICTED BY IDOCK:   -3.64 KCAL/MOL
REMARK 924 INTRA-LIGAND FREE ENERGY PREDICTED BY IDOCK:   -0.32 KCAL/MOL
REMARK 927      BINDING AFFINITY PREDICTED BY RF-SCORE:    0.00 PKD
ROOT
HETATM    1  C   UNL     1      -7.624   5.266  63.280  1.00  0.00    -0.069 C  
HETATM    2  C   UNL     1      -7.995   6.340  64.309  1.00  0.00    -0.108 C  
ENDROOT
BRANCH   2   3
HETATM    3  N   UNL     1      -8.708   5.902  65.524  1.00  0.00    -0.150 NA 
BRANCH   3   4
HETATM    4  C   UNL     1      -9.136   4.500  65.712  1.00  0.00    -0.136 C  
HETATM    5  C   UNL     1     -10.493   4.182  65.069  1.00  0.00    -0.187 C  
ENDBRANCH   3   4
BRANCH   3   6
HETATM    6  C   UNL     1      -8.935   6.904  66.551  1.00  0.00    -0.150 C  
HETATM    7  S   UNL     1      -7.697   7.690  67.346  1.00  0.00    -0.119 SA 
HETATM    8 ZN   UNL     1      -9.330   7.728  68.780  1.00  0.00    -0.140 Zn 
HETATM    9  S   UNL     1      -9.278   6.275  70.308  1.00  0.00    -0.158 SA 
HETATM   10  S   UNL     1     -10.636   7.281  67.164  1.00  0.00    -0.339 SA 
HETATM   11  C   UNL     1      -9.881   7.791  71.143  1.00  0.00    -0.169 C  
HETATM   12  S   UNL     1      -9.680   9.232  70.340  1.00  0.00    -0.262 SA 
BRANCH  11  13
HETATM   13  N   UNL     1     -10.717   7.695  72.308  1.00  0.00    -0.242 NA 
BRANCH  13  14
HETATM   14  C   UNL     1     -12.104   8.150  72.265  1.00  0.00    -0.364 C  
HETATM   15  C   UNL     1     -12.938   7.208  71.396  1.00  0.00    -0.419 C  
ENDBRANCH  13  14
BRANCH  13  16
HETATM   16  C   UNL     1     -10.184   7.113  73.536  1.00  0.00    -0.351 C  
HETATM   17  C   UNL     1     -10.710   5.705  73.797  1.00  0.00    -0.277 C  
ENDBRANCH  13  16
ENDBRANCH  11  13
ENDBRANCH   3   6
ENDBRANCH   2   3
TORSDOF 6
ENDMDL
MODEL      138
REMARK 921   NORMALIZED FREE ENERGY PREDICTED BY IDOCK:   -3.01 KCAL/MOL
REMARK 922        TOTAL FREE ENERGY PREDICTED BY IDOCK:   -3.96 KCAL/MOL
REMARK 923 INTER-LIGAND FREE ENERGY PREDICTED BY IDOCK:   -3.76 KCAL/MOL
REMARK 924 INTRA-LIGAND FREE ENERGY PREDICTED BY IDOCK:   -0.20 KCAL/MOL
REMARK 927      BINDING AFFINITY PREDICTED BY RF-SCORE:    0.00 PKD
ROOT
HETATM    1  C   UNL     1     -10.890  15.878  70.110  1.00  0.00    -0.359 C  
HETATM    2  C   UNL     1     -11.859  15.031  69.278  1.00  0.00    -0.315 C  
ENDROOT
BRANCH   2   3
HETATM    3  N   UNL     1     -11.632  13.573  69.243  1.00  0.00    -0.297 NA 
BRANCH   3   4
HETATM    4  C   UNL     1     -12.102  12.686  70.327  1.00  0.00    -0.294 C  
HETATM    5  C   UNL     1     -12.938  13.409  71.392  1.00  0.00    -0.412 C  
ENDBRANCH   3   4
BRANCH   3   6
HETATM    6  C   UNL     1     -10.962  13.041  68.069  1.00  0.00    -0.250 C  
HETATM    7  S   UNL     1     -11.776  12.548  66.700  1.00  0.00    -0.357 SA 
HETATM    8 ZN   UNL     1      -9.964  11.346  66.677  1.00  0.00    -0.187 Zn 
HETATM    9  S   UNL     1     -10.134   9.369  67.390  1.00  0.00    -0.231 SA 
HETATM   10  S   UNL     1      -9.141  12.731  68.065  1.00  0.00    -0.211 SA 
HETATM   11  C   UNL     1      -9.002   9.239  65.955  1.00  0.00    -0.176 C  
HETATM   12  S   UNL     1      -8.945  10.531  64.913  1.00  0.00    -0.208 SA 
BRANCH  11  13
HETATM   13  N   UNL     1      -8.029   8.183  65.891  1.00  0.00    -0.097 NA 
BRANCH  13  14
HETATM   14  C   UNL     1      -8.437   6.789  66.046  1.00  0.00    -0.142 C  
HETATM   15  C   UNL     1      -8.272   6.043  64.722  1.00  0.00    -0.123 C  
ENDBRANCH  13  14
BRANCH  13  16
HETATM   16  C   UNL     1      -6.628   8.504  65.639  1.00  0.00    -0.059 C  
HETATM   17  C   UNL     1      -5.678   7.783  66.591  1.00  0.00    -0.039 C  
ENDBRANCH  13  16
ENDBRANCH  11  13
ENDBRANCH   3   6
ENDBRANCH   2   3
TORSDOF 6
ENDMDL
MODEL      139
REMARK 921   NORMALIZED FREE ENERGY PREDICTED BY IDOCK:   -3.00 KCAL/MOL
REMARK 922        TOTAL FREE ENERGY PREDICTED BY IDOCK:   -3.95 KCAL/MOL
REMARK 923 INTER-LIGAND FREE ENERGY PREDICTED BY IDOCK:   -3.58 KCAL/MOL
REMARK 924 INTRA-LIGAND FREE ENERGY PREDICTED BY IDOCK:   -0.37 KCAL/MOL
REMARK 927      BINDING AFFINITY PREDICTED BY RF-SCORE:    0.00 PKD
ROOT
HETATM    1  C   UNL     1      -7.145   2.694  64.216  1.00  0.00    -0.049 C  
HETATM    2  C   UNL     1      -7.185   3.058  65.705  1.00  0.00    -0.070 C  
ENDROOT
BRANCH   2   3
HETATM    3  N   UNL     1      -8.446   3.609  66.239  1.00  0.00    -0.109 NA 
BRANCH   3   4
HETATM    4  C   UNL     1      -9.660   3.723  65.404  1.00  0.00    -0.174 C  
HETATM    5  C   UNL     1     -10.635   4.806  65.884  1.00  0.00    -0.290 C  
ENDBRANCH   3   4
BRANCH   3   6
HETATM    6  C   UNL     1      -8.453   3.996  67.638  1.00  0.00    -0.098 C  
HETATM    7  S   UNL     1      -9.171   3.082  68.834  1.00  0.00    -0.163 SA 
HETATM    8 ZN   UNL     1      -9.266   5.108  69.615  1.00  0.00    -0.101 Zn 
HETATM    9  S   UNL     1     -11.104   6.119  69.398  1.00  0.00    -0.381 SA 
HETATM   10  S   UNL     1      -7.784   5.629  68.183  1.00  0.00    -0.089 SA 
HETATM   11  C   UNL     1     -10.509   6.611  71.059  1.00  0.00    -0.214 C  
HETATM   12  S   UNL     1      -9.285   5.708  71.726  1.00  0.00    -0.145 SA 
BRANCH  11  13
HETATM   13  N   UNL     1     -10.906   7.869  71.631  1.00  0.00    -0.228 NA 
BRANCH  13  14
HETATM   14  C   UNL     1      -9.926   8.932  71.833  1.00  0.00    -0.314 C  
HETATM   15  C   UNL     1      -9.339   9.367  70.490  1.00  0.00    -0.319 C  
ENDBRANCH  13  14
BRANCH  13  16
HETATM   16  C   UNL     1     -12.304   8.094  71.984  1.00  0.00    -0.338 C  
HETATM   17  C   UNL     1     -12.713   9.559  71.861  1.00  0.00    -0.496 C  
ENDBRANCH  13  16
ENDBRANCH  11  13
ENDBRANCH   3   6
ENDBRANCH   2   3
TORSDOF 6
ENDMDL
MODEL      140
REMARK 921   NORMALIZED FREE ENERGY PREDICTED BY IDOCK:   -3.00 KCAL/MOL
REMARK 922        TOTAL FREE ENERGY PREDICTED BY IDOCK:   -3.95 KCAL/MOL
REMARK 923 INTER-LIGAND FREE ENERGY PREDICTED BY IDOCK:   -3.55 KCAL/MOL
REMARK 924 INTRA-LIGAND FREE ENERGY PREDICTED BY IDOCK:   -0.41 KCAL/MOL
REMARK 927      BINDING AFFINITY PREDICTED BY RF-SCORE:    0.00 PKD
ROOT
HETATM    1  C   UNL     1      -6.966   8.074  68.852  1.00  0.00    -0.062 C  
HETATM    2  C   UNL     1      -7.927   6.934  68.492  1.00  0.00    -0.120 C  
ENDROOT
BRANCH   2   3
HETATM    3  N   UNL     1      -8.130   6.641  67.060  1.00  0.00    -0.112 NA 
BRANCH   3   4
HETATM    4  C   UNL     1      -7.685   5.367  66.457  1.00  0.00    -0.099 C  
HETATM    5  C   UNL     1      -6.849   4.498  67.406  1.00  0.00    -0.059 C  
ENDBRANCH   3   4
BRANCH   3   6
HETATM    6  C   UNL     1      -8.827   7.645  66.276  1.00  0.00    -0.156 C  
HETATM    7  S   UNL     1      -8.196   8.316  64.886  1.00  0.00    -0.131 SA 
HETATM    8 ZN   UNL     1      -9.516   9.867  65.648  1.00  0.00    -0.147 Zn 
HETATM    9  S   UNL     1      -8.605  11.438  66.721  1.00  0.00    -0.169 SA 
HETATM   10  S   UNL     1     -10.425   8.370  66.852  1.00  0.00    -0.218 SA 
HETATM   11  C   UNL     1      -9.907  12.260  65.730  1.00  0.00    -0.244 C  
HETATM   12  S   UNL     1     -10.570  11.394  64.476  1.00  0.00    -0.331 SA 
BRANCH  11  13
HETATM   13  N   UNL     1     -10.500  13.488  66.184  1.00  0.00    -0.291 NA 
BRANCH  13  14
HETATM   14  C   UNL     1     -11.818  13.486  66.814  1.00  0.00    -0.406 C  
HETATM   15  C   UNL     1     -11.807  12.587  68.051  1.00  0.00    -0.382 C  
ENDBRANCH  13  14
BRANCH  13  16
HETATM   16  C   UNL     1      -9.768  14.742  66.042  1.00  0.00    -0.321 C  
HETATM   17  C   UNL     1     -10.558  15.946  66.546  1.00  0.00    -0.297 C  
ENDBRANCH  13  16
ENDBRANCH  11  13
ENDBRANCH   3   6
ENDBRANCH   2   3
TORSDOF 6
ENDMDL
MODEL      141
REMARK 921   NORMALIZED FREE ENERGY PREDICTED BY IDOCK:   -2.99 KCAL/MOL
REMARK 922        TOTAL FREE ENERGY PREDICTED BY IDOCK:   -3.94 KCAL/MOL
REMARK 923 INTER-LIGAND FREE ENERGY PREDICTED BY IDOCK:   -3.61 KCAL/MOL
REMARK 924 INTRA-LIGAND FREE ENERGY PREDICTED BY IDOCK:   -0.33 KCAL/MOL
REMARK 927      BINDING AFFINITY PREDICTED BY RF-SCORE:    0.00 PKD
ROOT
HETATM    1  C   UNL     1      -8.668   9.247  63.640  1.00  0.00    -0.188 C  
HETATM    2  C   UNL     1      -8.719   8.861  65.123  1.00  0.00    -0.178 C  
ENDROOT
BRANCH   2   3
HETATM    3  N   UNL     1      -9.512   9.719  66.024  1.00  0.00    -0.193 NA 
BRANCH   3   4
HETATM    4  C   UNL     1      -9.582  11.184  65.841  1.00  0.00    -0.218 C  
HETATM    5  C   UNL     1     -10.886  11.658  65.185  1.00  0.00    -0.346 C  
ENDBRANCH   3   4
BRANCH   3   6
HETATM    6  C   UNL     1     -10.258   9.054  67.078  1.00  0.00    -0.266 C  
HETATM    7  S   UNL     1     -10.775   9.832  68.459  1.00  0.00    -0.193 SA 
HETATM    8 ZN   UNL     1     -10.559   7.762  69.090  1.00  0.00    -0.193 Zn 
HETATM    9  S   UNL     1      -8.790   7.272  70.128  1.00  0.00    -0.144 SA 
HETATM   10  S   UNL     1     -10.565   7.233  67.031  1.00  0.00    -0.310 SA 
HETATM   11  C   UNL     1     -10.098   6.313  70.980  1.00  0.00    -0.185 C  
HETATM   12  S   UNL     1     -11.674   6.747  70.684  1.00  0.00    -0.375 SA 
BRANCH  11  13
HETATM   13  N   UNL     1      -9.775   5.088  71.659  1.00  0.00    -0.163 NA 
BRANCH  13  14
HETATM   14  C   UNL     1      -9.660   3.837  70.915  1.00  0.00    -0.186 C  
HETATM   15  C   UNL     1      -9.879   2.647  71.850  1.00  0.00    -0.227 C  
ENDBRANCH  13  14
BRANCH  13  16
HETATM   16  C   UNL     1      -9.533   5.099  73.098  1.00  0.00    -0.134 C  
HETATM   17  C   UNL     1      -8.134   5.591  73.456  1.00  0.00    -0.113 C  
ENDBRANCH  13  16
ENDBRANCH  11  13
ENDBRANCH   3   6
ENDBRANCH   2   3
TORSDOF 6
ENDMDL
MODEL      142
REMARK 921   NORMALIZED FREE ENERGY PREDICTED BY IDOCK:   -2.96 KCAL/MOL
REMARK 922        TOTAL FREE ENERGY PREDICTED BY IDOCK:   -3.89 KCAL/MOL
REMARK 923 INTER-LIGAND FREE ENERGY PREDICTED BY IDOCK:   -3.57 KCAL/MOL
REMARK 924 INTRA-LIGAND FREE ENERGY PREDICTED BY IDOCK:   -0.32 KCAL/MOL
REMARK 927      BINDING AFFINITY PREDICTED BY RF-SCORE:    0.00 PKD
ROOT
HETATM    1  C   UNL     1     -10.316   8.380  66.787  1.00  0.00    -0.357 C  
HETATM    2  C   UNL     1      -9.111   7.644  67.385  1.00  0.00    -0.126 C  
ENDROOT
BRANCH   2   3
HETATM    3  N   UNL     1      -7.799   8.316  67.318  1.00  0.00    -0.104 NA 
BRANCH   3   4
HETATM    4  C   UNL     1      -6.567   7.583  66.963  1.00  0.00    -0.062 C  
HETATM    5  C   UNL     1      -6.618   6.934  65.573  1.00  0.00    -0.051 C  
ENDBRANCH   3   4
BRANCH   3   6
HETATM    6  C   UNL     1      -7.780   9.746  67.575  1.00  0.00    -0.095 C  
HETATM    7  S   UNL     1      -7.623  10.394  69.104  1.00  0.00    -0.130 SA 
HETATM    8 ZN   UNL     1      -8.718  11.922  68.010  1.00  0.00    -0.128 Zn 
HETATM    9  S   UNL     1     -10.807  11.970  68.293  1.00  0.00    -0.244 SA 
HETATM   10  S   UNL     1      -8.079  10.967  66.223  1.00  0.00    -0.157 SA 
HETATM   11  C   UNL     1     -10.318  13.734  68.219  1.00  0.00    -0.247 C  
HETATM   12  S   UNL     1      -8.703  14.083  68.393  1.00  0.00    -0.160 SA 
BRANCH  11  13
HETATM   13  N   UNL     1     -11.253  14.730  67.773  1.00  0.00    -0.300 NA 
BRANCH  13  14
HETATM   14  C   UNL     1     -11.418  15.977  68.515  1.00  0.00    -0.357 C  
HETATM   15  C   UNL     1     -12.057  15.698  69.875  1.00  0.00    -0.360 C  
ENDBRANCH  13  14
BRANCH  13  16
HETATM   16  C   UNL     1     -12.023  14.505  66.553  1.00  0.00    -0.340 C  
HETATM   17  C   UNL     1     -11.157  14.535  65.297  1.00  0.00    -0.355 C  
ENDBRANCH  13  16
ENDBRANCH  11  13
ENDBRANCH   3   6
ENDBRANCH   2   3
TORSDOF 6
ENDMDL
MODEL      143
REMARK 921   NORMALIZED FREE ENERGY PREDICTED BY IDOCK:   -2.96 KCAL/MOL
REMARK 922        TOTAL FREE ENERGY PREDICTED BY IDOCK:   -3.89 KCAL/MOL
REMARK 923 INTER-LIGAND FREE ENERGY PREDICTED BY IDOCK:   -3.88 KCAL/MOL
REMARK 924 INTRA-LIGAND FREE ENERGY PREDICTED BY IDOCK:   -0.01 KCAL/MOL
REMARK 927      BINDING AFFINITY PREDICTED BY RF-SCORE:    0.00 PKD
ROOT
HETATM    1  C   UNL     1      -9.036   8.980  62.626  1.00  0.00    -0.020 C  
HETATM    2  C   UNL     1      -8.071  10.073  63.101  1.00  0.00    -0.156 C  
ENDROOT
BRANCH   2   3
HETATM    3  N   UNL     1      -7.993  10.330  64.552  1.00  0.00    -0.152 NA 
BRANCH   3   4
HETATM    4  C   UNL     1      -6.800   9.964  65.344  1.00  0.00    -0.112 C  
HETATM    5  C   UNL     1      -5.579   9.610  64.484  1.00  0.00    -0.071 C  
ENDBRANCH   3   4
BRANCH   3   6
HETATM    6  C   UNL     1      -9.128  11.001  65.162  1.00  0.00    -0.181 C  
HETATM    7  S   UNL     1     -10.163  11.996  64.314  1.00  0.00    -0.323 SA 
HETATM    8 ZN   UNL     1     -10.277  12.756  66.347  1.00  0.00    -0.226 Zn 
HETATM    9  S   UNL     1      -9.121  14.467  66.781  1.00  0.00    -0.236 SA 
HETATM   10  S   UNL     1      -9.424  10.916  66.983  1.00  0.00    -0.166 SA 
HETATM   11  C   UNL     1     -10.687  14.732  67.696  1.00  0.00    -0.270 C  
HETATM   12  S   UNL     1     -11.981  13.777  67.280  1.00  0.00    -0.377 SA 
BRANCH  11  13
HETATM   13  N   UNL     1     -10.706  15.541  68.884  1.00  0.00    -0.232 NA 
BRANCH  13  14
HETATM   14  C   UNL     1     -10.230  16.921  68.848  1.00  0.00    -0.314 C  
HETATM   15  C   UNL     1     -10.321  17.471  67.424  1.00  0.00    -0.351 C  
ENDBRANCH  13  14
BRANCH  13  16
HETATM   16  C   UNL     1     -11.233  14.988  70.128  1.00  0.00    -0.260 C  
HETATM   17  C   UNL     1     -12.356  15.835  70.719  1.00  0.00    -0.435 C  
ENDBRANCH  13  16
ENDBRANCH  11  13
ENDBRANCH   3   6
ENDBRANCH   2   3
TORSDOF 6
ENDMDL
MODEL      144
REMARK 921   NORMALIZED FREE ENERGY PREDICTED BY IDOCK:   -2.95 KCAL/MOL
REMARK 922        TOTAL FREE ENERGY PREDICTED BY IDOCK:   -3.88 KCAL/MOL
REMARK 923 INTER-LIGAND FREE ENERGY PREDICTED BY IDOCK:   -3.52 KCAL/MOL
REMARK 924 INTRA-LIGAND FREE ENERGY PREDICTED BY IDOCK:   -0.36 KCAL/MOL
REMARK 927      BINDING AFFINITY PREDICTED BY RF-SCORE:    0.00 PKD
ROOT
HETATM    1  C   UNL     1     -11.074   6.413  67.553  1.00  0.00    -0.401 C  
HETATM    2  C   UNL     1     -10.294   5.574  66.534  1.00  0.00    -0.256 C  
ENDROOT
BRANCH   2   3
HETATM    3  N   UNL     1      -8.832   5.767  66.469  1.00  0.00    -0.122 NA 
BRANCH   3   4
HETATM    4  C   UNL     1      -7.910   4.641  66.214  1.00  0.00    -0.099 C  
HETATM    5  C   UNL     1      -7.680   3.747  67.440  1.00  0.00    -0.079 C  
ENDBRANCH   3   4
BRANCH   3   6
HETATM    6  C   UNL     1      -8.342   7.125  66.623  1.00  0.00    -0.114 C  
HETATM    7  S   UNL     1      -7.678   7.699  68.042  1.00  0.00    -0.121 SA 
HETATM    8 ZN   UNL     1      -8.488   9.483  67.099  1.00  0.00    -0.117 Zn 
HETATM    9  S   UNL     1     -10.360  10.153  67.801  1.00  0.00    -0.227 SA 
HETATM   10  S   UNL     1      -8.555   8.379  65.284  1.00  0.00    -0.112 SA 
HETATM   11  C   UNL     1      -9.405  11.690  67.514  1.00  0.00    -0.168 C  
HETATM   12  S   UNL     1      -7.761  11.541  67.329  1.00  0.00    -0.158 SA 
BRANCH  11  13
HETATM   13  N   UNL     1     -10.083  12.920  67.205  1.00  0.00    -0.240 NA 
BRANCH  13  14
HETATM   14  C   UNL     1     -10.491  13.829  68.272  1.00  0.00    -0.248 C  
HETATM   15  C   UNL     1     -12.005  13.757  68.472  1.00  0.00    -0.402 C  
ENDBRANCH  13  14
BRANCH  13  16
HETATM   16  C   UNL     1     -10.338  13.276  65.812  1.00  0.00    -0.288 C  
HETATM   17  C   UNL     1     -11.403  12.395  65.165  1.00  0.00    -0.367 C  
ENDBRANCH  13  16
ENDBRANCH  11  13
ENDBRANCH   3   6
ENDBRANCH   2   3
TORSDOF 6
ENDMDL
MODEL      145
REMARK 921   NORMALIZED FREE ENERGY PREDICTED BY IDOCK:   -2.92 KCAL/MOL
REMARK 922        TOTAL FREE ENERGY PREDICTED BY IDOCK:   -3.84 KCAL/MOL
REMARK 923 INTER-LIGAND FREE ENERGY PREDICTED BY IDOCK:   -3.44 KCAL/MOL
REMARK 924 INTRA-LIGAND FREE ENERGY PREDICTED BY IDOCK:   -0.40 KCAL/MOL
REMARK 927      BINDING AFFINITY PREDICTED BY RF-SCORE:    0.00 PKD
ROOT
HETATM    1  C   UNL     1     -11.175  15.197  70.513  1.00  0.00    -0.313 C  
HETATM    2  C   UNL     1     -11.900  14.135  69.678  1.00  0.00    -0.324 C  
ENDROOT
BRANCH   2   3
HETATM    3  N   UNL     1     -11.071  13.221  68.870  1.00  0.00    -0.258 NA 
BRANCH   3   4
HETATM    4  C   UNL     1     -10.010  13.722  67.972  1.00  0.00    -0.246 C  
HETATM    5  C   UNL     1     -10.546  14.502  66.764  1.00  0.00    -0.276 C  
ENDBRANCH   3   4
BRANCH   3   6
HETATM    6  C   UNL     1     -11.316  11.798  69.029  1.00  0.00    -0.278 C  
HETATM    7  S   UNL     1     -12.210  11.162  70.285  1.00  0.00    -0.352 SA 
HETATM    8 ZN   UNL     1     -10.854   9.548  69.755  1.00  0.00    -0.194 Zn 
HETATM    9  S   UNL     1      -9.143   9.317  70.967  1.00  0.00    -0.091 SA 
HETATM   10  S   UNL     1     -10.518  10.559  67.916  1.00  0.00    -0.228 SA 
HETATM   11  C   UNL     1      -9.675   7.603  70.602  1.00  0.00    -0.174 C  
HETATM   12  S   UNL     1     -11.208   7.395  69.996  1.00  0.00    -0.123 SA 
BRANCH  11  13
HETATM   13  N   UNL     1      -8.718   6.531  70.595  1.00  0.00    -0.143 NA 
BRANCH  13  14
HETATM   14  C   UNL     1      -8.277   5.938  69.335  1.00  0.00    -0.113 C  
HETATM   15  C   UNL     1      -6.928   6.526  68.922  1.00  0.00    -0.079 C  
ENDBRANCH  13  14
BRANCH  13  16
HETATM   16  C   UNL     1      -8.160   6.050  71.855  1.00  0.00    -0.107 C  
HETATM   17  C   UNL     1      -8.928   4.861  72.424  1.00  0.00    -0.140 C  
ENDBRANCH  13  16
ENDBRANCH  11  13
ENDBRANCH   3   6
ENDBRANCH   2   3
TORSDOF 6
ENDMDL
MODEL      146
REMARK 921   NORMALIZED FREE ENERGY PREDICTED BY IDOCK:   -2.89 KCAL/MOL
REMARK 922        TOTAL FREE ENERGY PREDICTED BY IDOCK:   -3.80 KCAL/MOL
REMARK 923 INTER-LIGAND FREE ENERGY PREDICTED BY IDOCK:   -3.43 KCAL/MOL
REMARK 924 INTRA-LIGAND FREE ENERGY PREDICTED BY IDOCK:   -0.36 KCAL/MOL
REMARK 927      BINDING AFFINITY PREDICTED BY RF-SCORE:    0.00 PKD
ROOT
HETATM    1  C   UNL     1      -7.477   7.827  63.082  1.00  0.00    -0.115 C  
HETATM    2  C   UNL     1      -6.779   8.791  64.049  1.00  0.00    -0.083 C  
ENDROOT
BRANCH   2   3
HETATM    3  N   UNL     1      -7.618   9.479  65.050  1.00  0.00    -0.109 NA 
BRANCH   3   4
HETATM    4  C   UNL     1      -8.497  10.609  64.684  1.00  0.00    -0.087 C  
HETATM    5  C   UNL     1      -9.992  10.288  64.812  1.00  0.00    -0.392 C  
ENDBRANCH   3   4
BRANCH   3   6
HETATM    6  C   UNL     1      -7.572   8.967  66.408  1.00  0.00    -0.092 C  
HETATM    7  S   UNL     1      -7.298   7.362  66.768  1.00  0.00    -0.094 SA 
HETATM    8 ZN   UNL     1      -8.465   8.072  68.459  1.00  0.00    -0.114 Zn 
HETATM    9  S   UNL     1     -10.527   7.629  68.435  1.00  0.00    -0.130 SA 
HETATM   10  S   UNL     1      -7.967  10.048  67.852  1.00  0.00    -0.105 SA 
HETATM   11  C   UNL     1     -10.036   7.416  70.188  1.00  0.00    -0.197 C  
HETATM   12  S   UNL     1      -8.412   7.304  70.514  1.00  0.00    -0.139 SA 
BRANCH  11  13
HETATM   13  N   UNL     1     -10.999   7.601  71.239  1.00  0.00    -0.236 NA 
BRANCH  13  14
HETATM   14  C   UNL     1     -11.901   6.517  71.618  1.00  0.00    -0.333 C  
HETATM   15  C   UNL     1     -11.205   5.573  72.599  1.00  0.00    -0.348 C  
ENDBRANCH  13  14
BRANCH  13  16
HETATM   16  C   UNL     1     -11.055   8.873  71.954  1.00  0.00    -0.372 C  
HETATM   17  C   UNL     1     -12.091   9.830  71.372  1.00  0.00    -0.486 C  
ENDBRANCH  13  16
ENDBRANCH  11  13
ENDBRANCH   3   6
ENDBRANCH   2   3
TORSDOF 6
ENDMDL
MODEL      147
REMARK 921   NORMALIZED FREE ENERGY PREDICTED BY IDOCK:   -2.88 KCAL/MOL
REMARK 922        TOTAL FREE ENERGY PREDICTED BY IDOCK:   -3.79 KCAL/MOL
REMARK 923 INTER-LIGAND FREE ENERGY PREDICTED BY IDOCK:   -3.46 KCAL/MOL
REMARK 924 INTRA-LIGAND FREE ENERGY PREDICTED BY IDOCK:   -0.33 KCAL/MOL
REMARK 927      BINDING AFFINITY PREDICTED BY RF-SCORE:    0.00 PKD
ROOT
HETATM    1  C   UNL     1      -9.114   3.841  63.430  1.00  0.00    -0.106 C  
HETATM    2  C   UNL     1      -9.850   4.226  64.719  1.00  0.00    -0.158 C  
ENDROOT
BRANCH   2   3
HETATM    3  N   UNL     1      -9.031   4.502  65.915  1.00  0.00    -0.121 NA 
BRANCH   3   4
HETATM    4  C   UNL     1      -8.007   3.550  66.393  1.00  0.00    -0.088 C  
HETATM    5  C   UNL     1      -8.578   2.416  67.255  1.00  0.00    -0.122 C  
ENDBRANCH   3   4
BRANCH   3   6
HETATM    6  C   UNL     1      -9.247   5.775  66.580  1.00  0.00    -0.143 C  
HETATM    7  S   UNL     1      -8.022   6.867  66.877  1.00  0.00    -0.110 SA 
HETATM    8 ZN   UNL     1      -9.465   7.278  68.450  1.00  0.00    -0.138 Zn 
HETATM    9  S   UNL     1      -9.063   6.438  70.343  1.00  0.00    -0.155 SA 
HETATM   10  S   UNL     1     -10.894   6.219  67.286  1.00  0.00    -0.378 SA 
HETATM   11  C   UNL     1      -9.733   8.101  70.717  1.00  0.00    -0.170 C  
HETATM   12  S   UNL     1      -9.797   9.194  69.468  1.00  0.00    -0.186 SA 
BRANCH  11  13
HETATM   13  N   UNL     1     -10.406   8.350  71.962  1.00  0.00    -0.275 NA 
BRANCH  13  14
HETATM   14  C   UNL     1      -9.770   8.006  73.231  1.00  0.00    -0.238 C  
HETATM   15  C   UNL     1     -10.390   6.730  73.800  1.00  0.00    -0.397 C  
ENDBRANCH  13  14
BRANCH  13  16
HETATM   16  C   UNL     1     -11.724   8.978  71.960  1.00  0.00    -0.347 C  
HETATM   17  C   UNL     1     -12.821   8.044  71.459  1.00  0.00    -0.331 C  
ENDBRANCH  13  16
ENDBRANCH  11  13
ENDBRANCH   3   6
ENDBRANCH   2   3
TORSDOF 6
ENDMDL
MODEL      148
REMARK 921   NORMALIZED FREE ENERGY PREDICTED BY IDOCK:   -2.88 KCAL/MOL
REMARK 922        TOTAL FREE ENERGY PREDICTED BY IDOCK:   -3.78 KCAL/MOL
REMARK 923 INTER-LIGAND FREE ENERGY PREDICTED BY IDOCK:   -3.71 KCAL/MOL
REMARK 924 INTRA-LIGAND FREE ENERGY PREDICTED BY IDOCK:   -0.07 KCAL/MOL
REMARK 927      BINDING AFFINITY PREDICTED BY RF-SCORE:    0.00 PKD
ROOT
HETATM    1  C   UNL     1      -9.535   6.473  69.780  1.00  0.00    -0.155 C  
HETATM    2  C   UNL     1     -11.066   6.404  69.822  1.00  0.00    -0.396 C  
ENDROOT
BRANCH   2   3
HETATM    3  N   UNL     1     -11.747   7.064  70.953  1.00  0.00    -0.326 NA 
BRANCH   3   4
HETATM    4  C   UNL     1     -12.354   6.289  72.055  1.00  0.00    -0.146 C  
HETATM    5  C   UNL     1     -11.378   5.316  72.730  1.00  0.00    -0.342 C  
ENDBRANCH   3   4
BRANCH   3   6
HETATM    6  C   UNL     1     -11.758   8.517  70.956  1.00  0.00    -0.275 C  
HETATM    7  S   UNL     1     -13.138   9.419  70.707  1.00  0.00     0.181 SA 
HETATM    8 ZN   UNL     1     -11.543  10.726  70.019  1.00  0.00    -0.200 Zn 
HETATM    9  S   UNL     1     -11.217  10.802  67.937  1.00  0.00    -0.298 SA 
HETATM   10  S   UNL     1     -10.191   9.485  71.092  1.00  0.00    -0.120 SA 
HETATM   11  C   UNL     1     -10.990  12.532  68.496  1.00  0.00    -0.249 C  
HETATM   12  S   UNL     1     -11.548  12.921  70.011  1.00  0.00    -0.027 SA 
BRANCH  11  13
HETATM   13  N   UNL     1     -10.140  13.428  67.761  1.00  0.00    -0.227 NA 
BRANCH  13  14
HETATM   14  C   UNL     1     -10.547  13.927  66.450  1.00  0.00    -0.280 C  
HETATM   15  C   UNL     1     -12.072  13.994  66.364  1.00  0.00    -0.483 C  
ENDBRANCH  13  14
BRANCH  13  16
HETATM   16  C   UNL     1      -8.874  13.865  68.341  1.00  0.00    -0.177 C  
HETATM   17  C   UNL     1      -8.893  15.333  68.758  1.00  0.00    -0.192 C  
ENDBRANCH  13  16
ENDBRANCH  11  13
ENDBRANCH   3   6
ENDBRANCH   2   3
TORSDOF 6
ENDMDL
MODEL      149
REMARK 921   NORMALIZED FREE ENERGY PREDICTED BY IDOCK:   -2.87 KCAL/MOL
REMARK 922        TOTAL FREE ENERGY PREDICTED BY IDOCK:   -3.78 KCAL/MOL
REMARK 923 INTER-LIGAND FREE ENERGY PREDICTED BY IDOCK:   -3.33 KCAL/MOL
REMARK 924 INTRA-LIGAND FREE ENERGY PREDICTED BY IDOCK:   -0.45 KCAL/MOL
REMARK 927      BINDING AFFINITY PREDICTED BY RF-SCORE:    0.00 PKD
ROOT
HETATM    1  C   UNL     1     -10.529  11.043  63.911  1.00  0.00    -0.422 C  
HETATM    2  C   UNL     1      -9.241  11.133  64.738  1.00  0.00    -0.138 C  
ENDROOT
BRANCH   2   3
HETATM    3  N   UNL     1      -9.375  11.155  66.208  1.00  0.00    -0.189 NA 
BRANCH   3   4
HETATM    4  C   UNL     1     -10.095  12.240  66.907  1.00  0.00    -0.211 C  
HETATM    5  C   UNL     1     -11.515  11.854  67.341  1.00  0.00    -0.393 C  
ENDBRANCH   3   4
BRANCH   3   6
HETATM    6  C   UNL     1      -8.803  10.036  66.937  1.00  0.00    -0.131 C  
HETATM    7  S   UNL     1      -8.737   8.487  66.323  1.00  0.00    -0.151 SA 
HETATM    8 ZN   UNL     1      -8.789   8.182  68.475  1.00  0.00    -0.125 Zn 
HETATM    9  S   UNL     1     -10.659   7.682  69.313  1.00  0.00    -0.164 SA 
HETATM   10  S   UNL     1      -8.232  10.223  68.683  1.00  0.00    -0.124 SA 
HETATM   11  C   UNL     1      -9.457   6.653  70.236  1.00  0.00    -0.162 C  
HETATM   12  S   UNL     1      -7.936   6.494  69.589  1.00  0.00    -0.122 SA 
BRANCH  11  13
HETATM   13  N   UNL     1      -9.746   6.227  71.579  1.00  0.00    -0.162 NA 
BRANCH  13  14
HETATM   14  C   UNL     1     -10.200   7.188  72.579  1.00  0.00    -0.194 C  
HETATM   15  C   UNL     1      -9.098   8.208  72.866  1.00  0.00    -0.337 C  
ENDBRANCH  13  14
BRANCH  13  16
HETATM   16  C   UNL     1      -9.611   4.818  71.936  1.00  0.00    -0.152 C  
HETATM   17  C   UNL     1      -9.756   4.574  73.435  1.00  0.00    -0.151 C  
ENDBRANCH  13  16
ENDBRANCH  11  13
ENDBRANCH   3   6
ENDBRANCH   2   3
TORSDOF 6
ENDMDL
MODEL      150
REMARK 921   NORMALIZED FREE ENERGY PREDICTED BY IDOCK:   -2.86 KCAL/MOL
REMARK 922        TOTAL FREE ENERGY PREDICTED BY IDOCK:   -3.76 KCAL/MOL
REMARK 923 INTER-LIGAND FREE ENERGY PREDICTED BY IDOCK:   -3.41 KCAL/MOL
REMARK 924 INTRA-LIGAND FREE ENERGY PREDICTED BY IDOCK:   -0.35 KCAL/MOL
REMARK 927      BINDING AFFINITY PREDICTED BY RF-SCORE:    0.00 PKD
ROOT
HETATM    1  C   UNL     1      -5.648   7.751  68.301  1.00  0.00    -0.032 C  
HETATM    2  C   UNL     1      -6.991   7.527  67.595  1.00  0.00    -0.080 C  
ENDROOT
BRANCH   2   3
HETATM    3  N   UNL     1      -8.187   7.358  68.443  1.00  0.00    -0.124 NA 
BRANCH   3   4
HETATM    4  C   UNL     1      -8.344   6.198  69.344  1.00  0.00    -0.116 C  
HETATM    5  C   UNL     1      -8.340   4.849  68.612  1.00  0.00    -0.083 C  
ENDBRANCH   3   4
BRANCH   3   6
HETATM    6  C   UNL     1      -9.187   8.410  68.385  1.00  0.00    -0.135 C  
HETATM    7  S   UNL     1     -10.299   8.543  67.149  1.00  0.00    -0.302 SA 
HETATM    8 ZN   UNL     1     -10.070  10.588  67.852  1.00  0.00    -0.155 Zn 
HETATM    9  S   UNL     1      -8.795  11.834  66.726  1.00  0.00    -0.193 SA 
HETATM   10  S   UNL     1      -9.205   9.784  69.619  1.00  0.00    -0.234 SA 
HETATM   11  C   UNL     1     -10.190  12.922  67.202  1.00  0.00    -0.239 C  
HETATM   12  S   UNL     1     -11.570  12.188  67.764  1.00  0.00    -0.330 SA 
BRANCH  11  13
HETATM   13  N   UNL     1      -9.995  14.341  67.327  1.00  0.00    -0.249 NA 
BRANCH  13  14
HETATM   14  C   UNL     1      -8.897  14.870  68.132  1.00  0.00    -0.174 C  
HETATM   15  C   UNL     1      -9.449  15.622  69.343  1.00  0.00    -0.279 C  
ENDBRANCH  13  14
BRANCH  13  16
HETATM   16  C   UNL     1     -10.884  15.259  66.621  1.00  0.00    -0.310 C  
HETATM   17  C   UNL     1     -10.129  16.238  65.727  1.00  0.00    -0.373 C  
ENDBRANCH  13  16
ENDBRANCH  11  13
ENDBRANCH   3   6
ENDBRANCH   2   3
TORSDOF 6
ENDMDL
MODEL      151
REMARK 921   NORMALIZED FREE ENERGY PREDICTED BY IDOCK:   -2.82 KCAL/MOL
REMARK 922        TOTAL FREE ENERGY PREDICTED BY IDOCK:   -3.70 KCAL/MOL
REMARK 923 INTER-LIGAND FREE ENERGY PREDICTED BY IDOCK:   -3.36 KCAL/MOL
REMARK 924 INTRA-LIGAND FREE ENERGY PREDICTED BY IDOCK:   -0.35 KCAL/MOL
REMARK 927      BINDING AFFINITY PREDICTED BY RF-SCORE:    0.00 PKD
ROOT
HETATM    1  C   UNL     1     -10.766   5.110  72.528  1.00  0.00    -0.286 C  
HETATM    2  C   UNL     1     -10.259   6.084  71.458  1.00  0.00    -0.204 C  
ENDROOT
BRANCH   2   3
HETATM    3  N   UNL     1     -10.682   7.494  71.564  1.00  0.00    -0.218 NA 
BRANCH   3   4
HETATM    4  C   UNL     1     -11.750   7.917  72.494  1.00  0.00    -0.367 C  
HETATM    5  C   UNL     1     -13.165   7.640  71.969  1.00  0.00    -0.207 C  
ENDBRANCH   3   4
BRANCH   3   6
HETATM    6  C   UNL     1      -9.970   8.457  70.743  1.00  0.00    -0.189 C  
HETATM    7  S   UNL     1     -10.629   9.914  70.269  1.00  0.00    -0.305 SA 
HETATM    8 ZN   UNL     1      -9.197   9.465  68.696  1.00  0.00    -0.124 Zn 
HETATM    9  S   UNL     1      -9.974   8.630  66.922  1.00  0.00    -0.286 SA 
HETATM   10  S   UNL     1      -8.312   8.067  70.030  1.00  0.00    -0.125 SA 
HETATM   11  C   UNL     1      -8.677   9.791  66.348  1.00  0.00    -0.131 C  
HETATM   12  S   UNL     1      -8.120  10.910  67.442  1.00  0.00    -0.116 SA 
BRANCH  11  13
HETATM   13  N   UNL     1      -8.001   9.565  65.100  1.00  0.00    -0.113 NA 
BRANCH  13  14
HETATM   14  C   UNL     1      -8.242  10.442  63.957  1.00  0.00    -0.117 C  
HETATM   15  C   UNL     1      -9.734  10.470  63.623  1.00  0.00    -0.375 C  
ENDBRANCH  13  14
BRANCH  13  16
HETATM   16  C   UNL     1      -7.043   8.470  64.983  1.00  0.00    -0.079 C  
HETATM   17  C   UNL     1      -7.616   7.264  64.243  1.00  0.00    -0.116 C  
ENDBRANCH  13  16
ENDBRANCH  11  13
ENDBRANCH   3   6
ENDBRANCH   2   3
TORSDOF 6
ENDMDL
MODEL      152
REMARK 921   NORMALIZED FREE ENERGY PREDICTED BY IDOCK:   -2.80 KCAL/MOL
REMARK 922        TOTAL FREE ENERGY PREDICTED BY IDOCK:   -3.68 KCAL/MOL
REMARK 923 INTER-LIGAND FREE ENERGY PREDICTED BY IDOCK:   -3.27 KCAL/MOL
REMARK 924 INTRA-LIGAND FREE ENERGY PREDICTED BY IDOCK:   -0.42 KCAL/MOL
REMARK 927      BINDING AFFINITY PREDICTED BY RF-SCORE:    0.00 PKD
ROOT
HETATM    1  C   UNL     1      -6.859   4.921  64.007  1.00  0.00    -0.048 C  
HETATM    2  C   UNL     1      -8.080   5.817  64.249  1.00  0.00    -0.127 C  
ENDROOT
BRANCH   2   3
HETATM    3  N   UNL     1      -9.009   5.426  65.326  1.00  0.00    -0.137 NA 
BRANCH   3   4
HETATM    4  C   UNL     1      -9.622   4.083  65.375  1.00  0.00    -0.188 C  
HETATM    5  C   UNL     1     -10.413   3.723  64.110  1.00  0.00    -0.267 C  
ENDBRANCH   3   4
BRANCH   3   6
HETATM    6  C   UNL     1      -9.263   6.410  66.364  1.00  0.00    -0.155 C  
HETATM    7  S   UNL     1     -10.780   6.702  66.992  1.00  0.00    -0.370 SA 
HETATM    8 ZN   UNL     1      -9.743   8.593  67.265  1.00  0.00    -0.141 Zn 
HETATM    9  S   UNL     1     -10.134  10.098  65.841  1.00  0.00    -0.227 SA 
HETATM   10  S   UNL     1      -7.926   7.530  66.970  1.00  0.00    -0.118 SA 
HETATM   11  C   UNL     1     -10.032  10.996  67.434  1.00  0.00    -0.182 C  
HETATM   12  S   UNL     1     -10.121  10.091  68.824  1.00  0.00    -0.196 SA 
BRANCH  11  13
HETATM   13  N   UNL     1      -9.633  12.377  67.466  1.00  0.00    -0.182 NA 
BRANCH  13  14
HETATM   14  C   UNL     1      -8.353  12.764  68.052  1.00  0.00    -0.173 C  
HETATM   15  C   UNL     1      -7.204  12.118  67.277  1.00  0.00    -0.144 C  
ENDBRANCH  13  14
BRANCH  13  16
HETATM   16  C   UNL     1     -10.501  13.395  66.883  1.00  0.00    -0.273 C  
HETATM   17  C   UNL     1      -9.720  14.515  66.203  1.00  0.00    -0.340 C  
ENDBRANCH  13  16
ENDBRANCH  11  13
ENDBRANCH   3   6
ENDBRANCH   2   3
TORSDOF 6
ENDMDL
MODEL      153
REMARK 921   NORMALIZED FREE ENERGY PREDICTED BY IDOCK:   -2.80 KCAL/MOL
REMARK 922        TOTAL FREE ENERGY PREDICTED BY IDOCK:   -3.68 KCAL/MOL
REMARK 923 INTER-LIGAND FREE ENERGY PREDICTED BY IDOCK:   -4.05 KCAL/MOL
REMARK 924 INTRA-LIGAND FREE ENERGY PREDICTED BY IDOCK:    0.37 KCAL/MOL
REMARK 927      BINDING AFFINITY PREDICTED BY RF-SCORE:    0.00 PKD
ROOT
HETATM    1  C   UNL     1     -10.926   9.451  68.015  1.00  0.00    -0.119 C  
HETATM    2  C   UNL     1     -11.052  10.425  66.838  1.00  0.00    -0.010 C  
ENDROOT
BRANCH   2   3
HETATM    3  N   UNL     1     -10.039  11.492  66.724  1.00  0.00    -0.210 NA 
BRANCH   3   4
HETATM    4  C   UNL     1      -8.928  11.409  65.754  1.00  0.00    -0.151 C  
HETATM    5  C   UNL     1      -7.540  11.472  66.405  1.00  0.00     0.027 C  
ENDBRANCH   3   4
BRANCH   3   6
HETATM    6  C   UNL     1     -10.208  12.652  67.582  1.00  0.00    -0.217 C  
HETATM    7  S   UNL     1     -11.701  13.262  68.007  1.00  0.00    -0.361 SA 
HETATM    8 ZN   UNL     1     -10.392  14.995  68.113  1.00  0.00    -0.217 Zn 
HETATM    9  S   UNL     1     -10.421  16.302  66.457  1.00  0.00    -0.261 SA 
HETATM   10  S   UNL     1      -8.755  13.639  68.154  1.00  0.00    -0.180 SA 
HETATM   11  C   UNL     1     -10.296  17.411  67.910  1.00  0.00    -0.369 C  
HETATM   12  S   UNL     1     -10.638  16.757  69.398  1.00  0.00    -0.259 SA 
BRANCH  11  13
HETATM   13  N   UNL     1      -9.680  18.704  67.786  1.00  0.00    -0.305 NA 
BRANCH  13  14
HETATM   14  C   UNL     1     -10.482  19.878  67.452  1.00  0.00    -0.404 C  
HETATM   15  C   UNL     1     -10.522  20.072  65.936  1.00  0.00    -0.511 C  
ENDBRANCH  13  14
BRANCH  13  16
HETATM   16  C   UNL     1      -8.248  18.850  68.025  1.00  0.00    -0.293 C  
HETATM   17  C   UNL     1      -7.422  17.770  67.332  1.00  0.00    -0.210 C  
ENDBRANCH  13  16
ENDBRANCH  11  13
ENDBRANCH   3   6
ENDBRANCH   2   3
TORSDOF 6
ENDMDL
MODEL      154
REMARK 921   NORMALIZED FREE ENERGY PREDICTED BY IDOCK:   -2.78 KCAL/MOL
REMARK 922        TOTAL FREE ENERGY PREDICTED BY IDOCK:   -3.65 KCAL/MOL
REMARK 923 INTER-LIGAND FREE ENERGY PREDICTED BY IDOCK:   -3.30 KCAL/MOL
REMARK 924 INTRA-LIGAND FREE ENERGY PREDICTED BY IDOCK:   -0.35 KCAL/MOL
REMARK 927      BINDING AFFINITY PREDICTED BY RF-SCORE:    0.00 PKD
ROOT
HETATM    1  C   UNL     1      -8.203  14.478  67.275  1.00  0.00    -0.230 C  
HETATM    2  C   UNL     1      -9.398  13.688  67.821  1.00  0.00    -0.218 C  
ENDROOT
BRANCH   2   3
HETATM    3  N   UNL     1      -9.868  12.531  67.034  1.00  0.00    -0.213 NA 
BRANCH   3   4
HETATM    4  C   UNL     1     -10.581  12.702  65.751  1.00  0.00    -0.272 C  
HETATM    5  C   UNL     1     -12.041  13.148  65.916  1.00  0.00    -0.501 C  
ENDBRANCH   3   4
BRANCH   3   6
HETATM    6  C   UNL     1      -9.560  11.212  67.556  1.00  0.00    -0.168 C  
HETATM    7  S   UNL     1      -8.025  10.749  68.015  1.00  0.00    -0.111 SA 
HETATM    8 ZN   UNL     1      -8.974   8.877  67.446  1.00  0.00    -0.122 Zn 
HETATM    9  S   UNL     1      -8.530   8.142  65.520  1.00  0.00    -0.146 SA 
HETATM   10  S   UNL     1     -10.839   9.881  67.613  1.00  0.00    -0.194 SA 
HETATM   11  C   UNL     1      -8.575   6.647  66.578  1.00  0.00    -0.124 C  
HETATM   12  S   UNL     1      -8.513   6.876  68.222  1.00  0.00    -0.125 SA 
BRANCH  11  13
HETATM   13  N   UNL     1      -8.911   5.368  66.014  1.00  0.00    -0.143 NA 
BRANCH  13  14
HETATM   14  C   UNL     1      -9.982   4.562  66.593  1.00  0.00    -0.230 C  
HETATM   15  C   UNL     1      -9.392   3.415  67.414  1.00  0.00    -0.243 C  
ENDBRANCH  13  14
BRANCH  13  16
HETATM   16  C   UNL     1      -8.196   4.884  64.837  1.00  0.00    -0.124 C  
HETATM   17  C   UNL     1      -9.135   4.458  63.712  1.00  0.00    -0.136 C  
ENDBRANCH  13  16
ENDBRANCH  11  13
ENDBRANCH   3   6
ENDBRANCH   2   3
TORSDOF 6
ENDMDL
MODEL      155
REMARK 921   NORMALIZED FREE ENERGY PREDICTED BY IDOCK:   -2.78 KCAL/MOL
REMARK 922        TOTAL FREE ENERGY PREDICTED BY IDOCK:   -3.65 KCAL/MOL
REMARK 923 INTER-LIGAND FREE ENERGY PREDICTED BY IDOCK:   -3.29 KCAL/MOL
REMARK 924 INTRA-LIGAND FREE ENERGY PREDICTED BY IDOCK:   -0.36 KCAL/MOL
REMARK 927      BINDING AFFINITY PREDICTED BY RF-SCORE:    0.00 PKD
ROOT
HETATM    1  C   UNL     1      -9.037   4.359  64.676  1.00  0.00    -0.152 C  
HETATM    2  C   UNL     1     -10.130   4.464  65.747  1.00  0.00    -0.245 C  
ENDROOT
BRANCH   2   3
HETATM    3  N   UNL     1      -9.718   4.326  67.157  1.00  0.00    -0.205 NA 
BRANCH   3   4
HETATM    4  C   UNL     1      -9.409   3.009  67.752  1.00  0.00    -0.202 C  
HETATM    5  C   UNL     1      -8.956   3.089  69.216  1.00  0.00    -0.178 C  
ENDBRANCH   3   4
BRANCH   3   6
HETATM    6  C   UNL     1      -9.588   5.551  67.926  1.00  0.00    -0.124 C  
HETATM    7  S   UNL     1     -10.838   6.206  68.815  1.00  0.00    -0.340 SA 
HETATM    8 ZN   UNL     1      -9.615   7.930  68.306  1.00  0.00    -0.144 Zn 
HETATM    9  S   UNL     1     -10.266   9.103  66.679  1.00  0.00    -0.228 SA 
HETATM   10  S   UNL     1      -8.048   6.567  67.856  1.00  0.00    -0.116 SA 
HETATM   11  C   UNL     1      -9.647  10.322  67.898  1.00  0.00    -0.145 C  
HETATM   12  S   UNL     1      -9.414   9.790  69.455  1.00  0.00    -0.214 SA 
BRANCH  11  13
HETATM   13  N   UNL     1      -9.143  11.596  67.462  1.00  0.00    -0.168 NA 
BRANCH  13  14
HETATM   14  C   UNL     1      -8.248  12.371  68.316  1.00  0.00    -0.170 C  
HETATM   15  C   UNL     1      -6.890  12.541  67.635  1.00  0.00    -0.136 C  
ENDBRANCH  13  14
BRANCH  13  16
HETATM   16  C   UNL     1      -9.507  12.104  66.143  1.00  0.00    -0.224 C  
HETATM   17  C   UNL     1     -10.837  12.851  66.146  1.00  0.00    -0.300 C  
ENDBRANCH  13  16
ENDBRANCH  11  13
ENDBRANCH   3   6
ENDBRANCH   2   3
TORSDOF 6
ENDMDL
MODEL      156
REMARK 921   NORMALIZED FREE ENERGY PREDICTED BY IDOCK:   -2.78 KCAL/MOL
REMARK 922        TOTAL FREE ENERGY PREDICTED BY IDOCK:   -3.65 KCAL/MOL
REMARK 923 INTER-LIGAND FREE ENERGY PREDICTED BY IDOCK:   -3.26 KCAL/MOL
REMARK 924 INTRA-LIGAND FREE ENERGY PREDICTED BY IDOCK:   -0.39 KCAL/MOL
REMARK 927      BINDING AFFINITY PREDICTED BY RF-SCORE:    0.00 PKD
ROOT
HETATM    1  C   UNL     1      -6.726   2.373  63.781  1.00  0.00    -0.031 C  
HETATM    2  C   UNL     1      -6.487   3.713  64.486  1.00  0.00    -0.035 C  
ENDROOT
BRANCH   2   3
HETATM    3  N   UNL     1      -7.673   4.505  64.866  1.00  0.00    -0.080 NA 
BRANCH   3   4
HETATM    4  C   UNL     1      -8.454   5.264  63.867  1.00  0.00    -0.100 C  
HETATM    5  C   UNL     1      -7.605   5.809  62.711  1.00  0.00    -0.076 C  
ENDBRANCH   3   4
BRANCH   3   6
HETATM    6  C   UNL     1      -8.066   4.469  66.264  1.00  0.00    -0.103 C  
HETATM    7  S   UNL     1      -9.130   3.344  66.883  1.00  0.00    -0.179 SA 
HETATM    8 ZN   UNL     1      -9.370   5.054  68.204  1.00  0.00    -0.107 Zn 
HETATM    9  S   UNL     1     -11.031   6.302  67.840  1.00  0.00    -0.258 SA 
HETATM   10  S   UNL     1      -7.522   5.780  67.445  1.00  0.00    -0.082 SA 
HETATM   11  C   UNL     1     -10.918   6.217  69.667  1.00  0.00    -0.389 C  
HETATM   12  S   UNL     1      -9.970   5.016  70.315  1.00  0.00    -0.269 SA 
BRANCH  11  13
HETATM   13  N   UNL     1     -11.415   7.295  70.477  1.00  0.00    -0.291 NA 
BRANCH  13  14
HETATM   14  C   UNL     1     -12.352   7.032  71.565  1.00  0.00    -0.379 C  
HETATM   15  C   UNL     1     -12.954   8.345  72.068  1.00  0.00    -0.388 C  
ENDBRANCH  13  14
BRANCH  13  16
HETATM   16  C   UNL     1     -10.957   8.658  70.228  1.00  0.00    -0.236 C  
HETATM   17  C   UNL     1      -9.512   8.883  70.664  1.00  0.00    -0.259 C  
ENDBRANCH  13  16
ENDBRANCH  11  13
ENDBRANCH   3   6
ENDBRANCH   2   3
TORSDOF 6
ENDMDL
MODEL      157
REMARK 921   NORMALIZED FREE ENERGY PREDICTED BY IDOCK:   -2.78 KCAL/MOL
REMARK 922        TOTAL FREE ENERGY PREDICTED BY IDOCK:   -3.64 KCAL/MOL
REMARK 923 INTER-LIGAND FREE ENERGY PREDICTED BY IDOCK:   -3.36 KCAL/MOL
REMARK 924 INTRA-LIGAND FREE ENERGY PREDICTED BY IDOCK:   -0.28 KCAL/MOL
REMARK 927      BINDING AFFINITY PREDICTED BY RF-SCORE:    0.00 PKD
ROOT
HETATM    1  C   UNL     1      -5.838  20.855  68.114  1.00  0.00    -0.384 C  
HETATM    2  C   UNL     1      -6.815  19.959  68.884  1.00  0.00    -0.324 C  
ENDROOT
BRANCH   2   3
HETATM    3  N   UNL     1      -7.598  18.978  68.107  1.00  0.00    -0.269 NA 
BRANCH   3   4
HETATM    4  C   UNL     1      -8.864  19.347  67.440  1.00  0.00    -0.301 C  
HETATM    5  C   UNL     1      -9.908  19.944  68.394  1.00  0.00    -0.489 C  
ENDBRANCH   3   4
BRANCH   3   6
HETATM    6  C   UNL     1      -7.044  17.640  67.990  1.00  0.00    -0.200 C  
HETATM    7  S   UNL     1      -6.427  17.031  66.566  1.00  0.00    -0.135 SA 
HETATM    8 ZN   UNL     1      -7.090  15.257  67.635  1.00  0.00    -0.094 Zn 
HETATM    9  S   UNL     1      -8.958  14.459  67.071  1.00  0.00    -0.241 SA 
HETATM   10  S   UNL     1      -7.120  16.446  69.397  1.00  0.00    -0.121 SA 
HETATM   11  C   UNL     1      -7.909  12.988  67.377  1.00  0.00    -0.164 C  
HETATM   12  S   UNL     1      -6.268  13.230  67.463  1.00  0.00    -0.011 SA 
BRANCH  11  13
HETATM   13  N   UNL     1      -8.503  11.743  67.781  1.00  0.00    -0.140 NA 
BRANCH  13  14
HETATM   14  C   UNL     1      -8.424  11.301  69.170  1.00  0.00     0.100 C  
HETATM   15  C   UNL     1      -7.471  10.112  69.289  1.00  0.00    -0.111 C  
ENDBRANCH  13  14
BRANCH  13  16
HETATM   16  C   UNL     1      -9.216  10.929  66.801  1.00  0.00    -0.158 C  
HETATM   17  C   UNL     1     -10.689  11.307  66.680  1.00  0.00    -0.321 C  
ENDBRANCH  13  16
ENDBRANCH  11  13
ENDBRANCH   3   6
ENDBRANCH   2   3
TORSDOF 6
ENDMDL
MODEL      158
REMARK 921   NORMALIZED FREE ENERGY PREDICTED BY IDOCK:   -2.77 KCAL/MOL
REMARK 922        TOTAL FREE ENERGY PREDICTED BY IDOCK:   -3.64 KCAL/MOL
REMARK 923 INTER-LIGAND FREE ENERGY PREDICTED BY IDOCK:   -3.30 KCAL/MOL
REMARK 924 INTRA-LIGAND FREE ENERGY PREDICTED BY IDOCK:   -0.33 KCAL/MOL
REMARK 927      BINDING AFFINITY PREDICTED BY RF-SCORE:    0.00 PKD
ROOT
HETATM    1  C   UNL     1      -5.878   9.987  64.311  1.00  0.00    -0.124 C  
HETATM    2  C   UNL     1      -7.364   9.777  64.622  1.00  0.00    -0.134 C  
ENDROOT
BRANCH   2   3
HETATM    3  N   UNL     1      -7.708   8.824  65.695  1.00  0.00    -0.089 NA 
BRANCH   3   4
HETATM    4  C   UNL     1      -7.183   7.443  65.706  1.00  0.00    -0.066 C  
HETATM    5  C   UNL     1      -7.034   6.856  67.116  1.00  0.00    -0.074 C  
ENDBRANCH   3   4
BRANCH   3   6
HETATM    6  C   UNL     1      -8.555   9.319  66.766  1.00  0.00    -0.127 C  
HETATM    7  S   UNL     1      -7.971  10.201  68.056  1.00  0.00    -0.101 SA 
HETATM    8 ZN   UNL     1      -9.741   9.228  68.862  1.00  0.00    -0.146 Zn 
HETATM    9  S   UNL     1      -9.421   7.490  70.012  1.00  0.00    -0.160 SA 
HETATM   10  S   UNL     1     -10.345   8.875  66.855  1.00  0.00    -0.233 SA 
HETATM   11  C   UNL     1     -10.772   8.368  70.882  1.00  0.00    -0.222 C  
HETATM   12  S   UNL     1     -11.024   9.961  70.484  1.00  0.00    -0.342 SA 
BRANCH  11  13
HETATM   13  N   UNL     1     -11.724   7.636  71.672  1.00  0.00    -0.271 NA 
BRANCH  13  14
HETATM   14  C   UNL     1     -11.275   6.620  72.620  1.00  0.00    -0.249 C  
HETATM   15  C   UNL     1     -10.310   7.237  73.633  1.00  0.00    -0.399 C  
ENDBRANCH  13  14
BRANCH  13  16
HETATM   16  C   UNL     1     -13.148   7.930  71.547  1.00  0.00    -0.311 C  
HETATM   17  C   UNL     1     -13.692   8.725  72.731  1.00  0.00    -0.255 C  
ENDBRANCH  13  16
ENDBRANCH  11  13
ENDBRANCH   3   6
ENDBRANCH   2   3
TORSDOF 6
ENDMDL
MODEL      159
REMARK 921   NORMALIZED FREE ENERGY PREDICTED BY IDOCK:   -2.77 KCAL/MOL
REMARK 922        TOTAL FREE ENERGY PREDICTED BY IDOCK:   -3.63 KCAL/MOL
REMARK 923 INTER-LIGAND FREE ENERGY PREDICTED BY IDOCK:   -3.40 KCAL/MOL
REMARK 924 INTRA-LIGAND FREE ENERGY PREDICTED BY IDOCK:   -0.24 KCAL/MOL
REMARK 927      BINDING AFFINITY PREDICTED BY RF-SCORE:    0.00 PKD
ROOT
HETATM    1  C   UNL     1     -12.347  14.260  70.750  1.00  0.00    -0.427 C  
HETATM    2  C   UNL     1     -11.926  13.878  69.326  1.00  0.00    -0.357 C  
ENDROOT
BRANCH   2   3
HETATM    3  N   UNL     1     -11.672  12.451  69.049  1.00  0.00    -0.309 NA 
BRANCH   3   4
HETATM    4  C   UNL     1     -12.275  11.380  69.869  1.00  0.00    -0.277 C  
HETATM    5  C   UNL     1     -11.274  10.302  70.303  1.00  0.00    -0.395 C  
ENDBRANCH   3   4
BRANCH   3   6
HETATM    6  C   UNL     1     -10.833  12.143  67.905  1.00  0.00    -0.217 C  
HETATM    7  S   UNL     1     -11.444  11.811  66.389  1.00  0.00    -0.140 SA 
HETATM    8 ZN   UNL     1      -9.552  10.741  66.422  1.00  0.00    -0.165 Zn 
HETATM    9  S   UNL     1      -9.645   8.672  66.822  1.00  0.00    -0.229 SA 
HETATM   10  S   UNL     1      -9.005  11.950  68.082  1.00  0.00    -0.187 SA 
HETATM   11  C   UNL     1      -8.351   8.828  65.534  1.00  0.00    -0.147 C  
HETATM   12  S   UNL     1      -8.278  10.262  64.700  1.00  0.00    -0.141 SA 
BRANCH  11  13
HETATM   13  N   UNL     1      -7.297   7.855  65.442  1.00  0.00    -0.074 NA 
BRANCH  13  14
HETATM   14  C   UNL     1      -6.043   8.052  66.163  1.00  0.00    -0.045 C  
HETATM   15  C   UNL     1      -6.255   7.818  67.659  1.00  0.00    -0.050 C  
ENDBRANCH  13  14
BRANCH  13  16
HETATM   16  C   UNL     1      -7.492   6.648  64.645  1.00  0.00    -0.093 C  
HETATM   17  C   UNL     1      -8.328   5.595  65.366  1.00  0.00    -0.144 C  
ENDBRANCH  13  16
ENDBRANCH  11  13
ENDBRANCH   3   6
ENDBRANCH   2   3
TORSDOF 6
ENDMDL
MODEL      160
REMARK 921   NORMALIZED FREE ENERGY PREDICTED BY IDOCK:   -2.77 KCAL/MOL
REMARK 922        TOTAL FREE ENERGY PREDICTED BY IDOCK:   -3.63 KCAL/MOL
REMARK 923 INTER-LIGAND FREE ENERGY PREDICTED BY IDOCK:   -3.31 KCAL/MOL
REMARK 924 INTRA-LIGAND FREE ENERGY PREDICTED BY IDOCK:   -0.32 KCAL/MOL
REMARK 927      BINDING AFFINITY PREDICTED BY RF-SCORE:    0.00 PKD
ROOT
HETATM    1  C   UNL     1     -12.798  11.192  71.439  1.00  0.00    -0.544 C  
HETATM    2  C   UNL     1     -12.531  10.970  69.946  1.00  0.00    -0.219 C  
ENDROOT
BRANCH   2   3
HETATM    3  N   UNL     1     -11.196  11.331  69.432  1.00  0.00    -0.262 NA 
BRANCH   3   4
HETATM    4  C   UNL     1     -10.888  12.697  68.959  1.00  0.00    -0.146 C  
HETATM    5  C   UNL     1     -12.011  13.324  68.121  1.00  0.00    -0.340 C  
ENDBRANCH   3   4
BRANCH   3   6
HETATM    6  C   UNL     1     -10.181  10.293  69.451  1.00  0.00    -0.235 C  
HETATM    7  S   UNL     1      -8.619  10.535  68.918  1.00  0.00    -0.156 SA 
HETATM    8 ZN   UNL     1      -8.939   8.406  68.611  1.00  0.00    -0.130 Zn 
HETATM    9  S   UNL     1      -9.426   7.798  66.651  1.00  0.00    -0.208 SA 
HETATM   10  S   UNL     1     -10.593   8.560  69.937  1.00  0.00    -0.224 SA 
HETATM   11  C   UNL     1      -8.303   6.488  67.268  1.00  0.00    -0.113 C  
HETATM   12  S   UNL     1      -7.415   6.827  68.630  1.00  0.00    -0.101 SA 
BRANCH  11  13
HETATM   13  N   UNL     1      -8.391   5.151  66.747  1.00  0.00    -0.108 NA 
BRANCH  13  14
HETATM   14  C   UNL     1      -9.561   4.324  67.024  1.00  0.00    -0.203 C  
HETATM   15  C   UNL     1      -9.512   3.809  68.462  1.00  0.00    -0.211 C  
ENDBRANCH  13  14
BRANCH  13  16
HETATM   16  C   UNL     1      -7.315   4.628  65.910  1.00  0.00    -0.077 C  
HETATM   17  C   UNL     1      -6.394   3.673  66.665  1.00  0.00    -0.036 C  
ENDBRANCH  13  16
ENDBRANCH  11  13
ENDBRANCH   3   6
ENDBRANCH   2   3
TORSDOF 6
ENDMDL
MODEL      161
REMARK 921   NORMALIZED FREE ENERGY PREDICTED BY IDOCK:   -2.69 KCAL/MOL
REMARK 922        TOTAL FREE ENERGY PREDICTED BY IDOCK:   -3.52 KCAL/MOL
REMARK 923 INTER-LIGAND FREE ENERGY PREDICTED BY IDOCK:   -3.27 KCAL/MOL
REMARK 924 INTRA-LIGAND FREE ENERGY PREDICTED BY IDOCK:   -0.26 KCAL/MOL
REMARK 927      BINDING AFFINITY PREDICTED BY RF-SCORE:    0.00 PKD
ROOT
HETATM    1  C   UNL     1     -13.151   8.954  72.211  1.00  0.00    -0.491 C  
HETATM    2  C   UNL     1     -12.087   8.195  71.409  1.00  0.00    -0.297 C  
ENDROOT
BRANCH   2   3
HETATM    3  N   UNL     1     -10.687   8.644  71.538  1.00  0.00    -0.257 NA 
BRANCH   3   4
HETATM    4  C   UNL     1      -9.855   8.270  72.700  1.00  0.00    -0.287 C  
HETATM    5  C   UNL     1     -10.019   6.805  73.126  1.00  0.00    -0.214 C  
ENDBRANCH   3   4
BRANCH   3   6
HETATM    6  C   UNL     1     -10.149   9.438  70.448  1.00  0.00    -0.255 C  
HETATM    7  S   UNL     1     -11.108  10.230  69.337  1.00  0.00    -0.253 SA 
HETATM    8 ZN   UNL     1      -9.268   9.847  68.243  1.00  0.00    -0.123 Zn 
HETATM    9  S   UNL     1      -9.273   8.188  66.941  1.00  0.00    -0.170 SA 
HETATM   10  S   UNL     1      -8.333   9.508  70.121  1.00  0.00    -0.201 SA 
HETATM   11  C   UNL     1      -8.325   9.470  66.039  1.00  0.00    -0.119 C  
HETATM   12  S   UNL     1      -8.447  11.033  66.589  1.00  0.00    -0.157 SA 
BRANCH  11  13
HETATM   13  N   UNL     1      -7.328   9.094  65.075  1.00  0.00    -0.098 NA 
BRANCH  13  14
HETATM   14  C   UNL     1      -6.414  10.092  64.525  1.00  0.00    -0.130 C  
HETATM   15  C   UNL     1      -5.966   9.677  63.123  1.00  0.00    -0.103 C  
ENDBRANCH  13  14
BRANCH  13  16
HETATM   16  C   UNL     1      -7.209   7.698  64.663  1.00  0.00    -0.075 C  
HETATM   17  C   UNL     1      -6.019   6.994  65.309  1.00  0.00    -0.036 C  
ENDBRANCH  13  16
ENDBRANCH  11  13
ENDBRANCH   3   6
ENDBRANCH   2   3
TORSDOF 6
ENDMDL
MODEL      162
REMARK 921   NORMALIZED FREE ENERGY PREDICTED BY IDOCK:   -2.68 KCAL/MOL
REMARK 922        TOTAL FREE ENERGY PREDICTED BY IDOCK:   -3.52 KCAL/MOL
REMARK 923 INTER-LIGAND FREE ENERGY PREDICTED BY IDOCK:   -3.15 KCAL/MOL
REMARK 924 INTRA-LIGAND FREE ENERGY PREDICTED BY IDOCK:   -0.37 KCAL/MOL
REMARK 927      BINDING AFFINITY PREDICTED BY RF-SCORE:    0.00 PKD
ROOT
HETATM    1  C   UNL     1     -11.550   4.186  73.251  1.00  0.00    -0.137 C  
HETATM    2  C   UNL     1     -10.572   5.360  73.128  1.00  0.00    -0.239 C  
ENDROOT
BRANCH   2   3
HETATM    3  N   UNL     1     -10.910   6.432  72.172  1.00  0.00    -0.227 NA 
BRANCH   3   4
HETATM    4  C   UNL     1     -12.304   6.880  71.966  1.00  0.00    -0.269 C  
HETATM    5  C   UNL     1     -12.425   8.373  71.634  1.00  0.00    -0.363 C  
ENDBRANCH   3   4
BRANCH   3   6
HETATM    6  C   UNL     1      -9.804   7.060  71.470  1.00  0.00    -0.172 C  
HETATM    7  S   UNL     1      -8.780   8.164  72.185  1.00  0.00    -0.194 SA 
HETATM    8 ZN   UNL     1      -8.723   8.704  70.080  1.00  0.00    -0.113 Zn 
HETATM    9  S   UNL     1      -9.929  10.330  69.490  1.00  0.00    -0.204 SA 
HETATM   10  S   UNL     1      -9.539   6.787  69.663  1.00  0.00    -0.147 SA 
HETATM   11  C   UNL     1      -8.388  10.532  68.520  1.00  0.00    -0.129 C  
HETATM   12  S   UNL     1      -7.062   9.659  69.009  1.00  0.00    -0.068 SA 
BRANCH  11  13
HETATM   13  N   UNL     1      -8.410  11.209  67.252  1.00  0.00    -0.131 NA 
BRANCH  13  14
HETATM   14  C   UNL     1      -7.901  10.552  66.052  1.00  0.00    -0.147 C  
HETATM   15  C   UNL     1      -9.060  10.161  65.135  1.00  0.00    -0.242 C  
ENDBRANCH  13  14
BRANCH  13  16
HETATM   16  C   UNL     1      -8.973  12.553  67.158  1.00  0.00    -0.200 C  
HETATM   17  C   UNL     1      -8.091  13.608  67.819  1.00  0.00    -0.173 C  
ENDBRANCH  13  16
ENDBRANCH  11  13
ENDBRANCH   3   6
ENDBRANCH   2   3
TORSDOF 6
ENDMDL
MODEL      163
REMARK 921   NORMALIZED FREE ENERGY PREDICTED BY IDOCK:   -2.65 KCAL/MOL
REMARK 922        TOTAL FREE ENERGY PREDICTED BY IDOCK:   -3.48 KCAL/MOL
REMARK 923 INTER-LIGAND FREE ENERGY PREDICTED BY IDOCK:   -3.02 KCAL/MOL
REMARK 924 INTRA-LIGAND FREE ENERGY PREDICTED BY IDOCK:   -0.46 KCAL/MOL
REMARK 927      BINDING AFFINITY PREDICTED BY RF-SCORE:    0.00 PKD
ROOT
HETATM    1  C   UNL     1     -12.691   9.122  71.940  1.00  0.00    -0.464 C  
HETATM    2  C   UNL     1     -11.437   8.389  72.431  1.00  0.00    -0.380 C  
ENDROOT
BRANCH   2   3
HETATM    3  N   UNL     1     -10.318   8.243  71.481  1.00  0.00    -0.202 NA 
BRANCH   3   4
HETATM    4  C   UNL     1      -8.961   8.737  71.795  1.00  0.00    -0.212 C  
HETATM    5  C   UNL     1      -7.879   7.652  71.716  1.00  0.00    -0.092 C  
ENDBRANCH   3   4
BRANCH   3   6
HETATM    6  C   UNL     1     -10.599   7.550  70.236  1.00  0.00    -0.229 C  
HETATM    7  S   UNL     1     -11.102   5.962  70.170  1.00  0.00    -0.253 SA 
HETATM    8 ZN   UNL     1     -10.091   6.256  68.268  1.00  0.00    -0.128 Zn 
HETATM    9  S   UNL     1      -8.109   5.547  68.133  1.00  0.00    -0.096 SA 
HETATM   10  S   UNL     1     -10.273   8.347  68.602  1.00  0.00    -0.196 SA 
HETATM   11  C   UNL     1      -8.845   5.150  66.503  1.00  0.00    -0.117 C  
HETATM   12  S   UNL     1     -10.501   5.212  66.381  1.00  0.00    -0.258 SA 
BRANCH  11  13
HETATM   13  N   UNL     1      -8.013   5.050  65.335  1.00  0.00    -0.105 NA 
BRANCH  13  14
HETATM   14  C   UNL     1      -7.986   6.128  64.350  1.00  0.00    -0.121 C  
HETATM   15  C   UNL     1      -7.297   7.359  64.939  1.00  0.00    -0.080 C  
ENDBRANCH  13  14
BRANCH  13  16
HETATM   16  C   UNL     1      -7.168   3.875  65.147  1.00  0.00    -0.067 C  
HETATM   17  C   UNL     1      -5.757   4.071  65.695  1.00  0.00    -0.022 C  
ENDBRANCH  13  16
ENDBRANCH  11  13
ENDBRANCH   3   6
ENDBRANCH   2   3
TORSDOF 6
ENDMDL
MODEL      164
REMARK 921   NORMALIZED FREE ENERGY PREDICTED BY IDOCK:   -2.63 KCAL/MOL
REMARK 922        TOTAL FREE ENERGY PREDICTED BY IDOCK:   -3.45 KCAL/MOL
REMARK 923 INTER-LIGAND FREE ENERGY PREDICTED BY IDOCK:   -3.14 KCAL/MOL
REMARK 924 INTRA-LIGAND FREE ENERGY PREDICTED BY IDOCK:   -0.31 KCAL/MOL
REMARK 927      BINDING AFFINITY PREDICTED BY RF-SCORE:    0.00 PKD
ROOT
HETATM    1  C   UNL     1      -9.996   4.589  65.654  1.00  0.00    -0.245 C  
HETATM    2  C   UNL     1      -9.253   4.015  66.866  1.00  0.00    -0.167 C  
ENDROOT
BRANCH   2   3
HETATM    3  N   UNL     1      -7.856   4.443  67.075  1.00  0.00    -0.097 NA 
BRANCH   3   4
HETATM    4  C   UNL     1      -6.746   3.471  67.140  1.00  0.00    -0.046 C  
HETATM    5  C   UNL     1      -7.180   2.025  66.865  1.00  0.00    -0.052 C  
ENDBRANCH   3   4
BRANCH   3   6
HETATM    6  C   UNL     1      -7.615   5.872  67.173  1.00  0.00    -0.096 C  
HETATM    7  S   UNL     1      -7.743   6.723  68.601  1.00  0.00    -0.115 SA 
HETATM    8 ZN   UNL     1      -8.172   8.215  67.079  1.00  0.00    -0.100 Zn 
HETATM    9  S   UNL     1     -10.206   8.652  66.733  1.00  0.00    -0.267 SA 
HETATM   10  S   UNL     1      -7.288   6.893  65.669  1.00  0.00    -0.082 SA 
HETATM   11  C   UNL     1      -9.366  10.276  66.617  1.00  0.00    -0.161 C  
HETATM   12  S   UNL     1      -7.819  10.377  67.215  1.00  0.00    -0.107 SA 
BRANCH  11  13
HETATM   13  N   UNL     1      -9.926  11.328  65.813  1.00  0.00    -0.227 NA 
BRANCH  13  14
HETATM   14  C   UNL     1     -10.528  11.029  64.517  1.00  0.00    -0.342 C  
HETATM   15  C   UNL     1     -10.322  12.203  63.559  1.00  0.00    -0.473 C  
ENDBRANCH  13  14
BRANCH  13  16
HETATM   16  C   UNL     1      -9.918  12.701  66.309  1.00  0.00    -0.258 C  
HETATM   17  C   UNL     1     -11.040  12.972  67.307  1.00  0.00    -0.303 C  
ENDBRANCH  13  16
ENDBRANCH  11  13
ENDBRANCH   3   6
ENDBRANCH   2   3
TORSDOF 6
ENDMDL
MODEL      165
REMARK 921   NORMALIZED FREE ENERGY PREDICTED BY IDOCK:   -2.61 KCAL/MOL
REMARK 922        TOTAL FREE ENERGY PREDICTED BY IDOCK:   -3.42 KCAL/MOL
REMARK 923 INTER-LIGAND FREE ENERGY PREDICTED BY IDOCK:   -3.04 KCAL/MOL
REMARK 924 INTRA-LIGAND FREE ENERGY PREDICTED BY IDOCK:   -0.39 KCAL/MOL
REMARK 927      BINDING AFFINITY PREDICTED BY RF-SCORE:    0.00 PKD
ROOT
HETATM    1  C   UNL     1     -10.135   4.645  65.897  1.00  0.00    -0.280 C  
HETATM    2  C   UNL     1      -9.472   3.943  67.087  1.00  0.00    -0.201 C  
ENDROOT
BRANCH   2   3
HETATM    3  N   UNL     1      -8.157   4.445  67.530  1.00  0.00    -0.099 NA 
BRANCH   3   4
HETATM    4  C   UNL     1      -6.915   3.678  67.303  1.00  0.00    -0.055 C  
HETATM    5  C   UNL     1      -7.127   2.394  66.490  1.00  0.00    -0.052 C  
ENDBRANCH   3   4
BRANCH   3   6
HETATM    6  C   UNL     1      -8.133   5.753  68.163  1.00  0.00    -0.104 C  
HETATM    7  S   UNL     1      -8.986   6.110  69.550  1.00  0.00    -0.133 SA 
HETATM    8 ZN   UNL     1      -8.817   8.031  68.546  1.00  0.00    -0.125 Zn 
HETATM    9  S   UNL     1     -10.498   8.672  67.446  1.00  0.00    -0.247 SA 
HETATM   10  S   UNL     1      -7.257   7.178  67.381  1.00  0.00    -0.092 SA 
HETATM   11  C   UNL     1      -9.866  10.197  68.240  1.00  0.00    -0.145 C  
HETATM   12  S   UNL     1      -8.786  10.013  69.488  1.00  0.00    -0.183 SA 
BRANCH  11  13
HETATM   13  N   UNL     1     -10.097  11.481  67.636  1.00  0.00    -0.182 NA 
BRANCH  13  14
HETATM   14  C   UNL     1     -11.298  12.246  67.959  1.00  0.00    -0.293 C  
HETATM   15  C   UNL     1     -11.833  12.937  66.704  1.00  0.00    -0.461 C  
ENDBRANCH  13  14
BRANCH  13  16
HETATM   16  C   UNL     1      -9.110  12.036  66.715  1.00  0.00    -0.197 C  
HETATM   17  C   UNL     1      -8.270  13.142  67.349  1.00  0.00    -0.187 C  
ENDBRANCH  13  16
ENDBRANCH  11  13
ENDBRANCH   3   6
ENDBRANCH   2   3
TORSDOF 6
ENDMDL
MODEL      166
REMARK 921   NORMALIZED FREE ENERGY PREDICTED BY IDOCK:   -2.56 KCAL/MOL
REMARK 922        TOTAL FREE ENERGY PREDICTED BY IDOCK:   -3.35 KCAL/MOL
REMARK 923 INTER-LIGAND FREE ENERGY PREDICTED BY IDOCK:   -2.98 KCAL/MOL
REMARK 924 INTRA-LIGAND FREE ENERGY PREDICTED BY IDOCK:   -0.38 KCAL/MOL
REMARK 927      BINDING AFFINITY PREDICTED BY RF-SCORE:    0.00 PKD
ROOT
HETATM    1  C   UNL     1      -7.913  10.142  63.090  1.00  0.00    -0.154 C  
HETATM    2  C   UNL     1      -8.533   8.939  63.811  1.00  0.00    -0.137 C  
ENDROOT
BRANCH   2   3
HETATM    3  N   UNL     1      -8.042   8.630  65.168  1.00  0.00    -0.134 NA 
BRANCH   3   4
HETATM    4  C   UNL     1      -6.668   8.968  65.593  1.00  0.00    -0.072 C  
HETATM    5  C   UNL     1      -5.658   7.836  65.361  1.00  0.00    -0.037 C  
ENDBRANCH   3   4
BRANCH   3   6
HETATM    6  C   UNL     1      -8.986   8.015  66.085  1.00  0.00    -0.175 C  
HETATM    7  S   UNL     1     -10.197   8.867  66.853  1.00  0.00    -0.268 SA 
HETATM    8 ZN   UNL     1      -9.797   7.214  68.207  1.00  0.00    -0.140 Zn 
HETATM    9  S   UNL     1      -8.565   7.631  69.867  1.00  0.00    -0.139 SA 
HETATM   10  S   UNL     1      -8.820   6.246  66.587  1.00  0.00    -0.137 SA 
HETATM   11  C   UNL     1      -9.851   6.506  70.528  1.00  0.00    -0.179 C  
HETATM   12  S   UNL     1     -11.212   6.280  69.602  1.00  0.00    -0.417 SA 
BRANCH  11  13
HETATM   13  N   UNL     1      -9.571   5.668  71.661  1.00  0.00    -0.153 NA 
BRANCH  13  14
HETATM   14  C   UNL     1      -8.560   4.618  71.574  1.00  0.00    -0.116 C  
HETATM   15  C   UNL     1      -9.026   3.375  72.332  1.00  0.00    -0.123 C  
ENDBRANCH  13  14
BRANCH  13  16
HETATM   16  C   UNL     1     -10.283   5.886  72.917  1.00  0.00    -0.191 C  
HETATM   17  C   UNL     1     -10.393   7.363  73.282  1.00  0.00    -0.405 C  
ENDBRANCH  13  16
ENDBRANCH  11  13
ENDBRANCH   3   6
ENDBRANCH   2   3
TORSDOF 6
ENDMDL
MODEL      167
REMARK 921   NORMALIZED FREE ENERGY PREDICTED BY IDOCK:   -2.55 KCAL/MOL
REMARK 922        TOTAL FREE ENERGY PREDICTED BY IDOCK:   -3.34 KCAL/MOL
REMARK 923 INTER-LIGAND FREE ENERGY PREDICTED BY IDOCK:   -3.07 KCAL/MOL
REMARK 924 INTRA-LIGAND FREE ENERGY PREDICTED BY IDOCK:   -0.27 KCAL/MOL
REMARK 927      BINDING AFFINITY PREDICTED BY RF-SCORE:    0.00 PKD
ROOT
HETATM    1  C   UNL     1     -11.035   9.938  67.922  1.00  0.00    -0.281 C  
HETATM    2  C   UNL     1     -10.316   8.586  67.996  1.00  0.00    -0.217 C  
ENDROOT
BRANCH   2   3
HETATM    3  N   UNL     1      -8.936   8.518  67.477  1.00  0.00    -0.134 NA 
BRANCH   3   4
HETATM    4  C   UNL     1      -8.407   7.298  66.832  1.00  0.00    -0.118 C  
HETATM    5  C   UNL     1      -7.283   6.622  67.629  1.00  0.00    -0.090 C  
ENDBRANCH   3   4
BRANCH   3   6
HETATM    6  C   UNL     1      -8.132   9.722  67.589  1.00  0.00    -0.113 C  
HETATM    7  S   UNL     1      -7.557  10.301  69.044  1.00  0.00    -0.112 SA 
HETATM    8 ZN   UNL     1      -7.718  12.085  67.812  1.00  0.00    -0.097 Zn 
HETATM    9  S   UNL     1      -9.428  13.284  68.106  1.00  0.00    -0.217 SA 
HETATM   10  S   UNL     1      -7.807  10.797  66.123  1.00  0.00    -0.139 SA 
HETATM   11  C   UNL     1      -8.070  14.486  67.851  1.00  0.00    -0.148 C  
HETATM   12  S   UNL     1      -6.515  13.914  67.975  1.00  0.00    -0.160 SA 
BRANCH  11  13
HETATM   13  N   UNL     1      -8.345  15.791  67.315  1.00  0.00    -0.174 NA 
BRANCH  13  14
HETATM   14  C   UNL     1      -7.291  16.799  67.241  1.00  0.00    -0.175 C  
HETATM   15  C   UNL     1      -7.580  17.779  66.104  1.00  0.00    -0.302 C  
ENDBRANCH  13  14
BRANCH  13  16
HETATM   16  C   UNL     1      -9.680  16.101  66.814  1.00  0.00    -0.242 C  
HETATM   17  C   UNL     1     -10.556  16.787  67.858  1.00  0.00    -0.350 C  
ENDBRANCH  13  16
ENDBRANCH  11  13
ENDBRANCH   3   6
ENDBRANCH   2   3
TORSDOF 6
ENDMDL
MODEL      168
REMARK 921   NORMALIZED FREE ENERGY PREDICTED BY IDOCK:   -2.45 KCAL/MOL
REMARK 922        TOTAL FREE ENERGY PREDICTED BY IDOCK:   -3.21 KCAL/MOL
REMARK 923 INTER-LIGAND FREE ENERGY PREDICTED BY IDOCK:   -3.06 KCAL/MOL
REMARK 924 INTRA-LIGAND FREE ENERGY PREDICTED BY IDOCK:   -0.15 KCAL/MOL
REMARK 927      BINDING AFFINITY PREDICTED BY RF-SCORE:    0.00 PKD
ROOT
HETATM    1  C   UNL     1     -13.277   9.624  72.264  1.00  0.00    -0.492 C  
HETATM    2  C   UNL     1     -12.643   8.956  71.039  1.00  0.00    -0.101 C  
ENDROOT
BRANCH   2   3
HETATM    3  N   UNL     1     -11.239   9.290  70.731  1.00  0.00    -0.268 NA 
BRANCH   3   4
HETATM    4  C   UNL     1     -10.128   8.870  71.611  1.00  0.00    -0.341 C  
HETATM    5  C   UNL     1     -10.478   7.680  72.514  1.00  0.00    -0.323 C  
ENDBRANCH   3   4
BRANCH   3   6
HETATM    6  C   UNL     1     -10.992  10.017  69.498  1.00  0.00    -0.253 C  
HETATM    7  S   UNL     1      -9.663   9.741  68.528  1.00  0.00    -0.158 SA 
HETATM    8 ZN   UNL     1     -10.166  11.818  68.126  1.00  0.00    -0.167 Zn 
HETATM    9  S   UNL     1      -9.024  13.277  69.133  1.00  0.00     0.832 SA 
HETATM   10  S   UNL     1     -12.071  11.424  68.983  1.00  0.00    -0.148 SA 
HETATM   11  C   UNL     1      -9.271  13.971  67.456  1.00  0.00    -0.197 C  
HETATM   12  S   UNL     1      -9.792  12.930  66.271  1.00  0.00    -0.268 SA 
BRANCH  11  13
HETATM   13  N   UNL     1      -9.263  15.394  67.250  1.00  0.00    -0.203 NA 
BRANCH  13  14
HETATM   14  C   UNL     1      -9.732  16.297  68.297  1.00  0.00    -0.222 C  
HETATM   15  C   UNL     1     -10.720  17.308  67.715  1.00  0.00    -0.333 C  
ENDBRANCH  13  14
BRANCH  13  16
HETATM   16  C   UNL     1      -8.756  15.941  65.995  1.00  0.00    -0.188 C  
HETATM   17  C   UNL     1      -7.542  16.843  66.194  1.00  0.00    -0.230 C  
ENDBRANCH  13  16
ENDBRANCH  11  13
ENDBRANCH   3   6
ENDBRANCH   2   3
TORSDOF 6
ENDMDL
MODEL      169
REMARK 921   NORMALIZED FREE ENERGY PREDICTED BY IDOCK:   -2.40 KCAL/MOL
REMARK 922        TOTAL FREE ENERGY PREDICTED BY IDOCK:   -3.14 KCAL/MOL
REMARK 923 INTER-LIGAND FREE ENERGY PREDICTED BY IDOCK:   -2.77 KCAL/MOL
REMARK 924 INTRA-LIGAND FREE ENERGY PREDICTED BY IDOCK:   -0.37 KCAL/MOL
REMARK 927      BINDING AFFINITY PREDICTED BY RF-SCORE:    0.00 PKD
ROOT
HETATM    1  C   UNL     1      -8.773   3.409  62.525  1.00  0.00    -0.081 C  
HETATM    2  C   UNL     1      -8.982   4.414  63.663  1.00  0.00    -0.139 C  
ENDROOT
BRANCH   2   3
HETATM    3  N   UNL     1      -8.505   4.031  65.006  1.00  0.00    -0.112 NA 
BRANCH   3   4
HETATM    4  C   UNL     1      -8.334   2.617  65.397  1.00  0.00    -0.096 C  
HETATM    5  C   UNL     1      -6.866   2.172  65.462  1.00  0.00    -0.036 C  
ENDBRANCH   3   4
BRANCH   3   6
HETATM    6  C   UNL     1      -8.170   5.112  65.917  1.00  0.00    -0.115 C  
HETATM    7  S   UNL     1      -8.362   5.004  67.570  1.00  0.00    -0.105 SA 
HETATM    8 ZN   UNL     1      -8.543   7.134  67.174  1.00  0.00    -0.111 Zn 
HETATM    9  S   UNL     1     -10.500   7.914  67.080  1.00  0.00    -0.321 SA 
HETATM   10  S   UNL     1      -7.636   6.764  65.287  1.00  0.00    -0.099 SA 
HETATM   11  C   UNL     1      -9.536   9.208  67.947  1.00  0.00    -0.141 C  
HETATM   12  S   UNL     1      -8.046   8.776  68.542  1.00  0.00    -0.117 SA 
BRANCH  11  13
HETATM   13  N   UNL     1      -9.943  10.585  67.879  1.00  0.00    -0.166 NA 
BRANCH  13  14
HETATM   14  C   UNL     1      -8.949  11.645  67.727  1.00  0.00    -0.170 C  
HETATM   15  C   UNL     1      -9.488  12.740  66.806  1.00  0.00    -0.243 C  
ENDBRANCH  13  14
BRANCH  13  16
HETATM   16  C   UNL     1     -11.361  10.925  67.935  1.00  0.00    -0.308 C  
HETATM   17  C   UNL     1     -11.888  11.021  69.364  1.00  0.00    -0.407 C  
ENDBRANCH  13  16
ENDBRANCH  11  13
ENDBRANCH   3   6
ENDBRANCH   2   3
TORSDOF 6
ENDMDL
MODEL      170
REMARK 921   NORMALIZED FREE ENERGY PREDICTED BY IDOCK:   -2.36 KCAL/MOL
REMARK 922        TOTAL FREE ENERGY PREDICTED BY IDOCK:   -3.09 KCAL/MOL
REMARK 923 INTER-LIGAND FREE ENERGY PREDICTED BY IDOCK:   -2.92 KCAL/MOL
REMARK 924 INTRA-LIGAND FREE ENERGY PREDICTED BY IDOCK:   -0.17 KCAL/MOL
REMARK 927      BINDING AFFINITY PREDICTED BY RF-SCORE:    0.00 PKD
ROOT
HETATM    1  C   UNL     1     -11.994   7.353  72.631  1.00  0.00    -0.098 C  
HETATM    2  C   UNL     1     -10.614   7.507  73.282  1.00  0.00    -0.384 C  
ENDROOT
BRANCH   2   3
HETATM    3  N   UNL     1      -9.446   7.618  72.387  1.00  0.00    -0.155 NA 
BRANCH   3   4
HETATM    4  C   UNL     1      -8.071   7.734  72.914  1.00  0.00    -0.126 C  
HETATM    5  C   UNL     1      -8.014   8.103  74.402  1.00  0.00    -0.308 C  
ENDBRANCH   3   4
BRANCH   3   6
HETATM    6  C   UNL     1      -9.706   7.564  70.959  1.00  0.00    -0.167 C  
HETATM    7  S   UNL     1      -9.230   6.290  69.993  1.00  0.00    -0.152 SA 
HETATM    8 ZN   UNL     1      -9.283   7.977  68.623  1.00  0.00    -0.137 Zn 
HETATM    9  S   UNL     1      -7.436   8.894  68.182  1.00  0.00    -0.092 SA 
HETATM   10  S   UNL     1     -10.464   8.993  70.069  1.00  0.00    -0.223 SA 
HETATM   11  C   UNL     1      -8.337   8.897  66.586  1.00  0.00    -0.111 C  
HETATM   12  S   UNL     1      -9.667   7.910  66.463  1.00  0.00    -0.178 SA 
BRANCH  11  13
HETATM   13  N   UNL     1      -8.055   9.898  65.594  1.00  0.00    -0.123 NA 
BRANCH  13  14
HETATM   14  C   UNL     1      -9.083  10.853  65.192  1.00  0.00    -0.196 C  
HETATM   15  C   UNL     1      -9.257  11.923  66.271  1.00  0.00    -0.218 C  
ENDBRANCH  13  14
BRANCH  13  16
HETATM   16  C   UNL     1      -6.721   9.978  65.005  1.00  0.00    -0.128 C  
HETATM   17  C   UNL     1      -6.757  10.208  63.497  1.00  0.00    -0.124 C  
ENDBRANCH  13  16
ENDBRANCH  11  13
ENDBRANCH   3   6
ENDBRANCH   2   3
TORSDOF 6
ENDMDL
MODEL      171
REMARK 921   NORMALIZED FREE ENERGY PREDICTED BY IDOCK:   -2.32 KCAL/MOL
REMARK 922        TOTAL FREE ENERGY PREDICTED BY IDOCK:   -3.03 KCAL/MOL
REMARK 923 INTER-LIGAND FREE ENERGY PREDICTED BY IDOCK:   -2.55 KCAL/MOL
REMARK 924 INTRA-LIGAND FREE ENERGY PREDICTED BY IDOCK:   -0.48 KCAL/MOL
REMARK 927      BINDING AFFINITY PREDICTED BY RF-SCORE:    0.00 PKD
ROOT
HETATM    1  C   UNL     1      -9.664   9.456  66.286  1.00  0.00    -0.330 C  
HETATM    2  C   UNL     1      -8.592  10.098  67.174  1.00  0.00    -0.125 C  
ENDROOT
BRANCH   2   3
HETATM    3  N   UNL     1      -7.772   9.199  68.010  1.00  0.00    -0.092 NA 
BRANCH   3   4
HETATM    4  C   UNL     1      -6.628   8.448  67.453  1.00  0.00    -0.059 C  
HETATM    5  C   UNL     1      -6.662   6.949  67.779  1.00  0.00    -0.067 C  
ENDBRANCH   3   4
BRANCH   3   6
HETATM    6  C   UNL     1      -8.114   9.119  69.419  1.00  0.00    -0.102 C  
HETATM    7  S   UNL     1      -7.063   9.554  70.639  1.00  0.00    -0.100 SA 
HETATM    8 ZN   UNL     1      -8.346   8.070  71.576  1.00  0.00    -0.088 Zn 
HETATM    9  S   UNL     1      -7.575   6.113  71.723  1.00  0.00    -0.097 SA 
HETATM   10  S   UNL     1      -9.711   8.377  69.976  1.00  0.00    -0.178 SA 
HETATM   11  C   UNL     1      -8.463   6.371  73.305  1.00  0.00    -0.121 C  
HETATM   12  S   UNL     1      -8.866   7.932  73.704  1.00  0.00    -0.265 SA 
BRANCH  11  13
HETATM   13  N   UNL     1      -9.007   5.252  74.024  1.00  0.00    -0.119 NA 
BRANCH  13  14
HETATM   14  C   UNL     1     -10.436   5.184  74.318  1.00  0.00    -0.275 C  
HETATM   15  C   UNL     1     -11.225   4.943  73.031  1.00  0.00    -0.367 C  
ENDBRANCH  13  14
BRANCH  13  16
HETATM   16  C   UNL     1      -8.130   4.161  74.438  1.00  0.00    -0.091 C  
HETATM   17  C   UNL     1      -8.385   2.873  73.662  1.00  0.00    -0.073 C  
ENDBRANCH  13  16
ENDBRANCH  11  13
ENDBRANCH   3   6
ENDBRANCH   2   3
TORSDOF 6
ENDMDL
MODEL      172
REMARK 921   NORMALIZED FREE ENERGY PREDICTED BY IDOCK:   -2.20 KCAL/MOL
REMARK 922        TOTAL FREE ENERGY PREDICTED BY IDOCK:   -2.87 KCAL/MOL
REMARK 923 INTER-LIGAND FREE ENERGY PREDICTED BY IDOCK:   -2.49 KCAL/MOL
REMARK 924 INTRA-LIGAND FREE ENERGY PREDICTED BY IDOCK:   -0.38 KCAL/MOL
REMARK 927      BINDING AFFINITY PREDICTED BY RF-SCORE:    0.00 PKD
ROOT
HETATM    1  C   UNL     1      -9.378  18.533  68.105  1.00  0.00    -0.336 C  
HETATM    2  C   UNL     1      -9.904  17.112  68.336  1.00  0.00    -0.296 C  
ENDROOT
BRANCH   2   3
HETATM    3  N   UNL     1      -9.285  16.021  67.558  1.00  0.00    -0.210 NA 
BRANCH   3   4
HETATM    4  C   UNL     1      -9.226  16.054  66.082  1.00  0.00    -0.352 C  
HETATM    5  C   UNL     1     -10.408  15.346  65.406  1.00  0.00    -0.422 C  
ENDBRANCH   3   4
BRANCH   3   6
HETATM    6  C   UNL     1      -8.694  14.930  68.313  1.00  0.00    -0.166 C  
HETATM    7  S   UNL     1      -7.048  14.707  68.456  1.00  0.00    -0.122 SA 
HETATM    8 ZN   UNL     1      -7.856  12.701  68.679  1.00  0.00    -0.105 Zn 
HETATM    9  S   UNL     1      -7.794  11.462  66.973  1.00  0.00    -0.163 SA 
HETATM   10  S   UNL     1      -9.742  13.605  69.060  1.00  0.00     0.311 SA 
HETATM   11  C   UNL     1      -7.393  10.340  68.365  1.00  0.00    -0.084 C  
HETATM   12  S   UNL     1      -6.971  11.041  69.810  1.00  0.00    -0.028 SA 
BRANCH  11  13
HETATM   13  N   UNL     1      -7.687   8.936  68.274  1.00  0.00    -0.095 NA 
BRANCH  13  14
HETATM   14  C   UNL     1      -7.267   8.021  69.331  1.00  0.00    -0.071 C  
HETATM   15  C   UNL     1      -5.921   7.389  68.976  1.00  0.00    -0.030 C  
ENDBRANCH  13  14
BRANCH  13  16
HETATM   16  C   UNL     1      -8.435   8.425  67.129  1.00  0.00    -0.123 C  
HETATM   17  C   UNL     1      -9.763   7.788  67.530  1.00  0.00    -0.201 C  
ENDBRANCH  13  16
ENDBRANCH  11  13
ENDBRANCH   3   6
ENDBRANCH   2   3
TORSDOF 6
ENDMDL
MODEL      173
REMARK 921   NORMALIZED FREE ENERGY PREDICTED BY IDOCK:   -2.19 KCAL/MOL
REMARK 922        TOTAL FREE ENERGY PREDICTED BY IDOCK:   -2.85 KCAL/MOL
REMARK 923 INTER-LIGAND FREE ENERGY PREDICTED BY IDOCK:   -2.94 KCAL/MOL
REMARK 924 INTRA-LIGAND FREE ENERGY PREDICTED BY IDOCK:    0.09 KCAL/MOL
REMARK 927      BINDING AFFINITY PREDICTED BY RF-SCORE:    0.00 PKD
ROOT
HETATM    1  C   UNL     1     -10.439  11.891  65.261  1.00  0.00    -0.317 C  
HETATM    2  C   UNL     1      -9.108  11.778  66.013  1.00  0.00    -0.155 C  
ENDROOT
BRANCH   2   3
HETATM    3  N   UNL     1      -8.722  10.448  66.521  1.00  0.00    -0.134 NA 
BRANCH   3   4
HETATM    4  C   UNL     1      -8.087   9.437  65.650  1.00  0.00    -0.112 C  
HETATM    5  C   UNL     1      -8.245   9.732  64.152  1.00  0.00    -0.158 C  
ENDBRANCH   3   4
BRANCH   3   6
HETATM    6  C   UNL     1      -8.955  10.190  67.931  1.00  0.00    -0.128 C  
HETATM    7  S   UNL     1      -7.783  10.392  69.101  1.00  0.00    -0.137 SA 
HETATM    8 ZN   UNL     1      -9.084   8.865  69.940  1.00  0.00    -0.129 Zn 
HETATM    9  S   UNL     1      -8.436   6.866  69.753  1.00  0.00    -0.134 SA 
HETATM   10  S   UNL     1     -10.548   9.467  68.522  1.00  0.00    -0.166 SA 
HETATM   11  C   UNL     1      -9.175   6.950  71.427  1.00  0.00    -0.156 C  
HETATM   12  S   UNL     1      -9.440   8.459  72.067  1.00  0.00    -0.293 SA 
BRANCH  11  13
HETATM   13  N   UNL     1      -9.734   5.773  72.034  1.00  0.00    -0.154 NA 
BRANCH  13  14
HETATM   14  C   UNL     1     -11.177   5.648  72.219  1.00  0.00    -0.259 C  
HETATM   15  C   UNL     1     -11.488   4.482  73.157  1.00  0.00    -0.274 C  
ENDBRANCH  13  14
BRANCH  13  16
HETATM   16  C   UNL     1      -8.855   4.681  72.442  1.00  0.00    -0.118 C  
HETATM   17  C   UNL     1      -8.589   3.686  71.316  1.00  0.00    -0.113 C  
ENDBRANCH  13  16
ENDBRANCH  11  13
ENDBRANCH   3   6
ENDBRANCH   2   3
TORSDOF 6
ENDMDL
MODEL      174
REMARK 921   NORMALIZED FREE ENERGY PREDICTED BY IDOCK:   -2.06 KCAL/MOL
REMARK 922        TOTAL FREE ENERGY PREDICTED BY IDOCK:   -2.68 KCAL/MOL
REMARK 923 INTER-LIGAND FREE ENERGY PREDICTED BY IDOCK:   -2.31 KCAL/MOL
REMARK 924 INTRA-LIGAND FREE ENERGY PREDICTED BY IDOCK:   -0.38 KCAL/MOL
REMARK 927      BINDING AFFINITY PREDICTED BY RF-SCORE:    0.00 PKD
ROOT
HETATM    1  C   UNL     1     -11.877   3.731  73.351  1.00  0.00     0.119 C  
HETATM    2  C   UNL     1     -10.653   4.573  72.974  1.00  0.00    -0.204 C  
ENDROOT
BRANCH   2   3
HETATM    3  N   UNL     1     -10.773   5.467  71.806  1.00  0.00    -0.226 NA 
BRANCH   3   4
HETATM    4  C   UNL     1     -12.010   6.228  71.533  1.00  0.00    -0.183 C  
HETATM    5  C   UNL     1     -12.022   7.625  72.167  1.00  0.00    -0.344 C  
ENDBRANCH   3   4
BRANCH   3   6
HETATM    6  C   UNL     1      -9.602   5.598  70.957  1.00  0.00    -0.169 C  
HETATM    7  S   UNL     1      -8.425   6.754  71.200  1.00  0.00    -0.125 SA 
HETATM    8 ZN   UNL     1      -8.326   6.367  69.063  1.00  0.00    -0.104 Zn 
HETATM    9  S   UNL     1      -9.307   7.749  67.807  1.00  0.00    -0.144 SA 
HETATM   10  S   UNL     1      -9.404   4.573  69.433  1.00  0.00    -0.165 SA 
HETATM   11  C   UNL     1      -7.768   7.329  66.906  1.00  0.00    -0.110 C  
HETATM   12  S   UNL     1      -6.567   6.569  67.766  1.00  0.00    -0.064 SA 
BRANCH  11  13
HETATM   13  N   UNL     1      -7.717   7.421  65.473  1.00  0.00    -0.100 NA 
BRANCH  13  14
HETATM   14  C   UNL     1      -7.213   6.305  64.677  1.00  0.00    -0.064 C  
HETATM   15  C   UNL     1      -8.277   5.213  64.570  1.00  0.00    -0.133 C  
ENDBRANCH  13  14
BRANCH  13  16
HETATM   16  C   UNL     1      -8.199   8.627  64.806  1.00  0.00    -0.160 C  
HETATM   17  C   UNL     1      -7.442   9.880  65.237  1.00  0.00    -0.131 C  
ENDBRANCH  13  16
ENDBRANCH  11  13
ENDBRANCH   3   6
ENDBRANCH   2   3
TORSDOF 6
ENDMDL
MODEL      175
REMARK 921   NORMALIZED FREE ENERGY PREDICTED BY IDOCK:   -2.00 KCAL/MOL
REMARK 922        TOTAL FREE ENERGY PREDICTED BY IDOCK:   -2.60 KCAL/MOL
REMARK 923 INTER-LIGAND FREE ENERGY PREDICTED BY IDOCK:   -2.40 KCAL/MOL
REMARK 924 INTRA-LIGAND FREE ENERGY PREDICTED BY IDOCK:   -0.20 KCAL/MOL
REMARK 927      BINDING AFFINITY PREDICTED BY RF-SCORE:    0.00 PKD
ROOT
HETATM    1  C   UNL     1      -9.479  17.075  66.247  1.00  0.00    -0.281 C  
HETATM    2  C   UNL     1      -9.521  15.813  67.116  1.00  0.00    -0.213 C  
ENDROOT
BRANCH   2   3
HETATM    3  N   UNL     1     -10.102  14.594  66.520  1.00  0.00    -0.270 NA 
BRANCH   3   4
HETATM    4  C   UNL     1     -11.449  14.591  65.912  1.00  0.00    -0.345 C  
HETATM    5  C   UNL     1     -12.563  14.201  66.893  1.00  0.00     0.052 C  
ENDBRANCH   3   4
BRANCH   3   6
HETATM    6  C   UNL     1      -9.270  13.403  66.519  1.00  0.00    -0.169 C  
HETATM    7  S   UNL     1      -9.685  12.003  65.712  1.00  0.00    -0.211 SA 
HETATM    8 ZN   UNL     1      -8.426  11.301  67.340  1.00  0.00    -0.120 Zn 
HETATM    9  S   UNL     1      -9.418  10.523  69.031  1.00  0.00    -0.190 SA 
HETATM   10  S   UNL     1      -7.740  13.302  67.548  1.00  0.00    -0.157 SA 
HETATM   11  C   UNL     1      -7.965   9.428  68.812  1.00  0.00    -0.092 C  
HETATM   12  S   UNL     1      -7.171   9.501  67.355  1.00  0.00    -0.087 SA 
BRANCH  11  13
HETATM   13  N   UNL     1      -7.396   8.740  69.939  1.00  0.00    -0.051 NA 
BRANCH  13  14
HETATM   14  C   UNL     1      -6.747   9.488  71.012  1.00  0.00    -0.048 C  
HETATM   15  C   UNL     1      -6.156  10.787  70.463  1.00  0.00    -0.109 C  
ENDBRANCH  13  14
BRANCH  13  16
HETATM   16  C   UNL     1      -7.494   7.287  70.026  1.00  0.00    -0.085 C  
HETATM   17  C   UNL     1      -6.148   6.593  69.837  1.00  0.00    -0.027 C  
ENDBRANCH  13  16
ENDBRANCH  11  13
ENDBRANCH   3   6
ENDBRANCH   2   3
TORSDOF 6
ENDMDL
MODEL      176
REMARK 921   NORMALIZED FREE ENERGY PREDICTED BY IDOCK:   -1.90 KCAL/MOL
REMARK 922        TOTAL FREE ENERGY PREDICTED BY IDOCK:   -2.46 KCAL/MOL
REMARK 923 INTER-LIGAND FREE ENERGY PREDICTED BY IDOCK:   -2.28 KCAL/MOL
REMARK 924 INTRA-LIGAND FREE ENERGY PREDICTED BY IDOCK:   -0.18 KCAL/MOL
REMARK 927      BINDING AFFINITY PREDICTED BY RF-SCORE:    0.00 PKD
ROOT
HETATM    1  C   UNL     1     -12.334   7.694  72.180  1.00  0.00    -0.276 C  
HETATM    2  C   UNL     1     -11.180   6.764  72.571  1.00  0.00    -0.268 C  
ENDROOT
BRANCH   2   3
HETATM    3  N   UNL     1     -10.224   6.382  71.513  1.00  0.00    -0.192 NA 
BRANCH   3   4
HETATM    4  C   UNL     1     -10.297   5.071  70.835  1.00  0.00    -0.190 C  
HETATM    5  C   UNL     1      -9.214   4.084  71.291  1.00  0.00    -0.197 C  
ENDBRANCH   3   4
BRANCH   3   6
HETATM    6  C   UNL     1      -9.231   7.372  71.137  1.00  0.00    -0.155 C  
HETATM    7  S   UNL     1      -8.648   8.526  72.191  1.00  0.00    -0.136 SA 
HETATM    8 ZN   UNL     1      -8.425   9.459  70.240  1.00  0.00    -0.096 Zn 
HETATM    9  S   UNL     1      -9.915  10.842  69.679  1.00  0.00     0.168 SA 
HETATM   10  S   UNL     1      -8.639   7.520  69.393  1.00  0.00    -0.133 SA 
HETATM   11  C   UNL     1      -8.355  11.579  69.062  1.00  0.00     0.093 C  
HETATM   12  S   UNL     1      -6.934  10.960  69.659  1.00  0.00    -0.101 SA 
BRANCH  11  13
HETATM   13  N   UNL     1      -8.368  12.463  67.929  1.00  0.00    -0.154 NA 
BRANCH  13  14
HETATM   14  C   UNL     1      -8.152  11.943  66.581  1.00  0.00    -0.063 C  
HETATM   15  C   UNL     1      -8.759  10.545  66.455  1.00  0.00    -0.145 C  
ENDBRANCH  13  14
BRANCH  13  16
HETATM   16  C   UNL     1      -8.626  13.886  68.123  1.00  0.00    -0.180 C  
HETATM   17  C   UNL     1      -9.313  14.529  66.922  1.00  0.00    -0.258 C  
ENDBRANCH  13  16
ENDBRANCH  11  13
ENDBRANCH   3   6
ENDBRANCH   2   3
TORSDOF 6
ENDMDL
MODEL      177
REMARK 921   NORMALIZED FREE ENERGY PREDICTED BY IDOCK:   -1.64 KCAL/MOL
REMARK 922        TOTAL FREE ENERGY PREDICTED BY IDOCK:   -2.11 KCAL/MOL
REMARK 923 INTER-LIGAND FREE ENERGY PREDICTED BY IDOCK:   -1.96 KCAL/MOL
REMARK 924 INTRA-LIGAND FREE ENERGY PREDICTED BY IDOCK:   -0.15 KCAL/MOL
REMARK 927      BINDING AFFINITY PREDICTED BY RF-SCORE:    0.00 PKD
ROOT
HETATM    1  C   UNL     1      -7.586   7.067  71.390  1.00  0.00    -0.086 C  
HETATM    2  C   UNL     1      -7.354   8.018  70.210  1.00  0.00    -0.060 C  
ENDROOT
BRANCH   2   3
HETATM    3  N   UNL     1      -8.530   8.409  69.409  1.00  0.00    -0.123 NA 
BRANCH   3   4
HETATM    4  C   UNL     1      -9.254   7.436  68.564  1.00  0.00    -0.142 C  
HETATM    5  C   UNL     1      -8.373   6.782  67.491  1.00  0.00    -0.122 C  
ENDBRANCH   3   4
BRANCH   3   6
HETATM    6  C   UNL     1      -8.974   9.787  69.522  1.00  0.00    -0.204 C  
HETATM    7  S   UNL     1     -10.557  10.258  69.290  1.00  0.00    -0.246 SA 
HETATM    8 ZN   UNL     1      -9.414  12.032  68.765  1.00  0.00    -0.173 Zn 
HETATM    9  S   UNL     1      -9.097  12.375  66.708  1.00  0.00    -0.199 SA 
HETATM   10  S   UNL     1      -7.769  11.161  69.791  1.00  0.00     0.633 SA 
HETATM   11  C   UNL     1      -9.404  14.042  67.405  1.00  0.00    -0.220 C  
HETATM   12  S   UNL     1     -10.073  14.119  68.923  1.00  0.00    -0.089 SA 
BRANCH  11  13
HETATM   13  N   UNL     1      -8.849  15.207  66.773  1.00  0.00    -0.254 NA 
BRANCH  13  14
HETATM   14  C   UNL     1      -9.664  16.023  65.877  1.00  0.00    -0.343 C  
HETATM   15  C   UNL     1     -10.972  16.412  66.566  1.00  0.00     0.037 C  
ENDBRANCH  13  14
BRANCH  13  16
HETATM   16  C   UNL     1      -7.470  15.595  67.052  1.00  0.00    -0.193 C  
HETATM   17  C   UNL     1      -7.361  16.610  68.185  1.00  0.00    -0.172 C  
ENDBRANCH  13  16
ENDBRANCH  11  13
ENDBRANCH   3   6
ENDBRANCH   2   3
TORSDOF 6
ENDMDL
MODEL      178
REMARK 921   NORMALIZED FREE ENERGY PREDICTED BY IDOCK:   -1.25 KCAL/MOL
REMARK 922        TOTAL FREE ENERGY PREDICTED BY IDOCK:   -1.58 KCAL/MOL
REMARK 923 INTER-LIGAND FREE ENERGY PREDICTED BY IDOCK:   -1.29 KCAL/MOL
REMARK 924 INTRA-LIGAND FREE ENERGY PREDICTED BY IDOCK:   -0.30 KCAL/MOL
REMARK 927      BINDING AFFINITY PREDICTED BY RF-SCORE:    0.00 PKD
ROOT
HETATM    1  C   UNL     1     -12.896   5.753  72.753  1.00  0.00     0.666 C  
HETATM    2  C   UNL     1     -11.764   6.766  72.545  1.00  0.00    -0.156 C  
ENDROOT
BRANCH   2   3
HETATM    3  N   UNL     1     -11.860   7.665  71.379  1.00  0.00    -0.285 NA 
BRANCH   3   4
HETATM    4  C   UNL     1     -12.967   8.633  71.231  1.00  0.00    -0.182 C  
HETATM    5  C   UNL     1     -13.211   9.481  72.487  1.00  0.00    -0.356 C  
ENDBRANCH   3   4
BRANCH   3   6
HETATM    6  C   UNL     1     -10.790   7.586  70.399  1.00  0.00    -0.244 C  
HETATM    7  S   UNL     1      -9.352   6.791  70.682  1.00  0.00    -0.161 SA 
HETATM    8 ZN   UNL     1      -8.815   8.314  69.226  1.00  0.00    -0.127 Zn 
HETATM    9  S   UNL     1      -7.903  10.060  69.979  1.00  0.00    -0.104 SA 
HETATM   10  S   UNL     1     -10.889   8.501  68.798  1.00  0.00     0.140 SA 
HETATM   11  C   UNL     1      -7.013   9.720  68.414  1.00  0.00    -0.068 C  
HETATM   12  S   UNL     1      -7.199   8.211  67.745  1.00  0.00    -0.093 SA 
BRANCH  11  13
HETATM   13  N   UNL     1      -6.402  10.793  67.678  1.00  0.00    -0.055 NA 
BRANCH  13  14
HETATM   14  C   UNL     1      -6.626  10.928  66.242  1.00  0.00    -0.126 C  
HETATM   15  C   UNL     1      -8.093  11.262  65.968  1.00  0.00    -0.009 C  
ENDBRANCH  13  14
BRANCH  13  16
HETATM   16  C   UNL     1      -5.574  11.772  68.377  1.00  0.00    -0.045 C  
HETATM   17  C   UNL     1      -5.385  13.060  67.580  1.00  0.00    -0.081 C  
ENDBRANCH  13  16
ENDBRANCH  11  13
ENDBRANCH   3   6
ENDBRANCH   2   3
TORSDOF 6
ENDMDL
MODEL      179
REMARK 921   NORMALIZED FREE ENERGY PREDICTED BY IDOCK:   -1.22 KCAL/MOL
REMARK 922        TOTAL FREE ENERGY PREDICTED BY IDOCK:   -1.54 KCAL/MOL
REMARK 923 INTER-LIGAND FREE ENERGY PREDICTED BY IDOCK:   -1.74 KCAL/MOL
REMARK 924 INTRA-LIGAND FREE ENERGY PREDICTED BY IDOCK:    0.20 KCAL/MOL
REMARK 927      BINDING AFFINITY PREDICTED BY RF-SCORE:    0.00 PKD
ROOT
HETATM    1  C   UNL     1      -9.415   9.312  69.117  1.00  0.00    -0.157 C  
HETATM    2  C   UNL     1      -8.018   8.820  68.723  1.00  0.00    -0.106 C  
ENDROOT
BRANCH   2   3
HETATM    3  N   UNL     1      -7.534   9.155  67.370  1.00  0.00    -0.084 NA 
BRANCH   3   4
HETATM    4  C   UNL     1      -7.026   8.119  66.447  1.00  0.00    -0.067 C  
HETATM    5  C   UNL     1      -5.495   8.096  66.333  1.00  0.00    -0.028 C  
ENDBRANCH   3   4
BRANCH   3   6
HETATM    6  C   UNL     1      -7.618  10.548  66.968  1.00  0.00    -0.107 C  
HETATM    7  S   UNL     1      -6.391  11.648  67.225  1.00  0.00    -0.133 SA 
HETATM    8 ZN   UNL     1      -8.182  12.880  67.196  1.00  0.00    -0.137 Zn 
HETATM    9  S   UNL     1      -8.970  13.444  69.070  1.00  0.00     0.566 SA 
HETATM   10  S   UNL     1      -9.175  11.249  66.263  1.00  0.00    -0.204 SA 
HETATM   11  C   UNL     1      -9.179  14.932  68.021  1.00  0.00    -0.185 C  
HETATM   12  S   UNL     1      -8.324  14.987  66.599  1.00  0.00     0.042 SA 
BRANCH  11  13
HETATM   13  N   UNL     1     -10.230  15.874  68.298  1.00  0.00    -0.223 NA 
BRANCH  13  14
HETATM   14  C   UNL     1     -11.575  15.658  67.773  1.00  0.00    -0.136 C  
HETATM   15  C   UNL     1     -12.034  14.232  68.078  1.00  0.00    -0.353 C  
ENDBRANCH  13  14
BRANCH  13  16
HETATM   16  C   UNL     1      -9.956  17.039  69.133  1.00  0.00    -0.229 C  
HETATM   17  C   UNL     1      -8.632  17.715  68.786  1.00  0.00    -0.202 C  
ENDBRANCH  13  16
ENDBRANCH  11  13
ENDBRANCH   3   6
ENDBRANCH   2   3
TORSDOF 6
ENDMDL
MODEL      180
REMARK 921   NORMALIZED FREE ENERGY PREDICTED BY IDOCK:   -1.12 KCAL/MOL
REMARK 922        TOTAL FREE ENERGY PREDICTED BY IDOCK:   -1.41 KCAL/MOL
REMARK 923 INTER-LIGAND FREE ENERGY PREDICTED BY IDOCK:   -2.29 KCAL/MOL
REMARK 924 INTRA-LIGAND FREE ENERGY PREDICTED BY IDOCK:    0.88 KCAL/MOL
REMARK 927      BINDING AFFINITY PREDICTED BY RF-SCORE:    0.00 PKD
ROOT
HETATM    1  C   UNL     1     -11.442  11.623  64.459  1.00  0.00    -0.272 C  
HETATM    2  C   UNL     1     -10.576  10.403  64.124  1.00  0.00     0.486 C  
ENDROOT
BRANCH   2   3
HETATM    3  N   UNL     1      -9.179  10.408  64.601  1.00  0.00    -0.218 NA 
BRANCH   3   4
HETATM    4  C   UNL     1      -8.193   9.414  64.129  1.00  0.00    -0.158 C  
HETATM    5  C   UNL     1      -7.908   9.501  62.623  1.00  0.00    -0.117 C  
ENDBRANCH   3   4
BRANCH   3   6
HETATM    6  C   UNL     1      -8.805  11.462  65.527  1.00  0.00    -0.030 C  
HETATM    7  S   UNL     1      -8.030  11.172  66.975  1.00  0.00    -0.151 SA 
HETATM    8 ZN   UNL     1      -9.114  13.020  67.339  1.00  0.00    -0.157 Zn 
HETATM    9  S   UNL     1     -10.942  12.853  68.378  1.00  0.00    -0.271 SA 
HETATM   10  S   UNL     1      -9.299  13.217  65.230  1.00  0.00     0.687 SA 
HETATM   11  C   UNL     1     -10.179  14.381  69.042  1.00  0.00    -0.179 C  
HETATM   12  S   UNL     1      -8.564  14.618  68.738  1.00  0.00    -0.134 SA 
BRANCH  11  13
HETATM   13  N   UNL     1     -11.003  15.435  69.569  1.00  0.00    -0.256 NA 
BRANCH  13  14
HETATM   14  C   UNL     1     -12.207  15.122  70.333  1.00  0.00    -0.344 C  
HETATM   15  C   UNL     1     -12.092  15.688  71.749  1.00  0.00    -0.507 C  
ENDBRANCH  13  14
BRANCH  13  16
HETATM   16  C   UNL     1     -10.617  16.827  69.362  1.00  0.00    -0.318 C  
HETATM   17  C   UNL     1     -10.673  17.242  67.895  1.00  0.00    -0.351 C  
ENDBRANCH  13  16
ENDBRANCH  11  13
ENDBRANCH   3   6
ENDBRANCH   2   3
TORSDOF 6
ENDMDL
MODEL      181
REMARK 921   NORMALIZED FREE ENERGY PREDICTED BY IDOCK:   -1.10 KCAL/MOL
REMARK 922        TOTAL FREE ENERGY PREDICTED BY IDOCK:   -1.38 KCAL/MOL
REMARK 923 INTER-LIGAND FREE ENERGY PREDICTED BY IDOCK:   -1.77 KCAL/MOL
REMARK 924 INTRA-LIGAND FREE ENERGY PREDICTED BY IDOCK:    0.40 KCAL/MOL
REMARK 927      BINDING AFFINITY PREDICTED BY RF-SCORE:    0.00 PKD
ROOT
HETATM    1  C   UNL     1      -7.988  20.961  65.022  1.00  0.00     1.235 C  
HETATM    2  C   UNL     1      -8.016  20.414  66.454  1.00  0.00    -0.124 C  
ENDROOT
BRANCH   2   3
HETATM    3  N   UNL     1      -6.824  19.684  66.928  1.00  0.00    -0.195 NA 
BRANCH   3   4
HETATM    4  C   UNL     1      -5.482  20.303  66.929  1.00  0.00    -0.165 C  
HETATM    5  C   UNL     1      -5.193  21.142  65.678  1.00  0.00    -0.237 C  
ENDBRANCH   3   4
BRANCH   3   6
HETATM    6  C   UNL     1      -7.036  18.340  67.436  1.00  0.00    -0.200 C  
HETATM    7  S   UNL     1      -7.329  17.029  66.448  1.00  0.00    -0.266 SA 
HETATM    8 ZN   UNL     1      -8.302  16.489  68.316  1.00  0.00    -0.157 Zn 
HETATM    9  S   UNL     1     -10.389  16.779  68.412  1.00  0.00    -0.340 SA 
HETATM   10  S   UNL     1      -7.144  18.007  69.249  1.00  0.00    -0.028 SA 
HETATM   11  C   UNL     1     -10.108  15.202  69.301  1.00  0.00    -0.246 C  
HETATM   12  S   UNL     1      -8.635  14.463  69.092  1.00  0.00     0.187 SA 
BRANCH  11  13
HETATM   13  N   UNL     1     -11.020  14.773  70.326  1.00  0.00    -0.154 NA 
BRANCH  13  14
HETATM   14  C   UNL     1     -10.926  15.320  71.677  1.00  0.00    -0.037 C  
HETATM   15  C   UNL     1     -12.305  15.776  72.156  1.00  0.00    -0.539 C  
ENDBRANCH  13  14
BRANCH  13  16
HETATM   16  C   UNL     1     -12.066  13.806  70.007  1.00  0.00    -0.349 C  
HETATM   17  C   UNL     1     -11.587  12.362  70.123  1.00  0.00    -0.159 C  
ENDBRANCH  13  16
ENDBRANCH  11  13
ENDBRANCH   3   6
ENDBRANCH   2   3
TORSDOF 6
ENDMDL
MODEL      182
REMARK 921   NORMALIZED FREE ENERGY PREDICTED BY IDOCK:   -0.14 KCAL/MOL
REMARK 922        TOTAL FREE ENERGY PREDICTED BY IDOCK:   -0.09 KCAL/MOL
REMARK 923 INTER-LIGAND FREE ENERGY PREDICTED BY IDOCK:   -0.17 KCAL/MOL
REMARK 924 INTRA-LIGAND FREE ENERGY PREDICTED BY IDOCK:    0.08 KCAL/MOL
REMARK 927      BINDING AFFINITY PREDICTED BY RF-SCORE:    0.00 PKD
ROOT
HETATM    1  C   UNL     1     -11.404   6.540  66.180  1.00  0.00     1.646 C  
HETATM    2  C   UNL     1     -10.491   7.652  66.711  1.00  0.00    -0.249 C  
ENDROOT
BRANCH   2   3
HETATM    3  N   UNL     1      -9.411   7.262  67.637  1.00  0.00    -0.128 NA 
BRANCH   3   4
HETATM    4  C   UNL     1      -7.991   7.548  67.341  1.00  0.00    -0.116 C  
HETATM    5  C   UNL     1      -7.781   8.312  66.027  1.00  0.00    -0.093 C  
ENDBRANCH   3   4
BRANCH   3   6
HETATM    6  C   UNL     1      -9.808   6.620  68.878  1.00  0.00    -0.139 C  
HETATM    7  S   UNL     1     -10.168   7.468  70.268  1.00  0.00    -0.208 SA 
HETATM    8 ZN   UNL     1      -9.480   5.543  71.008  1.00  0.00    -0.140 Zn 
HETATM    9  S   UNL     1      -7.484   5.449  71.681  1.00  0.00    -0.094 SA 
HETATM   10  S   UNL     1      -9.802   4.781  69.050  1.00  0.00    -0.142 SA 
HETATM   11  C   UNL     1      -8.413   4.410  72.870  1.00  0.00    -0.102 C  
HETATM   12  S   UNL     1     -10.067   4.565  72.883  1.00  0.00    -0.164 SA 
BRANCH  11  13
HETATM   13  N   UNL     1      -7.758   3.336  73.564  1.00  0.00    -0.063 NA 
BRANCH  13  14
HETATM   14  C   UNL     1      -8.448   2.069  73.789  1.00  0.00    -0.062 C  
HETATM   15  C   UNL     1      -9.088   1.582  72.489  1.00  0.00    -0.091 C  
ENDBRANCH  13  14
BRANCH  13  16
HETATM   16  C   UNL     1      -6.381   3.502  74.021  1.00  0.00    -0.025 C  
HETATM   17  C   UNL     1      -5.460   2.389  73.530  1.00  0.00     0.000 C  
ENDBRANCH  13  16
ENDBRANCH  11  13
ENDBRANCH   3   6
ENDBRANCH   2   3
TORSDOF 6
ENDMDL
MODEL      183
REMARK 921   NORMALIZED FREE ENERGY PREDICTED BY IDOCK:    0.08 KCAL/MOL
REMARK 922        TOTAL FREE ENERGY PREDICTED BY IDOCK:    0.21 KCAL/MOL
REMARK 923 INTER-LIGAND FREE ENERGY PREDICTED BY IDOCK:   -0.56 KCAL/MOL
REMARK 924 INTRA-LIGAND FREE ENERGY PREDICTED BY IDOCK:    0.77 KCAL/MOL
REMARK 927      BINDING AFFINITY PREDICTED BY RF-SCORE:    0.00 PKD
ROOT
HETATM    1  C   UNL     1     -11.944  15.925  72.722  1.00  0.00    -0.616 C  
HETATM    2  C   UNL     1     -12.280  15.820  71.230  1.00  0.00    -0.438 C  
ENDROOT
BRANCH   2   3
HETATM    3  N   UNL     1     -11.299  15.146  70.357  1.00  0.00    -0.272 NA 
BRANCH   3   4
HETATM    4  C   UNL     1      -9.975  15.739  70.072  1.00  0.00    -0.108 C  
HETATM    5  C   UNL     1      -8.861  14.697  69.900  1.00  0.00     0.612 C  
ENDBRANCH   3   4
BRANCH   3   6
HETATM    6  C   UNL     1     -11.676  13.850  69.821  1.00  0.00    -0.309 C  
HETATM    7  S   UNL     1     -12.388  12.656  70.742  1.00  0.00    -0.158 SA 
HETATM    8 ZN   UNL     1     -11.356  11.549  69.181  1.00  0.00    -0.182 Zn 
HETATM    9  S   UNL     1      -9.487  10.716  69.694  1.00  0.00     0.244 SA 
HETATM   10  S   UNL     1     -11.254  13.370  68.089  1.00  0.00    -0.292 SA 
HETATM   11  C   UNL     1     -10.278   9.445  68.637  1.00  0.00    -0.201 C  
HETATM   12  S   UNL     1     -11.911   9.588  68.368  1.00  0.00     1.918 SA 
BRANCH  11  13
HETATM   13  N   UNL     1      -9.473   8.530  67.875  1.00  0.00    -0.138 NA 
BRANCH  13  14
HETATM   14  C   UNL     1      -9.824   7.114  67.806  1.00  0.00    -0.145 C  
HETATM   15  C   UNL     1     -10.885   6.785  68.856  1.00  0.00    -0.288 C  
ENDBRANCH  13  14
BRANCH  13  16
HETATM   16  C   UNL     1      -8.312   9.024  67.142  1.00  0.00    -0.110 C  
HETATM   17  C   UNL     1      -7.045   9.051  67.993  1.00  0.00    -0.079 C  
ENDBRANCH  13  16
ENDBRANCH  11  13
ENDBRANCH   3   6
ENDBRANCH   2   3
TORSDOF 6
ENDMDL
MODEL      184
REMARK 921   NORMALIZED FREE ENERGY PREDICTED BY IDOCK:    0.22 KCAL/MOL
REMARK 922        TOTAL FREE ENERGY PREDICTED BY IDOCK:    0.40 KCAL/MOL
REMARK 923 INTER-LIGAND FREE ENERGY PREDICTED BY IDOCK:   -0.89 KCAL/MOL
REMARK 924 INTRA-LIGAND FREE ENERGY PREDICTED BY IDOCK:    1.29 KCAL/MOL
REMARK 927      BINDING AFFINITY PREDICTED BY RF-SCORE:    0.00 PKD
ROOT
HETATM    1  C   UNL     1      -7.357  19.309  68.076  1.00  0.00    -0.297 C  
HETATM    2  C   UNL     1      -8.352  18.370  68.769  1.00  0.00    -0.232 C  
ENDROOT
BRANCH   2   3
HETATM    3  N   UNL     1      -8.438  16.983  68.275  1.00  0.00    -0.225 NA 
BRANCH   3   4
HETATM    4  C   UNL     1      -9.107  16.652  66.999  1.00  0.00    -0.216 C  
HETATM    5  C   UNL     1      -9.570  15.191  66.911  1.00  0.00    -0.252 C  
ENDBRANCH   3   4
BRANCH   3   6
HETATM    6  C   UNL     1      -7.796  15.957  69.079  1.00  0.00    -0.216 C  
HETATM    7  S   UNL     1      -6.142  15.758  69.152  1.00  0.00    -0.129 SA 
HETATM    8 ZN   UNL     1      -6.915  13.770  69.571  1.00  0.00    -0.102 Zn 
HETATM    9  S   UNL     1      -6.926  12.404  67.964  1.00  0.00    -0.111 SA 
HETATM   10  S   UNL     1      -8.788  14.686  69.979  1.00  0.00     1.087 SA 
HETATM   11  C   UNL     1      -6.441  11.395  69.414  1.00  0.00    -0.108 C  
HETATM   12  S   UNL     1      -5.953  12.209  70.778  1.00  0.00     0.353 SA 
BRANCH  11  13
HETATM   13  N   UNL     1      -6.722   9.986  69.446  1.00  0.00    -0.055 NA 
BRANCH  13  14
HETATM   14  C   UNL     1      -7.208   9.300  68.252  1.00  0.00    -0.077 C  
HETATM   15  C   UNL     1      -6.596   9.928  67.000  1.00  0.00    -0.070 C  
ENDBRANCH  13  14
BRANCH  13  16
HETATM   16  C   UNL     1      -6.493   9.229  70.673  1.00  0.00    -0.073 C  
HETATM   17  C   UNL     1      -7.790   8.752  71.322  1.00  0.00    -0.167 C  
ENDBRANCH  13  16
ENDBRANCH  11  13
ENDBRANCH   3   6
ENDBRANCH   2   3
TORSDOF 6
ENDMDL
MODEL      185
REMARK 921   NORMALIZED FREE ENERGY PREDICTED BY IDOCK:    0.77 KCAL/MOL
REMARK 922        TOTAL FREE ENERGY PREDICTED BY IDOCK:    1.15 KCAL/MOL
REMARK 923 INTER-LIGAND FREE ENERGY PREDICTED BY IDOCK:    1.35 KCAL/MOL
REMARK 924 INTRA-LIGAND FREE ENERGY PREDICTED BY IDOCK:   -0.20 KCAL/MOL
REMARK 927      BINDING AFFINITY PREDICTED BY RF-SCORE:    0.00 PKD
ROOT
HETATM    1  C   UNL     1      -9.497  17.181  66.175  1.00  0.00    -0.228 C  
HETATM    2  C   UNL     1      -9.784  15.837  66.855  1.00  0.00    -0.230 C  
ENDROOT
BRANCH   2   3
HETATM    3  N   UNL     1     -10.740  14.929  66.192  1.00  0.00    -0.308 NA 
BRANCH   3   4
HETATM    4  C   UNL     1     -12.146  15.317  65.957  1.00  0.00     0.441 C  
HETATM    5  C   UNL     1     -13.043  15.150  67.191  1.00  0.00     2.963 C  
ENDBRANCH   3   4
BRANCH   3   6
HETATM    6  C   UNL     1     -10.224  13.648  65.742  1.00  0.00    -0.308 C  
HETATM    7  S   UNL     1     -11.137  12.550  64.879  1.00  0.00    -0.312 SA 
HETATM    8 ZN   UNL     1      -9.682  11.306  65.909  1.00  0.00    -0.185 Zn 
HETATM    9  S   UNL     1     -10.338  10.345  67.667  1.00  0.00    -0.236 SA 
HETATM   10  S   UNL     1      -8.539  13.070  66.226  1.00  0.00     0.617 SA 
HETATM   11  C   UNL     1      -9.276   9.102  66.839  1.00  0.00    -0.148 C  
HETATM   12  S   UNL     1      -8.900   9.366  65.243  1.00  0.00    -0.201 SA 
BRANCH  11  13
HETATM   13  N   UNL     1      -8.596   8.097  67.610  1.00  0.00    -0.130 NA 
BRANCH  13  14
HETATM   14  C   UNL     1      -7.514   8.466  68.518  1.00  0.00    -0.094 C  
HETATM   15  C   UNL     1      -6.828   9.741  68.027  1.00  0.00    -0.072 C  
ENDBRANCH  13  14
BRANCH  13  16
HETATM   16  C   UNL     1      -9.011   6.701  67.506  1.00  0.00    -0.114 C  
HETATM   17  C   UNL     1      -7.974   5.830  66.804  1.00  0.00    -0.102 C  
ENDBRANCH  13  16
ENDBRANCH  11  13
ENDBRANCH   3   6
ENDBRANCH   2   3
TORSDOF 6
ENDMDL
MODEL      186
REMARK 921   NORMALIZED FREE ENERGY PREDICTED BY IDOCK:    1.28 KCAL/MOL
REMARK 922        TOTAL FREE ENERGY PREDICTED BY IDOCK:    1.83 KCAL/MOL
REMARK 923 INTER-LIGAND FREE ENERGY PREDICTED BY IDOCK:    1.78 KCAL/MOL
REMARK 924 INTRA-LIGAND FREE ENERGY PREDICTED BY IDOCK:    0.05 KCAL/MOL
REMARK 927      BINDING AFFINITY PREDICTED BY RF-SCORE:    0.00 PKD
ROOT
HETATM    1  C   UNL     1      -9.850  17.436  67.051  1.00  0.00    -0.286 C  
HETATM    2  C   UNL     1      -9.648  16.523  68.267  1.00  0.00    -0.223 C  
ENDROOT
BRANCH   2   3
HETATM    3  N   UNL     1      -9.899  15.080  68.085  1.00  0.00    -0.214 NA 
BRANCH   3   4
HETATM    4  C   UNL     1     -11.148  14.579  67.475  1.00  0.00    -0.307 C  
HETATM    5  C   UNL     1     -12.377  14.733  68.381  1.00  0.00     0.047 C  
ENDBRANCH   3   4
BRANCH   3   6
HETATM    6  C   UNL     1      -8.840  14.173  68.493  1.00  0.00    -0.173 C  
HETATM    7  S   UNL     1      -7.517  13.828  67.539  1.00  0.00    -0.139 SA 
HETATM    8 ZN   UNL     1      -7.741  12.046  68.765  1.00  0.00    -0.097 Zn 
HETATM    9  S   UNL     1      -8.711  10.401  67.871  1.00  0.00    -0.119 SA 
HETATM   10  S   UNL     1      -8.960  13.207  70.063  1.00  0.00     3.834 SA 
HETATM   11  C   UNL     1      -7.359   9.652  68.855  1.00  0.00    -0.073 C  
HETATM   12  S   UNL     1      -6.153  10.664  69.384  1.00  0.00    -0.053 SA 
BRANCH  11  13
HETATM   13  N   UNL     1      -7.484   8.311  69.358  1.00  0.00    -0.088 NA 
BRANCH  13  14
HETATM   14  C   UNL     1      -8.459   7.999  70.400  1.00  0.00    -0.130 C  
HETATM   15  C   UNL     1      -8.303   6.544  70.845  1.00  0.00    -0.126 C  
ENDBRANCH  13  14
BRANCH  13  16
HETATM   16  C   UNL     1      -6.651   7.249  68.804  1.00  0.00    -0.048 C  
HETATM   17  C   UNL     1      -5.266   7.741  68.393  1.00  0.00    -0.027 C  
ENDBRANCH  13  16
ENDBRANCH  11  13
ENDBRANCH   3   6
ENDBRANCH   2   3
TORSDOF 6
ENDMDL
MODEL      187
REMARK 921   NORMALIZED FREE ENERGY PREDICTED BY IDOCK:    3.70 KCAL/MOL
REMARK 922        TOTAL FREE ENERGY PREDICTED BY IDOCK:    5.10 KCAL/MOL
REMARK 923 INTER-LIGAND FREE ENERGY PREDICTED BY IDOCK:    4.61 KCAL/MOL
REMARK 924 INTRA-LIGAND FREE ENERGY PREDICTED BY IDOCK:    0.50 KCAL/MOL
REMARK 927      BINDING AFFINITY PREDICTED BY RF-SCORE:    0.00 PKD
ROOT
HETATM    1  C   UNL     1     -13.354  16.062  71.512  1.00  0.00     0.228 C  
HETATM    2  C   UNL     1     -11.824  16.027  71.611  1.00  0.00    -0.507 C  
ENDROOT
BRANCH   2   3
HETATM    3  N   UNL     1     -11.109  15.047  70.770  1.00  0.00    -0.234 NA 
BRANCH   3   4
HETATM    4  C   UNL     1     -10.766  13.699  71.267  1.00  0.00     3.802 C  
HETATM    5  C   UNL     1     -11.869  12.659  71.029  1.00  0.00     0.488 C  
ENDBRANCH   3   4
BRANCH   3   6
HETATM    6  C   UNL     1     -10.793  15.454  69.412  1.00  0.00    -0.263 C  
HETATM    7  S   UNL     1     -10.581  14.370  68.162  1.00  0.00    -0.240 SA 
HETATM    8 ZN   UNL     1      -9.369  16.075  67.570  1.00  0.00    -0.198 Zn 
HETATM    9  S   UNL     1      -7.297  15.933  67.935  1.00  0.00    -0.144 SA 
HETATM   10  S   UNL     1     -10.452  17.221  68.996  1.00  0.00    -0.234 SA 
HETATM   11  C   UNL     1      -7.415  16.765  66.307  1.00  0.00    -0.203 C  
HETATM   12  S   UNL     1      -8.878  16.697  65.523  1.00  0.00     1.095 SA 
BRANCH  11  13
HETATM   13  N   UNL     1      -6.371  17.647  65.864  1.00  0.00    -0.212 NA 
BRANCH  13  14
HETATM   14  C   UNL     1      -6.357  18.150  64.493  1.00  0.00     1.298 C  
HETATM   15  C   UNL     1      -6.771  19.621  64.470  1.00  0.00     0.254 C  
ENDBRANCH  13  14
BRANCH  13  16
HETATM   16  C   UNL     1      -5.333  18.068  66.800  1.00  0.00    -0.138 C  
HETATM   17  C   UNL     1      -5.896  18.487  68.155  1.00  0.00    -0.188 C  
ENDBRANCH  13  16
ENDBRANCH  11  13
ENDBRANCH   3   6
ENDBRANCH   2   3
TORSDOF 6
ENDMDL
MODEL      188
REMARK 921   NORMALIZED FREE ENERGY PREDICTED BY IDOCK:    6.87 KCAL/MOL
REMARK 922        TOTAL FREE ENERGY PREDICTED BY IDOCK:    9.38 KCAL/MOL
REMARK 923 INTER-LIGAND FREE ENERGY PREDICTED BY IDOCK:    7.31 KCAL/MOL
REMARK 924 INTRA-LIGAND FREE ENERGY PREDICTED BY IDOCK:    2.08 KCAL/MOL
REMARK 927      BINDING AFFINITY PREDICTED BY RF-SCORE:    0.00 PKD
ROOT
HETATM    1  C   UNL     1      -7.365  19.282  68.197  1.00  0.00    -0.316 C  
HETATM    2  C   UNL     1      -8.224  18.517  69.211  1.00  0.00     0.189 C  
ENDROOT
BRANCH   2   3
HETATM    3  N   UNL     1      -8.235  17.044  69.121  1.00  0.00    -0.114 NA 
BRANCH   3   4
HETATM    4  C   UNL     1      -8.925  16.337  68.022  1.00  0.00    -0.187 C  
HETATM    5  C   UNL     1      -9.301  14.890  68.366  1.00  0.00    -0.197 C  
ENDBRANCH   3   4
BRANCH   3   6
HETATM    6  C   UNL     1      -7.498  16.319  70.140  1.00  0.00     1.047 C  
HETATM    7  S   UNL     1      -5.835  16.359  70.266  1.00  0.00    -0.048 SA 
HETATM    8 ZN   UNL     1      -6.365  14.431  71.121  1.00  0.00    -0.167 Zn 
HETATM    9  S   UNL     1      -6.148  12.750  69.866  1.00  0.00    -0.090 SA 
HETATM   10  S   UNL     1      -8.353  15.163  71.300  1.00  0.00     4.225 SA 
HETATM   11  C   UNL     1      -5.591  12.165  71.510  1.00  0.00     0.309 C  
HETATM   12  S   UNL     1      -5.258  13.320  72.656  1.00  0.00     0.137 SA 
BRANCH  11  13
HETATM   13  N   UNL     1      -5.694  10.774  71.859  1.00  0.00    -0.168 NA 
BRANCH  13  14
HETATM   14  C   UNL     1      -6.079   9.785  70.857  1.00  0.00    -0.089 C  
HETATM   15  C   UNL     1      -5.599  10.225  69.474  1.00  0.00    -0.038 C  
ENDBRANCH  13  14
BRANCH  13  16
HETATM   16  C   UNL     1      -5.382  10.344  73.219  1.00  0.00     0.440 C  
HETATM   17  C   UNL     1      -6.398  10.845  74.242  1.00  0.00     2.373 C  
ENDBRANCH  13  16
ENDBRANCH  11  13
ENDBRANCH   3   6
ENDBRANCH   2   3
TORSDOF 6
ENDMDL
MODEL      189
REMARK 921   NORMALIZED FREE ENERGY PREDICTED BY IDOCK:   19.63 KCAL/MOL
REMARK 922        TOTAL FREE ENERGY PREDICTED BY IDOCK:   26.62 KCAL/MOL
REMARK 923 INTER-LIGAND FREE ENERGY PREDICTED BY IDOCK:   26.67 KCAL/MOL
REMARK 924 INTRA-LIGAND FREE ENERGY PREDICTED BY IDOCK:   -0.05 KCAL/MOL
REMARK 927      BINDING AFFINITY PREDICTED BY RF-SCORE:    0.00 PKD
ROOT
HETATM    1  C   UNL     1     -13.578   8.170  67.932  1.00  0.00    20.057 C  
HETATM    2  C   UNL     1     -12.357   7.278  68.184  1.00  0.00     4.428 C  
ENDROOT
BRANCH   2   3
HETATM    3  N   UNL     1     -11.198   7.885  68.866  1.00  0.00     0.295 NA 
BRANCH   3   4
HETATM    4  C   UNL     1     -10.287   7.087  69.712  1.00  0.00    -0.212 C  
HETATM    5  C   UNL     1      -8.806   7.249  69.341  1.00  0.00    -0.137 C  
ENDBRANCH   3   4
BRANCH   3   6
HETATM    6  C   UNL     1     -10.967   9.300  68.634  1.00  0.00     0.005 C  
HETATM    7  S   UNL     1     -10.870   9.970  67.110  1.00  0.00    -0.098 SA 
HETATM    8 ZN   UNL     1      -9.658  11.301  68.330  1.00  0.00    -0.149 Zn 
HETATM    9  S   UNL     1      -7.570  11.017  68.248  1.00  0.00    -0.112 SA 
HETATM   10  S   UNL     1     -10.610  10.454  70.031  1.00  0.00    -0.162 SA 
HETATM   11  C   UNL     1      -7.780  12.836  68.307  1.00  0.00    -0.136 C  
HETATM   12  S   UNL     1      -9.295  13.438  67.987  1.00  0.00    -0.222 SA 
BRANCH  11  13
HETATM   13  N   UNL     1      -6.746  13.669  68.858  1.00  0.00    -0.104 NA 
BRANCH  13  14
HETATM   14  C   UNL     1      -5.499  13.883  68.129  1.00  0.00    -0.120 C  
HETATM   15  C   UNL     1      -5.793  14.133  66.649  1.00  0.00     2.798 C  
ENDBRANCH  13  14
BRANCH  13  16
HETATM   16  C   UNL     1      -6.956  14.329  70.143  1.00  0.00     0.149 C  
HETATM   17  C   UNL     1      -7.541  15.731  69.996  1.00  0.00     0.392 C  
ENDBRANCH  13  16
ENDBRANCH  11  13
ENDBRANCH   3   6
ENDBRANCH   2   3
TORSDOF 6
ENDMDL
MODEL      190
REMARK 921   NORMALIZED FREE ENERGY PREDICTED BY IDOCK:   38.07 KCAL/MOL
REMARK 922        TOTAL FREE ENERGY PREDICTED BY IDOCK:   51.52 KCAL/MOL
REMARK 923 INTER-LIGAND FREE ENERGY PREDICTED BY IDOCK:   49.38 KCAL/MOL
REMARK 924 INTRA-LIGAND FREE ENERGY PREDICTED BY IDOCK:    2.15 KCAL/MOL
REMARK 927      BINDING AFFINITY PREDICTED BY RF-SCORE:    0.00 PKD
ROOT
HETATM    1  C   UNL     1     -12.948   9.389  64.701  1.00  0.00    17.276 C  
HETATM    2  C   UNL     1     -11.460   9.072  64.887  1.00  0.00     9.008 C  
ENDROOT
BRANCH   2   3
HETATM    3  N   UNL     1     -10.622  10.092  65.546  1.00  0.00    -0.010 NA 
BRANCH   3   4
HETATM    4  C   UNL     1      -9.211  10.304  65.164  1.00  0.00    -0.206 C  
HETATM    5  C   UNL     1      -8.999  11.514  64.243  1.00  0.00     0.295 C  
ENDBRANCH   3   4
BRANCH   3   6
HETATM    6  C   UNL     1     -11.261  10.912  66.560  1.00  0.00     0.067 C  
HETATM    7  S   UNL     1     -10.568  12.294  67.185  1.00  0.00    -0.229 SA 
HETATM    8 ZN   UNL     1     -11.853  11.595  68.794  1.00  0.00    -0.205 Zn 
HETATM    9  S   UNL     1     -10.917  10.522  70.350  1.00  0.00    -0.057 SA 
HETATM   10  S   UNL     1     -12.848  10.393  67.350  1.00  0.00     8.867 SA 
HETATM   11  C   UNL     1     -12.161  11.563  71.200  1.00  0.00    -0.182 C  
HETATM   12  S   UNL     1     -12.819  12.821  70.337  1.00  0.00     0.339 SA 
BRANCH  11  13
HETATM   13  N   UNL     1     -12.723  11.145  72.456  1.00  0.00     0.658 NA 
BRANCH  13  14
HETATM   14  C   UNL     1     -11.988  10.234  73.329  1.00  0.00     6.384 C  
HETATM   15  C   UNL     1     -11.530   9.007  72.541  1.00  0.00     0.116 C  
ENDBRANCH  13  14
BRANCH  13  16
HETATM   16  C   UNL     1     -14.024  11.658  72.874  1.00  0.00     2.018 C  
HETATM   17  C   UNL     1     -13.918  12.968  73.650  1.00  0.00     5.238 C  
ENDBRANCH  13  16
ENDBRANCH  11  13
ENDBRANCH   3   6
ENDBRANCH   2   3
TORSDOF 6
ENDMDL
