MODEL        1
REMARK 921   NORMALIZED FREE ENERGY PREDICTED BY IDOCK:   -7.68 KCAL/MOL
REMARK 922        TOTAL FREE ENERGY PREDICTED BY IDOCK:  -12.58 KCAL/MOL
REMARK 923 INTER-LIGAND FREE ENERGY PREDICTED BY IDOCK:  -10.82 KCAL/MOL
REMARK 924 INTRA-LIGAND FREE ENERGY PREDICTED BY IDOCK:   -1.76 KCAL/MOL
REMARK 927      BINDING AFFINITY PREDICTED BY RF-SCORE:    0.00 PKD
ROOT
HETATM    1  C   UNL     1     -11.111   7.703  73.000  1.00  0.00    -0.437 C  
HETATM    2  C   UNL     1     -10.603   6.628  72.042  1.00  0.00    -0.236 C  
HETATM    3  C   UNL     1     -10.753   5.247  72.687  1.00  0.00    -0.290 C  
HETATM    4  C   UNL     1     -11.340   6.742  70.693  1.00  0.00    -0.384 C  
ENDROOT
BRANCH   4   5
HETATM    5  C   UNL     1     -10.863   5.695  69.691  1.00  0.00    -0.365 C  
BRANCH   5   6
HETATM    6  C   UNL     1     -10.915   6.187  68.247  1.00  0.00    -0.397 C  
HETATM    7  C   UNL     1     -10.100   7.483  68.054  1.00  0.00    -0.221 C  
HETATM    8  C   UNL     1      -8.620   7.290  68.417  1.00  0.00    -0.124 C  
HETATM    9  C   UNL     1     -10.270   7.983  66.607  1.00  0.00    -0.315 C  
BRANCH   9  10
HETATM   10  C   UNL     1      -9.483   9.268  66.358  1.00  0.00    -0.277 C  
BRANCH  10  11
HETATM   11  C   UNL     1     -10.238  10.244  65.470  1.00  0.00    -0.308 C  
HETATM   12  C   UNL     1      -9.298  10.947  64.469  1.00  0.00    -0.256 C  
HETATM   13  C   UNL     1     -10.048  12.018  63.661  1.00  0.00    -0.439 C  
HETATM   14  C   UNL     1      -8.641   9.962  63.495  1.00  0.00    -0.201 C  
BRANCH  13  15
HETATM   15  C   UNL     1     -10.729  13.102  64.496  1.00  0.00    -0.416 C  
BRANCH  15  16
HETATM   16  C   UNL     1     -10.046  13.398  65.845  1.00  0.00    -0.300 C  
BRANCH  16  17
HETATM   17  C   UNL     1     -11.045  13.706  66.995  1.00  0.00    -0.301 C  
HETATM   18  C   UNL     1     -12.476  13.746  66.416  1.00  0.00    -0.404 C  
HETATM   19  C   UNL     1     -10.605  14.990  67.698  1.00  0.00    -0.267 C  
HETATM   20  C   UNL     1     -11.550  15.326  68.828  1.00  0.00    -0.379 C  
HETATM   21  C   UNL     1     -11.937  14.111  69.626  1.00  0.00    -0.389 A  
HETATM   22  C   UNL     1     -12.680  14.256  70.813  1.00  0.00    -0.419 A  
HETATM   23  C   UNL     1     -13.137  15.612  71.289  1.00  0.00    -0.542 C  
HETATM   24  C   UNL     1     -13.002  13.101  71.546  1.00  0.00    -0.321 A  
HETATM   25  C   UNL     1     -12.630  11.811  71.117  1.00  0.00    -0.412 A  
HETATM   26  O   UNL     1     -13.711  13.185  72.717  1.00  0.00    -0.685 OA 
HETATM   27  C   UNL     1     -13.004  10.604  71.940  1.00  0.00    -0.542 C  
HETATM   28  C   UNL     1     -11.917  11.669  69.904  1.00  0.00    -0.414 A  
HETATM   29  H   UNL     1     -13.929  12.404  73.212  1.00  0.00     0.000 HD 
HETATM   30  C   UNL     1     -11.595  12.824  69.159  1.00  0.00    -0.319 A  
HETATM   31  C   UNL     1     -11.505  10.321  69.365  1.00  0.00    -0.248 C  
HETATM   32  O   UNL     1     -10.964  12.616  67.946  1.00  0.00    -0.215 OA 
ENDBRANCH  16  17
ENDBRANCH  15  16
ENDBRANCH  13  15
ENDBRANCH  10  11
ENDBRANCH   9  10
ENDBRANCH   5   6
ENDBRANCH   4   5
TORSDOF 7
ENDMDL
MODEL        2
REMARK 921   NORMALIZED FREE ENERGY PREDICTED BY IDOCK:   -7.60 KCAL/MOL
REMARK 922        TOTAL FREE ENERGY PREDICTED BY IDOCK:  -12.47 KCAL/MOL
REMARK 923 INTER-LIGAND FREE ENERGY PREDICTED BY IDOCK:  -10.59 KCAL/MOL
REMARK 924 INTRA-LIGAND FREE ENERGY PREDICTED BY IDOCK:   -1.88 KCAL/MOL
REMARK 927      BINDING AFFINITY PREDICTED BY RF-SCORE:    0.00 PKD
ROOT
HETATM    1  C   UNL     1     -12.552  15.953  72.813  1.00  0.00    -0.567 C  
HETATM    2  C   UNL     1     -11.788  15.080  71.820  1.00  0.00    -0.455 C  
HETATM    3  C   UNL     1     -12.669  13.907  71.377  1.00  0.00    -0.445 C  
HETATM    4  C   UNL     1     -11.299  15.940  70.638  1.00  0.00    -0.421 C  
ENDROOT
BRANCH   4   5
HETATM    5  C   UNL     1     -10.518  15.118  69.617  1.00  0.00    -0.261 C  
BRANCH   5   6
HETATM    6  C   UNL     1     -10.429  15.795  68.253  1.00  0.00    -0.259 C  
HETATM    7  C   UNL     1     -10.922  14.870  67.121  1.00  0.00    -0.323 C  
HETATM    8  C   UNL     1     -12.384  14.445  67.322  1.00  0.00    -0.090 C  
HETATM    9  C   UNL     1     -10.717  15.569  65.763  1.00  0.00    -0.362 C  
BRANCH   9  10
HETATM   10  C   UNL     1     -11.188  14.696  64.602  1.00  0.00    -0.353 C  
BRANCH  10  11
HETATM   11  C   UNL     1     -10.368  13.423  64.466  1.00  0.00    -0.394 C  
HETATM   12  C   UNL     1     -11.238  12.163  64.652  1.00  0.00    -0.374 C  
HETATM   13  C   UNL     1     -10.381  10.888  64.635  1.00  0.00    -0.407 C  
HETATM   14  C   UNL     1     -12.327  12.042  63.578  1.00  0.00    -0.661 C  
BRANCH  13  15
HETATM   15  C   UNL     1      -9.269  10.841  65.682  1.00  0.00    -0.226 C  
BRANCH  15  16
HETATM   16  C   UNL     1      -9.599  11.562  67.003  1.00  0.00    -0.199 C  
BRANCH  16  17
HETATM   17  C   UNL     1     -10.334  10.663  68.036  1.00  0.00    -0.178 C  
HETATM   18  C   UNL     1     -10.754   9.347  67.344  1.00  0.00    -0.280 C  
HETATM   19  C   UNL     1     -11.489  11.457  68.647  1.00  0.00    -0.359 C  
HETATM   20  C   UNL     1     -12.231  10.620  69.660  1.00  0.00    -0.277 C  
HETATM   21  C   UNL     1     -11.300   9.830  70.538  1.00  0.00    -0.382 A  
HETATM   22  C   UNL     1     -11.806   9.119  71.643  1.00  0.00    -0.443 A  
HETATM   23  C   UNL     1     -13.282   9.099  71.949  1.00  0.00    -0.479 C  
HETATM   24  C   UNL     1     -10.902   8.412  72.454  1.00  0.00    -0.346 A  
HETATM   25  C   UNL     1      -9.520   8.371  72.181  1.00  0.00    -0.360 A  
HETATM   26  O   UNL     1     -11.338   7.716  73.552  1.00  0.00    -0.604 OA 
HETATM   27  C   UNL     1      -8.594   7.595  73.083  1.00  0.00    -0.214 C  
HETATM   28  C   UNL     1      -9.023   9.056  71.048  1.00  0.00    -0.304 A  
HETATM   29  H   UNL     1     -10.727   7.237  74.100  1.00  0.00     0.000 HD 
HETATM   30  C   UNL     1      -9.925   9.763  70.224  1.00  0.00    -0.253 A  
HETATM   31  C   UNL     1      -7.561   9.039  70.673  1.00  0.00    -0.125 C  
HETATM   32  O   UNL     1      -9.391  10.348  69.090  1.00  0.00    -0.186 OA 
ENDBRANCH  16  17
ENDBRANCH  15  16
ENDBRANCH  13  15
ENDBRANCH  10  11
ENDBRANCH   9  10
ENDBRANCH   5   6
ENDBRANCH   4   5
TORSDOF 7
ENDMDL
MODEL        3
REMARK 921   NORMALIZED FREE ENERGY PREDICTED BY IDOCK:   -7.52 KCAL/MOL
REMARK 922        TOTAL FREE ENERGY PREDICTED BY IDOCK:  -12.35 KCAL/MOL
REMARK 923 INTER-LIGAND FREE ENERGY PREDICTED BY IDOCK:   -9.10 KCAL/MOL
REMARK 924 INTRA-LIGAND FREE ENERGY PREDICTED BY IDOCK:   -3.26 KCAL/MOL
REMARK 927      BINDING AFFINITY PREDICTED BY RF-SCORE:    0.00 PKD
ROOT
HETATM    1  C   UNL     1     -12.618  15.949  74.251  1.00  0.00    -0.725 C  
HETATM    2  C   UNL     1     -12.564  15.428  72.817  1.00  0.00    -0.500 C  
HETATM    3  C   UNL     1     -13.979  15.097  72.333  1.00  0.00    -0.616 C  
HETATM    4  C   UNL     1     -11.848  16.455  71.916  1.00  0.00    -0.433 C  
ENDROOT
BRANCH   4   5
HETATM    5  C   UNL     1     -11.757  15.979  70.469  1.00  0.00    -0.350 C  
BRANCH   5   6
HETATM    6  C   UNL     1     -11.042  14.638  70.329  1.00  0.00    -0.139 C  
HETATM    7  C   UNL     1     -11.910  13.602  69.585  1.00  0.00    -0.396 C  
HETATM    8  C   UNL     1     -12.278  14.071  68.169  1.00  0.00    -0.191 C  
HETATM    9  C   UNL     1     -11.180  12.245  69.560  1.00  0.00    -0.185 C  
BRANCH   9  10
HETATM   10  C   UNL     1     -11.996  11.178  68.835  1.00  0.00    -0.367 C  
BRANCH  10  11
HETATM   11  C   UNL     1     -11.132  10.030  68.336  1.00  0.00    -0.236 C  
HETATM   12  C   UNL     1     -10.249   9.451  69.461  1.00  0.00    -0.219 C  
HETATM   13  C   UNL     1      -9.294   8.377  68.919  1.00  0.00    -0.147 C  
HETATM   14  C   UNL     1     -11.078   8.848  70.601  1.00  0.00    -0.306 C  
BRANCH  13  15
HETATM   15  C   UNL     1      -8.367   8.840  67.796  1.00  0.00    -0.118 C  
BRANCH  15  16
HETATM   16  C   UNL     1      -7.362   9.935  68.202  1.00  0.00    -0.080 C  
BRANCH  16  17
HETATM   17  C   UNL     1      -7.615  11.302  67.506  1.00  0.00    -0.110 C  
HETATM   18  C   UNL     1      -6.443  11.598  66.545  1.00  0.00     0.019 C  
HETATM   19  C   UNL     1      -7.842  12.366  68.580  1.00  0.00    -0.112 C  
HETATM   20  C   UNL     1      -8.095  13.713  67.946  1.00  0.00    -0.164 C  
HETATM   21  C   UNL     1      -9.010  13.620  66.757  1.00  0.00    -0.196 A  
HETATM   22  C   UNL     1      -9.486  14.793  66.140  1.00  0.00    -0.324 A  
HETATM   23  C   UNL     1      -9.063  16.157  66.624  1.00  0.00    -0.282 C  
HETATM   24  C   UNL     1     -10.359  14.667  65.046  1.00  0.00    -0.402 A  
HETATM   25  C   UNL     1     -10.748  13.412  64.535  1.00  0.00    -0.434 A  
HETATM   26  O   UNL     1     -10.864  15.776  64.417  1.00  0.00    -0.794 OA 
HETATM   27  C   UNL     1     -11.686  13.333  63.358  1.00  0.00    -0.313 C  
HETATM   28  C   UNL     1     -10.237  12.238  65.135  1.00  0.00    -0.305 A  
HETATM   29  H   UNL     1     -11.454  15.691  63.677  1.00  0.00     0.000 HD 
HETATM   30  C   UNL     1      -9.354  12.356  66.231  1.00  0.00    -0.189 A  
HETATM   31  C   UNL     1     -10.585  10.859  64.631  1.00  0.00    -0.332 C  
HETATM   32  O   UNL     1      -8.829  11.176  66.726  1.00  0.00    -0.152 OA 
ENDBRANCH  16  17
ENDBRANCH  15  16
ENDBRANCH  13  15
ENDBRANCH  10  11
ENDBRANCH   9  10
ENDBRANCH   5   6
ENDBRANCH   4   5
TORSDOF 7
ENDMDL
MODEL        4
REMARK 921   NORMALIZED FREE ENERGY PREDICTED BY IDOCK:   -7.52 KCAL/MOL
REMARK 922        TOTAL FREE ENERGY PREDICTED BY IDOCK:  -12.35 KCAL/MOL
REMARK 923 INTER-LIGAND FREE ENERGY PREDICTED BY IDOCK:   -9.82 KCAL/MOL
REMARK 924 INTRA-LIGAND FREE ENERGY PREDICTED BY IDOCK:   -2.53 KCAL/MOL
REMARK 927      BINDING AFFINITY PREDICTED BY RF-SCORE:    0.00 PKD
ROOT
HETATM    1  C   UNL     1     -12.114  16.342  72.557  1.00  0.00    -0.615 C  
HETATM    2  C   UNL     1     -12.985  15.103  72.358  1.00  0.00    -0.452 C  
HETATM    3  C   UNL     1     -14.306  15.501  71.691  1.00  0.00    -0.510 C  
HETATM    4  C   UNL     1     -12.206  14.042  71.556  1.00  0.00    -0.285 C  
ENDROOT
BRANCH   4   5
HETATM    5  C   UNL     1     -13.028  12.775  71.335  1.00  0.00    -0.359 C  
BRANCH   5   6
HETATM    6  C   UNL     1     -12.375  11.808  70.351  1.00  0.00    -0.362 C  
HETATM    7  C   UNL     1     -11.802  10.566  71.065  1.00  0.00    -0.438 C  
HETATM    8  C   UNL     1     -12.887   9.784  71.820  1.00  0.00    -0.530 C  
HETATM    9  C   UNL     1     -11.073   9.678  70.038  1.00  0.00    -0.293 C  
BRANCH   9  10
HETATM   10  C   UNL     1     -10.481   8.430  70.690  1.00  0.00    -0.227 C  
BRANCH  10  11
HETATM   11  C   UNL     1      -9.346   7.834  69.873  1.00  0.00    -0.157 C  
HETATM   12  C   UNL     1      -8.217   8.857  69.636  1.00  0.00    -0.114 C  
HETATM   13  C   UNL     1      -7.134   8.284  68.708  1.00  0.00    -0.071 C  
HETATM   14  C   UNL     1      -7.558   9.313  70.943  1.00  0.00    -0.130 C  
BRANCH  13  15
HETATM   15  C   UNL     1      -7.633   7.820  67.340  1.00  0.00    -0.105 C  
BRANCH  15  16
HETATM   16  C   UNL     1      -7.504   8.868  66.219  1.00  0.00    -0.091 C  
BRANCH  16  17
HETATM   17  C   UNL     1      -8.852   9.540  65.836  1.00  0.00    -0.164 C  
HETATM   18  C   UNL     1     -10.012   8.622  66.280  1.00  0.00    -0.287 C  
HETATM   19  C   UNL     1      -8.833   9.867  64.343  1.00  0.00    -0.245 C  
HETATM   20  C   UNL     1     -10.127  10.526  63.928  1.00  0.00    -0.288 C  
HETATM   21  C   UNL     1     -10.591  11.549  64.928  1.00  0.00    -0.360 A  
HETATM   22  C   UNL     1     -11.690  12.377  64.631  1.00  0.00    -0.426 A  
HETATM   23  C   UNL     1     -12.447  12.235  63.335  1.00  0.00    -0.592 C  
HETATM   24  C   UNL     1     -12.080  13.338  65.579  1.00  0.00    -0.435 A  
HETATM   25  C   UNL     1     -11.426  13.478  66.820  1.00  0.00    -0.374 A  
HETATM   26  O   UNL     1     -13.134  14.181  65.335  1.00  0.00    -0.743 OA 
HETATM   27  C   UNL     1     -11.886  14.524  67.803  1.00  0.00    -0.390 C  
HETATM   28  C   UNL     1     -10.347  12.617  67.129  1.00  0.00    -0.239 A  
HETATM   29  H   UNL     1     -13.397  14.830  65.977  1.00  0.00     0.000 HD 
HETATM   30  C   UNL     1      -9.954  11.645  66.184  1.00  0.00    -0.221 A  
HETATM   31  C   UNL     1      -9.613  12.686  68.445  1.00  0.00    -0.173 C  
HETATM   32  O   UNL     1      -8.943  10.784  66.573  1.00  0.00    -0.150 OA 
ENDBRANCH  16  17
ENDBRANCH  15  16
ENDBRANCH  13  15
ENDBRANCH  10  11
ENDBRANCH   9  10
ENDBRANCH   5   6
ENDBRANCH   4   5
TORSDOF 7
ENDMDL
MODEL        5
REMARK 921   NORMALIZED FREE ENERGY PREDICTED BY IDOCK:   -7.48 KCAL/MOL
REMARK 922        TOTAL FREE ENERGY PREDICTED BY IDOCK:  -12.30 KCAL/MOL
REMARK 923 INTER-LIGAND FREE ENERGY PREDICTED BY IDOCK:  -10.51 KCAL/MOL
REMARK 924 INTRA-LIGAND FREE ENERGY PREDICTED BY IDOCK:   -1.78 KCAL/MOL
REMARK 927      BINDING AFFINITY PREDICTED BY RF-SCORE:    0.00 PKD
ROOT
HETATM    1  C   UNL     1     -14.274  14.841  72.192  1.00  0.00    -0.608 C  
HETATM    2  C   UNL     1     -13.463  13.843  71.368  1.00  0.00    -0.328 C  
HETATM    3  C   UNL     1     -12.072  14.418  71.081  1.00  0.00    -0.410 C  
HETATM    4  C   UNL     1     -13.410  12.486  72.097  1.00  0.00    -0.540 C  
ENDROOT
BRANCH   4   5
HETATM    5  C   UNL     1     -12.619  11.445  71.311  1.00  0.00    -0.480 C  
BRANCH   5   6
HETATM    6  C   UNL     1     -13.026  10.012  71.646  1.00  0.00    -0.554 C  
HETATM    7  C   UNL     1     -12.011   8.986  71.099  1.00  0.00    -0.356 C  
HETATM    8  C   UNL     1     -10.604   9.206  71.673  1.00  0.00    -0.427 C  
HETATM    9  C   UNL     1     -12.523   7.561  71.381  1.00  0.00    -0.382 C  
BRANCH   9  10
HETATM   10  C   UNL     1     -11.557   6.500  70.858  1.00  0.00    -0.417 C  
BRANCH  10  11
HETATM   11  C   UNL     1     -11.250   6.677  69.379  1.00  0.00    -0.356 C  
HETATM   12  C   UNL     1      -9.734   6.793  69.121  1.00  0.00    -0.147 C  
HETATM   13  C   UNL     1      -9.443   7.093  67.643  1.00  0.00    -0.141 C  
HETATM   14  C   UNL     1      -8.973   5.525  69.529  1.00  0.00    -0.129 C  
BRANCH  13  15
HETATM   15  C   UNL     1     -10.104   8.358  67.096  1.00  0.00    -0.335 C  
BRANCH  15  16
HETATM   16  C   UNL     1      -9.499   9.676  67.616  1.00  0.00    -0.155 C  
BRANCH  16  17
HETATM   17  C   UNL     1     -10.232  10.945  67.099  1.00  0.00    -0.210 C  
HETATM   18  C   UNL     1     -11.339  11.328  68.106  1.00  0.00    -0.372 C  
HETATM   19  C   UNL     1     -10.728  10.682  65.677  1.00  0.00    -0.104 C  
HETATM   20  C   UNL     1     -11.447  11.893  65.133  1.00  0.00    -0.304 C  
HETATM   21  C   UNL     1     -10.735  13.175  65.469  1.00  0.00    -0.297 A  
HETATM   22  C   UNL     1     -11.171  14.390  64.907  1.00  0.00    -0.392 A  
HETATM   23  C   UNL     1     -12.372  14.445  63.998  1.00  0.00    -0.243 C  
HETATM   24  C   UNL     1     -10.467  15.565  65.225  1.00  0.00    -0.411 A  
HETATM   25  C   UNL     1      -9.363  15.565  66.102  1.00  0.00    -0.380 A  
HETATM   26  O   UNL     1     -10.838  16.773  64.695  1.00  0.00    -0.835 OA 
HETATM   27  C   UNL     1      -8.644  16.853  66.411  1.00  0.00    -0.328 C  
HETATM   28  C   UNL     1      -8.954  14.347  66.693  1.00  0.00    -0.232 A  
HETATM   29  H   UNL     1     -10.362  17.567  64.909  1.00  0.00     0.000 HD 
HETATM   30  C   UNL     1      -9.661  13.164  66.384  1.00  0.00    -0.269 A  
HETATM   31  C   UNL     1      -7.800  14.269  67.661  1.00  0.00    -0.191 C  
HETATM   32  O   UNL     1      -9.262  12.020  67.050  1.00  0.00    -0.183 OA 
ENDBRANCH  16  17
ENDBRANCH  15  16
ENDBRANCH  13  15
ENDBRANCH  10  11
ENDBRANCH   9  10
ENDBRANCH   5   6
ENDBRANCH   4   5
TORSDOF 7
ENDMDL
MODEL        6
REMARK 921   NORMALIZED FREE ENERGY PREDICTED BY IDOCK:   -7.40 KCAL/MOL
REMARK 922        TOTAL FREE ENERGY PREDICTED BY IDOCK:  -12.18 KCAL/MOL
REMARK 923 INTER-LIGAND FREE ENERGY PREDICTED BY IDOCK:   -9.12 KCAL/MOL
REMARK 924 INTRA-LIGAND FREE ENERGY PREDICTED BY IDOCK:   -3.06 KCAL/MOL
REMARK 927      BINDING AFFINITY PREDICTED BY RF-SCORE:    0.00 PKD
ROOT
HETATM    1  C   UNL     1      -8.496  19.984  67.555  1.00  0.00    -0.393 C  
HETATM    2  C   UNL     1      -9.708  19.385  68.267  1.00  0.00    -0.480 C  
HETATM    3  C   UNL     1     -10.909  19.368  67.317  1.00  0.00    -0.561 C  
HETATM    4  C   UNL     1      -9.354  17.986  68.810  1.00  0.00    -0.251 C  
ENDROOT
BRANCH   4   5
HETATM    5  C   UNL     1     -10.529  17.344  69.542  1.00  0.00     0.028 C  
BRANCH   5   6
HETATM    6  C   UNL     1     -11.083  16.121  68.817  1.00  0.00    -0.354 C  
HETATM    7  C   UNL     1     -11.351  14.952  69.789  1.00  0.00    -0.314 C  
HETATM    8  C   UNL     1     -12.364  15.333  70.879  1.00  0.00    -0.433 C  
HETATM    9  C   UNL     1     -11.814  13.719  68.990  1.00  0.00    -0.397 C  
BRANCH   9  10
HETATM   10  C   UNL     1     -12.094  12.527  69.903  1.00  0.00    -0.322 C  
BRANCH  10  11
HETATM   11  C   UNL     1     -11.912  11.197  69.190  1.00  0.00    -0.413 C  
HETATM   12  C   UNL     1     -10.999  10.243  69.987  1.00  0.00    -0.371 C  
HETATM   13  C   UNL     1     -10.724   8.952  69.201  1.00  0.00    -0.162 C  
HETATM   14  C   UNL     1     -11.590   9.875  71.353  1.00  0.00    -0.428 C  
BRANCH  13  15
HETATM   15  C   UNL     1     -10.092   9.154  67.823  1.00  0.00    -0.253 C  
BRANCH  15  16
HETATM   16  C   UNL     1      -8.592   9.502  67.849  1.00  0.00    -0.119 C  
BRANCH  16  17
HETATM   17  C   UNL     1      -8.275  10.930  67.324  1.00  0.00    -0.123 C  
HETATM   18  C   UNL     1      -7.337  10.817  66.102  1.00  0.00    -0.127 C  
HETATM   19  C   UNL     1      -7.720  11.767  68.477  1.00  0.00    -0.137 C  
HETATM   20  C   UNL     1      -7.400  13.166  68.011  1.00  0.00    -0.125 C  
HETATM   21  C   UNL     1      -8.465  13.723  67.107  1.00  0.00    -0.189 A  
HETATM   22  C   UNL     1      -8.416  15.072  66.707  1.00  0.00    -0.239 A  
HETATM   23  C   UNL     1      -7.286  15.973  67.135  1.00  0.00    -0.257 C  
HETATM   24  C   UNL     1      -9.441  15.564  65.882  1.00  0.00    -0.342 A  
HETATM   25  C   UNL     1     -10.495  14.746  65.425  1.00  0.00    -0.401 A  
HETATM   26  O   UNL     1      -9.451  16.873  65.474  1.00  0.00    -0.496 OA 
HETATM   27  C   UNL     1     -11.570  15.323  64.539  1.00  0.00    -0.312 C  
HETATM   28  C   UNL     1     -10.519  13.383  65.799  1.00  0.00    -0.291 A  
HETATM   29  H   UNL     1     -10.145  17.205  64.916  1.00  0.00     0.000 HD 
HETATM   30  C   UNL     1      -9.488  12.880  66.622  1.00  0.00    -0.255 A  
HETATM   31  C   UNL     1     -11.597  12.437  65.330  1.00  0.00    -0.426 C  
HETATM   32  O   UNL     1      -9.524  11.523  66.891  1.00  0.00    -0.177 OA 
ENDBRANCH  16  17
ENDBRANCH  15  16
ENDBRANCH  13  15
ENDBRANCH  10  11
ENDBRANCH   9  10
ENDBRANCH   5   6
ENDBRANCH   4   5
TORSDOF 7
ENDMDL
MODEL        7
REMARK 921   NORMALIZED FREE ENERGY PREDICTED BY IDOCK:   -7.38 KCAL/MOL
REMARK 922        TOTAL FREE ENERGY PREDICTED BY IDOCK:  -12.16 KCAL/MOL
REMARK 923 INTER-LIGAND FREE ENERGY PREDICTED BY IDOCK:   -9.52 KCAL/MOL
REMARK 924 INTRA-LIGAND FREE ENERGY PREDICTED BY IDOCK:   -2.64 KCAL/MOL
REMARK 927      BINDING AFFINITY PREDICTED BY RF-SCORE:    0.00 PKD
ROOT
HETATM    1  C   UNL     1     -10.201   6.602  73.848  1.00  0.00    -0.379 C  
HETATM    2  C   UNL     1     -10.526   7.371  72.569  1.00  0.00    -0.280 C  
HETATM    3  C   UNL     1     -11.925   7.986  72.677  1.00  0.00    -0.334 C  
HETATM    4  C   UNL     1      -9.430   8.420  72.298  1.00  0.00    -0.367 C  
ENDROOT
BRANCH   4   5
HETATM    5  C   UNL     1      -9.700   9.212  71.023  1.00  0.00    -0.359 C  
BRANCH   5   6
HETATM    6  C   UNL     1      -9.851   8.322  69.792  1.00  0.00    -0.187 C  
HETATM    7  C   UNL     1      -9.227   8.969  68.538  1.00  0.00    -0.136 C  
HETATM    8  C   UNL     1      -7.726   9.244  68.719  1.00  0.00    -0.083 C  
HETATM    9  C   UNL     1      -9.495   8.073  67.313  1.00  0.00    -0.196 C  
BRANCH   9  10
HETATM   10  C   UNL     1      -8.899   8.666  66.038  1.00  0.00    -0.213 C  
BRANCH  10  11
HETATM   11  C   UNL     1      -9.853   9.627  65.347  1.00  0.00    -0.322 C  
HETATM   12  C   UNL     1      -9.096  10.681  64.514  1.00  0.00    -0.243 C  
HETATM   13  C   UNL     1     -10.062  11.718  63.920  1.00  0.00    -0.399 C  
HETATM   14  C   UNL     1      -8.283  10.052  63.376  1.00  0.00    -0.164 C  
BRANCH  13  15
HETATM   15  C   UNL     1     -10.920  12.464  64.941  1.00  0.00    -0.341 C  
BRANCH  15  16
HETATM   16  C   UNL     1     -10.123  13.277  65.979  1.00  0.00    -0.301 C  
BRANCH  16  17
HETATM   17  C   UNL     1     -10.486  12.935  67.451  1.00  0.00    -0.233 C  
HETATM   18  C   UNL     1      -9.215  12.441  68.177  1.00  0.00    -0.205 C  
HETATM   19  C   UNL     1     -11.647  11.941  67.453  1.00  0.00    -0.367 C  
HETATM   20  C   UNL     1     -12.035  11.582  68.868  1.00  0.00    -0.364 C  
HETATM   21  C   UNL     1     -12.054  12.781  69.775  1.00  0.00    -0.305 A  
HETATM   22  C   UNL     1     -12.548  12.663  71.088  1.00  0.00    -0.354 A  
HETATM   23  C   UNL     1     -13.029  11.340  71.627  1.00  0.00    -0.537 C  
HETATM   24  C   UNL     1     -12.573  13.811  71.899  1.00  0.00    -0.188 A  
HETATM   25  C   UNL     1     -12.097  15.060  71.449  1.00  0.00    -0.396 A  
HETATM   26  O   UNL     1     -13.058  13.757  73.180  1.00  0.00    -0.481 OA 
HETATM   27  C   UNL     1     -12.145  16.259  72.361  1.00  0.00    -0.598 C  
HETATM   28  C   UNL     1     -11.566  15.162  70.142  1.00  0.00    -0.326 A  
HETATM   29  H   UNL     1     -13.075  14.533  73.728  1.00  0.00     0.000 HD 
HETATM   30  C   UNL     1     -11.531  14.012  69.324  1.00  0.00    -0.295 A  
HETATM   31  C   UNL     1     -11.014  16.456  69.597  1.00  0.00    -0.329 C  
HETATM   32  O   UNL     1     -10.932  14.158  68.086  1.00  0.00    -0.239 OA 
ENDBRANCH  16  17
ENDBRANCH  15  16
ENDBRANCH  13  15
ENDBRANCH  10  11
ENDBRANCH   9  10
ENDBRANCH   5   6
ENDBRANCH   4   5
TORSDOF 7
ENDMDL
MODEL        8
REMARK 921   NORMALIZED FREE ENERGY PREDICTED BY IDOCK:   -7.37 KCAL/MOL
REMARK 922        TOTAL FREE ENERGY PREDICTED BY IDOCK:  -12.15 KCAL/MOL
REMARK 923 INTER-LIGAND FREE ENERGY PREDICTED BY IDOCK:  -10.18 KCAL/MOL
REMARK 924 INTRA-LIGAND FREE ENERGY PREDICTED BY IDOCK:   -1.97 KCAL/MOL
REMARK 927      BINDING AFFINITY PREDICTED BY RF-SCORE:    0.00 PKD
ROOT
HETATM    1  C   UNL     1     -11.608  15.372  72.547  1.00  0.00    -0.525 C  
HETATM    2  C   UNL     1     -12.286  14.912  71.259  1.00  0.00    -0.385 C  
HETATM    3  C   UNL     1     -13.779  15.252  71.310  1.00  0.00    -0.570 C  
HETATM    4  C   UNL     1     -11.572  15.535  70.043  1.00  0.00    -0.356 C  
ENDROOT
BRANCH   4   5
HETATM    5  C   UNL     1     -12.203  15.099  68.724  1.00  0.00    -0.104 C  
BRANCH   5   6
HETATM    6  C   UNL     1     -11.278  15.299  67.527  1.00  0.00    -0.317 C  
HETATM    7  C   UNL     1     -11.346  14.111  66.545  1.00  0.00    -0.348 C  
HETATM    8  C   UNL     1     -12.764  13.902  65.994  1.00  0.00    -0.410 C  
HETATM    9  C   UNL     1     -10.323  14.323  65.413  1.00  0.00    -0.391 C  
BRANCH   9  10
HETATM   10  C   UNL     1     -10.345  13.173  64.409  1.00  0.00    -0.390 C  
BRANCH  10  11
HETATM   11  C   UNL     1      -9.623  11.939  64.927  1.00  0.00    -0.087 C  
HETATM   12  C   UNL     1      -9.773  10.744  63.963  1.00  0.00    -0.367 C  
HETATM   13  C   UNL     1      -9.146   9.472  64.554  1.00  0.00    -0.250 C  
HETATM   14  C   UNL     1      -9.142  11.018  62.593  1.00  0.00    -0.375 C  
BRANCH  13  15
HETATM   15  C   UNL     1      -9.703   9.045  65.911  1.00  0.00    -0.306 C  
BRANCH  15  16
HETATM   16  C   UNL     1      -8.636   8.653  66.950  1.00  0.00    -0.124 C  
BRANCH  16  17
HETATM   17  C   UNL     1      -9.211   8.414  68.374  1.00  0.00    -0.135 C  
HETATM   18  C   UNL     1      -8.087   8.637  69.410  1.00  0.00    -0.111 C  
HETATM   19  C   UNL     1      -9.852   7.027  68.420  1.00  0.00    -0.148 C  
HETATM   20  C   UNL     1     -10.427   6.753  69.788  1.00  0.00    -0.240 C  
HETATM   21  C   UNL     1     -11.148   7.947  70.353  1.00  0.00    -0.249 A  
HETATM   22  C   UNL     1     -11.884   7.826  71.546  1.00  0.00    -0.324 A  
HETATM   23  C   UNL     1     -11.937   6.524  72.303  1.00  0.00    -0.272 C  
HETATM   24  C   UNL     1     -12.564   8.957  72.030  1.00  0.00    -0.394 A  
HETATM   25  C   UNL     1     -12.509  10.205  71.376  1.00  0.00    -0.524 A  
HETATM   26  O   UNL     1     -13.309   8.893  73.179  1.00  0.00    -0.926 OA 
HETATM   27  C   UNL     1     -13.255  11.387  71.939  1.00  0.00    -0.485 C  
HETATM   28  C   UNL     1     -11.736  10.329  70.198  1.00  0.00    -0.364 A  
HETATM   29  H   UNL     1     -13.768   9.657  73.507  1.00  0.00     0.000 HD 
HETATM   30  C   UNL     1     -11.044   9.199  69.709  1.00  0.00    -0.125 A  
HETATM   31  C   UNL     1     -11.605  11.635  69.454  1.00  0.00    -0.392 C  
HETATM   32  O   UNL     1     -10.246   9.402  68.598  1.00  0.00    -0.187 OA 
ENDBRANCH  16  17
ENDBRANCH  15  16
ENDBRANCH  13  15
ENDBRANCH  10  11
ENDBRANCH   9  10
ENDBRANCH   5   6
ENDBRANCH   4   5
TORSDOF 7
ENDMDL
MODEL        9
REMARK 921   NORMALIZED FREE ENERGY PREDICTED BY IDOCK:   -7.36 KCAL/MOL
REMARK 922        TOTAL FREE ENERGY PREDICTED BY IDOCK:  -12.13 KCAL/MOL
REMARK 923 INTER-LIGAND FREE ENERGY PREDICTED BY IDOCK:  -10.05 KCAL/MOL
REMARK 924 INTRA-LIGAND FREE ENERGY PREDICTED BY IDOCK:   -2.08 KCAL/MOL
REMARK 927      BINDING AFFINITY PREDICTED BY RF-SCORE:    0.00 PKD
ROOT
HETATM    1  C   UNL     1     -10.841  19.420  67.425  1.00  0.00    -0.555 C  
HETATM    2  C   UNL     1      -9.331  19.191  67.423  1.00  0.00    -0.356 C  
HETATM    3  C   UNL     1      -8.944  18.307  66.233  1.00  0.00    -0.197 C  
HETATM    4  C   UNL     1      -8.598  20.547  67.425  1.00  0.00    -0.361 C  
ENDROOT
BRANCH   4   5
HETATM    5  C   UNL     1      -7.081  20.376  67.433  1.00  0.00    -0.346 C  
BRANCH   5   6
HETATM    6  C   UNL     1      -6.559  19.770  68.732  1.00  0.00    -0.344 C  
HETATM    7  C   UNL     1      -6.261  18.263  68.582  1.00  0.00    -0.208 C  
HETATM    8  C   UNL     1      -5.208  17.991  67.497  1.00  0.00    -0.141 C  
HETATM    9  C   UNL     1      -5.833  17.688  69.945  1.00  0.00    -0.247 C  
BRANCH   9  10
HETATM   10  C   UNL     1      -5.525  16.195  69.856  1.00  0.00    -0.147 C  
BRANCH  10  11
HETATM   11  C   UNL     1      -6.676  15.402  69.258  1.00  0.00    -0.150 C  
HETATM   12  C   UNL     1      -6.203  14.491  68.107  1.00  0.00    -0.146 C  
HETATM   13  C   UNL     1      -7.390  13.789  67.430  1.00  0.00    -0.125 C  
HETATM   14  C   UNL     1      -5.202  13.429  68.578  1.00  0.00    -0.078 C  
BRANCH  13  15
HETATM   15  C   UNL     1      -8.461  14.723  66.869  1.00  0.00    -0.230 C  
BRANCH  15  16
HETATM   16  C   UNL     1      -9.767  14.024  66.448  1.00  0.00    -0.309 C  
BRANCH  16  17
HETATM   17  C   UNL     1     -10.903  14.138  67.503  1.00  0.00    -0.275 C  
HETATM   18  C   UNL     1     -12.265  14.116  66.774  1.00  0.00    -0.429 C  
HETATM   19  C   UNL     1     -10.658  15.381  68.358  1.00  0.00    -0.247 C  
HETATM   20  C   UNL     1     -11.740  15.529  69.400  1.00  0.00    -0.382 C  
HETATM   21  C   UNL     1     -12.095  14.217  70.044  1.00  0.00    -0.409 A  
HETATM   22  C   UNL     1     -12.966  14.187  71.149  1.00  0.00    -0.419 A  
HETATM   23  C   UNL     1     -13.592  15.449  71.686  1.00  0.00    -0.603 C  
HETATM   24  C   UNL     1     -13.255  12.945  71.740  1.00  0.00    -0.384 A  
HETATM   25  C   UNL     1     -12.724  11.736  71.246  1.00  0.00    -0.420 A  
HETATM   26  O   UNL     1     -14.085  12.858  72.828  1.00  0.00    -0.714 OA 
HETATM   27  C   UNL     1     -13.069  10.430  71.915  1.00  0.00    -0.563 C  
HETATM   28  C   UNL     1     -11.880  11.769  70.112  1.00  0.00    -0.408 A  
HETATM   29  H   UNL     1     -14.281  12.019  73.227  1.00  0.00     0.000 HD 
HETATM   30  C   UNL     1     -11.591  13.012  69.509  1.00  0.00    -0.276 A  
HETATM   31  C   UNL     1     -11.294  10.517  69.507  1.00  0.00    -0.341 C  
HETATM   32  O   UNL     1     -10.822  12.973  68.359  1.00  0.00    -0.240 OA 
ENDBRANCH  16  17
ENDBRANCH  15  16
ENDBRANCH  13  15
ENDBRANCH  10  11
ENDBRANCH   9  10
ENDBRANCH   5   6
ENDBRANCH   4   5
TORSDOF 7
ENDMDL
MODEL       10
REMARK 921   NORMALIZED FREE ENERGY PREDICTED BY IDOCK:   -7.29 KCAL/MOL
REMARK 922        TOTAL FREE ENERGY PREDICTED BY IDOCK:  -12.03 KCAL/MOL
REMARK 923 INTER-LIGAND FREE ENERGY PREDICTED BY IDOCK:  -10.74 KCAL/MOL
REMARK 924 INTRA-LIGAND FREE ENERGY PREDICTED BY IDOCK:   -1.29 KCAL/MOL
REMARK 927      BINDING AFFINITY PREDICTED BY RF-SCORE:    0.00 PKD
ROOT
HETATM    1  C   UNL     1      -9.604  20.667  67.248  1.00  0.00    -0.558 C  
HETATM    2  C   UNL     1      -9.451  19.161  67.452  1.00  0.00    -0.362 C  
HETATM    3  C   UNL     1     -10.281  18.716  68.660  1.00  0.00    -0.359 C  
HETATM    4  C   UNL     1      -9.833  18.418  66.156  1.00  0.00    -0.279 C  
ENDROOT
BRANCH   4   5
HETATM    5  C   UNL     1      -9.688  16.906  66.301  1.00  0.00    -0.301 C  
BRANCH   5   6
HETATM    6  C   UNL     1     -10.630  16.129  65.385  1.00  0.00    -0.399 C  
HETATM    7  C   UNL     1     -10.950  14.729  65.948  1.00  0.00    -0.335 C  
HETATM    8  C   UNL     1     -11.617  14.803  67.329  1.00  0.00    -0.385 C  
HETATM    9  C   UNL     1     -11.821  13.958  64.938  1.00  0.00    -0.401 C  
BRANCH   9  10
HETATM   10  C   UNL     1     -12.169  12.560  65.443  1.00  0.00    -0.475 C  
BRANCH  10  11
HETATM   11  C   UNL     1     -10.932  11.713  65.696  1.00  0.00    -0.322 C  
HETATM   12  C   UNL     1     -10.532  10.899  64.448  1.00  0.00    -0.403 C  
HETATM   13  C   UNL     1      -9.358   9.957  64.752  1.00  0.00    -0.339 C  
HETATM   14  C   UNL     1     -10.155  11.797  63.263  1.00  0.00    -0.448 C  
BRANCH  13  15
HETATM   15  C   UNL     1      -9.598   8.968  65.891  1.00  0.00    -0.317 C  
BRANCH  15  16
HETATM   16  C   UNL     1      -8.553   9.021  67.021  1.00  0.00    -0.120 C  
BRANCH  16  17
HETATM   17  C   UNL     1      -9.142   8.726  68.429  1.00  0.00    -0.141 C  
HETATM   18  C   UNL     1      -8.042   8.957  69.489  1.00  0.00    -0.101 C  
HETATM   19  C   UNL     1      -9.740   7.319  68.427  1.00  0.00    -0.151 C  
HETATM   20  C   UNL     1     -10.327   6.990  69.779  1.00  0.00    -0.225 C  
HETATM   21  C   UNL     1     -11.093   8.145  70.363  1.00  0.00    -0.239 A  
HETATM   22  C   UNL     1     -11.843   7.969  71.541  1.00  0.00    -0.328 A  
HETATM   23  C   UNL     1     -11.867   6.646  72.262  1.00  0.00    -0.289 C  
HETATM   24  C   UNL     1     -12.567   9.065  72.044  1.00  0.00    -0.394 A  
HETATM   25  C   UNL     1     -12.541  10.331  71.424  1.00  0.00    -0.539 A  
HETATM   26  O   UNL     1     -13.326   8.946  73.179  1.00  0.00    -0.926 OA 
HETATM   27  C   UNL     1     -13.333  11.473  72.006  1.00  0.00    -0.397 C  
HETATM   28  C   UNL     1     -11.755  10.511  70.262  1.00  0.00    -0.420 A  
HETATM   29  H   UNL     1     -13.815   9.686  73.519  1.00  0.00     0.000 HD 
HETATM   30  C   UNL     1     -11.020   9.417  69.755  1.00  0.00    -0.215 A  
HETATM   31  C   UNL     1     -11.654  11.840  69.556  1.00  0.00    -0.398 C  
HETATM   32  O   UNL     1     -10.212   9.675  68.663  1.00  0.00    -0.176 OA 
ENDBRANCH  16  17
ENDBRANCH  15  16
ENDBRANCH  13  15
ENDBRANCH  10  11
ENDBRANCH   9  10
ENDBRANCH   5   6
ENDBRANCH   4   5
TORSDOF 7
ENDMDL
MODEL       11
REMARK 921   NORMALIZED FREE ENERGY PREDICTED BY IDOCK:   -7.27 KCAL/MOL
REMARK 922        TOTAL FREE ENERGY PREDICTED BY IDOCK:  -12.01 KCAL/MOL
REMARK 923 INTER-LIGAND FREE ENERGY PREDICTED BY IDOCK:   -9.89 KCAL/MOL
REMARK 924 INTRA-LIGAND FREE ENERGY PREDICTED BY IDOCK:   -2.12 KCAL/MOL
REMARK 927      BINDING AFFINITY PREDICTED BY RF-SCORE:    0.00 PKD
ROOT
HETATM    1  C   UNL     1     -12.671  13.669  65.300  1.00  0.00    -0.478 C  
HETATM    2  C   UNL     1     -11.923  12.445  64.775  1.00  0.00    -0.462 C  
HETATM    3  C   UNL     1     -12.672  11.856  63.576  1.00  0.00    -0.530 C  
HETATM    4  C   UNL     1     -10.467  12.826  64.444  1.00  0.00    -0.410 C  
ENDROOT
BRANCH   4   5
HETATM    5  C   UNL     1      -9.669  11.635  63.924  1.00  0.00    -0.253 C  
BRANCH   5   6
HETATM    6  C   UNL     1      -8.875  10.928  65.020  1.00  0.00    -0.151 C  
HETATM    7  C   UNL     1      -8.989   9.393  64.911  1.00  0.00    -0.256 C  
HETATM    8  C   UNL     1      -8.468   8.872  63.563  1.00  0.00    -0.146 C  
HETATM    9  C   UNL     1      -8.252   8.740  66.095  1.00  0.00    -0.117 C  
BRANCH   9  10
HETATM   10  C   UNL     1      -8.333   7.216  66.040  1.00  0.00    -0.134 C  
BRANCH  10  11
HETATM   11  C   UNL     1      -8.762   6.612  67.367  1.00  0.00    -0.118 C  
HETATM   12  C   UNL     1     -10.270   6.287  67.385  1.00  0.00    -0.223 C  
HETATM   13  C   UNL     1     -10.715   5.792  68.770  1.00  0.00    -0.318 C  
HETATM   14  C   UNL     1     -10.652   5.236  66.336  1.00  0.00    -0.338 C  
BRANCH  13  15
HETATM   15  C   UNL     1     -10.435   6.756  69.923  1.00  0.00    -0.242 C  
BRANCH  15  16
HETATM   16  C   UNL     1     -11.662   7.092  70.792  1.00  0.00    -0.394 C  
BRANCH  16  17
HETATM   17  C   UNL     1     -11.747   8.590  71.197  1.00  0.00    -0.281 C  
HETATM   18  C   UNL     1     -10.611   8.903  72.194  1.00  0.00    -0.323 C  
HETATM   19  C   UNL     1     -13.153   8.879  71.722  1.00  0.00    -0.423 C  
HETATM   20  C   UNL     1     -13.282  10.328  72.125  1.00  0.00    -0.443 C  
HETATM   21  C   UNL     1     -12.631  11.255  71.136  1.00  0.00    -0.501 A  
HETATM   22  C   UNL     1     -12.790  12.647  71.264  1.00  0.00    -0.344 A  
HETATM   23  C   UNL     1     -13.575  13.242  72.405  1.00  0.00    -0.694 C  
HETATM   24  C   UNL     1     -12.188  13.481  70.306  1.00  0.00    -0.347 A  
HETATM   25  C   UNL     1     -11.412  12.969  69.245  1.00  0.00    -0.348 A  
HETATM   26  O   UNL     1     -12.323  14.843  70.373  1.00  0.00    -0.307 OA 
HETATM   27  C   UNL     1     -10.786  13.908  68.247  1.00  0.00    -0.263 C  
HETATM   28  C   UNL     1     -11.224  11.571  69.144  1.00  0.00    -0.337 A  
HETATM   29  H   UNL     1     -11.916  15.407  69.726  1.00  0.00     0.000 HD 
HETATM   30  C   UNL     1     -11.820  10.728  70.107  1.00  0.00    -0.343 A  
HETATM   31  C   UNL     1     -10.387  10.948  68.055  1.00  0.00    -0.212 C  
HETATM   32  O   UNL     1     -11.538   9.378  69.999  1.00  0.00    -0.155 OA 
ENDBRANCH  16  17
ENDBRANCH  15  16
ENDBRANCH  13  15
ENDBRANCH  10  11
ENDBRANCH   9  10
ENDBRANCH   5   6
ENDBRANCH   4   5
TORSDOF 7
ENDMDL
MODEL       12
REMARK 921   NORMALIZED FREE ENERGY PREDICTED BY IDOCK:   -7.21 KCAL/MOL
REMARK 922        TOTAL FREE ENERGY PREDICTED BY IDOCK:  -11.92 KCAL/MOL
REMARK 923 INTER-LIGAND FREE ENERGY PREDICTED BY IDOCK:   -9.52 KCAL/MOL
REMARK 924 INTRA-LIGAND FREE ENERGY PREDICTED BY IDOCK:   -2.40 KCAL/MOL
REMARK 927      BINDING AFFINITY PREDICTED BY RF-SCORE:    0.00 PKD
ROOT
HETATM    1  C   UNL     1      -8.294   8.190  73.224  1.00  0.00    -0.277 C  
HETATM    2  C   UNL     1      -9.409   7.188  72.932  1.00  0.00    -0.179 C  
HETATM    3  C   UNL     1      -9.915   6.580  74.244  1.00  0.00    -0.362 C  
HETATM    4  C   UNL     1     -10.526   7.872  72.119  1.00  0.00    -0.308 C  
ENDROOT
BRANCH   4   5
HETATM    5  C   UNL     1     -11.664   6.911  71.790  1.00  0.00    -0.338 C  
BRANCH   5   6
HETATM    6  C   UNL     1     -11.880   6.738  70.289  1.00  0.00    -0.359 C  
HETATM    7  C   UNL     1     -10.543   6.623  69.528  1.00  0.00    -0.281 C  
HETATM    8  C   UNL     1      -9.709   5.426  70.009  1.00  0.00    -0.248 C  
HETATM    9  C   UNL     1     -10.820   6.550  68.014  1.00  0.00    -0.372 C  
BRANCH   9  10
HETATM   10  C   UNL     1      -9.529   6.436  67.208  1.00  0.00    -0.135 C  
BRANCH  10  11
HETATM   11  C   UNL     1      -9.395   7.540  66.171  1.00  0.00    -0.128 C  
HETATM   12  C   UNL     1      -8.328   8.577  66.577  1.00  0.00    -0.113 C  
HETATM   13  C   UNL     1      -8.288   9.750  65.586  1.00  0.00    -0.138 C  
HETATM   14  C   UNL     1      -6.926   7.963  66.675  1.00  0.00    -0.072 C  
BRANCH  13  15
HETATM   15  C   UNL     1      -9.611  10.494  65.408  1.00  0.00    -0.291 C  
BRANCH  15  16
HETATM   16  C   UNL     1      -9.692  11.846  66.141  1.00  0.00    -0.251 C  
BRANCH  16  17
HETATM   17  C   UNL     1     -10.194  11.731  67.608  1.00  0.00    -0.199 C  
HETATM   18  C   UNL     1      -8.972  11.691  68.552  1.00  0.00    -0.138 C  
HETATM   19  C   UNL     1     -11.123  10.521  67.717  1.00  0.00    -0.382 C  
HETATM   20  C   UNL     1     -11.636  10.373  69.129  1.00  0.00    -0.234 C  
HETATM   21  C   UNL     1     -12.027  11.693  69.734  1.00  0.00    -0.402 A  
HETATM   22  C   UNL     1     -12.677  11.731  70.982  1.00  0.00    -0.372 A  
HETATM   23  C   UNL     1     -12.960  10.467  71.755  1.00  0.00    -0.582 C  
HETATM   24  C   UNL     1     -13.050  12.981  71.506  1.00  0.00    -0.310 A  
HETATM   25  C   UNL     1     -12.769  14.190  70.836  1.00  0.00    -0.432 A  
HETATM   26  O   UNL     1     -13.699  13.076  72.709  1.00  0.00    -0.697 OA 
HETATM   27  C   UNL     1     -13.188  15.504  71.443  1.00  0.00    -0.587 C  
HETATM   28  C   UNL     1     -12.082  14.147  69.601  1.00  0.00    -0.400 A  
HETATM   29  H   UNL     1     -13.950  13.921  73.063  1.00  0.00     0.000 HD 
HETATM   30  C   UNL     1     -11.698  12.895  69.072  1.00  0.00    -0.327 A  
HETATM   31  C   UNL     1     -11.721  15.397  68.836  1.00  0.00    -0.377 C  
HETATM   32  O   UNL     1     -10.963  12.923  67.901  1.00  0.00    -0.227 OA 
ENDBRANCH  16  17
ENDBRANCH  15  16
ENDBRANCH  13  15
ENDBRANCH  10  11
ENDBRANCH   9  10
ENDBRANCH   5   6
ENDBRANCH   4   5
TORSDOF 7
ENDMDL
MODEL       13
REMARK 921   NORMALIZED FREE ENERGY PREDICTED BY IDOCK:   -7.21 KCAL/MOL
REMARK 922        TOTAL FREE ENERGY PREDICTED BY IDOCK:  -11.91 KCAL/MOL
REMARK 923 INTER-LIGAND FREE ENERGY PREDICTED BY IDOCK:  -10.03 KCAL/MOL
REMARK 924 INTRA-LIGAND FREE ENERGY PREDICTED BY IDOCK:   -1.89 KCAL/MOL
REMARK 927      BINDING AFFINITY PREDICTED BY RF-SCORE:    0.00 PKD
ROOT
HETATM    1  C   UNL     1      -9.852   5.001  68.818  1.00  0.00    -0.236 C  
HETATM    2  C   UNL     1     -10.572   5.123  70.159  1.00  0.00    -0.225 C  
HETATM    3  C   UNL     1      -9.557   5.025  71.302  1.00  0.00    -0.223 C  
HETATM    4  C   UNL     1     -11.389   6.430  70.195  1.00  0.00    -0.485 C  
ENDROOT
BRANCH   4   5
HETATM    5  C   UNL     1     -12.139   6.598  71.513  1.00  0.00    -0.406 C  
BRANCH   5   6
HETATM    6  C   UNL     1     -11.936   7.975  72.140  1.00  0.00    -0.399 C  
HETATM    7  C   UNL     1     -12.767   9.059  71.423  1.00  0.00    -0.361 C  
HETATM    8  C   UNL     1     -14.272   8.755  71.471  1.00  0.00    -0.364 C  
HETATM    9  C   UNL     1     -12.447  10.436  72.035  1.00  0.00    -0.140 C  
BRANCH   9  10
HETATM   10  C   UNL     1     -13.243  11.552  71.361  1.00  0.00    -0.222 C  
BRANCH  10  11
HETATM   11  C   UNL     1     -12.423  12.820  71.183  1.00  0.00    -0.335 C  
HETATM   12  C   UNL     1     -13.322  14.055  70.966  1.00  0.00    -0.241 C  
HETATM   13  C   UNL     1     -12.484  15.307  70.667  1.00  0.00    -0.458 C  
HETATM   14  C   UNL     1     -14.223  14.339  72.174  1.00  0.00    -0.632 C  
BRANCH  13  15
HETATM   15  C   UNL     1     -11.557  15.192  69.457  1.00  0.00    -0.340 C  
BRANCH  15  16
HETATM   16  C   UNL     1     -12.262  14.815  68.140  1.00  0.00    -0.047 C  
BRANCH  16  17
HETATM   17  C   UNL     1     -11.368  13.998  67.166  1.00  0.00    -0.331 C  
HETATM   18  C   UNL     1      -9.900  14.444  67.343  1.00  0.00    -0.224 C  
HETATM   19  C   UNL     1     -11.915  14.154  65.747  1.00  0.00    -0.410 C  
HETATM   20  C   UNL     1     -11.075  13.372  64.766  1.00  0.00    -0.363 C  
HETATM   21  C   UNL     1     -10.698  12.016  65.294  1.00  0.00    -0.331 A  
HETATM   22  C   UNL     1     -10.055  11.087  64.455  1.00  0.00    -0.393 A  
HETATM   23  C   UNL     1      -9.695  11.436  63.033  1.00  0.00    -0.393 C  
HETATM   24  C   UNL     1      -9.739   9.820  64.976  1.00  0.00    -0.233 A  
HETATM   25  C   UNL     1     -10.021   9.465  66.311  1.00  0.00    -0.353 A  
HETATM   26  O   UNL     1      -9.126   8.872  64.198  1.00  0.00    -0.412 OA 
HETATM   27  C   UNL     1      -9.660   8.093  66.820  1.00  0.00    -0.281 C  
HETATM   28  C   UNL     1     -10.633  10.416  67.160  1.00  0.00    -0.319 A  
HETATM   29  H   UNL     1      -8.913   8.015  64.551  1.00  0.00     0.000 HD 
HETATM   30  C   UNL     1     -10.947  11.693  66.646  1.00  0.00    -0.299 A  
HETATM   31  C   UNL     1     -10.944  10.122  68.607  1.00  0.00    -0.273 C  
HETATM   32  O   UNL     1     -11.474  12.603  67.544  1.00  0.00    -0.297 OA 
ENDBRANCH  16  17
ENDBRANCH  15  16
ENDBRANCH  13  15
ENDBRANCH  10  11
ENDBRANCH   9  10
ENDBRANCH   5   6
ENDBRANCH   4   5
TORSDOF 7
ENDMDL
MODEL       14
REMARK 921   NORMALIZED FREE ENERGY PREDICTED BY IDOCK:   -7.14 KCAL/MOL
REMARK 922        TOTAL FREE ENERGY PREDICTED BY IDOCK:  -11.81 KCAL/MOL
REMARK 923 INTER-LIGAND FREE ENERGY PREDICTED BY IDOCK:   -9.23 KCAL/MOL
REMARK 924 INTRA-LIGAND FREE ENERGY PREDICTED BY IDOCK:   -2.58 KCAL/MOL
REMARK 927      BINDING AFFINITY PREDICTED BY RF-SCORE:    0.00 PKD
ROOT
HETATM    1  C   UNL     1     -10.488  10.918  63.783  1.00  0.00    -0.329 C  
HETATM    2  C   UNL     1     -11.407  12.133  63.906  1.00  0.00    -0.501 C  
HETATM    3  C   UNL     1     -12.740  11.846  63.208  1.00  0.00    -0.407 C  
HETATM    4  C   UNL     1     -11.577  12.509  65.391  1.00  0.00    -0.416 C  
ENDROOT
BRANCH   4   5
HETATM    5  C   UNL     1     -12.480  13.726  65.572  1.00  0.00    -0.548 C  
BRANCH   5   6
HETATM    6  C   UNL     1     -12.281  14.418  66.918  1.00  0.00    -0.300 C  
HETATM    7  C   UNL     1     -10.841  14.948  67.082  1.00  0.00    -0.311 C  
HETATM    8  C   UNL     1     -10.475  15.964  65.989  1.00  0.00    -0.357 C  
HETATM    9  C   UNL     1     -10.674  15.546  68.491  1.00  0.00    -0.259 C  
BRANCH   9  10
HETATM   10  C   UNL     1      -9.263  16.088  68.712  1.00  0.00    -0.224 C  
BRANCH  10  11
HETATM   11  C   UNL     1      -8.260  14.984  69.007  1.00  0.00    -0.187 C  
HETATM   12  C   UNL     1      -7.445  14.604  67.754  1.00  0.00    -0.180 C  
HETATM   13  C   UNL     1      -6.523  13.407  68.033  1.00  0.00    -0.131 C  
HETATM   14  C   UNL     1      -6.597  15.772  67.234  1.00  0.00    -0.169 C  
BRANCH  13  15
HETATM   15  C   UNL     1      -7.231  12.145  68.524  1.00  0.00    -0.102 C  
BRANCH  15  16
HETATM   16  C   UNL     1      -8.311  11.601  67.570  1.00  0.00    -0.151 C  
BRANCH  16  17
HETATM   17  C   UNL     1      -9.475  10.872  68.298  1.00  0.00    -0.168 C  
HETATM   18  C   UNL     1      -9.986   9.724  67.399  1.00  0.00    -0.239 C  
HETATM   19  C   UNL     1     -10.537  11.902  68.681  1.00  0.00    -0.259 C  
HETATM   20  C   UNL     1     -11.689  11.236  69.394  1.00  0.00    -0.409 C  
HETATM   21  C   UNL     1     -11.225  10.210  70.392  1.00  0.00    -0.402 A  
HETATM   22  C   UNL     1     -12.150   9.606  71.264  1.00  0.00    -0.457 A  
HETATM   23  C   UNL     1     -13.620   9.936  71.195  1.00  0.00    -0.223 C  
HETATM   24  C   UNL     1     -11.676   8.670  72.199  1.00  0.00    -0.371 A  
HETATM   25  C   UNL     1     -10.316   8.303  72.271  1.00  0.00    -0.386 A  
HETATM   26  O   UNL     1     -12.530   8.062  73.082  1.00  0.00    -0.533 OA 
HETATM   27  C   UNL     1      -9.861   7.292  73.292  1.00  0.00    -0.302 C  
HETATM   28  C   UNL     1      -9.398   8.885  71.367  1.00  0.00    -0.338 A  
HETATM   29  H   UNL     1     -12.209   7.430  73.714  1.00  0.00     0.000 HD 
HETATM   30  C   UNL     1      -9.868   9.821  70.420  1.00  0.00    -0.209 A  
HETATM   31  C   UNL     1      -7.933   8.525  71.363  1.00  0.00    -0.168 C  
HETATM   32  O   UNL     1      -8.938  10.298  69.515  1.00  0.00    -0.197 OA 
ENDBRANCH  16  17
ENDBRANCH  15  16
ENDBRANCH  13  15
ENDBRANCH  10  11
ENDBRANCH   9  10
ENDBRANCH   5   6
ENDBRANCH   4   5
TORSDOF 7
ENDMDL
MODEL       15
REMARK 921   NORMALIZED FREE ENERGY PREDICTED BY IDOCK:   -7.08 KCAL/MOL
REMARK 922        TOTAL FREE ENERGY PREDICTED BY IDOCK:  -11.74 KCAL/MOL
REMARK 923 INTER-LIGAND FREE ENERGY PREDICTED BY IDOCK:   -9.49 KCAL/MOL
REMARK 924 INTRA-LIGAND FREE ENERGY PREDICTED BY IDOCK:   -2.25 KCAL/MOL
REMARK 927      BINDING AFFINITY PREDICTED BY RF-SCORE:    0.00 PKD
ROOT
HETATM    1  C   UNL     1     -10.733  12.546  63.661  1.00  0.00    -0.469 C  
HETATM    2  C   UNL     1     -10.477  11.059  63.894  1.00  0.00    -0.422 C  
HETATM    3  C   UNL     1      -9.524  10.523  62.822  1.00  0.00    -0.353 C  
HETATM    4  C   UNL     1      -9.951  10.839  65.327  1.00  0.00    -0.342 C  
ENDROOT
BRANCH   4   5
HETATM    5  C   UNL     1      -9.687   9.365  65.618  1.00  0.00    -0.336 C  
BRANCH   5   6
HETATM    6  C   UNL     1      -8.843   9.149  66.872  1.00  0.00    -0.137 C  
HETATM    7  C   UNL     1      -9.709   8.732  68.080  1.00  0.00    -0.183 C  
HETATM    8  C   UNL     1     -10.473   7.427  67.816  1.00  0.00    -0.298 C  
HETATM    9  C   UNL     1      -8.820   8.626  69.333  1.00  0.00    -0.144 C  
BRANCH   9  10
HETATM   10  C   UNL     1      -9.626   8.216  70.564  1.00  0.00    -0.177 C  
BRANCH  10  11
HETATM   11  C   UNL     1     -10.420   9.375  71.146  1.00  0.00    -0.392 C  
HETATM   12  C   UNL     1     -11.933   9.211  70.898  1.00  0.00    -0.299 C  
HETATM   13  C   UNL     1     -12.712  10.443  71.381  1.00  0.00    -0.551 C  
HETATM   14  C   UNL     1     -12.505   7.963  71.582  1.00  0.00    -0.344 C  
BRANCH  13  15
HETATM   15  C   UNL     1     -12.282  11.769  70.755  1.00  0.00    -0.424 C  
BRANCH  15  16
HETATM   16  C   UNL     1     -11.860  11.674  69.276  1.00  0.00    -0.396 C  
BRANCH  16  17
HETATM   17  C   UNL     1     -11.502  13.047  68.641  1.00  0.00    -0.307 C  
HETATM   18  C   UNL     1     -11.953  14.173  69.598  1.00  0.00    -0.389 C  
HETATM   19  C   UNL     1     -12.114  13.117  67.242  1.00  0.00    -0.329 C  
HETATM   20  C   UNL     1     -11.788  14.437  66.586  1.00  0.00    -0.417 C  
HETATM   21  C   UNL     1     -10.360  14.851  66.817  1.00  0.00    -0.269 A  
HETATM   22  C   UNL     1      -9.834  15.971  66.147  1.00  0.00    -0.351 A  
HETATM   23  C   UNL     1     -10.688  16.801  65.221  1.00  0.00    -0.183 C  
HETATM   24  C   UNL     1      -8.489  16.312  66.368  1.00  0.00    -0.330 A  
HETATM   25  C   UNL     1      -7.666  15.589  67.255  1.00  0.00    -0.244 A  
HETATM   26  O   UNL     1      -7.920  17.384  65.730  1.00  0.00    -0.538 OA 
HETATM   27  C   UNL     1      -6.230  15.999  67.458  1.00  0.00    -0.194 C  
HETATM   28  C   UNL     1      -8.212  14.487  67.955  1.00  0.00    -0.155 A  
HETATM   29  H   UNL     1      -7.011  17.615  65.880  1.00  0.00     0.000 HD 
HETATM   30  C   UNL     1      -9.564  14.142  67.742  1.00  0.00    -0.219 A  
HETATM   31  C   UNL     1      -7.404  13.679  68.940  1.00  0.00    -0.060 C  
HETATM   32  O   UNL     1     -10.061  13.105  68.511  1.00  0.00    -0.238 OA 
ENDBRANCH  16  17
ENDBRANCH  15  16
ENDBRANCH  13  15
ENDBRANCH  10  11
ENDBRANCH   9  10
ENDBRANCH   5   6
ENDBRANCH   4   5
TORSDOF 7
ENDMDL
MODEL       16
REMARK 921   NORMALIZED FREE ENERGY PREDICTED BY IDOCK:   -7.06 KCAL/MOL
REMARK 922        TOTAL FREE ENERGY PREDICTED BY IDOCK:  -11.71 KCAL/MOL
REMARK 923 INTER-LIGAND FREE ENERGY PREDICTED BY IDOCK:  -10.03 KCAL/MOL
REMARK 924 INTRA-LIGAND FREE ENERGY PREDICTED BY IDOCK:   -1.68 KCAL/MOL
REMARK 927      BINDING AFFINITY PREDICTED BY RF-SCORE:    0.00 PKD
ROOT
HETATM    1  C   UNL     1      -8.661  19.740  67.660  1.00  0.00    -0.376 C  
HETATM    2  C   UNL     1      -9.875  18.904  67.262  1.00  0.00    -0.368 C  
HETATM    3  C   UNL     1     -10.577  19.549  66.063  1.00  0.00    -0.589 C  
HETATM    4  C   UNL     1      -9.440  17.450  66.989  1.00  0.00    -0.268 C  
ENDROOT
BRANCH   4   5
HETATM    5  C   UNL     1     -10.619  16.565  66.596  1.00  0.00    -0.216 C  
BRANCH   5   6
HETATM    6  C   UNL     1     -10.307  15.652  65.414  1.00  0.00    -0.421 C  
HETATM    7  C   UNL     1     -10.885  14.235  65.617  1.00  0.00    -0.311 C  
HETATM    8  C   UNL     1     -12.411  14.256  65.786  1.00  0.00    -0.421 C  
HETATM    9  C   UNL     1     -10.456  13.335  64.443  1.00  0.00    -0.424 C  
BRANCH   9  10
HETATM   10  C   UNL     1     -11.000  11.916  64.591  1.00  0.00    -0.370 C  
BRANCH  10  11
HETATM   11  C   UNL     1     -10.089  11.032  65.428  1.00  0.00    -0.326 C  
HETATM   12  C   UNL     1      -9.479   9.888  64.592  1.00  0.00    -0.343 C  
HETATM   13  C   UNL     1      -8.660   8.933  65.472  1.00  0.00    -0.191 C  
HETATM   14  C   UNL     1      -8.587  10.406  63.457  1.00  0.00    -0.188 C  
BRANCH  13  15
HETATM   15  C   UNL     1      -9.428   8.300  66.632  1.00  0.00    -0.271 C  
BRANCH  15  16
HETATM   16  C   UNL     1      -8.656   8.251  67.964  1.00  0.00    -0.132 C  
BRANCH  16  17
HETATM   17  C   UNL     1      -9.491   8.725  69.186  1.00  0.00    -0.157 C  
HETATM   18  C   UNL     1      -8.546   8.924  70.391  1.00  0.00    -0.198 C  
HETATM   19  C   UNL     1     -10.626   7.728  69.423  1.00  0.00    -0.211 C  
HETATM   20  C   UNL     1     -11.466   8.153  70.603  1.00  0.00    -0.237 C  
HETATM   21  C   UNL     1     -11.736   9.633  70.607  1.00  0.00    -0.353 A  
HETATM   22  C   UNL     1     -12.636  10.182  71.540  1.00  0.00    -0.537 A  
HETATM   23  C   UNL     1     -13.314   9.320  72.574  1.00  0.00    -0.463 C  
HETATM   24  C   UNL     1     -12.882  11.565  71.498  1.00  0.00    -0.380 A  
HETATM   25  C   UNL     1     -12.240  12.415  70.574  1.00  0.00    -0.382 A  
HETATM   26  O   UNL     1     -13.760  12.151  72.372  1.00  0.00    -0.538 OA 
HETATM   27  C   UNL     1     -12.538  13.892  70.573  1.00  0.00    -0.382 C  
HETATM   28  C   UNL     1     -11.308  11.862  69.665  1.00  0.00    -0.266 A  
HETATM   29  H   UNL     1     -13.926  13.086  72.344  1.00  0.00     0.000 HD 
HETATM   30  C   UNL     1     -11.051  10.475  69.706  1.00  0.00    -0.295 A  
HETATM   31  C   UNL     1     -10.561  12.708  68.664  1.00  0.00    -0.245 C  
HETATM   32  O   UNL     1     -10.075  10.006  68.844  1.00  0.00    -0.173 OA 
ENDBRANCH  16  17
ENDBRANCH  15  16
ENDBRANCH  13  15
ENDBRANCH  10  11
ENDBRANCH   9  10
ENDBRANCH   5   6
ENDBRANCH   4   5
TORSDOF 7
ENDMDL
MODEL       17
REMARK 921   NORMALIZED FREE ENERGY PREDICTED BY IDOCK:   -7.04 KCAL/MOL
REMARK 922        TOTAL FREE ENERGY PREDICTED BY IDOCK:  -11.68 KCAL/MOL
REMARK 923 INTER-LIGAND FREE ENERGY PREDICTED BY IDOCK:  -10.35 KCAL/MOL
REMARK 924 INTRA-LIGAND FREE ENERGY PREDICTED BY IDOCK:   -1.33 KCAL/MOL
REMARK 927      BINDING AFFINITY PREDICTED BY RF-SCORE:    0.00 PKD
ROOT
HETATM    1  C   UNL     1     -13.866  15.849  73.030  1.00  0.00    -0.477 C  
HETATM    2  C   UNL     1     -12.895  14.892  72.344  1.00  0.00    -0.430 C  
HETATM    3  C   UNL     1     -13.492  13.482  72.314  1.00  0.00    -0.669 C  
HETATM    4  C   UNL     1     -12.544  15.423  70.940  1.00  0.00    -0.496 C  
ENDROOT
BRANCH   4   5
HETATM    5  C   UNL     1     -11.565  14.507  70.211  1.00  0.00    -0.328 C  
BRANCH   5   6
HETATM    6  C   UNL     1     -12.150  13.911  68.933  1.00  0.00    -0.355 C  
HETATM    7  C   UNL     1     -11.447  14.458  67.672  1.00  0.00    -0.369 C  
HETATM    8  C   UNL     1      -9.942  14.148  67.673  1.00  0.00    -0.233 C  
HETATM    9  C   UNL     1     -12.141  13.898  66.416  1.00  0.00    -0.489 C  
BRANCH   9  10
HETATM   10  C   UNL     1     -11.486  14.408  65.134  1.00  0.00    -0.362 C  
BRANCH  10  11
HETATM   11  C   UNL     1     -10.603  13.358  64.479  1.00  0.00    -0.441 C  
HETATM   12  C   UNL     1     -11.353  12.024  64.284  1.00  0.00    -0.433 C  
HETATM   13  C   UNL     1     -10.417  10.937  63.736  1.00  0.00    -0.329 C  
HETATM   14  C   UNL     1     -12.556  12.163  63.345  1.00  0.00    -0.584 C  
BRANCH  13  15
HETATM   15  C   UNL     1      -9.182  10.653  64.590  1.00  0.00    -0.262 C  
BRANCH  15  16
HETATM   16  C   UNL     1      -9.324  11.037  66.074  1.00  0.00    -0.225 C  
BRANCH  16  17
HETATM   17  C   UNL     1      -9.312   9.818  67.038  1.00  0.00    -0.147 C  
HETATM   18  C   UNL     1      -7.934   9.741  67.730  1.00  0.00    -0.101 C  
HETATM   19  C   UNL     1      -9.701   8.565  66.252  1.00  0.00    -0.300 C  
HETATM   20  C   UNL     1      -9.704   7.354  67.153  1.00  0.00    -0.223 C  
HETATM   21  C   UNL     1     -10.329   7.640  68.490  1.00  0.00    -0.225 A  
HETATM   22  C   UNL     1     -10.565   6.590  69.397  1.00  0.00    -0.291 A  
HETATM   23  C   UNL     1     -10.166   5.172  69.073  1.00  0.00    -0.241 C  
HETATM   24  C   UNL     1     -11.173   6.892  70.628  1.00  0.00    -0.301 A  
HETATM   25  C   UNL     1     -11.526   8.209  70.989  1.00  0.00    -0.301 A  
HETATM   26  O   UNL     1     -11.440   5.906  71.542  1.00  0.00    -0.252 OA 
HETATM   27  C   UNL     1     -12.174   8.478  72.322  1.00  0.00    -0.454 C  
HETATM   28  C   UNL     1     -11.251   9.264  70.089  1.00  0.00    -0.237 A  
HETATM   29  H   UNL     1     -11.851   6.111  72.374  1.00  0.00     0.000 HD 
HETATM   30  C   UNL     1     -10.634   8.970  68.854  1.00  0.00    -0.180 A  
HETATM   31  C   UNL     1     -11.574  10.702  70.412  1.00  0.00    -0.441 C  
HETATM   32  O   UNL     1     -10.322  10.051  68.050  1.00  0.00    -0.175 OA 
ENDBRANCH  16  17
ENDBRANCH  15  16
ENDBRANCH  13  15
ENDBRANCH  10  11
ENDBRANCH   9  10
ENDBRANCH   5   6
ENDBRANCH   4   5
TORSDOF 7
ENDMDL
MODEL       18
REMARK 921   NORMALIZED FREE ENERGY PREDICTED BY IDOCK:   -7.03 KCAL/MOL
REMARK 922        TOTAL FREE ENERGY PREDICTED BY IDOCK:  -11.66 KCAL/MOL
REMARK 923 INTER-LIGAND FREE ENERGY PREDICTED BY IDOCK:   -9.84 KCAL/MOL
REMARK 924 INTRA-LIGAND FREE ENERGY PREDICTED BY IDOCK:   -1.82 KCAL/MOL
REMARK 927      BINDING AFFINITY PREDICTED BY RF-SCORE:    0.00 PKD
ROOT
HETATM    1  C   UNL     1     -13.661  14.903  72.804  1.00  0.00    -0.501 C  
HETATM    2  C   UNL     1     -13.447  13.845  71.724  1.00  0.00    -0.464 C  
HETATM    3  C   UNL     1     -12.401  14.337  70.718  1.00  0.00    -0.427 C  
HETATM    4  C   UNL     1     -13.063  12.503  72.378  1.00  0.00    -0.170 C  
ENDROOT
BRANCH   4   5
HETATM    5  C   UNL     1     -12.846  11.404  71.342  1.00  0.00    -0.502 C  
BRANCH   5   6
HETATM    6  C   UNL     1     -13.106  10.005  71.896  1.00  0.00    -0.563 C  
HETATM    7  C   UNL     1     -12.162   8.957  71.271  1.00  0.00    -0.351 C  
HETATM    8  C   UNL     1     -10.684   9.284  71.535  1.00  0.00    -0.425 C  
HETATM    9  C   UNL     1     -12.535   7.557  71.794  1.00  0.00    -0.360 C  
BRANCH   9  10
HETATM   10  C   UNL     1     -11.631   6.475  71.205  1.00  0.00    -0.381 C  
BRANCH  10  11
HETATM   11  C   UNL     1     -11.596   6.515  69.686  1.00  0.00    -0.348 C  
HETATM   12  C   UNL     1     -10.185   6.216  69.140  1.00  0.00    -0.242 C  
HETATM   13  C   UNL     1     -10.133   6.379  67.614  1.00  0.00    -0.181 C  
HETATM   14  C   UNL     1      -9.705   4.806  69.505  1.00  0.00    -0.271 C  
BRANCH  13  15
HETATM   15  C   UNL     1     -10.547   7.756  67.095  1.00  0.00    -0.401 C  
BRANCH  15  16
HETATM   16  C   UNL     1      -9.520   8.428  66.165  1.00  0.00    -0.263 C  
BRANCH  16  17
HETATM   17  C   UNL     1      -9.335   9.948  66.436  1.00  0.00    -0.167 C  
HETATM   18  C   UNL     1      -7.957  10.388  65.895  1.00  0.00    -0.151 C  
HETATM   19  C   UNL     1      -9.548  10.212  67.927  1.00  0.00    -0.166 C  
HETATM   20  C   UNL     1      -9.379  11.680  68.235  1.00  0.00    -0.191 C  
HETATM   21  C   UNL     1     -10.034  12.557  67.203  1.00  0.00    -0.217 A  
HETATM   22  C   UNL     1     -10.118  13.947  67.411  1.00  0.00    -0.244 A  
HETATM   23  C   UNL     1      -9.527  14.591  68.639  1.00  0.00    -0.205 C  
HETATM   24  C   UNL     1     -10.759  14.731  66.436  1.00  0.00    -0.313 A  
HETATM   25  C   UNL     1     -11.290  14.176  65.254  1.00  0.00    -0.328 A  
HETATM   26  O   UNL     1     -10.883  16.088  66.594  1.00  0.00    -0.285 OA 
HETATM   27  C   UNL     1     -11.965  15.063  64.240  1.00  0.00    -0.310 C  
HETATM   28  C   UNL     1     -11.168  12.785  65.034  1.00  0.00    -0.333 A  
HETATM   29  H   UNL     1     -11.316  16.618  65.935  1.00  0.00     0.000 HD 
HETATM   30  C   UNL     1     -10.520  11.991  66.005  1.00  0.00    -0.249 A  
HETATM   31  C   UNL     1     -11.687  12.119  63.783  1.00  0.00    -0.576 C  
HETATM   32  O   UNL     1     -10.365  10.651  65.698  1.00  0.00    -0.255 OA 
ENDBRANCH  16  17
ENDBRANCH  15  16
ENDBRANCH  13  15
ENDBRANCH  10  11
ENDBRANCH   9  10
ENDBRANCH   5   6
ENDBRANCH   4   5
TORSDOF 7
ENDMDL
MODEL       19
REMARK 921   NORMALIZED FREE ENERGY PREDICTED BY IDOCK:   -7.01 KCAL/MOL
REMARK 922        TOTAL FREE ENERGY PREDICTED BY IDOCK:  -11.63 KCAL/MOL
REMARK 923 INTER-LIGAND FREE ENERGY PREDICTED BY IDOCK:   -9.34 KCAL/MOL
REMARK 924 INTRA-LIGAND FREE ENERGY PREDICTED BY IDOCK:   -2.29 KCAL/MOL
REMARK 927      BINDING AFFINITY PREDICTED BY RF-SCORE:    0.00 PKD
ROOT
HETATM    1  C   UNL     1     -13.136  10.277  71.156  1.00  0.00    -0.481 C  
HETATM    2  C   UNL     1     -11.669   9.908  71.367  1.00  0.00    -0.449 C  
HETATM    3  C   UNL     1     -11.570   8.502  71.965  1.00  0.00    -0.432 C  
HETATM    4  C   UNL     1     -10.900  10.049  70.038  1.00  0.00    -0.352 C  
ENDROOT
BRANCH   4   5
HETATM    5  C   UNL     1      -9.423   9.702  70.194  1.00  0.00    -0.298 C  
BRANCH   5   6
HETATM    6  C   UNL     1      -8.981   8.562  69.280  1.00  0.00    -0.146 C  
HETATM    7  C   UNL     1      -8.443   9.085  67.931  1.00  0.00    -0.121 C  
HETATM    8  C   UNL     1      -7.234  10.014  68.117  1.00  0.00    -0.081 C  
HETATM    9  C   UNL     1      -8.106   7.892  67.017  1.00  0.00    -0.116 C  
BRANCH   9  10
HETATM   10  C   UNL     1      -7.568   8.351  65.664  1.00  0.00    -0.089 C  
BRANCH  10  11
HETATM   11  C   UNL     1      -8.671   8.845  64.741  1.00  0.00    -0.162 C  
HETATM   12  C   UNL     1      -8.183   9.990  63.830  1.00  0.00    -0.159 C  
HETATM   13  C   UNL     1      -9.335  10.562  62.991  1.00  0.00    -0.343 C  
HETATM   14  C   UNL     1      -7.056   9.546  62.889  1.00  0.00    -0.105 C  
BRANCH  13  15
HETATM   15  C   UNL     1     -10.525  11.086  63.794  1.00  0.00    -0.408 C  
BRANCH  15  16
HETATM   16  C   UNL     1     -10.486  12.597  64.088  1.00  0.00    -0.438 C  
BRANCH  16  17
HETATM   17  C   UNL     1     -10.572  12.940  65.602  1.00  0.00    -0.277 C  
HETATM   18  C   UNL     1      -9.313  12.393  66.310  1.00  0.00    -0.189 C  
HETATM   19  C   UNL     1     -11.895  12.408  66.153  1.00  0.00    -0.442 C  
HETATM   20  C   UNL     1     -12.021  12.722  67.625  1.00  0.00    -0.331 C  
HETATM   21  C   UNL     1     -11.564  14.117  67.950  1.00  0.00    -0.370 A  
HETATM   22  C   UNL     1     -11.760  14.639  69.243  1.00  0.00    -0.348 A  
HETATM   23  C   UNL     1     -12.389  13.810  70.334  1.00  0.00    -0.423 C  
HETATM   24  C   UNL     1     -11.342  15.956  69.503  1.00  0.00    -0.335 A  
HETATM   25  C   UNL     1     -10.713  16.752  68.525  1.00  0.00    -0.358 A  
HETATM   26  O   UNL     1     -11.522  16.520  70.740  1.00  0.00    -0.562 OA 
HETATM   27  C   UNL     1     -10.282  18.158  68.858  1.00  0.00    -0.304 C  
HETATM   28  C   UNL     1     -10.484  16.208  67.240  1.00  0.00    -0.309 A  
HETATM   29  H   UNL     1     -11.239  17.410  70.916  1.00  0.00     0.000 HD 
HETATM   30  C   UNL     1     -10.895  14.884  66.972  1.00  0.00    -0.315 A  
HETATM   31  C   UNL     1      -9.794  16.987  66.147  1.00  0.00    -0.297 C  
HETATM   32  O   UNL     1     -10.576  14.383  65.723  1.00  0.00    -0.295 OA 
ENDBRANCH  16  17
ENDBRANCH  15  16
ENDBRANCH  13  15
ENDBRANCH  10  11
ENDBRANCH   9  10
ENDBRANCH   5   6
ENDBRANCH   4   5
TORSDOF 7
ENDMDL
MODEL       20
REMARK 921   NORMALIZED FREE ENERGY PREDICTED BY IDOCK:   -6.99 KCAL/MOL
REMARK 922        TOTAL FREE ENERGY PREDICTED BY IDOCK:  -11.60 KCAL/MOL
REMARK 923 INTER-LIGAND FREE ENERGY PREDICTED BY IDOCK:   -8.93 KCAL/MOL
REMARK 924 INTRA-LIGAND FREE ENERGY PREDICTED BY IDOCK:   -2.67 KCAL/MOL
REMARK 927      BINDING AFFINITY PREDICTED BY RF-SCORE:    0.00 PKD
ROOT
HETATM    1  C   UNL     1      -6.821   6.666  66.049  1.00  0.00    -0.053 C  
HETATM    2  C   UNL     1      -7.713   6.991  67.246  1.00  0.00    -0.109 C  
HETATM    3  C   UNL     1      -7.132   8.180  68.017  1.00  0.00    -0.086 C  
HETATM    4  C   UNL     1      -9.158   7.236  66.768  1.00  0.00    -0.172 C  
ENDROOT
BRANCH   4   5
HETATM    5  C   UNL     1     -10.097   7.555  67.928  1.00  0.00    -0.226 C  
BRANCH   5   6
HETATM    6  C   UNL     1     -10.743   8.933  67.807  1.00  0.00    -0.204 C  
HETATM    7  C   UNL     1     -11.075   9.532  69.189  1.00  0.00    -0.082 C  
HETATM    8  C   UNL     1      -9.821   9.692  70.063  1.00  0.00    -0.286 C  
HETATM    9  C   UNL     1     -11.810  10.873  69.002  1.00  0.00    -0.370 C  
BRANCH   9  10
HETATM   10  C   UNL     1     -12.166  11.514  70.342  1.00  0.00    -0.442 C  
BRANCH  10  11
HETATM   11  C   UNL     1     -11.691  12.954  70.438  1.00  0.00    -0.109 C  
HETATM   12  C   UNL     1     -12.803  13.888  70.957  1.00  0.00    -0.394 C  
HETATM   13  C   UNL     1     -12.351  15.357  70.934  1.00  0.00    -0.452 C  
HETATM   14  C   UNL     1     -13.250  13.530  72.379  1.00  0.00    -0.577 C  
BRANCH  13  15
HETATM   15  C   UNL     1     -11.911  15.878  69.566  1.00  0.00    -0.310 C  
BRANCH  15  16
HETATM   16  C   UNL     1     -10.580  15.295  69.054  1.00  0.00    -0.245 C  
BRANCH  16  17
HETATM   17  C   UNL     1     -10.659  14.739  67.605  1.00  0.00    -0.262 C  
HETATM   18  C   UNL     1      -9.969  15.736  66.649  1.00  0.00    -0.268 C  
HETATM   19  C   UNL     1     -12.121  14.444  67.270  1.00  0.00    -0.358 C  
HETATM   20  C   UNL     1     -12.245  13.898  65.868  1.00  0.00    -0.497 C  
HETATM   21  C   UNL     1     -11.171  12.893  65.552  1.00  0.00    -0.319 A  
HETATM   22  C   UNL     1     -11.223  12.161  64.351  1.00  0.00    -0.400 A  
HETATM   23  C   UNL     1     -12.321  12.389  63.343  1.00  0.00    -0.603 C  
HETATM   24  C   UNL     1     -10.215  11.214  64.100  1.00  0.00    -0.347 A  
HETATM   25  C   UNL     1      -9.148  10.996  64.996  1.00  0.00    -0.182 A  
HETATM   26  O   UNL     1     -10.225  10.462  62.954  1.00  0.00    -0.591 OA 
HETATM   27  C   UNL     1      -8.092   9.969  64.678  1.00  0.00    -0.155 C  
HETATM   28  C   UNL     1      -9.081  11.762  66.183  1.00  0.00    -0.189 A  
HETATM   29  H   UNL     1      -9.544   9.822  62.784  1.00  0.00     0.000 HD 
HETATM   30  C   UNL     1     -10.086  12.721  66.438  1.00  0.00    -0.259 A  
HETATM   31  C   UNL     1      -7.958  11.608  67.179  1.00  0.00    -0.163 C  
HETATM   32  O   UNL     1      -9.925  13.491  67.576  1.00  0.00    -0.225 OA 
ENDBRANCH  16  17
ENDBRANCH  15  16
ENDBRANCH  13  15
ENDBRANCH  10  11
ENDBRANCH   9  10
ENDBRANCH   5   6
ENDBRANCH   4   5
TORSDOF 7
ENDMDL
MODEL       21
REMARK 921   NORMALIZED FREE ENERGY PREDICTED BY IDOCK:   -6.99 KCAL/MOL
REMARK 922        TOTAL FREE ENERGY PREDICTED BY IDOCK:  -11.60 KCAL/MOL
REMARK 923 INTER-LIGAND FREE ENERGY PREDICTED BY IDOCK:  -10.35 KCAL/MOL
REMARK 924 INTRA-LIGAND FREE ENERGY PREDICTED BY IDOCK:   -1.25 KCAL/MOL
REMARK 927      BINDING AFFINITY PREDICTED BY RF-SCORE:    0.00 PKD
ROOT
HETATM    1  C   UNL     1      -8.462   5.767  70.707  1.00  0.00    -0.125 C  
HETATM    2  C   UNL     1      -9.398   6.765  70.030  1.00  0.00    -0.158 C  
HETATM    3  C   UNL     1     -10.774   6.126  69.824  1.00  0.00    -0.376 C  
HETATM    4  C   UNL     1      -9.459   8.066  70.856  1.00  0.00    -0.178 C  
ENDROOT
BRANCH   4   5
HETATM    5  C   UNL     1     -10.375   9.105  70.217  1.00  0.00    -0.253 C  
BRANCH   5   6
HETATM    6  C   UNL     1     -11.560   9.477  71.104  1.00  0.00    -0.439 C  
HETATM    7  C   UNL     1     -11.962  10.957  70.933  1.00  0.00    -0.416 C  
HETATM    8  C   UNL     1     -12.357  11.281  69.485  1.00  0.00    -0.243 C  
HETATM    9  C   UNL     1     -13.095  11.297  71.920  1.00  0.00    -0.510 C  
BRANCH   9  10
HETATM   10  C   UNL     1     -13.533  12.754  71.796  1.00  0.00    -0.343 C  
BRANCH  10  11
HETATM   11  C   UNL     1     -12.395  13.665  71.364  1.00  0.00    -0.301 C  
HETATM   12  C   UNL     1     -12.643  15.127  71.789  1.00  0.00    -0.418 C  
HETATM   13  C   UNL     1     -11.549  16.057  71.241  1.00  0.00    -0.506 C  
HETATM   14  C   UNL     1     -12.714  15.288  73.312  1.00  0.00    -0.628 C  
BRANCH  13  15
HETATM   15  C   UNL     1     -11.383  16.039  69.722  1.00  0.00    -0.331 C  
BRANCH  15  16
HETATM   16  C   UNL     1     -10.250  15.129  69.211  1.00  0.00    -0.251 C  
BRANCH  16  17
HETATM   17  C   UNL     1     -10.446  14.657  67.743  1.00  0.00    -0.246 C  
HETATM   18  C   UNL     1      -9.787  15.683  66.795  1.00  0.00    -0.255 C  
HETATM   19  C   UNL     1     -11.936  14.425  67.494  1.00  0.00    -0.389 C  
HETATM   20  C   UNL     1     -12.172  13.962  66.076  1.00  0.00    -0.495 C  
HETATM   21  C   UNL     1     -11.157  12.944  65.634  1.00  0.00    -0.307 A  
HETATM   22  C   UNL     1     -11.314  12.281  64.402  1.00  0.00    -0.396 A  
HETATM   23  C   UNL     1     -12.469  12.599  63.486  1.00  0.00    -0.516 C  
HETATM   24  C   UNL     1     -10.359  11.319  64.033  1.00  0.00    -0.371 A  
HETATM   25  C   UNL     1      -9.243  11.019  64.841  1.00  0.00    -0.210 A  
HETATM   26  O   UNL     1     -10.471  10.632  62.852  1.00  0.00    -0.705 OA 
HETATM   27  C   UNL     1      -8.246   9.980  64.397  1.00  0.00    -0.165 C  
HETATM   28  C   UNL     1      -9.070  11.716  66.059  1.00  0.00    -0.188 A  
HETATM   29  H   UNL     1      -9.825   9.982  62.602  1.00  0.00     0.000 HD 
HETATM   30  C   UNL     1     -10.022  12.690  66.433  1.00  0.00    -0.255 A  
HETATM   31  C   UNL     1      -7.889  11.472  66.966  1.00  0.00    -0.161 C  
HETATM   32  O   UNL     1      -9.758  13.390  67.597  1.00  0.00    -0.212 OA 
ENDBRANCH  16  17
ENDBRANCH  15  16
ENDBRANCH  13  15
ENDBRANCH  10  11
ENDBRANCH   9  10
ENDBRANCH   5   6
ENDBRANCH   4   5
TORSDOF 7
ENDMDL
MODEL       22
REMARK 921   NORMALIZED FREE ENERGY PREDICTED BY IDOCK:   -6.97 KCAL/MOL
REMARK 922        TOTAL FREE ENERGY PREDICTED BY IDOCK:  -11.58 KCAL/MOL
REMARK 923 INTER-LIGAND FREE ENERGY PREDICTED BY IDOCK:   -8.85 KCAL/MOL
REMARK 924 INTRA-LIGAND FREE ENERGY PREDICTED BY IDOCK:   -2.73 KCAL/MOL
REMARK 927      BINDING AFFINITY PREDICTED BY RF-SCORE:    0.00 PKD
ROOT
HETATM    1  C   UNL     1      -8.315  19.482  66.374  1.00  0.00    -0.364 C  
HETATM    2  C   UNL     1      -9.646  18.754  66.547  1.00  0.00    -0.369 C  
HETATM    3  C   UNL     1     -10.769  19.567  65.894  1.00  0.00    -0.518 C  
HETATM    4  C   UNL     1      -9.536  17.324  65.982  1.00  0.00    -0.165 C  
ENDROOT
BRANCH   4   5
HETATM    5  C   UNL     1     -10.839  16.546  66.139  1.00  0.00    -0.050 C  
BRANCH   5   6
HETATM    6  C   UNL     1     -11.287  15.871  64.845  1.00  0.00    -0.259 C  
HETATM    7  C   UNL     1     -11.439  14.345  65.017  1.00  0.00    -0.372 C  
HETATM    8  C   UNL     1     -12.471  13.989  66.097  1.00  0.00    -0.467 C  
HETATM    9  C   UNL     1     -11.796  13.710  63.660  1.00  0.00    -0.304 C  
BRANCH   9  10
HETATM   10  C   UNL     1     -11.958  12.196  63.770  1.00  0.00    -0.607 C  
BRANCH  10  11
HETATM   11  C   UNL     1     -10.900  11.565  64.662  1.00  0.00    -0.372 C  
HETATM   12  C   UNL     1      -9.997  10.593  63.874  1.00  0.00    -0.390 C  
HETATM   13  C   UNL     1      -9.012   9.871  64.806  1.00  0.00    -0.255 C  
HETATM   14  C   UNL     1      -9.204  11.300  62.768  1.00  0.00    -0.354 C  
BRANCH  13  15
HETATM   15  C   UNL     1      -9.658   9.082  65.945  1.00  0.00    -0.317 C  
BRANCH  15  16
HETATM   16  C   UNL     1      -8.924   9.185  67.295  1.00  0.00    -0.136 C  
BRANCH  16  17
HETATM   17  C   UNL     1      -9.479  10.302  68.223  1.00  0.00    -0.142 C  
HETATM   18  C   UNL     1      -9.059   9.998  69.678  1.00  0.00    -0.230 C  
HETATM   19  C   UNL     1     -10.987  10.418  68.006  1.00  0.00    -0.347 C  
HETATM   20  C   UNL     1     -11.568  11.496  68.889  1.00  0.00    -0.384 C  
HETATM   21  C   UNL     1     -10.705  12.728  68.926  1.00  0.00    -0.199 A  
HETATM   22  C   UNL     1     -11.168  13.893  69.567  1.00  0.00    -0.237 A  
HETATM   23  C   UNL     1     -12.507  13.926  70.258  1.00  0.00    -0.380 C  
HETATM   24  C   UNL     1     -10.344  15.032  69.561  1.00  0.00    -0.220 A  
HETATM   25  C   UNL     1      -9.068  15.033  68.961  1.00  0.00    -0.205 A  
HETATM   26  O   UNL     1     -10.751  16.198  70.156  1.00  0.00    -0.321 OA 
HETATM   27  C   UNL     1      -8.224  16.281  68.985  1.00  0.00    -0.238 C  
HETATM   28  C   UNL     1      -8.594  13.848  68.353  1.00  0.00    -0.169 A  
HETATM   29  H   UNL     1     -10.194  16.968  70.152  1.00  0.00     0.000 HD 
HETATM   30  C   UNL     1      -9.413  12.698  68.361  1.00  0.00    -0.163 A  
HETATM   31  C   UNL     1      -7.230  13.761  67.713  1.00  0.00    -0.169 C  
HETATM   32  O   UNL     1      -8.864  11.550  67.818  1.00  0.00    -0.144 OA 
ENDBRANCH  16  17
ENDBRANCH  15  16
ENDBRANCH  13  15
ENDBRANCH  10  11
ENDBRANCH   9  10
ENDBRANCH   5   6
ENDBRANCH   4   5
TORSDOF 7
ENDMDL
MODEL       23
REMARK 921   NORMALIZED FREE ENERGY PREDICTED BY IDOCK:   -6.96 KCAL/MOL
REMARK 922        TOTAL FREE ENERGY PREDICTED BY IDOCK:  -11.56 KCAL/MOL
REMARK 923 INTER-LIGAND FREE ENERGY PREDICTED BY IDOCK:   -9.93 KCAL/MOL
REMARK 924 INTRA-LIGAND FREE ENERGY PREDICTED BY IDOCK:   -1.63 KCAL/MOL
REMARK 927      BINDING AFFINITY PREDICTED BY RF-SCORE:    0.00 PKD
ROOT
HETATM    1  C   UNL     1     -14.236   8.509  72.408  1.00  0.00    -0.406 C  
HETATM    2  C   UNL     1     -13.137   9.197  71.602  1.00  0.00    -0.431 C  
HETATM    3  C   UNL     1     -13.121  10.695  71.922  1.00  0.00    -0.563 C  
HETATM    4  C   UNL     1     -11.783   8.513  71.878  1.00  0.00    -0.409 C  
ENDROOT
BRANCH   4   5
HETATM    5  C   UNL     1     -10.647   9.156  71.088  1.00  0.00    -0.379 C  
BRANCH   5   6
HETATM    6  C   UNL     1     -10.286   8.377  69.826  1.00  0.00    -0.207 C  
HETATM    7  C   UNL     1      -9.509   9.249  68.818  1.00  0.00    -0.150 C  
HETATM    8  C   UNL     1      -8.198   9.785  69.411  1.00  0.00    -0.135 C  
HETATM    9  C   UNL     1      -9.260   8.441  67.529  1.00  0.00    -0.158 C  
BRANCH   9  10
HETATM   10  C   UNL     1      -8.493   9.257  66.491  1.00  0.00    -0.131 C  
BRANCH  10  11
HETATM   11  C   UNL     1      -9.405   9.825  65.415  1.00  0.00    -0.311 C  
HETATM   12  C   UNL     1      -8.682   9.938  64.057  1.00  0.00    -0.229 C  
HETATM   13  C   UNL     1      -9.572  10.625  63.010  1.00  0.00    -0.379 C  
HETATM   14  C   UNL     1      -8.242   8.573  63.515  1.00  0.00    -0.133 C  
BRANCH  13  15
HETATM   15  C   UNL     1     -10.061  12.022  63.391  1.00  0.00    -0.437 C  
BRANCH  15  16
HETATM   16  C   UNL     1     -11.429  12.053  64.099  1.00  0.00    -0.460 C  
BRANCH  16  17
HETATM   17  C   UNL     1     -11.615  13.275  65.042  1.00  0.00    -0.316 C  
HETATM   18  C   UNL     1     -13.031  13.855  64.835  1.00  0.00    -0.095 C  
HETATM   19  C   UNL     1     -10.478  14.266  64.794  1.00  0.00    -0.421 C  
HETATM   20  C   UNL     1     -10.619  15.470  65.693  1.00  0.00    -0.389 C  
HETATM   21  C   UNL     1     -11.009  15.091  67.096  1.00  0.00    -0.329 A  
HETATM   22  C   UNL     1     -11.028  16.067  68.110  1.00  0.00    -0.339 A  
HETATM   23  C   UNL     1     -10.700  17.508  67.814  1.00  0.00    -0.333 C  
HETATM   24  C   UNL     1     -11.374  15.671  69.413  1.00  0.00    -0.330 A  
HETATM   25  C   UNL     1     -11.726  14.342  69.727  1.00  0.00    -0.367 A  
HETATM   26  O   UNL     1     -11.393  16.576  70.443  1.00  0.00    -0.496 OA 
HETATM   27  C   UNL     1     -12.091  13.971  71.141  1.00  0.00    -0.355 C  
HETATM   28  C   UNL     1     -11.742  13.374  68.695  1.00  0.00    -0.384 A  
HETATM   29  H   UNL     1     -11.627  16.308  71.324  1.00  0.00     0.000 HD 
HETATM   30  C   UNL     1     -11.402  13.766  67.382  1.00  0.00    -0.324 A  
HETATM   31  C   UNL     1     -12.132  11.938  68.944  1.00  0.00    -0.213 C  
HETATM   32  O   UNL     1     -11.510  12.794  66.404  1.00  0.00    -0.318 OA 
ENDBRANCH  16  17
ENDBRANCH  15  16
ENDBRANCH  13  15
ENDBRANCH  10  11
ENDBRANCH   9  10
ENDBRANCH   5   6
ENDBRANCH   4   5
TORSDOF 7
ENDMDL
MODEL       24
REMARK 921   NORMALIZED FREE ENERGY PREDICTED BY IDOCK:   -6.90 KCAL/MOL
REMARK 922        TOTAL FREE ENERGY PREDICTED BY IDOCK:  -11.48 KCAL/MOL
REMARK 923 INTER-LIGAND FREE ENERGY PREDICTED BY IDOCK:   -9.63 KCAL/MOL
REMARK 924 INTRA-LIGAND FREE ENERGY PREDICTED BY IDOCK:   -1.86 KCAL/MOL
REMARK 927      BINDING AFFINITY PREDICTED BY RF-SCORE:    0.00 PKD
ROOT
HETATM    1  C   UNL     1     -13.120  16.026  73.566  1.00  0.00    -0.665 C  
HETATM    2  C   UNL     1     -12.386  15.095  72.604  1.00  0.00    -0.473 C  
HETATM    3  C   UNL     1     -13.301  13.931  72.211  1.00  0.00    -0.599 C  
HETATM    4  C   UNL     1     -11.880  15.895  71.387  1.00  0.00    -0.524 C  
ENDROOT
BRANCH   4   5
HETATM    5  C   UNL     1     -11.128  15.013  70.395  1.00  0.00    -0.263 C  
BRANCH   5   6
HETATM    6  C   UNL     1     -11.766  15.001  69.009  1.00  0.00    -0.351 C  
HETATM    7  C   UNL     1     -11.472  13.688  68.254  1.00  0.00    -0.348 C  
HETATM    8  C   UNL     1     -12.001  12.459  69.010  1.00  0.00    -0.291 C  
HETATM    9  C   UNL     1     -12.055  13.773  66.831  1.00  0.00    -0.454 C  
BRANCH   9  10
HETATM   10  C   UNL     1     -11.792  12.497  66.035  1.00  0.00    -0.478 C  
BRANCH  10  11
HETATM   11  C   UNL     1     -10.313  12.149  65.974  1.00  0.00    -0.268 C  
HETATM   12  C   UNL     1     -10.043  10.976  65.010  1.00  0.00    -0.354 C  
HETATM   13  C   UNL     1      -8.566  10.553  65.050  1.00  0.00    -0.184 C  
HETATM   14  C   UNL     1     -10.424  11.310  63.563  1.00  0.00    -0.457 C  
BRANCH  13  15
HETATM   15  C   UNL     1      -8.044  10.150  66.429  1.00  0.00    -0.122 C  
BRANCH  15  16
HETATM   16  C   UNL     1      -8.149   8.645  66.740  1.00  0.00    -0.101 C  
BRANCH  16  17
HETATM   17  C   UNL     1      -9.305   8.289  67.717  1.00  0.00    -0.138 C  
HETATM   18  C   UNL     1     -10.489   7.723  66.903  1.00  0.00    -0.388 C  
HETATM   19  C   UNL     1      -9.640   9.524  68.553  1.00  0.00    -0.150 C  
HETATM   20  C   UNL     1     -10.760   9.222  69.520  1.00  0.00    -0.236 C  
HETATM   21  C   UNL     1     -10.600   7.876  70.173  1.00  0.00    -0.237 A  
HETATM   22  C   UNL     1     -11.460   7.495  71.220  1.00  0.00    -0.298 A  
HETATM   23  C   UNL     1     -12.576   8.398  71.683  1.00  0.00    -0.362 C  
HETATM   24  C   UNL     1     -11.266   6.241  71.823  1.00  0.00    -0.284 A  
HETATM   25  C   UNL     1     -10.262   5.349  71.396  1.00  0.00    -0.279 A  
HETATM   26  O   UNL     1     -12.065   5.825  72.857  1.00  0.00    -0.543 OA 
HETATM   27  C   UNL     1     -10.098   4.014  72.075  1.00  0.00    -0.227 C  
HETATM   28  C   UNL     1      -9.425   5.722  70.318  1.00  0.00    -0.196 A  
HETATM   29  H   UNL     1     -11.934   4.977  73.264  1.00  0.00     0.000 HD 
HETATM   30  C   UNL     1      -9.619   6.978  69.702  1.00  0.00    -0.150 A  
HETATM   31  C   UNL     1      -8.345   4.813  69.785  1.00  0.00    -0.078 C  
HETATM   32  O   UNL     1      -8.821   7.254  68.607  1.00  0.00    -0.130 OA 
ENDBRANCH  16  17
ENDBRANCH  15  16
ENDBRANCH  13  15
ENDBRANCH  10  11
ENDBRANCH   9  10
ENDBRANCH   5   6
ENDBRANCH   4   5
TORSDOF 7
ENDMDL
MODEL       25
REMARK 921   NORMALIZED FREE ENERGY PREDICTED BY IDOCK:   -6.80 KCAL/MOL
REMARK 922        TOTAL FREE ENERGY PREDICTED BY IDOCK:  -11.34 KCAL/MOL
REMARK 923 INTER-LIGAND FREE ENERGY PREDICTED BY IDOCK:   -9.48 KCAL/MOL
REMARK 924 INTRA-LIGAND FREE ENERGY PREDICTED BY IDOCK:   -1.86 KCAL/MOL
REMARK 927      BINDING AFFINITY PREDICTED BY RF-SCORE:    0.00 PKD
ROOT
HETATM    1  C   UNL     1     -12.951  10.472  71.703  1.00  0.00    -0.581 C  
HETATM    2  C   UNL     1     -12.172   9.275  71.162  1.00  0.00    -0.373 C  
HETATM    3  C   UNL     1     -10.676   9.601  71.135  1.00  0.00    -0.365 C  
HETATM    4  C   UNL     1     -12.497   8.021  71.999  1.00  0.00    -0.357 C  
ENDROOT
BRANCH   4   5
HETATM    5  C   UNL     1     -11.751   6.789  71.494  1.00  0.00    -0.361 C  
BRANCH   5   6
HETATM    6  C   UNL     1     -11.888   6.589  69.987  1.00  0.00    -0.284 C  
HETATM    7  C   UNL     1     -10.568   6.103  69.352  1.00  0.00    -0.349 C  
HETATM    8  C   UNL     1     -10.100   4.767  69.949  1.00  0.00    -0.299 C  
HETATM    9  C   UNL     1     -10.738   6.013  67.824  1.00  0.00    -0.369 C  
BRANCH   9  10
HETATM   10  C   UNL     1      -9.458   5.537  67.140  1.00  0.00    -0.122 C  
BRANCH  10  11
HETATM   11  C   UNL     1      -8.546   6.691  66.755  1.00  0.00    -0.118 C  
HETATM   12  C   UNL     1      -7.747   7.214  67.966  1.00  0.00    -0.113 C  
HETATM   13  C   UNL     1      -6.922   8.455  67.593  1.00  0.00    -0.075 C  
HETATM   14  C   UNL     1      -6.807   6.151  68.549  1.00  0.00    -0.074 C  
BRANCH  13  15
HETATM   15  C   UNL     1      -7.729   9.625  67.031  1.00  0.00    -0.095 C  
BRANCH  15  16
HETATM   16  C   UNL     1      -9.049   9.910  67.772  1.00  0.00    -0.138 C  
BRANCH  16  17
HETATM   17  C   UNL     1      -9.976  10.912  67.029  1.00  0.00    -0.192 C  
HETATM   18  C   UNL     1     -11.303  11.038  67.811  1.00  0.00    -0.365 C  
HETATM   19  C   UNL     1     -10.133  10.455  65.579  1.00  0.00    -0.352 C  
HETATM   20  C   UNL     1     -11.027  11.404  64.818  1.00  0.00    -0.303 C  
HETATM   21  C   UNL     1     -10.733  12.844  65.138  1.00  0.00    -0.326 A  
HETATM   22  C   UNL     1     -11.357  13.870  64.403  1.00  0.00    -0.352 A  
HETATM   23  C   UNL     1     -12.354  13.559  63.316  1.00  0.00    -0.150 C  
HETATM   24  C   UNL     1     -11.039  15.203  64.714  1.00  0.00    -0.382 A  
HETATM   25  C   UNL     1     -10.143  15.541  65.749  1.00  0.00    -0.388 A  
HETATM   26  O   UNL     1     -11.605  16.242  64.021  1.00  0.00    -1.366 OA 
HETATM   27  C   UNL     1      -9.839  16.988  66.043  1.00  0.00    -0.263 C  
HETATM   28  C   UNL     1      -9.550  14.506  66.508  1.00  0.00    -0.311 A  
HETATM   29  H   UNL     1     -11.391  17.144  64.232  1.00  0.00     0.000 HD 
HETATM   30  C   UNL     1      -9.869  13.164  66.206  1.00  0.00    -0.283 A  
HETATM   31  C   UNL     1      -8.602  14.786  67.648  1.00  0.00    -0.180 C  
HETATM   32  O   UNL     1      -9.317  12.202  67.032  1.00  0.00    -0.190 OA 
ENDBRANCH  16  17
ENDBRANCH  15  16
ENDBRANCH  13  15
ENDBRANCH  10  11
ENDBRANCH   9  10
ENDBRANCH   5   6
ENDBRANCH   4   5
TORSDOF 7
ENDMDL
MODEL       26
REMARK 921   NORMALIZED FREE ENERGY PREDICTED BY IDOCK:   -6.76 KCAL/MOL
REMARK 922        TOTAL FREE ENERGY PREDICTED BY IDOCK:  -11.28 KCAL/MOL
REMARK 923 INTER-LIGAND FREE ENERGY PREDICTED BY IDOCK:   -8.47 KCAL/MOL
REMARK 924 INTRA-LIGAND FREE ENERGY PREDICTED BY IDOCK:   -2.82 KCAL/MOL
REMARK 927      BINDING AFFINITY PREDICTED BY RF-SCORE:    0.00 PKD
ROOT
HETATM    1  C   UNL     1      -7.724  17.964  68.521  1.00  0.00    -0.299 C  
HETATM    2  C   UNL     1      -8.486  16.738  68.023  1.00  0.00    -0.205 C  
HETATM    3  C   UNL     1      -9.377  17.127  66.840  1.00  0.00    -0.260 C  
HETATM    4  C   UNL     1      -7.492  15.611  67.679  1.00  0.00    -0.186 C  
ENDROOT
BRANCH   4   5
HETATM    5  C   UNL     1      -8.202  14.354  67.185  1.00  0.00    -0.202 C  
BRANCH   5   6
HETATM    6  C   UNL     1      -8.181  13.220  68.206  1.00  0.00    -0.156 C  
HETATM    7  C   UNL     1      -7.497  11.956  67.645  1.00  0.00    -0.127 C  
HETATM    8  C   UNL     1      -6.041  12.226  67.234  1.00  0.00    -0.153 C  
HETATM    9  C   UNL     1      -7.593  10.819  68.680  1.00  0.00    -0.106 C  
BRANCH   9  10
HETATM   10  C   UNL     1      -6.930   9.539  68.176  1.00  0.00    -0.078 C  
BRANCH  10  11
HETATM   11  C   UNL     1      -7.730   8.296  68.533  1.00  0.00    -0.112 C  
HETATM   12  C   UNL     1      -9.124   8.307  67.873  1.00  0.00    -0.137 C  
HETATM   13  C   UNL     1      -9.967   7.109  68.337  1.00  0.00    -0.166 C  
HETATM   14  C   UNL     1      -9.046   8.294  66.342  1.00  0.00    -0.226 C  
BRANCH  13  15
HETATM   15  C   UNL     1     -10.171   7.007  69.848  1.00  0.00    -0.213 C  
BRANCH  15  16
HETATM   16  C   UNL     1     -11.563   7.444  70.340  1.00  0.00    -0.210 C  
BRANCH  16  17
HETATM   17  C   UNL     1     -11.631   8.935  70.774  1.00  0.00    -0.259 C  
HETATM   18  C   UNL     1     -10.309   9.311  71.478  1.00  0.00    -0.364 C  
HETATM   19  C   UNL     1     -12.886   9.145  71.620  1.00  0.00    -0.431 C  
HETATM   20  C   UNL     1     -12.993  10.585  72.062  1.00  0.00    -0.490 C  
HETATM   21  C   UNL     1     -12.646  11.547  70.959  1.00  0.00    -0.457 A  
HETATM   22  C   UNL     1     -12.846  12.928  71.139  1.00  0.00    -0.326 A  
HETATM   23  C   UNL     1     -13.369  13.479  72.442  1.00  0.00    -0.641 C  
HETATM   24  C   UNL     1     -12.534  13.794  70.078  1.00  0.00    -0.240 A  
HETATM   25  C   UNL     1     -12.005  13.327  68.857  1.00  0.00    -0.336 A  
HETATM   26  O   UNL     1     -12.723  15.147  70.193  1.00  0.00    -0.550 OA 
HETATM   27  C   UNL     1     -11.685  14.299  67.751  1.00  0.00    -0.408 C  
HETATM   28  C   UNL     1     -11.771  11.941  68.696  1.00  0.00    -0.380 A  
HETATM   29  H   UNL     1     -12.512  15.732  69.475  1.00  0.00     0.000 HD 
HETATM   30  C   UNL     1     -12.076  11.066  69.761  1.00  0.00    -0.353 A  
HETATM   31  C   UNL     1     -11.183  11.365  67.431  1.00  0.00    -0.370 C  
HETATM   32  O   UNL     1     -11.754   9.734  69.571  1.00  0.00    -0.023 OA 
ENDBRANCH  16  17
ENDBRANCH  15  16
ENDBRANCH  13  15
ENDBRANCH  10  11
ENDBRANCH   9  10
ENDBRANCH   5   6
ENDBRANCH   4   5
TORSDOF 7
ENDMDL
MODEL       27
REMARK 921   NORMALIZED FREE ENERGY PREDICTED BY IDOCK:   -6.73 KCAL/MOL
REMARK 922        TOTAL FREE ENERGY PREDICTED BY IDOCK:  -11.24 KCAL/MOL
REMARK 923 INTER-LIGAND FREE ENERGY PREDICTED BY IDOCK:   -8.76 KCAL/MOL
REMARK 924 INTRA-LIGAND FREE ENERGY PREDICTED BY IDOCK:   -2.49 KCAL/MOL
REMARK 927      BINDING AFFINITY PREDICTED BY RF-SCORE:    0.00 PKD
ROOT
HETATM    1  C   UNL     1      -8.293  10.582  66.581  1.00  0.00    -0.131 C  
HETATM    2  C   UNL     1      -9.016   9.391  67.207  1.00  0.00    -0.143 C  
HETATM    3  C   UNL     1     -10.266   9.056  66.387  1.00  0.00    -0.297 C  
HETATM    4  C   UNL     1      -8.046   8.199  67.334  1.00  0.00    -0.122 C  
ENDROOT
BRANCH   4   5
HETATM    5  C   UNL     1      -8.716   6.982  67.965  1.00  0.00    -0.126 C  
BRANCH   5   6
HETATM    6  C   UNL     1      -8.620   6.975  69.488  1.00  0.00    -0.134 C  
HETATM    7  C   UNL     1     -10.010   7.085  70.149  1.00  0.00    -0.189 C  
HETATM    8  C   UNL     1     -10.933   5.925  69.746  1.00  0.00    -0.452 C  
HETATM    9  C   UNL     1      -9.843   7.171  71.679  1.00  0.00    -0.170 C  
BRANCH   9  10
HETATM   10  C   UNL     1     -11.191   7.284  72.388  1.00  0.00    -0.321 C  
BRANCH  10  11
HETATM   11  C   UNL     1     -11.747   8.699  72.351  1.00  0.00    -0.393 C  
HETATM   12  C   UNL     1     -12.817   8.861  71.253  1.00  0.00    -0.272 C  
HETATM   13  C   UNL     1     -13.283  10.321  71.143  1.00  0.00    -0.429 C  
HETATM   14  C   UNL     1     -14.040   7.968  71.493  1.00  0.00    -0.475 C  
BRANCH  13  15
HETATM   15  C   UNL     1     -12.174  11.336  70.863  1.00  0.00    -0.460 C  
BRANCH  15  16
HETATM   16  C   UNL     1     -11.512  11.199  69.479  1.00  0.00    -0.374 C  
BRANCH  16  17
HETATM   17  C   UNL     1     -11.335  12.552  68.736  1.00  0.00    -0.293 C  
HETATM   18  C   UNL     1     -12.015  13.668  69.560  1.00  0.00    -0.397 C  
HETATM   19  C   UNL     1     -11.863  12.403  67.309  1.00  0.00    -0.357 C  
HETATM   20  C   UNL     1     -11.708  13.698  66.548  1.00  0.00    -0.414 C  
HETATM   21  C   UNL     1     -10.380  14.355  66.807  1.00  0.00    -0.273 A  
HETATM   22  C   UNL     1      -9.995  15.485  66.061  1.00  0.00    -0.356 A  
HETATM   23  C   UNL     1     -10.909  16.084  65.022  1.00  0.00    -0.421 C  
HETATM   24  C   UNL     1      -8.737  16.057  66.313  1.00  0.00    -0.336 A  
HETATM   25  C   UNL     1      -7.867  15.554  67.302  1.00  0.00    -0.236 A  
HETATM   26  O   UNL     1      -8.305  17.149  65.605  1.00  0.00    -0.450 OA 
HETATM   27  C   UNL     1      -6.529  16.207  67.534  1.00  0.00    -0.202 C  
HETATM   28  C   UNL     1      -8.275  14.442  68.075  1.00  0.00    -0.149 A  
HETATM   29  H   UNL     1      -7.454  17.536  65.776  1.00  0.00     0.000 HD 
HETATM   30  C   UNL     1      -9.541  13.866  67.832  1.00  0.00    -0.227 A  
HETATM   31  C   UNL     1      -7.414  13.862  69.169  1.00  0.00     0.027 C  
HETATM   32  O   UNL     1      -9.915  12.831  68.669  1.00  0.00    -0.190 OA 
ENDBRANCH  16  17
ENDBRANCH  15  16
ENDBRANCH  13  15
ENDBRANCH  10  11
ENDBRANCH   9  10
ENDBRANCH   5   6
ENDBRANCH   4   5
TORSDOF 7
ENDMDL
MODEL       28
REMARK 921   NORMALIZED FREE ENERGY PREDICTED BY IDOCK:   -6.69 KCAL/MOL
REMARK 922        TOTAL FREE ENERGY PREDICTED BY IDOCK:  -11.18 KCAL/MOL
REMARK 923 INTER-LIGAND FREE ENERGY PREDICTED BY IDOCK:   -8.93 KCAL/MOL
REMARK 924 INTRA-LIGAND FREE ENERGY PREDICTED BY IDOCK:   -2.25 KCAL/MOL
REMARK 927      BINDING AFFINITY PREDICTED BY RF-SCORE:    0.00 PKD
ROOT
HETATM    1  C   UNL     1     -10.039  10.229  65.301  1.00  0.00    -0.359 C  
HETATM    2  C   UNL     1      -9.220   9.044  65.807  1.00  0.00    -0.293 C  
HETATM    3  C   UNL     1      -7.875   9.539  66.349  1.00  0.00    -0.097 C  
HETATM    4  C   UNL     1     -10.034   8.256  66.853  1.00  0.00    -0.343 C  
ENDROOT
BRANCH   4   5
HETATM    5  C   UNL     1      -9.264   7.052  67.386  1.00  0.00    -0.134 C  
BRANCH   5   6
HETATM    6  C   UNL     1      -8.862   7.205  68.850  1.00  0.00    -0.130 C  
HETATM    7  C   UNL     1     -10.072   7.057  69.796  1.00  0.00    -0.197 C  
HETATM    8  C   UNL     1     -10.750   5.687  69.651  1.00  0.00    -0.398 C  
HETATM    9  C   UNL     1      -9.623   7.318  71.246  1.00  0.00    -0.164 C  
BRANCH   9  10
HETATM   10  C   UNL     1     -10.785   7.187  72.229  1.00  0.00    -0.252 C  
BRANCH  10  11
HETATM   11  C   UNL     1     -11.617   8.456  72.314  1.00  0.00    -0.453 C  
HETATM   12  C   UNL     1     -12.895   8.358  71.456  1.00  0.00    -0.322 C  
HETATM   13  C   UNL     1     -13.664   9.688  71.452  1.00  0.00    -0.273 C  
HETATM   14  C   UNL     1     -13.834   7.244  71.934  1.00  0.00    -0.342 C  
BRANCH  13  15
HETATM   15  C   UNL     1     -12.868  10.896  70.959  1.00  0.00    -0.472 C  
BRANCH  15  16
HETATM   16  C   UNL     1     -12.270  10.739  69.548  1.00  0.00    -0.292 C  
BRANCH  16  17
HETATM   17  C   UNL     1     -11.542  12.013  69.035  1.00  0.00    -0.313 C  
HETATM   18  C   UNL     1     -10.060  11.668  68.766  1.00  0.00    -0.169 C  
HETATM   19  C   UNL     1     -11.760  13.144  70.040  1.00  0.00    -0.291 C  
HETATM   20  C   UNL     1     -11.069  14.404  69.579  1.00  0.00    -0.267 C  
HETATM   21  C   UNL     1     -11.251  14.647  68.106  1.00  0.00    -0.304 A  
HETATM   22  C   UNL     1     -10.815  15.856  67.531  1.00  0.00    -0.305 A  
HETATM   23  C   UNL     1     -10.126  16.911  68.359  1.00  0.00    -0.304 C  
HETATM   24  C   UNL     1     -11.024  16.057  66.156  1.00  0.00    -0.083 A  
HETATM   25  C   UNL     1     -11.628  15.082  65.337  1.00  0.00    -0.229 A  
HETATM   26  O   UNL     1     -10.633  17.222  65.548  1.00  0.00    -0.580 OA 
HETATM   27  C   UNL     1     -11.826  15.347  63.867  1.00  0.00     0.214 C  
HETATM   28  C   UNL     1     -12.029  13.854  65.913  1.00  0.00    -0.429 A  
HETATM   29  H   UNL     1     -10.774  17.358  64.618  1.00  0.00     0.000 HD 
HETATM   30  C   UNL     1     -11.816  13.641  67.292  1.00  0.00    -0.391 A  
HETATM   31  C   UNL     1     -12.658  12.750  65.099  1.00  0.00    -0.513 C  
HETATM   32  O   UNL     1     -12.160  12.394  67.781  1.00  0.00    -0.447 OA 
ENDBRANCH  16  17
ENDBRANCH  15  16
ENDBRANCH  13  15
ENDBRANCH  10  11
ENDBRANCH   9  10
ENDBRANCH   5   6
ENDBRANCH   4   5
TORSDOF 7
ENDMDL
MODEL       29
REMARK 921   NORMALIZED FREE ENERGY PREDICTED BY IDOCK:   -6.69 KCAL/MOL
REMARK 922        TOTAL FREE ENERGY PREDICTED BY IDOCK:  -11.18 KCAL/MOL
REMARK 923 INTER-LIGAND FREE ENERGY PREDICTED BY IDOCK:   -9.09 KCAL/MOL
REMARK 924 INTRA-LIGAND FREE ENERGY PREDICTED BY IDOCK:   -2.09 KCAL/MOL
REMARK 927      BINDING AFFINITY PREDICTED BY RF-SCORE:    0.00 PKD
ROOT
HETATM    1  C   UNL     1     -12.831  11.934  63.458  1.00  0.00    -0.435 C  
HETATM    2  C   UNL     1     -11.785  12.343  64.493  1.00  0.00    -0.427 C  
HETATM    3  C   UNL     1     -10.573  11.411  64.399  1.00  0.00    -0.403 C  
HETATM    4  C   UNL     1     -11.415  13.827  64.302  1.00  0.00    -0.363 C  
ENDROOT
BRANCH   4   5
HETATM    5  C   UNL     1     -10.378  14.293  65.320  1.00  0.00    -0.417 C  
BRANCH   5   6
HETATM    6  C   UNL     1     -10.982  15.139  66.438  1.00  0.00    -0.329 C  
HETATM    7  C   UNL     1     -10.954  14.400  67.793  1.00  0.00    -0.283 C  
HETATM    8  C   UNL     1      -9.524  14.035  68.219  1.00  0.00    -0.216 C  
HETATM    9  C   UNL     1     -11.662  15.259  68.858  1.00  0.00    -0.362 C  
BRANCH   9  10
HETATM   10  C   UNL     1     -11.666  14.575  70.223  1.00  0.00    -0.356 C  
BRANCH  10  11
HETATM   11  C   UNL     1     -12.477  13.289  70.223  1.00  0.00    -0.255 C  
HETATM   12  C   UNL     1     -12.667  12.734  71.650  1.00  0.00    -0.293 C  
HETATM   13  C   UNL     1     -13.381  11.374  71.626  1.00  0.00    -0.288 C  
HETATM   14  C   UNL     1     -13.457  13.694  72.548  1.00  0.00    -0.675 C  
BRANCH  13  15
HETATM   15  C   UNL     1     -12.688  10.293  70.798  1.00  0.00    -0.434 C  
BRANCH  15  16
HETATM   16  C   UNL     1     -11.207  10.062  71.151  1.00  0.00    -0.339 C  
BRANCH  16  17
HETATM   17  C   UNL     1     -10.357   9.534  69.961  1.00  0.00    -0.247 C  
HETATM   18  C   UNL     1      -8.861   9.662  70.320  1.00  0.00    -0.253 C  
HETATM   19  C   UNL     1     -10.774  10.276  68.692  1.00  0.00    -0.255 C  
HETATM   20  C   UNL     1      -9.973   9.791  67.507  1.00  0.00    -0.230 C  
HETATM   21  C   UNL     1      -9.815   8.295  67.501  1.00  0.00    -0.231 A  
HETATM   22  C   UNL     1      -9.237   7.653  66.390  1.00  0.00    -0.223 A  
HETATM   23  C   UNL     1      -8.731   8.439  65.207  1.00  0.00    -0.148 C  
HETATM   24  C   UNL     1      -9.128   6.251  66.409  1.00  0.00    -0.153 A  
HETATM   25  C   UNL     1      -9.551   5.480  67.510  1.00  0.00    -0.131 A  
HETATM   26  O   UNL     1      -8.588   5.573  65.347  1.00  0.00    -0.144 OA 
HETATM   27  C   UNL     1      -9.409   3.980  67.480  1.00  0.00    -0.219 C  
HETATM   28  C   UNL     1     -10.095   6.134  68.639  1.00  0.00    -0.196 A  
HETATM   29  H   UNL     1      -8.514   4.625  65.360  1.00  0.00     0.000 HD 
HETATM   30  C   UNL     1     -10.202   7.542  68.630  1.00  0.00    -0.197 A  
HETATM   31  C   UNL     1     -10.546   5.382  69.867  1.00  0.00    -0.351 C  
HETATM   32  O   UNL     1     -10.670   8.129  69.791  1.00  0.00    -0.245 OA 
ENDBRANCH  16  17
ENDBRANCH  15  16
ENDBRANCH  13  15
ENDBRANCH  10  11
ENDBRANCH   9  10
ENDBRANCH   5   6
ENDBRANCH   4   5
TORSDOF 7
ENDMDL
MODEL       30
REMARK 921   NORMALIZED FREE ENERGY PREDICTED BY IDOCK:   -6.67 KCAL/MOL
REMARK 922        TOTAL FREE ENERGY PREDICTED BY IDOCK:  -11.15 KCAL/MOL
REMARK 923 INTER-LIGAND FREE ENERGY PREDICTED BY IDOCK:   -9.98 KCAL/MOL
REMARK 924 INTRA-LIGAND FREE ENERGY PREDICTED BY IDOCK:   -1.18 KCAL/MOL
REMARK 927      BINDING AFFINITY PREDICTED BY RF-SCORE:    0.00 PKD
ROOT
HETATM    1  C   UNL     1     -12.614  11.854  63.339  1.00  0.00    -0.555 C  
HETATM    2  C   UNL     1     -11.656  12.285  64.446  1.00  0.00    -0.428 C  
HETATM    3  C   UNL     1     -10.454  11.336  64.489  1.00  0.00    -0.396 C  
HETATM    4  C   UNL     1     -11.248  13.757  64.239  1.00  0.00    -0.321 C  
ENDROOT
BRANCH   4   5
HETATM    5  C   UNL     1     -10.296  14.245  65.327  1.00  0.00    -0.417 C  
BRANCH   5   6
HETATM    6  C   UNL     1     -11.005  15.026  66.430  1.00  0.00    -0.336 C  
HETATM    7  C   UNL     1     -10.973  14.273  67.777  1.00  0.00    -0.275 C  
HETATM    8  C   UNL     1      -9.537  14.011  68.255  1.00  0.00    -0.224 C  
HETATM    9  C   UNL     1     -11.785  15.060  68.823  1.00  0.00    -0.360 C  
BRANCH   9  10
HETATM   10  C   UNL     1     -11.790  14.359  70.179  1.00  0.00    -0.380 C  
BRANCH  10  11
HETATM   11  C   UNL     1     -12.282  12.923  70.085  1.00  0.00    -0.336 C  
HETATM   12  C   UNL     1     -12.592  12.335  71.477  1.00  0.00    -0.258 C  
HETATM   13  C   UNL     1     -12.970  10.849  71.380  1.00  0.00    -0.527 C  
HETATM   14  C   UNL     1     -13.722  13.088  72.189  1.00  0.00    -0.547 C  
BRANCH  13  15
HETATM   15  C   UNL     1     -11.919   9.954  70.723  1.00  0.00    -0.410 C  
BRANCH  15  16
HETATM   16  C   UNL     1     -11.134   9.061  71.702  1.00  0.00    -0.433 C  
BRANCH  16  17
HETATM   17  C   UNL     1     -11.044   7.575  71.253  1.00  0.00    -0.246 C  
HETATM   18  C   UNL     1     -12.432   6.918  71.418  1.00  0.00    -0.413 C  
HETATM   19  C   UNL     1      -9.919   6.893  72.033  1.00  0.00    -0.179 C  
HETATM   20  C   UNL     1      -9.794   5.445  71.625  1.00  0.00    -0.223 C  
HETATM   21  C   UNL     1      -9.914   5.259  70.138  1.00  0.00    -0.313 A  
HETATM   22  C   UNL     1      -9.662   4.000  69.562  1.00  0.00    -0.227 A  
HETATM   23  C   UNL     1      -9.308   2.807  70.414  1.00  0.00    -0.217 C  
HETATM   24  C   UNL     1      -9.759   3.870  68.166  1.00  0.00    -0.058 A  
HETATM   25  C   UNL     1     -10.125   4.948  67.335  1.00  0.00    -0.196 A  
HETATM   26  O   UNL     1      -9.509   2.671  67.551  1.00  0.00    -0.332 OA 
HETATM   27  C   UNL     1     -10.218   4.755  65.843  1.00  0.00    -0.286 C  
HETATM   28  C   UNL     1     -10.415   6.201  67.923  1.00  0.00    -0.286 A  
HETATM   29  H   UNL     1      -9.575   2.583  66.607  1.00  0.00     0.000 HD 
HETATM   30  C   UNL     1     -10.326   6.338  69.326  1.00  0.00    -0.218 A  
HETATM   31  C   UNL     1     -10.839   7.396  67.105  1.00  0.00    -0.340 C  
HETATM   32  O   UNL     1     -10.694   7.564  69.847  1.00  0.00    -0.240 OA 
ENDBRANCH  16  17
ENDBRANCH  15  16
ENDBRANCH  13  15
ENDBRANCH  10  11
ENDBRANCH   9  10
ENDBRANCH   5   6
ENDBRANCH   4   5
TORSDOF 7
ENDMDL
MODEL       31
REMARK 921   NORMALIZED FREE ENERGY PREDICTED BY IDOCK:   -6.65 KCAL/MOL
REMARK 922        TOTAL FREE ENERGY PREDICTED BY IDOCK:  -11.12 KCAL/MOL
REMARK 923 INTER-LIGAND FREE ENERGY PREDICTED BY IDOCK:   -9.91 KCAL/MOL
REMARK 924 INTRA-LIGAND FREE ENERGY PREDICTED BY IDOCK:   -1.21 KCAL/MOL
REMARK 927      BINDING AFFINITY PREDICTED BY RF-SCORE:    0.00 PKD
ROOT
HETATM    1  C   UNL     1     -12.528  12.181  63.773  1.00  0.00    -0.620 C  
HETATM    2  C   UNL     1     -11.638  12.718  64.891  1.00  0.00    -0.369 C  
HETATM    3  C   UNL     1     -10.569  11.679  65.245  1.00  0.00    -0.333 C  
HETATM    4  C   UNL     1     -11.038  14.075  64.473  1.00  0.00    -0.360 C  
ENDROOT
BRANCH   4   5
HETATM    5  C   UNL     1     -10.144  14.664  65.561  1.00  0.00    -0.405 C  
BRANCH   5   6
HETATM    6  C   UNL     1     -10.909  15.545  66.545  1.00  0.00    -0.284 C  
HETATM    7  C   UNL     1     -10.899  14.954  67.970  1.00  0.00    -0.263 C  
HETATM    8  C   UNL     1      -9.472  14.795  68.516  1.00  0.00    -0.214 C  
HETATM    9  C   UNL     1     -11.765  15.832  68.894  1.00  0.00    -0.404 C  
BRANCH   9  10
HETATM   10  C   UNL     1     -11.793  15.292  70.322  1.00  0.00    -0.353 C  
BRANCH  10  11
HETATM   11  C   UNL     1     -12.383  13.893  70.400  1.00  0.00    -0.433 C  
HETATM   12  C   UNL     1     -13.032  13.624  71.773  1.00  0.00    -0.441 C  
HETATM   13  C   UNL     1     -13.515  12.170  71.884  1.00  0.00    -0.318 C  
HETATM   14  C   UNL     1     -14.212  14.561  72.055  1.00  0.00    -0.630 C  
BRANCH  13  15
HETATM   15  C   UNL     1     -12.436  11.110  71.666  1.00  0.00    -0.273 C  
BRANCH  15  16
HETATM   16  C   UNL     1     -12.893   9.885  70.852  1.00  0.00    -0.360 C  
BRANCH  16  17
HETATM   17  C   UNL     1     -12.379   8.532  71.419  1.00  0.00    -0.297 C  
HETATM   18  C   UNL     1     -13.594   7.659  71.804  1.00  0.00    -0.392 C  
HETATM   19  C   UNL     1     -11.410   8.816  72.567  1.00  0.00    -0.152 C  
HETATM   20  C   UNL     1     -10.884   7.526  73.148  1.00  0.00    -0.448 C  
HETATM   21  C   UNL     1     -10.534   6.523  72.083  1.00  0.00    -0.229 A  
HETATM   22  C   UNL     1      -9.879   5.327  72.430  1.00  0.00    -0.198 A  
HETATM   23  C   UNL     1      -9.549   5.004  73.866  1.00  0.00    -0.135 C  
HETATM   24  C   UNL     1      -9.546   4.424  71.406  1.00  0.00    -0.165 A  
HETATM   25  C   UNL     1      -9.870   4.667  70.055  1.00  0.00    -0.294 A  
HETATM   26  O   UNL     1      -8.894   3.251  71.685  1.00  0.00    -0.082 OA 
HETATM   27  C   UNL     1      -9.492   3.664  68.995  1.00  0.00    -0.226 C  
HETATM   28  C   UNL     1     -10.563   5.853  69.718  1.00  0.00    -0.374 A  
HETATM   29  H   UNL     1      -8.669   2.641  70.992  1.00  0.00     0.000 HD 
HETATM   30  C   UNL     1     -10.907   6.761  70.743  1.00  0.00    -0.249 A  
HETATM   31  C   UNL     1     -10.969   6.173  68.301  1.00  0.00    -0.397 C  
HETATM   32  O   UNL     1     -11.649   7.864  70.362  1.00  0.00    -0.211 OA 
ENDBRANCH  16  17
ENDBRANCH  15  16
ENDBRANCH  13  15
ENDBRANCH  10  11
ENDBRANCH   9  10
ENDBRANCH   5   6
ENDBRANCH   4   5
TORSDOF 7
ENDMDL
MODEL       32
REMARK 921   NORMALIZED FREE ENERGY PREDICTED BY IDOCK:   -6.62 KCAL/MOL
REMARK 922        TOTAL FREE ENERGY PREDICTED BY IDOCK:  -11.09 KCAL/MOL
REMARK 923 INTER-LIGAND FREE ENERGY PREDICTED BY IDOCK:   -9.30 KCAL/MOL
REMARK 924 INTRA-LIGAND FREE ENERGY PREDICTED BY IDOCK:   -1.78 KCAL/MOL
REMARK 927      BINDING AFFINITY PREDICTED BY RF-SCORE:    0.00 PKD
ROOT
HETATM    1  C   UNL     1     -13.197   8.874  72.675  1.00  0.00    -0.363 C  
HETATM    2  C   UNL     1     -12.137   8.265  71.760  1.00  0.00    -0.364 C  
HETATM    3  C   UNL     1     -10.744   8.714  72.212  1.00  0.00    -0.383 C  
HETATM    4  C   UNL     1     -12.292   6.732  71.731  1.00  0.00    -0.400 C  
ENDROOT
BRANCH   4   5
HETATM    5  C   UNL     1     -11.262   6.071  70.820  1.00  0.00    -0.340 C  
BRANCH   5   6
HETATM    6  C   UNL     1     -11.450   6.432  69.349  1.00  0.00    -0.374 C  
HETATM    7  C   UNL     1     -10.119   6.375  68.571  1.00  0.00    -0.173 C  
HETATM    8  C   UNL     1      -9.484   4.978  68.619  1.00  0.00    -0.188 C  
HETATM    9  C   UNL     1     -10.354   6.843  67.122  1.00  0.00    -0.339 C  
BRANCH   9  10
HETATM   10  C   UNL     1      -9.066   6.809  66.302  1.00  0.00    -0.165 C  
BRANCH  10  11
HETATM   11  C   UNL     1      -8.677   8.183  65.780  1.00  0.00    -0.183 C  
HETATM   12  C   UNL     1      -8.341   9.154  66.930  1.00  0.00    -0.119 C  
HETATM   13  C   UNL     1      -8.069  10.570  66.400  1.00  0.00    -0.135 C  
HETATM   14  C   UNL     1      -7.131   8.691  67.750  1.00  0.00    -0.079 C  
BRANCH  13  15
HETATM   15  C   UNL     1      -9.207  11.189  65.589  1.00  0.00    -0.238 C  
BRANCH  15  16
HETATM   16  C   UNL     1     -10.571  11.205  66.306  1.00  0.00    -0.309 C  
BRANCH  16  17
HETATM   17  C   UNL     1     -10.901  12.564  66.984  1.00  0.00    -0.254 C  
HETATM   18  C   UNL     1     -12.151  13.170  66.307  1.00  0.00    -0.460 C  
HETATM   19  C   UNL     1      -9.659  13.453  66.939  1.00  0.00    -0.257 C  
HETATM   20  C   UNL     1      -9.935  14.786  67.591  1.00  0.00    -0.226 C  
HETATM   21  C   UNL     1     -10.727  14.644  68.862  1.00  0.00    -0.251 A  
HETATM   22  C   UNL     1     -10.939  15.764  69.689  1.00  0.00    -0.306 A  
HETATM   23  C   UNL     1     -10.419  17.127  69.308  1.00  0.00    -0.267 C  
HETATM   24  C   UNL     1     -11.662  15.588  70.881  1.00  0.00    -0.375 A  
HETATM   25  C   UNL     1     -12.201  14.341  71.256  1.00  0.00    -0.426 A  
HETATM   26  O   UNL     1     -11.885  16.641  71.731  1.00  0.00    -0.650 OA 
HETATM   27  C   UNL     1     -12.971  14.208  72.545  1.00  0.00    -0.498 C  
HETATM   28  C   UNL     1     -12.018  13.228  70.403  1.00  0.00    -0.350 A  
HETATM   29  H   UNL     1     -12.375  16.522  72.536  1.00  0.00     0.000 HD 
HETATM   30  C   UNL     1     -11.298  13.398  69.200  1.00  0.00    -0.280 A  
HETATM   31  C   UNL     1     -12.585  11.867  70.721  1.00  0.00    -0.325 C  
HETATM   32  O   UNL     1     -11.217  12.293  68.372  1.00  0.00    -0.226 OA 
ENDBRANCH  16  17
ENDBRANCH  15  16
ENDBRANCH  13  15
ENDBRANCH  10  11
ENDBRANCH   9  10
ENDBRANCH   5   6
ENDBRANCH   4   5
TORSDOF 7
ENDMDL
MODEL       33
REMARK 921   NORMALIZED FREE ENERGY PREDICTED BY IDOCK:   -6.61 KCAL/MOL
REMARK 922        TOTAL FREE ENERGY PREDICTED BY IDOCK:  -11.07 KCAL/MOL
REMARK 923 INTER-LIGAND FREE ENERGY PREDICTED BY IDOCK:   -7.88 KCAL/MOL
REMARK 924 INTRA-LIGAND FREE ENERGY PREDICTED BY IDOCK:   -3.19 KCAL/MOL
REMARK 927      BINDING AFFINITY PREDICTED BY RF-SCORE:    0.00 PKD
ROOT
HETATM    1  C   UNL     1     -11.343  13.311  65.595  1.00  0.00    -0.325 C  
HETATM    2  C   UNL     1     -11.235  11.848  65.171  1.00  0.00    -0.346 C  
HETATM    3  C   UNL     1     -10.952  11.764  63.668  1.00  0.00    -0.513 C  
HETATM    4  C   UNL     1     -10.165  11.136  66.023  1.00  0.00    -0.300 C  
ENDROOT
BRANCH   4   5
HETATM    5  C   UNL     1     -10.022   9.664  65.647  1.00  0.00    -0.321 C  
BRANCH   5   6
HETATM    6  C   UNL     1     -10.458   8.721  66.766  1.00  0.00    -0.283 C  
HETATM    7  C   UNL     1      -9.803   7.331  66.630  1.00  0.00    -0.257 C  
HETATM    8  C   UNL     1      -8.270   7.411  66.674  1.00  0.00    -0.125 C  
HETATM    9  C   UNL     1     -10.354   6.397  67.725  1.00  0.00    -0.238 C  
BRANCH   9  10
HETATM   10  C   UNL     1      -9.740   5.001  67.638  1.00  0.00    -0.188 C  
BRANCH  10  11
HETATM   11  C   UNL     1      -8.919   4.654  68.869  1.00  0.00    -0.145 C  
HETATM   12  C   UNL     1      -9.491   3.428  69.609  1.00  0.00    -0.223 C  
HETATM   13  C   UNL     1      -8.728   3.161  70.916  1.00  0.00    -0.127 C  
HETATM   14  C   UNL     1      -9.458   2.159  68.748  1.00  0.00    -0.188 C  
BRANCH  13  15
HETATM   15  C   UNL     1      -8.705   4.328  71.903  1.00  0.00    -0.128 C  
BRANCH  15  16
HETATM   16  C   UNL     1     -10.078   4.692  72.499  1.00  0.00    -0.229 C  
BRANCH  16  17
HETATM   17  C   UNL     1     -10.467   6.184  72.301  1.00  0.00    -0.198 C  
HETATM   18  C   UNL     1     -10.232   6.942  73.626  1.00  0.00    -0.372 C  
HETATM   19  C   UNL     1     -11.900   6.253  71.773  1.00  0.00    -0.342 C  
HETATM   20  C   UNL     1     -12.319   7.688  71.563  1.00  0.00    -0.356 C  
HETATM   21  C   UNL     1     -11.232   8.512  70.931  1.00  0.00    -0.304 A  
HETATM   22  C   UNL     1     -11.499   9.830  70.513  1.00  0.00    -0.370 A  
HETATM   23  C   UNL     1     -12.854  10.457  70.722  1.00  0.00    -0.450 C  
HETATM   24  C   UNL     1     -10.465  10.562  69.904  1.00  0.00    -0.164 A  
HETATM   25  C   UNL     1      -9.172  10.029  69.725  1.00  0.00    -0.227 A  
HETATM   26  O   UNL     1     -10.674  11.843  69.464  1.00  0.00    -0.441 OA 
HETATM   27  C   UNL     1      -8.098  10.857  69.067  1.00  0.00    -0.126 C  
HETATM   28  C   UNL     1      -8.900   8.718  70.181  1.00  0.00    -0.160 A  
HETATM   29  H   UNL     1      -9.974  12.338  69.053  1.00  0.00     0.000 HD 
HETATM   30  C   UNL     1      -9.931   7.980  70.800  1.00  0.00    -0.188 A  
HETATM   31  C   UNL     1      -7.535   8.087  70.050  1.00  0.00    -0.074 C  
HETATM   32  O   UNL     1      -9.584   6.735  71.293  1.00  0.00    -0.169 OA 
ENDBRANCH  16  17
ENDBRANCH  15  16
ENDBRANCH  13  15
ENDBRANCH  10  11
ENDBRANCH   9  10
ENDBRANCH   5   6
ENDBRANCH   4   5
TORSDOF 7
ENDMDL
MODEL       34
REMARK 921   NORMALIZED FREE ENERGY PREDICTED BY IDOCK:   -6.59 KCAL/MOL
REMARK 922        TOTAL FREE ENERGY PREDICTED BY IDOCK:  -11.04 KCAL/MOL
REMARK 923 INTER-LIGAND FREE ENERGY PREDICTED BY IDOCK:   -9.18 KCAL/MOL
REMARK 924 INTRA-LIGAND FREE ENERGY PREDICTED BY IDOCK:   -1.87 KCAL/MOL
REMARK 927      BINDING AFFINITY PREDICTED BY RF-SCORE:    0.00 PKD
ROOT
HETATM    1  C   UNL     1     -12.221  16.118  71.653  1.00  0.00    -0.424 C  
HETATM    2  C   UNL     1     -12.220  14.720  72.267  1.00  0.00    -0.382 C  
HETATM    3  C   UNL     1     -12.527  14.813  73.765  1.00  0.00    -0.472 C  
HETATM    4  C   UNL     1     -13.212  13.816  71.508  1.00  0.00    -0.417 C  
ENDROOT
BRANCH   4   5
HETATM    5  C   UNL     1     -13.244  12.400  72.075  1.00  0.00    -0.514 C  
BRANCH   5   6
HETATM    6  C   UNL     1     -12.833  11.342  71.055  1.00  0.00    -0.395 C  
HETATM    7  C   UNL     1     -12.525   9.987  71.727  1.00  0.00    -0.475 C  
HETATM    8  C   UNL     1     -13.739   9.436  72.490  1.00  0.00    -0.419 C  
HETATM    9  C   UNL     1     -12.023   8.991  70.664  1.00  0.00    -0.138 C  
BRANCH   9  10
HETATM   10  C   UNL     1     -11.701   7.629  71.274  1.00  0.00    -0.308 C  
BRANCH  10  11
HETATM   11  C   UNL     1     -10.279   7.183  70.973  1.00  0.00    -0.205 C  
HETATM   12  C   UNL     1      -9.239   8.138  71.594  1.00  0.00    -0.220 C  
HETATM   13  C   UNL     1      -7.811   7.748  71.182  1.00  0.00    -0.089 C  
HETATM   14  C   UNL     1      -9.321   8.173  73.125  1.00  0.00    -0.328 C  
BRANCH  13  15
HETATM   15  C   UNL     1      -7.560   7.707  69.675  1.00  0.00    -0.093 C  
BRANCH  15  16
HETATM   16  C   UNL     1      -7.503   9.088  68.995  1.00  0.00    -0.074 C  
BRANCH  16  17
HETATM   17  C   UNL     1      -8.256   9.145  67.637  1.00  0.00    -0.108 C  
HETATM   18  C   UNL     1      -9.191   7.921  67.532  1.00  0.00    -0.152 C  
HETATM   19  C   UNL     1      -7.231   9.262  66.509  1.00  0.00    -0.086 C  
HETATM   20  C   UNL     1      -7.922   9.324  65.168  1.00  0.00    -0.116 C  
HETATM   21  C   UNL     1      -9.134  10.213  65.193  1.00  0.00    -0.242 A  
HETATM   22  C   UNL     1      -9.808  10.518  63.996  1.00  0.00    -0.387 A  
HETATM   23  C   UNL     1      -9.363   9.937  62.678  1.00  0.00    -0.249 C  
HETATM   24  C   UNL     1     -10.923  11.372  64.054  1.00  0.00    -0.355 A  
HETATM   25  C   UNL     1     -11.398  11.906  65.270  1.00  0.00    -0.333 A  
HETATM   26  O   UNL     1     -11.608  11.715  62.917  1.00  0.00    -0.757 OA 
HETATM   27  C   UNL     1     -12.600  12.816  65.277  1.00  0.00    -0.460 C  
HETATM   28  C   UNL     1     -10.739  11.565  66.474  1.00  0.00    -0.318 A  
HETATM   29  H   UNL     1     -12.362  12.292  62.957  1.00  0.00     0.000 HD 
HETATM   30  C   UNL     1      -9.623  10.702  66.424  1.00  0.00    -0.190 A  
HETATM   31  C   UNL     1     -11.202  12.073  67.817  1.00  0.00    -0.331 C  
HETATM   32  O   UNL     1      -9.068  10.345  67.639  1.00  0.00    -0.137 OA 
ENDBRANCH  16  17
ENDBRANCH  15  16
ENDBRANCH  13  15
ENDBRANCH  10  11
ENDBRANCH   9  10
ENDBRANCH   5   6
ENDBRANCH   4   5
TORSDOF 7
ENDMDL
MODEL       35
REMARK 921   NORMALIZED FREE ENERGY PREDICTED BY IDOCK:   -6.58 KCAL/MOL
REMARK 922        TOTAL FREE ENERGY PREDICTED BY IDOCK:  -11.03 KCAL/MOL
REMARK 923 INTER-LIGAND FREE ENERGY PREDICTED BY IDOCK:   -8.88 KCAL/MOL
REMARK 924 INTRA-LIGAND FREE ENERGY PREDICTED BY IDOCK:   -2.16 KCAL/MOL
REMARK 927      BINDING AFFINITY PREDICTED BY RF-SCORE:    0.00 PKD
ROOT
HETATM    1  C   UNL     1     -10.092  20.028  66.540  1.00  0.00    -0.606 C  
HETATM    2  C   UNL     1      -9.841  18.970  67.612  1.00  0.00    -0.395 C  
HETATM    3  C   UNL     1     -10.054  19.579  69.001  1.00  0.00    -0.444 C  
HETATM    4  C   UNL     1     -10.737  17.742  67.353  1.00  0.00    -0.287 C  
ENDROOT
BRANCH   4   5
HETATM    5  C   UNL     1     -10.519  16.646  68.391  1.00  0.00    -0.323 C  
BRANCH   5   6
HETATM    6  C   UNL     1      -9.042  16.355  68.646  1.00  0.00    -0.233 C  
HETATM    7  C   UNL     1      -8.607  15.013  68.022  1.00  0.00    -0.158 C  
HETATM    8  C   UNL     1      -8.819  14.991  66.501  1.00  0.00    -0.286 C  
HETATM    9  C   UNL     1      -7.139  14.728  68.394  1.00  0.00    -0.114 C  
BRANCH   9  10
HETATM   10  C   UNL     1      -6.653  13.407  67.802  1.00  0.00    -0.168 C  
BRANCH  10  11
HETATM   11  C   UNL     1      -7.240  12.202  68.520  1.00  0.00    -0.102 C  
HETATM   12  C   UNL     1      -6.209  11.538  69.456  1.00  0.00    -0.110 C  
HETATM   13  C   UNL     1      -6.772  10.253  70.081  1.00  0.00    -0.146 C  
HETATM   14  C   UNL     1      -5.751  12.476  70.579  1.00  0.00    -0.170 C  
BRANCH  13  15
HETATM   15  C   UNL     1      -7.237   9.195  69.081  1.00  0.00    -0.067 C  
BRANCH  15  16
HETATM   16  C   UNL     1      -8.764   9.003  69.011  1.00  0.00    -0.138 C  
BRANCH  16  17
HETATM   17  C   UNL     1      -9.370   9.331  67.618  1.00  0.00    -0.128 C  
HETATM   18  C   UNL     1     -10.486   8.310  67.305  1.00  0.00    -0.373 C  
HETATM   19  C   UNL     1      -8.242   9.377  66.588  1.00  0.00    -0.112 C  
HETATM   20  C   UNL     1      -8.788   9.696  65.217  1.00  0.00    -0.204 C  
HETATM   21  C   UNL     1      -9.830  10.780  65.257  1.00  0.00    -0.329 A  
HETATM   22  C   UNL     1     -10.331  11.320  64.058  1.00  0.00    -0.430 A  
HETATM   23  C   UNL     1      -9.873  10.805  62.717  1.00  0.00    -0.239 C  
HETATM   24  C   UNL     1     -11.286  12.348  64.135  1.00  0.00    -0.379 A  
HETATM   25  C   UNL     1     -11.772  12.832  65.366  1.00  0.00    -0.425 A  
HETATM   26  O   UNL     1     -11.797  12.921  62.999  1.00  0.00    -0.827 OA 
HETATM   27  C   UNL     1     -12.799  13.935  65.393  1.00  0.00    -0.466 C  
HETATM   28  C   UNL     1     -11.293  12.259  66.567  1.00  0.00    -0.403 A  
HETATM   29  H   UNL     1     -12.443  13.616  63.051  1.00  0.00     0.000 HD 
HETATM   30  C   UNL     1     -10.338  11.221  66.498  1.00  0.00    -0.240 A  
HETATM   31  C   UNL     1     -11.782  12.703  67.923  1.00  0.00    -0.412 C  
HETATM   32  O   UNL     1      -9.965  10.650  67.701  1.00  0.00    -0.164 OA 
ENDBRANCH  16  17
ENDBRANCH  15  16
ENDBRANCH  13  15
ENDBRANCH  10  11
ENDBRANCH   9  10
ENDBRANCH   5   6
ENDBRANCH   4   5
TORSDOF 7
ENDMDL
MODEL       36
REMARK 921   NORMALIZED FREE ENERGY PREDICTED BY IDOCK:   -6.55 KCAL/MOL
REMARK 922        TOTAL FREE ENERGY PREDICTED BY IDOCK:  -10.99 KCAL/MOL
REMARK 923 INTER-LIGAND FREE ENERGY PREDICTED BY IDOCK:   -9.35 KCAL/MOL
REMARK 924 INTRA-LIGAND FREE ENERGY PREDICTED BY IDOCK:   -1.64 KCAL/MOL
REMARK 927      BINDING AFFINITY PREDICTED BY RF-SCORE:    0.00 PKD
ROOT
HETATM    1  C   UNL     1     -10.817   5.033  73.614  1.00  0.00    -0.369 C  
HETATM    2  C   UNL     1     -11.394   5.904  72.500  1.00  0.00    -0.352 C  
HETATM    3  C   UNL     1     -11.158   7.382  72.824  1.00  0.00    -0.394 C  
HETATM    4  C   UNL     1     -10.790   5.485  71.144  1.00  0.00    -0.243 C  
ENDROOT
BRANCH   4   5
HETATM    5  C   UNL     1     -11.341   6.318  69.991  1.00  0.00    -0.486 C  
BRANCH   5   6
HETATM    6  C   UNL     1     -10.297   7.250  69.380  1.00  0.00    -0.212 C  
HETATM    7  C   UNL     1      -9.800   6.734  68.014  1.00  0.00    -0.148 C  
HETATM    8  C   UNL     1     -10.944   6.604  66.998  1.00  0.00    -0.463 C  
HETATM    9  C   UNL     1      -8.682   7.659  67.494  1.00  0.00    -0.125 C  
BRANCH   9  10
HETATM   10  C   UNL     1      -8.150   7.195  66.140  1.00  0.00    -0.121 C  
BRANCH  10  11
HETATM   11  C   UNL     1      -8.528   8.144  65.014  1.00  0.00    -0.117 C  
HETATM   12  C   UNL     1      -7.988   9.567  65.264  1.00  0.00    -0.112 C  
HETATM   13  C   UNL     1      -8.478  10.544  64.184  1.00  0.00    -0.122 C  
HETATM   14  C   UNL     1      -6.456   9.610  65.312  1.00  0.00    -0.083 C  
BRANCH  13  15
HETATM   15  C   UNL     1      -9.997  10.643  64.042  1.00  0.00    -0.401 C  
BRANCH  15  16
HETATM   16  C   UNL     1     -10.520  12.052  63.701  1.00  0.00    -0.494 C  
BRANCH  16  17
HETATM   17  C   UNL     1     -11.133  12.800  64.918  1.00  0.00    -0.292 C  
HETATM   18  C   UNL     1     -12.653  12.959  64.693  1.00  0.00    -0.459 C  
HETATM   19  C   UNL     1     -10.378  14.113  65.120  1.00  0.00    -0.429 C  
HETATM   20  C   UNL     1     -10.941  14.874  66.296  1.00  0.00    -0.338 C  
HETATM   21  C   UNL     1     -11.236  13.975  67.466  1.00  0.00    -0.328 A  
HETATM   22  C   UNL     1     -11.613  14.530  68.703  1.00  0.00    -0.346 A  
HETATM   23  C   UNL     1     -11.769  16.020  68.877  1.00  0.00    -0.322 C  
HETATM   24  C   UNL     1     -11.858  13.661  69.780  1.00  0.00    -0.327 A  
HETATM   25  C   UNL     1     -11.763  12.260  69.652  1.00  0.00    -0.386 A  
HETATM   26  O   UNL     1     -12.213  14.148  71.012  1.00  0.00    -0.329 OA 
HETATM   27  C   UNL     1     -12.038  11.372  70.838  1.00  0.00    -0.383 C  
HETATM   28  C   UNL     1     -11.421  11.707  68.396  1.00  0.00    -0.360 A  
HETATM   29  H   UNL     1     -12.378  13.560  71.739  1.00  0.00     0.000 HD 
HETATM   30  C   UNL     1     -11.181  12.574  67.307  1.00  0.00    -0.295 A  
HETATM   31  C   UNL     1     -11.325  10.218  68.171  1.00  0.00    -0.233 C  
HETATM   32  O   UNL     1     -10.926  11.972  66.089  1.00  0.00    -0.278 OA 
ENDBRANCH  16  17
ENDBRANCH  15  16
ENDBRANCH  13  15
ENDBRANCH  10  11
ENDBRANCH   9  10
ENDBRANCH   5   6
ENDBRANCH   4   5
TORSDOF 7
ENDMDL
MODEL       37
REMARK 921   NORMALIZED FREE ENERGY PREDICTED BY IDOCK:   -6.55 KCAL/MOL
REMARK 922        TOTAL FREE ENERGY PREDICTED BY IDOCK:  -10.98 KCAL/MOL
REMARK 923 INTER-LIGAND FREE ENERGY PREDICTED BY IDOCK:   -9.00 KCAL/MOL
REMARK 924 INTRA-LIGAND FREE ENERGY PREDICTED BY IDOCK:   -1.98 KCAL/MOL
REMARK 927      BINDING AFFINITY PREDICTED BY RF-SCORE:    0.00 PKD
ROOT
HETATM    1  C   UNL     1     -10.700  11.955  63.737  1.00  0.00    -0.476 C  
HETATM    2  C   UNL     1      -9.934  10.634  63.787  1.00  0.00    -0.379 C  
HETATM    3  C   UNL     1      -9.390  10.299  62.396  1.00  0.00    -0.301 C  
HETATM    4  C   UNL     1      -8.829  10.713  64.859  1.00  0.00    -0.204 C  
ENDROOT
BRANCH   4   5
HETATM    5  C   UNL     1      -8.037   9.413  64.960  1.00  0.00    -0.129 C  
BRANCH   5   6
HETATM    6  C   UNL     1      -8.731   8.360  65.819  1.00  0.00    -0.199 C  
HETATM    7  C   UNL     1      -7.790   7.795  66.904  1.00  0.00    -0.107 C  
HETATM    8  C   UNL     1      -7.281   8.892  67.851  1.00  0.00    -0.083 C  
HETATM    9  C   UNL     1      -8.511   6.672  67.673  1.00  0.00    -0.121 C  
BRANCH   9  10
HETATM   10  C   UNL     1      -7.624   6.073  68.762  1.00  0.00    -0.091 C  
BRANCH  10  11
HETATM   11  C   UNL     1      -8.356   5.923  70.086  1.00  0.00    -0.118 C  
HETATM   12  C   UNL     1      -9.629   5.064  69.940  1.00  0.00    -0.246 C  
HETATM   13  C   UNL     1     -10.424   5.021  71.254  1.00  0.00    -0.213 C  
HETATM   14  C   UNL     1      -9.316   3.628  69.503  1.00  0.00    -0.247 C  
BRANCH  13  15
HETATM   15  C   UNL     1     -10.847   6.385  71.800  1.00  0.00    -0.283 C  
BRANCH  15  16
HETATM   16  C   UNL     1     -11.794   7.179  70.882  1.00  0.00    -0.379 C  
BRANCH  16  17
HETATM   17  C   UNL     1     -11.792   8.709  71.159  1.00  0.00    -0.287 C  
HETATM   18  C   UNL     1     -10.491   9.080  71.903  1.00  0.00    -0.373 C  
HETATM   19  C   UNL     1     -13.077   9.077  71.900  1.00  0.00    -0.459 C  
HETATM   20  C   UNL     1     -13.118  10.558  72.188  1.00  0.00    -0.413 C  
HETATM   21  C   UNL     1     -12.650  11.379  71.018  1.00  0.00    -0.487 A  
HETATM   22  C   UNL     1     -12.773  12.781  71.047  1.00  0.00    -0.331 A  
HETATM   23  C   UNL     1     -13.332  13.492  72.253  1.00  0.00    -0.628 C  
HETATM   24  C   UNL     1     -12.347  13.513  69.925  1.00  0.00    -0.224 A  
HETATM   25  C   UNL     1     -11.781  12.892  68.793  1.00  0.00    -0.363 A  
HETATM   26  O   UNL     1     -12.457  14.879  69.893  1.00  0.00    -0.474 OA 
HETATM   27  C   UNL     1     -11.339  13.725  67.617  1.00  0.00    -0.331 C  
HETATM   28  C   UNL     1     -11.626  11.486  68.786  1.00  0.00    -0.379 A  
HETATM   29  H   UNL     1     -12.169  15.374  69.134  1.00  0.00     0.000 HD 
HETATM   30  C   UNL     1     -12.045  10.745  69.912  1.00  0.00    -0.337 A  
HETATM   31  C   UNL     1     -11.006  10.750  67.624  1.00  0.00    -0.365 C  
HETATM   32  O   UNL     1     -11.797   9.384  69.877  1.00  0.00     0.027 OA 
ENDBRANCH  16  17
ENDBRANCH  15  16
ENDBRANCH  13  15
ENDBRANCH  10  11
ENDBRANCH   9  10
ENDBRANCH   5   6
ENDBRANCH   4   5
TORSDOF 7
ENDMDL
MODEL       38
REMARK 921   NORMALIZED FREE ENERGY PREDICTED BY IDOCK:   -6.53 KCAL/MOL
REMARK 922        TOTAL FREE ENERGY PREDICTED BY IDOCK:  -10.96 KCAL/MOL
REMARK 923 INTER-LIGAND FREE ENERGY PREDICTED BY IDOCK:   -9.80 KCAL/MOL
REMARK 924 INTRA-LIGAND FREE ENERGY PREDICTED BY IDOCK:   -1.16 KCAL/MOL
REMARK 927      BINDING AFFINITY PREDICTED BY RF-SCORE:    0.00 PKD
ROOT
HETATM    1  C   UNL     1     -10.087  19.416  68.710  1.00  0.00    -0.504 C  
HETATM    2  C   UNL     1     -10.044  18.487  67.498  1.00  0.00    -0.383 C  
HETATM    3  C   UNL     1     -10.246  19.299  66.216  1.00  0.00    -0.546 C  
HETATM    4  C   UNL     1      -8.724  17.690  67.500  1.00  0.00    -0.234 C  
ENDROOT
BRANCH   4   5
HETATM    5  C   UNL     1      -8.632  16.735  66.313  1.00  0.00    -0.340 C  
BRANCH   5   6
HETATM    6  C   UNL     1      -8.707  15.267  66.725  1.00  0.00    -0.304 C  
HETATM    7  C   UNL     1     -10.101  14.666  66.452  1.00  0.00    -0.288 C  
HETATM    8  C   UNL     1     -10.479  14.742  64.965  1.00  0.00    -0.443 C  
HETATM    9  C   UNL     1     -10.146  13.218  66.976  1.00  0.00    -0.242 C  
BRANCH   9  10
HETATM   10  C   UNL     1     -11.508  12.571  66.734  1.00  0.00    -0.422 C  
BRANCH  10  11
HETATM   11  C   UNL     1     -12.035  11.857  67.968  1.00  0.00    -0.204 C  
HETATM   12  C   UNL     1     -11.723  12.642  69.258  1.00  0.00    -0.379 C  
HETATM   13  C   UNL     1     -12.151  11.853  70.505  1.00  0.00    -0.422 C  
HETATM   14  C   UNL     1     -12.402  14.016  69.284  1.00  0.00    -0.210 C  
BRANCH  13  15
HETATM   15  C   UNL     1     -11.522  10.467  70.643  1.00  0.00    -0.438 C  
BRANCH  15  16
HETATM   16  C   UNL     1     -12.182   9.564  71.701  1.00  0.00    -0.477 C  
BRANCH  16  17
HETATM   17  C   UNL     1     -11.887   8.051  71.502  1.00  0.00    -0.292 C  
HETATM   18  C   UNL     1     -13.225   7.280  71.472  1.00  0.00    -0.434 C  
HETATM   19  C   UNL     1     -10.912   7.592  72.585  1.00  0.00    -0.405 C  
HETATM   20  C   UNL     1     -10.594   6.125  72.427  1.00  0.00    -0.243 C  
HETATM   21  C   UNL     1     -10.374   5.742  70.989  1.00  0.00    -0.291 A  
HETATM   22  C   UNL     1      -9.910   4.453  70.666  1.00  0.00    -0.280 A  
HETATM   23  C   UNL     1      -9.663   3.420  71.737  1.00  0.00    -0.236 C  
HETATM   24  C   UNL     1      -9.693   4.138  69.314  1.00  0.00    -0.149 A  
HETATM   25  C   UNL     1      -9.949   5.059  68.278  1.00  0.00    -0.193 A  
HETATM   26  O   UNL     1      -9.228   2.903  68.944  1.00  0.00    -0.138 OA 
HETATM   27  C   UNL     1      -9.701   4.671  66.843  1.00  0.00    -0.215 C  
HETATM   28  C   UNL     1     -10.451   6.340  68.606  1.00  0.00    -0.274 A  
HETATM   29  H   UNL     1      -9.081   2.691  68.029  1.00  0.00     0.000 HD 
HETATM   30  C   UNL     1     -10.679   6.661  69.962  1.00  0.00    -0.240 A  
HETATM   31  C   UNL     1     -10.775   7.372  67.554  1.00  0.00    -0.310 C  
HETATM   32  O   UNL     1     -11.241   7.899  70.214  1.00  0.00    -0.264 OA 
ENDBRANCH  16  17
ENDBRANCH  15  16
ENDBRANCH  13  15
ENDBRANCH  10  11
ENDBRANCH   9  10
ENDBRANCH   5   6
ENDBRANCH   4   5
TORSDOF 7
ENDMDL
MODEL       39
REMARK 921   NORMALIZED FREE ENERGY PREDICTED BY IDOCK:   -6.51 KCAL/MOL
REMARK 922        TOTAL FREE ENERGY PREDICTED BY IDOCK:  -10.93 KCAL/MOL
REMARK 923 INTER-LIGAND FREE ENERGY PREDICTED BY IDOCK:   -7.43 KCAL/MOL
REMARK 924 INTRA-LIGAND FREE ENERGY PREDICTED BY IDOCK:   -3.51 KCAL/MOL
REMARK 927      BINDING AFFINITY PREDICTED BY RF-SCORE:    0.00 PKD
ROOT
HETATM    1  C   UNL     1     -10.316  16.794  66.059  1.00  0.00    -0.346 C  
HETATM    2  C   UNL     1     -10.391  16.078  67.406  1.00  0.00    -0.294 C  
HETATM    3  C   UNL     1     -10.364  17.107  68.541  1.00  0.00    -0.364 C  
HETATM    4  C   UNL     1     -11.640  15.175  67.448  1.00  0.00    -0.251 C  
ENDROOT
BRANCH   4   5
HETATM    5  C   UNL     1     -11.759  14.426  68.771  1.00  0.00    -0.372 C  
BRANCH   5   6
HETATM    6  C   UNL     1     -11.998  12.929  68.587  1.00  0.00    -0.282 C  
HETATM    7  C   UNL     1     -11.696  12.138  69.877  1.00  0.00    -0.361 C  
HETATM    8  C   UNL     1     -12.572  12.598  71.052  1.00  0.00    -0.354 C  
HETATM    9  C   UNL     1     -11.860  10.631  69.603  1.00  0.00    -0.358 C  
BRANCH   9  10
HETATM   10  C   UNL     1     -11.571   9.796  70.848  1.00  0.00    -0.441 C  
BRANCH  10  11
HETATM   11  C   UNL     1     -11.020   8.420  70.506  1.00  0.00    -0.258 C  
HETATM   12  C   UNL     1     -10.182   7.838  71.663  1.00  0.00    -0.225 C  
HETATM   13  C   UNL     1      -9.532   6.506  71.261  1.00  0.00    -0.172 C  
HETATM   14  C   UNL     1     -11.013   7.621  72.934  1.00  0.00    -0.456 C  
BRANCH  13  15
HETATM   15  C   UNL     1      -8.634   6.569  70.026  1.00  0.00    -0.140 C  
BRANCH  15  16
HETATM   16  C   UNL     1      -7.339   7.381  70.213  1.00  0.00    -0.078 C  
BRANCH  16  17
HETATM   17  C   UNL     1      -7.305   8.698  69.388  1.00  0.00    -0.072 C  
HETATM   18  C   UNL     1      -6.003   8.734  68.558  1.00  0.00    -0.045 C  
HETATM   19  C   UNL     1      -7.487   9.880  70.339  1.00  0.00    -0.137 C  
HETATM   20  C   UNL     1      -7.462  11.183  69.577  1.00  0.00     0.018 C  
HETATM   21  C   UNL     1      -8.244  11.108  68.295  1.00  0.00    -0.134 A  
HETATM   22  C   UNL     1      -8.467  12.272  67.536  1.00  0.00    -0.172 A  
HETATM   23  C   UNL     1      -7.900  13.603  67.961  1.00  0.00    -0.150 C  
HETATM   24  C   UNL     1      -9.223  12.167  66.356  1.00  0.00    -0.207 A  
HETATM   25  C   UNL     1      -9.739  10.937  65.900  1.00  0.00    -0.269 A  
HETATM   26  O   UNL     1      -9.483  13.271  65.586  1.00  0.00    -0.483 OA 
HETATM   27  C   UNL     1     -10.542  10.879  64.626  1.00  0.00    -0.332 C  
HETATM   28  C   UNL     1      -9.479   9.764  66.647  1.00  0.00    -0.220 A  
HETATM   29  H   UNL     1      -9.995  13.200  64.788  1.00  0.00     0.000 HD 
HETATM   30  C   UNL     1      -8.714   9.861  67.830  1.00  0.00    -0.129 A  
HETATM   31  C   UNL     1      -9.973   8.407  66.213  1.00  0.00    -0.216 C  
HETATM   32  O   UNL     1      -8.431   8.671  68.476  1.00  0.00    -0.128 OA 
ENDBRANCH  16  17
ENDBRANCH  15  16
ENDBRANCH  13  15
ENDBRANCH  10  11
ENDBRANCH   9  10
ENDBRANCH   5   6
ENDBRANCH   4   5
TORSDOF 7
ENDMDL
MODEL       40
REMARK 921   NORMALIZED FREE ENERGY PREDICTED BY IDOCK:   -6.49 KCAL/MOL
REMARK 922        TOTAL FREE ENERGY PREDICTED BY IDOCK:  -10.90 KCAL/MOL
REMARK 923 INTER-LIGAND FREE ENERGY PREDICTED BY IDOCK:   -8.30 KCAL/MOL
REMARK 924 INTRA-LIGAND FREE ENERGY PREDICTED BY IDOCK:   -2.60 KCAL/MOL
REMARK 927      BINDING AFFINITY PREDICTED BY RF-SCORE:    0.00 PKD
ROOT
HETATM    1  C   UNL     1     -11.472  12.281  64.339  1.00  0.00    -0.417 C  
HETATM    2  C   UNL     1     -11.810  13.765  64.462  1.00  0.00    -0.445 C  
HETATM    3  C   UNL     1     -12.956  13.953  65.461  1.00  0.00    -0.375 C  
HETATM    4  C   UNL     1     -10.545  14.558  64.846  1.00  0.00    -0.450 C  
ENDROOT
BRANCH   4   5
HETATM    5  C   UNL     1     -10.825  16.052  64.973  1.00  0.00    -0.421 C  
BRANCH   5   6
HETATM    6  C   UNL     1     -10.993  16.504  66.421  1.00  0.00     0.082 C  
HETATM    7  C   UNL     1     -10.143  17.753  66.735  1.00  0.00    -0.349 C  
HETATM    8  C   UNL     1     -10.518  18.943  65.840  1.00  0.00    -0.450 C  
HETATM    9  C   UNL     1     -10.277  18.101  68.229  1.00  0.00    -0.402 C  
BRANCH   9  10
HETATM   10  C   UNL     1      -9.453  19.333  68.598  1.00  0.00    -0.463 C  
BRANCH  10  11
HETATM   11  C   UNL     1      -8.008  18.985  68.919  1.00  0.00    -0.323 C  
HETATM   12  C   UNL     1      -7.061  19.361  67.760  1.00  0.00    -0.276 C  
HETATM   13  C   UNL     1      -5.625  18.896  68.043  1.00  0.00    -0.188 C  
HETATM   14  C   UNL     1      -7.048  20.870  67.483  1.00  0.00    -0.389 C  
BRANCH  13  15
HETATM   15  C   UNL     1      -5.468  17.397  68.301  1.00  0.00    -0.144 C  
BRANCH  15  16
HETATM   16  C   UNL     1      -6.264  16.866  69.508  1.00  0.00    -0.229 C  
BRANCH  16  17
HETATM   17  C   UNL     1      -6.999  15.525  69.228  1.00  0.00    -0.171 C  
HETATM   18  C   UNL     1      -6.471  14.453  70.207  1.00  0.00    -0.130 C  
HETATM   19  C   UNL     1      -6.836  15.173  67.750  1.00  0.00    -0.190 C  
HETATM   20  C   UNL     1      -7.538  13.875  67.433  1.00  0.00    -0.160 C  
HETATM   21  C   UNL     1      -8.885  13.779  68.097  1.00  0.00    -0.185 A  
HETATM   22  C   UNL     1      -9.749  12.713  67.786  1.00  0.00    -0.206 A  
HETATM   23  C   UNL     1      -9.339  11.630  66.821  1.00  0.00    -0.193 C  
HETATM   24  C   UNL     1     -11.009  12.670  68.408  1.00  0.00    -0.257 A  
HETATM   25  C   UNL     1     -11.418  13.640  69.346  1.00  0.00    -0.343 A  
HETATM   26  O   UNL     1     -11.897  11.663  68.131  1.00  0.00    -0.481 OA 
HETATM   27  C   UNL     1     -12.779  13.545  69.986  1.00  0.00    -0.005 C  
HETATM   28  C   UNL     1     -10.529  14.687  69.683  1.00  0.00    -0.076 A  
HETATM   29  H   UNL     1     -12.749  11.634  68.552  1.00  0.00     0.000 HD 
HETATM   30  C   UNL     1      -9.259  14.733  69.068  1.00  0.00    -0.145 A  
HETATM   31  C   UNL     1     -10.881  15.748  70.697  1.00  0.00    -0.281 C  
HETATM   32  O   UNL     1      -8.407  15.736  69.494  1.00  0.00    -0.242 OA 
ENDBRANCH  16  17
ENDBRANCH  15  16
ENDBRANCH  13  15
ENDBRANCH  10  11
ENDBRANCH   9  10
ENDBRANCH   5   6
ENDBRANCH   4   5
TORSDOF 7
ENDMDL
MODEL       41
REMARK 921   NORMALIZED FREE ENERGY PREDICTED BY IDOCK:   -6.41 KCAL/MOL
REMARK 922        TOTAL FREE ENERGY PREDICTED BY IDOCK:  -10.78 KCAL/MOL
REMARK 923 INTER-LIGAND FREE ENERGY PREDICTED BY IDOCK:   -8.82 KCAL/MOL
REMARK 924 INTRA-LIGAND FREE ENERGY PREDICTED BY IDOCK:   -1.96 KCAL/MOL
REMARK 927      BINDING AFFINITY PREDICTED BY RF-SCORE:    0.00 PKD
ROOT
HETATM    1  C   UNL     1     -13.009   9.907  72.257  1.00  0.00    -0.387 C  
HETATM    2  C   UNL     1     -12.714  11.174  71.457  1.00  0.00    -0.499 C  
HETATM    3  C   UNL     1     -13.014  10.931  69.974  1.00  0.00     0.046 C  
HETATM    4  C   UNL     1     -13.509  12.358  72.042  1.00  0.00    -0.460 C  
ENDROOT
BRANCH   4   5
HETATM    5  C   UNL     1     -13.243  13.655  71.285  1.00  0.00    -0.308 C  
BRANCH   5   6
HETATM    6  C   UNL     1     -11.800  13.777  70.804  1.00  0.00    -0.215 C  
HETATM    7  C   UNL     1     -11.496  15.187  70.255  1.00  0.00    -0.315 C  
HETATM    8  C   UNL     1     -11.717  16.276  71.315  1.00  0.00    -0.396 C  
HETATM    9  C   UNL     1     -10.060  15.220  69.698  1.00  0.00    -0.246 C  
BRANCH   9  10
HETATM   10  C   UNL     1      -9.704  16.596  69.138  1.00  0.00    -0.226 C  
BRANCH  10  11
HETATM   11  C   UNL     1      -9.476  16.566  67.635  1.00  0.00    -0.225 C  
HETATM   12  C   UNL     1     -10.648  17.215  66.868  1.00  0.00    -0.209 C  
HETATM   13  C   UNL     1     -10.465  17.070  65.350  1.00  0.00    -0.129 C  
HETATM   14  C   UNL     1     -10.816  18.700  67.208  1.00  0.00    -0.369 C  
BRANCH  13  15
HETATM   15  C   UNL     1     -10.322  15.634  64.848  1.00  0.00    -0.164 C  
BRANCH  15  16
HETATM   16  C   UNL     1     -11.652  14.872  64.692  1.00  0.00    -0.395 C  
BRANCH  16  17
HETATM   17  C   UNL     1     -11.575  13.386  65.142  1.00  0.00    -0.308 C  
HETATM   18  C   UNL     1     -12.884  12.673  64.739  1.00  0.00    -0.349 C  
HETATM   19  C   UNL     1     -11.259  13.339  66.637  1.00  0.00    -0.332 C  
HETATM   20  C   UNL     1     -11.172  11.910  67.116  1.00  0.00    -0.377 C  
HETATM   21  C   UNL     1     -10.428  11.030  66.150  1.00  0.00    -0.301 A  
HETATM   22  C   UNL     1     -10.109   9.706  66.506  1.00  0.00    -0.314 A  
HETATM   23  C   UNL     1     -10.535   9.128  67.833  1.00  0.00    -0.293 C  
HETATM   24  C   UNL     1      -9.392   8.920  65.588  1.00  0.00    -0.191 A  
HETATM   25  C   UNL     1      -9.009   9.406  64.321  1.00  0.00    -0.204 A  
HETATM   26  O   UNL     1      -9.041   7.629  65.888  1.00  0.00    -0.308 OA 
HETATM   27  C   UNL     1      -8.242   8.521  63.373  1.00  0.00    -0.136 C  
HETATM   28  C   UNL     1      -9.365  10.725  63.955  1.00  0.00    -0.284 A  
HETATM   29  H   UNL     1      -8.556   7.098  65.267  1.00  0.00     0.000 HD 
HETATM   30  C   UNL     1     -10.092  11.518  64.869  1.00  0.00    -0.268 A  
HETATM   31  C   UNL     1      -9.015  11.309  62.608  1.00  0.00    -0.311 C  
HETATM   32  O   UNL     1     -10.477  12.770  64.425  1.00  0.00    -0.346 OA 
ENDBRANCH  16  17
ENDBRANCH  15  16
ENDBRANCH  13  15
ENDBRANCH  10  11
ENDBRANCH   9  10
ENDBRANCH   5   6
ENDBRANCH   4   5
TORSDOF 7
ENDMDL
MODEL       42
REMARK 921   NORMALIZED FREE ENERGY PREDICTED BY IDOCK:   -6.38 KCAL/MOL
REMARK 922        TOTAL FREE ENERGY PREDICTED BY IDOCK:  -10.74 KCAL/MOL
REMARK 923 INTER-LIGAND FREE ENERGY PREDICTED BY IDOCK:   -9.58 KCAL/MOL
REMARK 924 INTRA-LIGAND FREE ENERGY PREDICTED BY IDOCK:   -1.17 KCAL/MOL
REMARK 927      BINDING AFFINITY PREDICTED BY RF-SCORE:    0.00 PKD
ROOT
HETATM    1  C   UNL     1     -14.103   8.942  71.902  1.00  0.00    -0.453 C  
HETATM    2  C   UNL     1     -12.782   8.434  71.328  1.00  0.00    -0.208 C  
HETATM    3  C   UNL     1     -11.628   9.300  71.841  1.00  0.00    -0.405 C  
HETATM    4  C   UNL     1     -12.606   6.940  71.668  1.00  0.00    -0.410 C  
ENDROOT
BRANCH   4   5
HETATM    5  C   UNL     1     -11.303   6.377  71.108  1.00  0.00    -0.376 C  
BRANCH   5   6
HETATM    6  C   UNL     1     -11.300   6.291  69.584  1.00  0.00    -0.492 C  
HETATM    7  C   UNL     1     -10.390   7.365  68.952  1.00  0.00    -0.214 C  
HETATM    8  C   UNL     1      -8.933   7.230  69.418  1.00  0.00    -0.139 C  
HETATM    9  C   UNL     1     -10.503   7.293  67.417  1.00  0.00    -0.359 C  
BRANCH   9  10
HETATM   10  C   UNL     1      -9.622   8.337  66.736  1.00  0.00    -0.288 C  
BRANCH  10  11
HETATM   11  C   UNL     1     -10.407   9.567  66.309  1.00  0.00    -0.226 C  
HETATM   12  C   UNL     1      -9.597  10.452  65.339  1.00  0.00    -0.303 C  
HETATM   13  C   UNL     1     -10.351  11.750  65.011  1.00  0.00    -0.325 C  
HETATM   14  C   UNL     1      -9.263   9.728  64.030  1.00  0.00    -0.267 C  
BRANCH  13  15
HETATM   15  C   UNL     1     -10.722  12.608  66.221  1.00  0.00    -0.280 C  
BRANCH  15  16
HETATM   16  C   UNL     1      -9.563  13.445  66.795  1.00  0.00    -0.262 C  
BRANCH  16  17
HETATM   17  C   UNL     1      -9.881  14.964  66.892  1.00  0.00    -0.240 C  
HETATM   18  C   UNL     1     -11.023  15.172  67.910  1.00  0.00    -0.302 C  
HETATM   19  C   UNL     1     -10.174  15.496  65.489  1.00  0.00    -0.415 C  
HETATM   20  C   UNL     1     -10.486  16.973  65.536  1.00  0.00    -0.181 C  
HETATM   21  C   UNL     1      -9.564  17.720  66.460  1.00  0.00    -0.315 A  
HETATM   22  C   UNL     1      -9.601  19.126  66.506  1.00  0.00    -0.399 A  
HETATM   23  C   UNL     1     -10.583  19.910  65.672  1.00  0.00    -0.431 C  
HETATM   24  C   UNL     1      -8.708  19.792  67.363  1.00  0.00    -0.326 A  
HETATM   25  C   UNL     1      -7.801  19.097  68.190  1.00  0.00    -0.336 A  
HETATM   26  O   UNL     1      -8.691  21.161  67.437  1.00  0.00    -0.434 OA 
HETATM   27  C   UNL     1      -6.866  19.860  69.093  1.00  0.00    -0.342 C  
HETATM   28  C   UNL     1      -7.795  17.683  68.167  1.00  0.00    -0.257 A  
HETATM   29  H   UNL     1      -8.087  21.610  68.017  1.00  0.00     0.000 HD 
HETATM   30  C   UNL     1      -8.695  17.008  67.314  1.00  0.00    -0.199 A  
HETATM   31  C   UNL     1      -6.874  16.868  69.040  1.00  0.00    -0.224 C  
HETATM   32  O   UNL     1      -8.693  15.627  67.391  1.00  0.00    -0.168 OA 
ENDBRANCH  16  17
ENDBRANCH  15  16
ENDBRANCH  13  15
ENDBRANCH  10  11
ENDBRANCH   9  10
ENDBRANCH   5   6
ENDBRANCH   4   5
TORSDOF 7
ENDMDL
MODEL       43
REMARK 921   NORMALIZED FREE ENERGY PREDICTED BY IDOCK:   -6.37 KCAL/MOL
REMARK 922        TOTAL FREE ENERGY PREDICTED BY IDOCK:  -10.74 KCAL/MOL
REMARK 923 INTER-LIGAND FREE ENERGY PREDICTED BY IDOCK:   -7.17 KCAL/MOL
REMARK 924 INTRA-LIGAND FREE ENERGY PREDICTED BY IDOCK:   -3.57 KCAL/MOL
REMARK 927      BINDING AFFINITY PREDICTED BY RF-SCORE:    0.00 PKD
ROOT
HETATM    1  C   UNL     1     -12.624  14.029  65.136  1.00  0.00    -0.453 C  
HETATM    2  C   UNL     1     -12.052  12.671  64.737  1.00  0.00    -0.495 C  
HETATM    3  C   UNL     1     -12.871  12.084  63.583  1.00  0.00    -0.472 C  
HETATM    4  C   UNL     1     -10.555  12.815  64.396  1.00  0.00    -0.402 C  
ENDROOT
BRANCH   4   5
HETATM    5  C   UNL     1      -9.929  11.482  63.999  1.00  0.00    -0.341 C  
BRANCH   5   6
HETATM    6  C   UNL     1      -9.983  10.444  65.116  1.00  0.00    -0.390 C  
HETATM    7  C   UNL     1      -9.013   9.272  64.857  1.00  0.00    -0.229 C  
HETATM    8  C   UNL     1      -7.556   9.746  64.746  1.00  0.00    -0.129 C  
HETATM    9  C   UNL     1      -9.183   8.214  65.964  1.00  0.00    -0.207 C  
BRANCH   9  10
HETATM   10  C   UNL     1      -8.246   7.026  65.757  1.00  0.00    -0.132 C  
BRANCH  10  11
HETATM   11  C   UNL     1      -8.149   6.145  66.992  1.00  0.00    -0.106 C  
HETATM   12  C   UNL     1      -9.543   5.774  67.539  1.00  0.00    -0.118 C  
HETATM   13  C   UNL     1      -9.432   4.988  68.854  1.00  0.00    -0.195 C  
HETATM   14  C   UNL     1     -10.362   4.951  66.537  1.00  0.00    -0.311 C  
BRANCH  13  15
HETATM   15  C   UNL     1      -8.671   5.699  69.972  1.00  0.00    -0.132 C  
BRANCH  15  16
HETATM   16  C   UNL     1      -9.565   6.369  71.033  1.00  0.00    -0.188 C  
BRANCH  16  17
HETATM   17  C   UNL     1      -9.800   7.885  70.781  1.00  0.00    -0.180 C  
HETATM   18  C   UNL     1      -9.490   8.661  72.080  1.00  0.00    -0.373 C  
HETATM   19  C   UNL     1     -11.218   8.081  70.245  1.00  0.00    -0.192 C  
HETATM   20  C   UNL     1     -11.489   9.543  69.984  1.00  0.00    -0.149 C  
HETATM   21  C   UNL     1     -10.322  10.230  69.328  1.00  0.00    -0.250 A  
HETATM   22  C   UNL     1     -10.454  11.552  68.864  1.00  0.00    -0.212 A  
HETATM   23  C   UNL     1     -11.738  12.321  69.045  1.00  0.00    -0.376 C  
HETATM   24  C   UNL     1      -9.350  12.154  68.234  1.00  0.00    -0.198 A  
HETATM   25  C   UNL     1      -8.118  11.486  68.079  1.00  0.00    -0.136 A  
HETATM   26  O   UNL     1      -9.427  13.434  67.750  1.00  0.00    -0.196 OA 
HETATM   27  C   UNL     1      -6.965  12.178  67.398  1.00  0.00    -0.146 C  
HETATM   28  C   UNL     1      -7.981  10.172  68.582  1.00  0.00    -0.103 A  
HETATM   29  H   UNL     1      -8.681  13.840  67.324  1.00  0.00     0.000 HD 
HETATM   30  C   UNL     1      -9.083   9.564  69.222  1.00  0.00    -0.161 A  
HETATM   31  C   UNL     1      -6.688   9.401  68.479  1.00  0.00    -0.058 C  
HETATM   32  O   UNL     1      -8.864   8.308  69.759  1.00  0.00    -0.139 OA 
ENDBRANCH  16  17
ENDBRANCH  15  16
ENDBRANCH  13  15
ENDBRANCH  10  11
ENDBRANCH   9  10
ENDBRANCH   5   6
ENDBRANCH   4   5
TORSDOF 7
ENDMDL
MODEL       44
REMARK 921   NORMALIZED FREE ENERGY PREDICTED BY IDOCK:   -6.36 KCAL/MOL
REMARK 922        TOTAL FREE ENERGY PREDICTED BY IDOCK:  -10.72 KCAL/MOL
REMARK 923 INTER-LIGAND FREE ENERGY PREDICTED BY IDOCK:   -8.69 KCAL/MOL
REMARK 924 INTRA-LIGAND FREE ENERGY PREDICTED BY IDOCK:   -2.03 KCAL/MOL
REMARK 927      BINDING AFFINITY PREDICTED BY RF-SCORE:    0.00 PKD
ROOT
HETATM    1  C   UNL     1      -8.400  10.749  62.459  1.00  0.00    -0.249 C  
HETATM    2  C   UNL     1      -9.190  10.833  63.763  1.00  0.00    -0.266 C  
HETATM    3  C   UNL     1     -10.652  11.177  63.461  1.00  0.00    -0.393 C  
HETATM    4  C   UNL     1      -9.036   9.518  64.552  1.00  0.00    -0.256 C  
ENDROOT
BRANCH   4   5
HETATM    5  C   UNL     1      -9.799   9.550  65.873  1.00  0.00    -0.360 C  
BRANCH   5   6
HETATM    6  C   UNL     1      -8.910   9.263  67.079  1.00  0.00    -0.135 C  
HETATM    7  C   UNL     1      -9.674   8.508  68.187  1.00  0.00    -0.175 C  
HETATM    8  C   UNL     1     -10.221   7.161  67.693  1.00  0.00    -0.253 C  
HETATM    9  C   UNL     1      -8.758   8.334  69.413  1.00  0.00    -0.142 C  
BRANCH   9  10
HETATM   10  C   UNL     1      -9.465   7.592  70.546  1.00  0.00    -0.164 C  
BRANCH  10  11
HETATM   11  C   UNL     1     -10.434   8.485  71.304  1.00  0.00    -0.289 C  
HETATM   12  C   UNL     1     -11.901   8.161  70.954  1.00  0.00    -0.232 C  
HETATM   13  C   UNL     1     -12.865   9.147  71.631  1.00  0.00    -0.431 C  
HETATM   14  C   UNL     1     -12.293   6.733  71.352  1.00  0.00    -0.403 C  
BRANCH  13  15
HETATM   15  C   UNL     1     -12.625  10.619  71.298  1.00  0.00    -0.533 C  
BRANCH  15  16
HETATM   16  C   UNL     1     -12.760  10.971  69.805  1.00  0.00    -0.024 C  
BRANCH  16  17
HETATM   17  C   UNL     1     -11.877  12.172  69.364  1.00  0.00    -0.309 C  
HETATM   18  C   UNL     1     -10.419  11.687  69.203  1.00  0.00    -0.099 C  
HETATM   19  C   UNL     1     -12.061  13.312  70.365  1.00  0.00    -0.401 C  
HETATM   20  C   UNL     1     -11.220  14.503  69.973  1.00  0.00    -0.228 C  
HETATM   21  C   UNL     1     -11.266  14.770  68.494  1.00  0.00    -0.291 A  
HETATM   22  C   UNL     1     -10.674  15.935  67.970  1.00  0.00    -0.301 A  
HETATM   23  C   UNL     1      -9.952  16.914  68.861  1.00  0.00    -0.279 C  
HETATM   24  C   UNL     1     -10.757  16.163  66.586  1.00  0.00    -0.226 A  
HETATM   25  C   UNL     1     -11.387  15.255  65.710  1.00  0.00    -0.180 A  
HETATM   26  O   UNL     1     -10.211  17.288  66.023  1.00  0.00    -0.397 OA 
HETATM   27  C   UNL     1     -11.447  15.547  64.233  1.00  0.00    -0.186 C  
HETATM   28  C   UNL     1     -11.946  14.068  66.239  1.00  0.00    -0.454 A  
HETATM   29  H   UNL     1     -10.268  17.442  65.087  1.00  0.00     0.000 HD 
HETATM   30  C   UNL     1     -11.861  13.829  67.627  1.00  0.00    -0.378 A  
HETATM   31  C   UNL     1     -12.614  13.035  65.365  1.00  0.00    -0.481 C  
HETATM   32  O   UNL     1     -12.358  12.617  68.073  1.00  0.00    -0.179 OA 
ENDBRANCH  16  17
ENDBRANCH  15  16
ENDBRANCH  13  15
ENDBRANCH  10  11
ENDBRANCH   9  10
ENDBRANCH   5   6
ENDBRANCH   4   5
TORSDOF 7
ENDMDL
MODEL       45
REMARK 921   NORMALIZED FREE ENERGY PREDICTED BY IDOCK:   -6.35 KCAL/MOL
REMARK 922        TOTAL FREE ENERGY PREDICTED BY IDOCK:  -10.71 KCAL/MOL
REMARK 923 INTER-LIGAND FREE ENERGY PREDICTED BY IDOCK:   -9.35 KCAL/MOL
REMARK 924 INTRA-LIGAND FREE ENERGY PREDICTED BY IDOCK:   -1.35 KCAL/MOL
REMARK 927      BINDING AFFINITY PREDICTED BY RF-SCORE:    0.00 PKD
ROOT
HETATM    1  C   UNL     1     -10.627   1.850  73.377  1.00  0.00    -0.219 C  
HETATM    2  C   UNL     1     -10.789   3.360  73.212  1.00  0.00    -0.287 C  
HETATM    3  C   UNL     1     -10.375   4.068  74.505  1.00  0.00    -0.271 C  
HETATM    4  C   UNL     1      -9.990   3.839  71.984  1.00  0.00    -0.238 C  
ENDROOT
BRANCH   4   5
HETATM    5  C   UNL     1     -10.125   5.343  71.766  1.00  0.00    -0.251 C  
BRANCH   5   6
HETATM    6  C   UNL     1     -10.439   5.707  70.318  1.00  0.00    -0.363 C  
HETATM    7  C   UNL     1     -10.050   7.165  69.996  1.00  0.00    -0.194 C  
HETATM    8  C   UNL     1      -8.551   7.421  70.216  1.00  0.00    -0.145 C  
HETATM    9  C   UNL     1     -10.478   7.504  68.556  1.00  0.00    -0.211 C  
BRANCH   9  10
HETATM   10  C   UNL     1     -10.118   8.940  68.182  1.00  0.00    -0.227 C  
BRANCH  10  11
HETATM   11  C   UNL     1     -10.512   9.281  66.754  1.00  0.00    -0.263 C  
HETATM   12  C   UNL     1      -9.358   9.966  65.993  1.00  0.00    -0.240 C  
HETATM   13  C   UNL     1      -9.806  10.416  64.594  1.00  0.00    -0.405 C  
HETATM   14  C   UNL     1      -8.131   9.058  65.852  1.00  0.00    -0.108 C  
BRANCH  13  15
HETATM   15  C   UNL     1     -11.004  11.365  64.570  1.00  0.00    -0.346 C  
BRANCH  15  16
HETATM   16  C   UNL     1     -10.676  12.802  64.124  1.00  0.00    -0.441 C  
BRANCH  16  17
HETATM   17  C   UNL     1     -11.049  13.883  65.178  1.00  0.00    -0.334 C  
HETATM   18  C   UNL     1     -12.454  14.435  64.852  1.00  0.00    -0.368 C  
HETATM   19  C   UNL     1      -9.943  14.937  65.214  1.00  0.00    -0.328 C  
HETATM   20  C   UNL     1     -10.264  16.007  66.229  1.00  0.00    -0.329 C  
HETATM   21  C   UNL     1     -10.815  15.434  67.506  1.00  0.00    -0.305 A  
HETATM   22  C   UNL     1     -11.018  16.267  68.622  1.00  0.00    -0.340 A  
HETATM   23  C   UNL     1     -10.731  17.746  68.557  1.00  0.00    -0.148 C  
HETATM   24  C   UNL     1     -11.512  15.692  69.806  1.00  0.00    -0.342 A  
HETATM   25  C   UNL     1     -11.832  14.322  69.899  1.00  0.00    -0.382 A  
HETATM   26  O   UNL     1     -11.715  16.454  70.928  1.00  0.00    -0.573 OA 
HETATM   27  C   UNL     1     -12.360  13.756  71.192  1.00  0.00    -0.428 C  
HETATM   28  C   UNL     1     -11.661  13.498  68.762  1.00  0.00    -0.373 A  
HETATM   29  H   UNL     1     -12.048  16.064  71.728  1.00  0.00     0.000 HD 
HETATM   30  C   UNL     1     -11.172  14.070  67.568  1.00  0.00    -0.309 A  
HETATM   31  C   UNL     1     -12.005  12.029  68.774  1.00  0.00    -0.299 C  
HETATM   32  O   UNL     1     -11.099  13.231  66.471  1.00  0.00    -0.287 OA 
ENDBRANCH  16  17
ENDBRANCH  15  16
ENDBRANCH  13  15
ENDBRANCH  10  11
ENDBRANCH   9  10
ENDBRANCH   5   6
ENDBRANCH   4   5
TORSDOF 7
ENDMDL
MODEL       46
REMARK 921   NORMALIZED FREE ENERGY PREDICTED BY IDOCK:   -6.32 KCAL/MOL
REMARK 922        TOTAL FREE ENERGY PREDICTED BY IDOCK:  -10.66 KCAL/MOL
REMARK 923 INTER-LIGAND FREE ENERGY PREDICTED BY IDOCK:   -9.19 KCAL/MOL
REMARK 924 INTRA-LIGAND FREE ENERGY PREDICTED BY IDOCK:   -1.47 KCAL/MOL
REMARK 927      BINDING AFFINITY PREDICTED BY RF-SCORE:    0.00 PKD
ROOT
HETATM    1  C   UNL     1     -13.366  10.465  71.780  1.00  0.00    -0.456 C  
HETATM    2  C   UNL     1     -13.073   9.068  72.325  1.00  0.00    -0.508 C  
HETATM    3  C   UNL     1     -14.078   8.067  71.748  1.00  0.00    -0.517 C  
HETATM    4  C   UNL     1     -11.610   8.688  72.024  1.00  0.00    -0.440 C  
ENDROOT
BRANCH   4   5
HETATM    5  C   UNL     1     -11.259   7.302  72.557  1.00  0.00    -0.342 C  
BRANCH   5   6
HETATM    6  C   UNL     1     -11.174   6.247  71.458  1.00  0.00    -0.344 C  
HETATM    7  C   UNL     1     -10.092   6.593  70.414  1.00  0.00    -0.205 C  
HETATM    8  C   UNL     1      -8.697   6.702  71.048  1.00  0.00    -0.138 C  
HETATM    9  C   UNL     1     -10.120   5.548  69.282  1.00  0.00    -0.293 C  
BRANCH   9  10
HETATM   10  C   UNL     1      -9.067   5.841  68.216  1.00  0.00    -0.117 C  
BRANCH  10  11
HETATM   11  C   UNL     1      -9.422   7.055  67.372  1.00  0.00    -0.155 C  
HETATM   12  C   UNL     1      -8.458   7.221  66.179  1.00  0.00    -0.144 C  
HETATM   13  C   UNL     1      -8.750   8.515  65.405  1.00  0.00    -0.194 C  
HETATM   14  C   UNL     1      -8.523   6.037  65.207  1.00  0.00    -0.131 C  
BRANCH  13  15
HETATM   15  C   UNL     1      -8.684   9.796  66.236  1.00  0.00    -0.152 C  
BRANCH  15  16
HETATM   16  C   UNL     1      -9.935  10.689  66.142  1.00  0.00    -0.283 C  
BRANCH  16  17
HETATM   17  C   UNL     1     -10.194  11.535  67.420  1.00  0.00    -0.203 C  
HETATM   18  C   UNL     1      -9.030  11.313  68.411  1.00  0.00    -0.167 C  
HETATM   19  C   UNL     1     -11.576  11.183  67.971  1.00  0.00    -0.337 C  
HETATM   20  C   UNL     1     -11.871  11.986  69.216  1.00  0.00    -0.377 C  
HETATM   21  C   UNL     1     -11.445  13.422  69.081  1.00  0.00    -0.351 A  
HETATM   22  C   UNL     1     -11.787  14.355  70.078  1.00  0.00    -0.377 A  
HETATM   23  C   UNL     1     -12.545  13.937  71.312  1.00  0.00    -0.450 C  
HETATM   24  C   UNL     1     -11.394  15.693  69.906  1.00  0.00    -0.337 A  
HETATM   25  C   UNL     1     -10.650  16.120  68.787  1.00  0.00    -0.279 A  
HETATM   26  O   UNL     1     -11.713  16.647  70.838  1.00  0.00    -0.516 OA 
HETATM   27  C   UNL     1     -10.251  17.567  68.652  1.00  0.00    -0.373 C  
HETATM   28  C   UNL     1     -10.276  15.170  67.807  1.00  0.00    -0.236 A  
HETATM   29  H   UNL     1     -11.447  17.551  70.721  1.00  0.00     0.000 HD 
HETATM   30  C   UNL     1     -10.662  13.823  67.977  1.00  0.00    -0.250 A  
HETATM   31  C   UNL     1      -9.458  15.542  66.595  1.00  0.00    -0.281 C  
HETATM   32  O   UNL     1     -10.203  12.929  67.026  1.00  0.00    -0.239 OA 
ENDBRANCH  16  17
ENDBRANCH  15  16
ENDBRANCH  13  15
ENDBRANCH  10  11
ENDBRANCH   9  10
ENDBRANCH   5   6
ENDBRANCH   4   5
TORSDOF 7
ENDMDL
MODEL       47
REMARK 921   NORMALIZED FREE ENERGY PREDICTED BY IDOCK:   -6.31 KCAL/MOL
REMARK 922        TOTAL FREE ENERGY PREDICTED BY IDOCK:  -10.65 KCAL/MOL
REMARK 923 INTER-LIGAND FREE ENERGY PREDICTED BY IDOCK:   -9.70 KCAL/MOL
REMARK 924 INTRA-LIGAND FREE ENERGY PREDICTED BY IDOCK:   -0.95 KCAL/MOL
REMARK 927      BINDING AFFINITY PREDICTED BY RF-SCORE:    0.00 PKD
ROOT
HETATM    1  C   UNL     1     -10.524  10.882  64.022  1.00  0.00    -0.379 C  
HETATM    2  C   UNL     1     -10.537  12.408  63.970  1.00  0.00    -0.444 C  
HETATM    3  C   UNL     1     -11.881  12.896  63.421  1.00  0.00    -0.576 C  
HETATM    4  C   UNL     1     -10.217  12.981  65.365  1.00  0.00    -0.301 C  
ENDROOT
BRANCH   4   5
HETATM    5  C   UNL     1     -10.206  14.507  65.368  1.00  0.00    -0.415 C  
BRANCH   5   6
HETATM    6  C   UNL     1     -11.140  15.105  66.417  1.00  0.00    -0.312 C  
HETATM    7  C   UNL     1     -10.938  14.454  67.801  1.00  0.00    -0.283 C  
HETATM    8  C   UNL     1      -9.502  14.632  68.316  1.00  0.00    -0.211 C  
HETATM    9  C   UNL     1     -11.971  15.027  68.791  1.00  0.00    -0.282 C  
BRANCH   9  10
HETATM   10  C   UNL     1     -11.819  14.416  70.182  1.00  0.00    -0.380 C  
BRANCH  10  11
HETATM   11  C   UNL     1     -12.340  12.989  70.246  1.00  0.00    -0.311 C  
HETATM   12  C   UNL     1     -12.676  12.570  71.692  1.00  0.00    -0.297 C  
HETATM   13  C   UNL     1     -13.084  11.091  71.761  1.00  0.00    -0.554 C  
HETATM   14  C   UNL     1     -13.797  13.422  72.300  1.00  0.00    -0.671 C  
BRANCH  13  15
HETATM   15  C   UNL     1     -12.045  10.106  71.224  1.00  0.00    -0.489 C  
BRANCH  15  16
HETATM   16  C   UNL     1     -11.690   8.958  72.187  1.00  0.00    -0.411 C  
BRANCH  16  17
HETATM   17  C   UNL     1     -10.853   7.827  71.526  1.00  0.00    -0.227 C  
HETATM   18  C   UNL     1      -9.361   8.224  71.559  1.00  0.00    -0.236 C  
HETATM   19  C   UNL     1     -11.409   7.556  70.128  1.00  0.00    -0.170 C  
HETATM   20  C   UNL     1     -10.625   6.459  69.449  1.00  0.00    -0.310 C  
HETATM   21  C   UNL     1     -10.314   5.320  70.381  1.00  0.00    -0.345 A  
HETATM   22  C   UNL     1      -9.732   4.140  69.881  1.00  0.00    -0.280 A  
HETATM   23  C   UNL     1      -9.372   4.002  68.424  1.00  0.00    -0.218 C  
HETATM   24  C   UNL     1      -9.478   3.088  70.778  1.00  0.00    -0.158 A  
HETATM   25  C   UNL     1      -9.762   3.189  72.155  1.00  0.00    -0.230 A  
HETATM   26  O   UNL     1      -8.927   1.910  70.344  1.00  0.00    -0.064 OA 
HETATM   27  C   UNL     1      -9.468   2.031  73.074  1.00  0.00    -0.112 C  
HETATM   28  C   UNL     1     -10.311   4.392  72.657  1.00  0.00    -0.248 A  
HETATM   29  H   UNL     1      -8.755   1.199  70.950  1.00  0.00     0.000 HD 
HETATM   30  C   UNL     1     -10.563   5.456  71.763  1.00  0.00    -0.222 A  
HETATM   31  C   UNL     1     -10.618   4.588  74.121  1.00  0.00    -0.335 C  
HETATM   32  O   UNL     1     -11.028   6.631  72.325  1.00  0.00    -0.229 OA 
ENDBRANCH  16  17
ENDBRANCH  15  16
ENDBRANCH  13  15
ENDBRANCH  10  11
ENDBRANCH   9  10
ENDBRANCH   5   6
ENDBRANCH   4   5
TORSDOF 7
ENDMDL
MODEL       48
REMARK 921   NORMALIZED FREE ENERGY PREDICTED BY IDOCK:   -6.31 KCAL/MOL
REMARK 922        TOTAL FREE ENERGY PREDICTED BY IDOCK:  -10.64 KCAL/MOL
REMARK 923 INTER-LIGAND FREE ENERGY PREDICTED BY IDOCK:   -6.93 KCAL/MOL
REMARK 924 INTRA-LIGAND FREE ENERGY PREDICTED BY IDOCK:   -3.72 KCAL/MOL
REMARK 927      BINDING AFFINITY PREDICTED BY RF-SCORE:    0.00 PKD
ROOT
HETATM    1  C   UNL     1     -12.846  13.990  65.947  1.00  0.00    -0.354 C  
HETATM    2  C   UNL     1     -11.986  13.573  64.756  1.00  0.00    -0.424 C  
HETATM    3  C   UNL     1     -10.858  14.588  64.552  1.00  0.00    -0.239 C  
HETATM    4  C   UNL     1     -11.467  12.136  64.965  1.00  0.00    -0.377 C  
ENDROOT
BRANCH   4   5
HETATM    5  C   UNL     1     -10.608  11.663  63.797  1.00  0.00    -0.473 C  
BRANCH   5   6
HETATM    6  C   UNL     1      -9.190  11.285  64.217  1.00  0.00    -0.059 C  
HETATM    7  C   UNL     1      -8.917   9.779  64.022  1.00  0.00    -0.275 C  
HETATM    8  C   UNL     1      -9.087   9.350  62.557  1.00  0.00    -0.176 C  
HETATM    9  C   UNL     1      -7.511   9.441  64.552  1.00  0.00    -0.105 C  
BRANCH   9  10
HETATM   10  C   UNL     1      -7.186   7.958  64.385  1.00  0.00    -0.081 C  
BRANCH  10  11
HETATM   11  C   UNL     1      -7.217   7.208  65.707  1.00  0.00    -0.073 C  
HETATM   12  C   UNL     1      -8.525   6.409  65.878  1.00  0.00    -0.147 C  
HETATM   13  C   UNL     1      -8.599   5.755  67.266  1.00  0.00    -0.109 C  
HETATM   14  C   UNL     1      -8.689   5.322  64.808  1.00  0.00    -0.109 C  
BRANCH  13  15
HETATM   15  C   UNL     1      -8.490   6.721  68.445  1.00  0.00    -0.122 C  
BRANCH  15  16
HETATM   16  C   UNL     1      -9.804   7.437  68.813  1.00  0.00    -0.164 C  
BRANCH  16  17
HETATM   17  C   UNL     1      -9.880   8.902  68.300  1.00  0.00    -0.167 C  
HETATM   18  C   UNL     1     -10.701   8.932  66.993  1.00  0.00    -0.180 C  
HETATM   19  C   UNL     1      -8.460   9.454  68.173  1.00  0.00    -0.120 C  
HETATM   20  C   UNL     1      -8.487  10.880  67.679  1.00  0.00    -0.123 C  
HETATM   21  C   UNL     1      -9.566  11.692  68.342  1.00  0.00    -0.195 A  
HETATM   22  C   UNL     1      -9.636  13.081  68.125  1.00  0.00    -0.227 A  
HETATM   23  C   UNL     1      -8.669  13.778  67.202  1.00  0.00    -0.231 C  
HETATM   24  C   UNL     1     -10.642  13.811  68.781  1.00  0.00    -0.239 A  
HETATM   25  C   UNL     1     -11.591  13.194  69.621  1.00  0.00    -0.321 A  
HETATM   26  O   UNL     1     -10.747  15.168  68.618  1.00  0.00    -0.227 OA 
HETATM   27  C   UNL     1     -12.652  14.023  70.299  1.00  0.00    -0.354 C  
HETATM   28  C   UNL     1     -11.539  11.793  69.805  1.00  0.00    -0.372 A  
HETATM   29  H   UNL     1     -11.428  15.661  69.062  1.00  0.00     0.000 HD 
HETATM   30  C   UNL     1     -10.535  11.052  69.144  1.00  0.00    -0.210 A  
HETATM   31  C   UNL     1     -12.534  11.056  70.667  1.00  0.00    -0.465 C  
HETATM   32  O   UNL     1     -10.582   9.679  69.302  1.00  0.00    -0.206 OA 
ENDBRANCH  16  17
ENDBRANCH  15  16
ENDBRANCH  13  15
ENDBRANCH  10  11
ENDBRANCH   9  10
ENDBRANCH   5   6
ENDBRANCH   4   5
TORSDOF 7
ENDMDL
MODEL       49
REMARK 921   NORMALIZED FREE ENERGY PREDICTED BY IDOCK:   -6.29 KCAL/MOL
REMARK 922        TOTAL FREE ENERGY PREDICTED BY IDOCK:  -10.62 KCAL/MOL
REMARK 923 INTER-LIGAND FREE ENERGY PREDICTED BY IDOCK:   -8.25 KCAL/MOL
REMARK 924 INTRA-LIGAND FREE ENERGY PREDICTED BY IDOCK:   -2.37 KCAL/MOL
REMARK 927      BINDING AFFINITY PREDICTED BY RF-SCORE:    0.00 PKD
ROOT
HETATM    1  C   UNL     1     -12.686  13.865  65.668  1.00  0.00    -0.534 C  
HETATM    2  C   UNL     1     -12.180  12.480  65.267  1.00  0.00    -0.493 C  
HETATM    3  C   UNL     1     -11.832  12.468  63.775  1.00  0.00    -0.577 C  
HETATM    4  C   UNL     1     -10.990  12.081  66.162  1.00  0.00    -0.343 C  
ENDROOT
BRANCH   4   5
HETATM    5  C   UNL     1     -10.450  10.697  65.811  1.00  0.00    -0.235 C  
BRANCH   5   6
HETATM    6  C   UNL     1     -10.421   9.750  67.008  1.00  0.00    -0.295 C  
HETATM    7  C   UNL     1      -9.882   8.357  66.622  1.00  0.00    -0.343 C  
HETATM    8  C   UNL     1      -8.454   8.428  66.063  1.00  0.00    -0.142 C  
HETATM    9  C   UNL     1      -9.968   7.420  67.842  1.00  0.00    -0.201 C  
BRANCH   9  10
HETATM   10  C   UNL     1      -9.448   6.021  67.517  1.00  0.00    -0.113 C  
BRANCH  10  11
HETATM   11  C   UNL     1      -8.405   5.546  68.517  1.00  0.00    -0.101 C  
HETATM   12  C   UNL     1      -8.953   4.424  69.422  1.00  0.00    -0.148 C  
HETATM   13  C   UNL     1      -7.934   4.037  70.505  1.00  0.00    -0.055 C  
HETATM   14  C   UNL     1      -9.333   3.168  68.628  1.00  0.00    -0.236 C  
BRANCH  13  15
HETATM   15  C   UNL     1      -7.485   5.184  71.410  1.00  0.00    -0.091 C  
BRANCH  15  16
HETATM   16  C   UNL     1      -8.182   5.230  72.783  1.00  0.00    -0.109 C  
BRANCH  16  17
HETATM   17  C   UNL     1      -9.516   6.028  72.778  1.00  0.00    -0.151 C  
HETATM   18  C   UNL     1      -9.735   6.644  74.177  1.00  0.00    -0.309 C  
HETATM   19  C   UNL     1     -10.639   5.107  72.304  1.00  0.00    -0.278 C  
HETATM   20  C   UNL     1     -11.956   5.844  72.281  1.00  0.00    -0.211 C  
HETATM   21  C   UNL     1     -11.821   7.234  71.722  1.00  0.00    -0.330 A  
HETATM   22  C   UNL     1     -12.970   8.008  71.475  1.00  0.00    -0.326 A  
HETATM   23  C   UNL     1     -14.348   7.488  71.797  1.00  0.00    -0.588 C  
HETATM   24  C   UNL     1     -12.807   9.293  70.929  1.00  0.00    -0.043 A  
HETATM   25  C   UNL     1     -11.535   9.834  70.649  1.00  0.00    -0.397 A  
HETATM   26  O   UNL     1     -13.892  10.085  70.653  1.00  0.00    -0.330 OA 
HETATM   27  C   UNL     1     -11.416  11.219  70.066  1.00  0.00    -0.359 C  
HETATM   28  C   UNL     1     -10.383   9.066  70.936  1.00  0.00    -0.323 A  
HETATM   29  H   UNL     1     -13.781  10.953  70.284  1.00  0.00     0.000 HD 
HETATM   30  C   UNL     1     -10.539   7.777  71.491  1.00  0.00    -0.213 A  
HETATM   31  C   UNL     1      -8.988   9.584  70.690  1.00  0.00    -0.226 C  
HETATM   32  O   UNL     1      -9.376   7.105  71.819  1.00  0.00    -0.148 OA 
ENDBRANCH  16  17
ENDBRANCH  15  16
ENDBRANCH  13  15
ENDBRANCH  10  11
ENDBRANCH   9  10
ENDBRANCH   5   6
ENDBRANCH   4   5
TORSDOF 7
ENDMDL
MODEL       50
REMARK 921   NORMALIZED FREE ENERGY PREDICTED BY IDOCK:   -6.29 KCAL/MOL
REMARK 922        TOTAL FREE ENERGY PREDICTED BY IDOCK:  -10.62 KCAL/MOL
REMARK 923 INTER-LIGAND FREE ENERGY PREDICTED BY IDOCK:   -7.71 KCAL/MOL
REMARK 924 INTRA-LIGAND FREE ENERGY PREDICTED BY IDOCK:   -2.91 KCAL/MOL
REMARK 927      BINDING AFFINITY PREDICTED BY RF-SCORE:    0.00 PKD
ROOT
HETATM    1  C   UNL     1      -8.735  10.316  64.498  1.00  0.00    -0.205 C  
HETATM    2  C   UNL     1      -8.455   8.932  65.080  1.00  0.00    -0.194 C  
HETATM    3  C   UNL     1      -7.049   8.900  65.685  1.00  0.00    -0.084 C  
HETATM    4  C   UNL     1      -9.553   8.564  66.098  1.00  0.00    -0.276 C  
ENDROOT
BRANCH   4   5
HETATM    5  C   UNL     1      -9.328   7.182  66.705  1.00  0.00    -0.199 C  
BRANCH   5   6
HETATM    6  C   UNL     1      -8.919   7.239  68.175  1.00  0.00    -0.132 C  
HETATM    7  C   UNL     1     -10.139   7.420  69.102  1.00  0.00    -0.189 C  
HETATM    8  C   UNL     1     -11.148   6.271  68.955  1.00  0.00    -0.434 C  
HETATM    9  C   UNL     1      -9.657   7.568  70.558  1.00  0.00    -0.168 C  
BRANCH   9  10
HETATM   10  C   UNL     1     -10.826   7.752  71.523  1.00  0.00    -0.260 C  
BRANCH  10  11
HETATM   11  C   UNL     1     -11.208   9.213  71.696  1.00  0.00    -0.447 C  
HETATM   12  C   UNL     1     -12.676   9.469  71.294  1.00  0.00    -0.416 C  
HETATM   13  C   UNL     1     -13.015  10.966  71.355  1.00  0.00    -0.527 C  
HETATM   14  C   UNL     1     -13.665   8.700  72.178  1.00  0.00    -0.462 C  
BRANCH  13  15
HETATM   15  C   UNL     1     -12.134  11.866  70.489  1.00  0.00    -0.422 C  
BRANCH  15  16
HETATM   16  C   UNL     1     -12.026  11.433  69.015  1.00  0.00    -0.387 C  
BRANCH  16  17
HETATM   17  C   UNL     1     -10.708  11.888  68.327  1.00  0.00    -0.223 C  
HETATM   18  C   UNL     1     -10.931  11.933  66.800  1.00  0.00    -0.337 C  
HETATM   19  C   UNL     1      -9.574  10.968  68.779  1.00  0.00    -0.194 C  
HETATM   20  C   UNL     1      -8.271  11.376  68.134  1.00  0.00    -0.143 C  
HETATM   21  C   UNL     1      -8.085  12.869  68.123  1.00  0.00    -0.158 A  
HETATM   22  C   UNL     1      -6.859  13.423  67.710  1.00  0.00    -0.163 A  
HETATM   23  C   UNL     1      -5.726  12.548  67.235  1.00  0.00    -0.084 C  
HETATM   24  C   UNL     1      -6.713  14.820  67.735  1.00  0.00    -0.174 A  
HETATM   25  C   UNL     1      -7.759  15.678  68.134  1.00  0.00    -0.127 A  
HETATM   26  O   UNL     1      -5.536  15.413  67.358  1.00  0.00    -0.331 OA 
HETATM   27  C   UNL     1      -7.551  17.170  68.141  1.00  0.00    -0.208 C  
HETATM   28  C   UNL     1      -9.001  15.117  68.512  1.00  0.00    -0.186 A  
HETATM   29  H   UNL     1      -5.438  16.358  67.375  1.00  0.00     0.000 HD 
HETATM   30  C   UNL     1      -9.157  13.714  68.482  1.00  0.00    -0.112 A  
HETATM   31  C   UNL     1     -10.177  15.967  68.925  1.00  0.00    -0.231 C  
HETATM   32  O   UNL     1     -10.416  13.230  68.788  1.00  0.00    -0.232 OA 
ENDBRANCH  16  17
ENDBRANCH  15  16
ENDBRANCH  13  15
ENDBRANCH  10  11
ENDBRANCH   9  10
ENDBRANCH   5   6
ENDBRANCH   4   5
TORSDOF 7
ENDMDL
MODEL       51
REMARK 921   NORMALIZED FREE ENERGY PREDICTED BY IDOCK:   -6.28 KCAL/MOL
REMARK 922        TOTAL FREE ENERGY PREDICTED BY IDOCK:  -10.60 KCAL/MOL
REMARK 923 INTER-LIGAND FREE ENERGY PREDICTED BY IDOCK:   -7.65 KCAL/MOL
REMARK 924 INTRA-LIGAND FREE ENERGY PREDICTED BY IDOCK:   -2.94 KCAL/MOL
REMARK 927      BINDING AFFINITY PREDICTED BY RF-SCORE:    0.00 PKD
ROOT
HETATM    1  C   UNL     1      -7.495  14.975  69.247  1.00  0.00    -0.188 C  
HETATM    2  C   UNL     1      -8.970  15.092  68.868  1.00  0.00    -0.206 C  
HETATM    3  C   UNL     1      -9.316  16.557  68.582  1.00  0.00    -0.241 C  
HETATM    4  C   UNL     1      -9.278  14.161  67.678  1.00  0.00    -0.193 C  
ENDROOT
BRANCH   4   5
HETATM    5  C   UNL     1     -10.744  14.231  67.263  1.00  0.00    -0.277 C  
BRANCH   5   6
HETATM    6  C   UNL     1     -11.497  12.929  67.522  1.00  0.00    -0.386 C  
HETATM    7  C   UNL     1     -11.528  12.574  69.023  1.00  0.00    -0.355 C  
HETATM    8  C   UNL     1     -12.210  13.667  69.859  1.00  0.00    -0.367 C  
HETATM    9  C   UNL     1     -12.212  11.206  69.212  1.00  0.00    -0.295 C  
BRANCH   9  10
HETATM   10  C   UNL     1     -12.270  10.801  70.683  1.00  0.00    -0.474 C  
BRANCH  10  11
HETATM   11  C   UNL     1     -11.754   9.390  70.915  1.00  0.00    -0.378 C  
HETATM   12  C   UNL     1     -12.440   8.724  72.124  1.00  0.00    -0.460 C  
HETATM   13  C   UNL     1     -11.826   7.348  72.423  1.00  0.00    -0.273 C  
HETATM   14  C   UNL     1     -13.951   8.558  71.919  1.00  0.00    -0.498 C  
BRANCH  13  15
HETATM   15  C   UNL     1     -10.321   7.354  72.691  1.00  0.00    -0.292 C  
BRANCH  15  16
HETATM   16  C   UNL     1      -9.483   6.558  71.673  1.00  0.00    -0.160 C  
BRANCH  16  17
HETATM   17  C   UNL     1      -8.655   7.455  70.711  1.00  0.00    -0.137 C  
HETATM   18  C   UNL     1      -7.497   6.619  70.122  1.00  0.00    -0.094 C  
HETATM   19  C   UNL     1      -8.216   8.711  71.463  1.00  0.00    -0.209 C  
HETATM   20  C   UNL     1      -7.408   9.614  70.562  1.00  0.00    -0.141 C  
HETATM   21  C   UNL     1      -7.999   9.717  69.183  1.00  0.00    -0.099 A  
HETATM   22  C   UNL     1      -7.473  10.639  68.259  1.00  0.00    -0.091 A  
HETATM   23  C   UNL     1      -6.292  11.510  68.608  1.00  0.00    -0.054 C  
HETATM   24  C   UNL     1      -8.065  10.725  66.987  1.00  0.00    -0.124 A  
HETATM   25  C   UNL     1      -9.145   9.903  66.604  1.00  0.00    -0.171 A  
HETATM   26  O   UNL     1      -7.603  11.616  66.053  1.00  0.00    -0.358 OA 
HETATM   27  C   UNL     1      -9.742  10.034  65.227  1.00  0.00    -0.373 C  
HETATM   28  C   UNL     1      -9.644   8.952  67.524  1.00  0.00    -0.183 A  
HETATM   29  H   UNL     1      -8.004  11.674  65.194  1.00  0.00     0.000 HD 
HETATM   30  C   UNL     1      -9.049   8.855  68.801  1.00  0.00    -0.134 A  
HETATM   31  C   UNL     1     -10.778   8.018  67.181  1.00  0.00    -0.285 C  
HETATM   32  O   UNL     1      -9.530   7.856  69.627  1.00  0.00    -0.160 OA 
ENDBRANCH  16  17
ENDBRANCH  15  16
ENDBRANCH  13  15
ENDBRANCH  10  11
ENDBRANCH   9  10
ENDBRANCH   5   6
ENDBRANCH   4   5
TORSDOF 7
ENDMDL
MODEL       52
REMARK 921   NORMALIZED FREE ENERGY PREDICTED BY IDOCK:   -6.24 KCAL/MOL
REMARK 922        TOTAL FREE ENERGY PREDICTED BY IDOCK:  -10.55 KCAL/MOL
REMARK 923 INTER-LIGAND FREE ENERGY PREDICTED BY IDOCK:   -8.98 KCAL/MOL
REMARK 924 INTRA-LIGAND FREE ENERGY PREDICTED BY IDOCK:   -1.56 KCAL/MOL
REMARK 927      BINDING AFFINITY PREDICTED BY RF-SCORE:    0.00 PKD
ROOT
HETATM    1  C   UNL     1      -9.725   3.238  73.418  1.00  0.00    -0.150 C  
HETATM    2  C   UNL     1     -10.388   4.378  72.649  1.00  0.00    -0.248 C  
HETATM    3  C   UNL     1     -11.657   4.826  73.379  1.00  0.00    -0.231 C  
HETATM    4  C   UNL     1      -9.378   5.526  72.444  1.00  0.00    -0.156 C  
ENDROOT
BRANCH   4   5
HETATM    5  C   UNL     1      -9.987   6.691  71.670  1.00  0.00    -0.187 C  
BRANCH   5   6
HETATM    6  C   UNL     1     -10.228   6.364  70.198  1.00  0.00    -0.229 C  
HETATM    7  C   UNL     1      -9.361   7.239  69.268  1.00  0.00    -0.154 C  
HETATM    8  C   UNL     1      -7.861   7.052  69.536  1.00  0.00    -0.119 C  
HETATM    9  C   UNL     1      -9.718   6.934  67.801  1.00  0.00    -0.148 C  
BRANCH   9  10
HETATM   10  C   UNL     1      -8.890   7.775  66.832  1.00  0.00    -0.143 C  
BRANCH  10  11
HETATM   11  C   UNL     1      -9.756   8.640  65.931  1.00  0.00    -0.154 C  
HETATM   12  C   UNL     1      -8.904   9.506  64.980  1.00  0.00    -0.232 C  
HETATM   13  C   UNL     1      -9.784  10.462  64.161  1.00  0.00    -0.387 C  
HETATM   14  C   UNL     1      -8.062   8.660  64.018  1.00  0.00    -0.163 C  
BRANCH  13  15
HETATM   15  C   UNL     1     -10.659  11.405  64.987  1.00  0.00    -0.359 C  
BRANCH  15  16
HETATM   16  C   UNL     1      -9.889  12.279  65.995  1.00  0.00    -0.263 C  
BRANCH  16  17
HETATM   17  C   UNL     1     -10.309  12.043  67.473  1.00  0.00    -0.200 C  
HETATM   18  C   UNL     1      -9.038  11.977  68.348  1.00  0.00    -0.158 C  
HETATM   19  C   UNL     1     -11.194  10.799  67.540  1.00  0.00    -0.346 C  
HETATM   20  C   UNL     1     -11.627  10.532  68.962  1.00  0.00    -0.278 C  
HETATM   21  C   UNL     1     -12.024  11.792  69.681  1.00  0.00    -0.378 A  
HETATM   22  C   UNL     1     -12.608  11.719  70.960  1.00  0.00    -0.409 A  
HETATM   23  C   UNL     1     -12.812  10.395  71.652  1.00  0.00    -0.579 C  
HETATM   24  C   UNL     1     -12.989  12.916  71.591  1.00  0.00    -0.313 A  
HETATM   25  C   UNL     1     -12.781  14.178  70.998  1.00  0.00    -0.433 A  
HETATM   26  O   UNL     1     -13.576  12.902  72.830  1.00  0.00    -0.677 OA 
HETATM   27  C   UNL     1     -13.206  15.431  71.720  1.00  0.00    -0.544 C  
HETATM   28  C   UNL     1     -12.159  14.246  69.730  1.00  0.00    -0.401 A  
HETATM   29  H   UNL     1     -13.833  13.711  73.257  1.00  0.00     0.000 HD 
HETATM   30  C   UNL     1     -11.767  13.049  69.092  1.00  0.00    -0.326 A  
HETATM   31  C   UNL     1     -11.877  15.559  69.041  1.00  0.00    -0.373 C  
HETATM   32  O   UNL     1     -11.096  13.185  67.890  1.00  0.00    -0.245 OA 
ENDBRANCH  16  17
ENDBRANCH  15  16
ENDBRANCH  13  15
ENDBRANCH  10  11
ENDBRANCH   9  10
ENDBRANCH   5   6
ENDBRANCH   4   5
TORSDOF 7
ENDMDL
MODEL       53
REMARK 921   NORMALIZED FREE ENERGY PREDICTED BY IDOCK:   -6.20 KCAL/MOL
REMARK 922        TOTAL FREE ENERGY PREDICTED BY IDOCK:  -10.49 KCAL/MOL
REMARK 923 INTER-LIGAND FREE ENERGY PREDICTED BY IDOCK:   -8.57 KCAL/MOL
REMARK 924 INTRA-LIGAND FREE ENERGY PREDICTED BY IDOCK:   -1.92 KCAL/MOL
REMARK 927      BINDING AFFINITY PREDICTED BY RF-SCORE:    0.00 PKD
ROOT
HETATM    1  C   UNL     1     -13.277   9.406  70.974  1.00  0.00    -0.200 C  
HETATM    2  C   UNL     1     -11.987   8.650  71.286  1.00  0.00    -0.339 C  
HETATM    3  C   UNL     1     -10.787   9.589  71.132  1.00  0.00    -0.425 C  
HETATM    4  C   UNL     1     -12.078   8.020  72.690  1.00  0.00    -0.283 C  
ENDROOT
BRANCH   4   5
HETATM    5  C   UNL     1     -10.816   7.241  73.050  1.00  0.00    -0.399 C  
BRANCH   5   6
HETATM    6  C   UNL     1     -10.751   5.873  72.378  1.00  0.00    -0.274 C  
HETATM    7  C   UNL     1      -9.670   5.826  71.277  1.00  0.00    -0.210 C  
HETATM    8  C   UNL     1      -8.271   6.127  71.833  1.00  0.00    -0.114 C  
HETATM    9  C   UNL     1      -9.718   4.458  70.571  1.00  0.00    -0.287 C  
BRANCH   9  10
HETATM   10  C   UNL     1      -8.668   4.355  69.467  1.00  0.00    -0.117 C  
BRANCH  10  11
HETATM   11  C   UNL     1      -8.983   5.255  68.284  1.00  0.00    -0.116 C  
HETATM   12  C   UNL     1      -8.516   4.631  66.953  1.00  0.00    -0.105 C  
HETATM   13  C   UNL     1      -8.728   5.601  65.780  1.00  0.00    -0.150 C  
HETATM   14  C   UNL     1      -9.234   3.313  66.642  1.00  0.00    -0.178 C  
BRANCH  13  15
HETATM   15  C   UNL     1      -8.035   6.955  65.925  1.00  0.00    -0.112 C  
BRANCH  15  16
HETATM   16  C   UNL     1      -8.642   8.083  65.070  1.00  0.00    -0.037 C  
BRANCH  16  17
HETATM   17  C   UNL     1      -9.132   9.301  65.902  1.00  0.00    -0.197 C  
HETATM   18  C   UNL     1      -7.903  10.105  66.382  1.00  0.00    -0.114 C  
HETATM   19  C   UNL     1     -10.042   8.798  67.023  1.00  0.00    -0.335 C  
HETATM   20  C   UNL     1     -10.544   9.952  67.857  1.00  0.00    -0.303 C  
HETATM   21  C   UNL     1     -10.950  11.130  67.014  1.00  0.00    -0.348 A  
HETATM   22  C   UNL     1     -11.592  12.233  67.607  1.00  0.00    -0.421 A  
HETATM   23  C   UNL     1     -11.851  12.281  69.092  1.00  0.00    -0.355 C  
HETATM   24  C   UNL     1     -11.979  13.304  66.784  1.00  0.00    -0.382 A  
HETATM   25  C   UNL     1     -11.721  13.319  65.398  1.00  0.00    -0.370 A  
HETATM   26  O   UNL     1     -12.621  14.397  67.306  1.00  0.00    -0.538 OA 
HETATM   27  C   UNL     1     -12.155  14.494  64.561  1.00  0.00    -0.501 C  
HETATM   28  C   UNL     1     -11.041  12.224  64.814  1.00  0.00    -0.356 A  
HETATM   29  H   UNL     1     -12.883  15.122  66.750  1.00  0.00     0.000 HD 
HETATM   30  C   UNL     1     -10.643  11.147  65.636  1.00  0.00    -0.223 A  
HETATM   31  C   UNL     1     -10.705  12.176  63.344  1.00  0.00    -0.461 C  
HETATM   32  O   UNL     1      -9.917  10.143  65.022  1.00  0.00    -0.322 OA 
ENDBRANCH  16  17
ENDBRANCH  15  16
ENDBRANCH  13  15
ENDBRANCH  10  11
ENDBRANCH   9  10
ENDBRANCH   5   6
ENDBRANCH   4   5
TORSDOF 7
ENDMDL
MODEL       54
REMARK 921   NORMALIZED FREE ENERGY PREDICTED BY IDOCK:   -6.19 KCAL/MOL
REMARK 922        TOTAL FREE ENERGY PREDICTED BY IDOCK:  -10.48 KCAL/MOL
REMARK 923 INTER-LIGAND FREE ENERGY PREDICTED BY IDOCK:   -8.68 KCAL/MOL
REMARK 924 INTRA-LIGAND FREE ENERGY PREDICTED BY IDOCK:   -1.80 KCAL/MOL
REMARK 927      BINDING AFFINITY PREDICTED BY RF-SCORE:    0.00 PKD
ROOT
HETATM    1  C   UNL     1      -6.783  20.037  68.010  1.00  0.00    -0.314 C  
HETATM    2  C   UNL     1      -7.344  18.803  67.306  1.00  0.00    -0.225 C  
HETATM    3  C   UNL     1      -6.881  18.784  65.846  1.00  0.00    -0.307 C  
HETATM    4  C   UNL     1      -6.938  17.532  68.079  1.00  0.00    -0.195 C  
ENDROOT
BRANCH   4   5
HETATM    5  C   UNL     1      -7.482  16.266  67.424  1.00  0.00    -0.190 C  
BRANCH   5   6
HETATM    6  C   UNL     1      -8.367  15.447  68.359  1.00  0.00    -0.147 C  
HETATM    7  C   UNL     1      -9.548  16.277  68.904  1.00  0.00    -0.243 C  
HETATM    8  C   UNL     1     -10.446  16.806  67.776  1.00  0.00    -0.335 C  
HETATM    9  C   UNL     1     -10.345  15.430  69.914  1.00  0.00    -0.298 C  
BRANCH   9  10
HETATM   10  C   UNL     1     -11.530  16.204  70.488  1.00  0.00    -0.363 C  
BRANCH  10  11
HETATM   11  C   UNL     1     -12.656  15.286  70.939  1.00  0.00    -0.471 C  
HETATM   12  C   UNL     1     -12.413  14.743  72.362  1.00  0.00    -0.410 C  
HETATM   13  C   UNL     1     -13.492  13.723  72.758  1.00  0.00    -0.509 C  
HETATM   14  C   UNL     1     -12.375  15.859  73.413  1.00  0.00    -0.647 C  
BRANCH  13  15
HETATM   15  C   UNL     1     -13.625  12.523  71.822  1.00  0.00    -0.131 C  
BRANCH  15  16
HETATM   16  C   UNL     1     -12.754  11.311  72.202  1.00  0.00     0.090 C  
BRANCH  16  17
HETATM   17  C   UNL     1     -12.322  10.448  70.984  1.00  0.00    -0.387 C  
HETATM   18  C   UNL     1     -13.531   9.610  70.511  1.00  0.00     0.243 C  
HETATM   19  C   UNL     1     -11.092   9.628  71.373  1.00  0.00    -0.397 C  
HETATM   20  C   UNL     1     -10.636   8.773  70.215  1.00  0.00    -0.239 C  
HETATM   21  C   UNL     1     -10.676   9.517  68.909  1.00  0.00    -0.220 A  
HETATM   22  C   UNL     1     -10.134   8.933  67.749  1.00  0.00    -0.263 A  
HETATM   23  C   UNL     1      -9.542   7.546  67.775  1.00  0.00    -0.166 C  
HETATM   24  C   UNL     1     -10.167   9.667  66.551  1.00  0.00    -0.224 A  
HETATM   25  C   UNL     1     -10.746  10.950  66.472  1.00  0.00    -0.270 A  
HETATM   26  O   UNL     1      -9.639   9.153  65.394  1.00  0.00    -0.423 OA 
HETATM   27  C   UNL     1     -10.757  11.695  65.161  1.00  0.00    -0.351 C  
HETATM   28  C   UNL     1     -11.323  11.516  67.632  1.00  0.00    -0.358 A  
HETATM   29  H   UNL     1      -9.662   9.650  64.585  1.00  0.00     0.000 HD 
HETATM   30  C   UNL     1     -11.300  10.781  68.838  1.00  0.00    -0.284 A  
HETATM   31  C   UNL     1     -11.985  12.872  67.624  1.00  0.00    -0.344 C  
HETATM   32  O   UNL     1     -11.946  11.354  69.918  1.00  0.00    -0.307 OA 
ENDBRANCH  16  17
ENDBRANCH  15  16
ENDBRANCH  13  15
ENDBRANCH  10  11
ENDBRANCH   9  10
ENDBRANCH   5   6
ENDBRANCH   4   5
TORSDOF 7
ENDMDL
MODEL       55
REMARK 921   NORMALIZED FREE ENERGY PREDICTED BY IDOCK:   -6.19 KCAL/MOL
REMARK 922        TOTAL FREE ENERGY PREDICTED BY IDOCK:  -10.48 KCAL/MOL
REMARK 923 INTER-LIGAND FREE ENERGY PREDICTED BY IDOCK:   -6.71 KCAL/MOL
REMARK 924 INTRA-LIGAND FREE ENERGY PREDICTED BY IDOCK:   -3.77 KCAL/MOL
REMARK 927      BINDING AFFINITY PREDICTED BY RF-SCORE:    0.00 PKD
ROOT
HETATM    1  C   UNL     1      -8.832   9.128  65.641  1.00  0.00    -0.222 C  
HETATM    2  C   UNL     1      -9.144   8.011  66.635  1.00  0.00    -0.199 C  
HETATM    3  C   UNL     1     -10.624   8.066  67.027  1.00  0.00    -0.364 C  
HETATM    4  C   UNL     1      -8.734   6.651  66.036  1.00  0.00    -0.155 C  
ENDROOT
BRANCH   4   5
HETATM    5  C   UNL     1      -9.015   5.497  66.993  1.00  0.00    -0.113 C  
BRANCH   5   6
HETATM    6  C   UNL     1      -8.071   5.477  68.193  1.00  0.00    -0.096 C  
HETATM    7  C   UNL     1      -8.312   4.246  69.091  1.00  0.00    -0.084 C  
HETATM    8  C   UNL     1      -8.106   2.929  68.328  1.00  0.00    -0.070 C  
HETATM    9  C   UNL     1      -7.402   4.332  70.331  1.00  0.00    -0.045 C  
BRANCH   9  10
HETATM   10  C   UNL     1      -7.599   3.136  71.260  1.00  0.00    -0.044 C  
BRANCH  10  11
HETATM   11  C   UNL     1      -8.489   3.468  72.447  1.00  0.00    -0.089 C  
HETATM   12  C   UNL     1      -9.947   3.024  72.208  1.00  0.00    -0.237 C  
HETATM   13  C   UNL     1     -10.860   3.472  73.359  1.00  0.00    -0.312 C  
HETATM   14  C   UNL     1     -10.073   1.505  72.038  1.00  0.00    -0.216 C  
BRANCH  13  15
HETATM   15  C   UNL     1     -10.873   4.976  73.628  1.00  0.00    -0.369 C  
BRANCH  15  16
HETATM   16  C   UNL     1     -11.801   5.787  72.704  1.00  0.00    -0.198 C  
BRANCH  16  17
HETATM   17  C   UNL     1     -11.041   6.648  71.657  1.00  0.00    -0.250 C  
HETATM   18  C   UNL     1     -11.226   6.014  70.260  1.00  0.00    -0.392 C  
HETATM   19  C   UNL     1      -9.586   6.794  72.102  1.00  0.00    -0.152 C  
HETATM   20  C   UNL     1      -8.810   7.628  71.112  1.00  0.00    -0.140 C  
HETATM   21  C   UNL     1      -9.589   8.825  70.641  1.00  0.00    -0.240 A  
HETATM   22  C   UNL     1      -8.965   9.802  69.842  1.00  0.00    -0.254 A  
HETATM   23  C   UNL     1      -7.528   9.656  69.407  1.00  0.00    -0.093 C  
HETATM   24  C   UNL     1      -9.717  10.919  69.441  1.00  0.00     0.009 A  
HETATM   25  C   UNL     1     -11.074  11.077  69.791  1.00  0.00    -0.303 A  
HETATM   26  O   UNL     1      -9.156  11.908  68.675  1.00  0.00    -0.317 OA 
HETATM   27  C   UNL     1     -11.836  12.294  69.333  1.00  0.00    -0.370 C  
HETATM   28  C   UNL     1     -11.705  10.073  70.562  1.00  0.00    -0.400 A  
HETATM   29  H   UNL     1      -9.665  12.663  68.404  1.00  0.00     0.000 HD 
HETATM   30  C   UNL     1     -10.958   8.944  70.963  1.00  0.00    -0.276 A  
HETATM   31  C   UNL     1     -13.160  10.155  70.955  1.00  0.00    -0.458 C  
HETATM   32  O   UNL     1     -11.649   7.963  71.649  1.00  0.00    -0.256 OA 
ENDBRANCH  16  17
ENDBRANCH  15  16
ENDBRANCH  13  15
ENDBRANCH  10  11
ENDBRANCH   9  10
ENDBRANCH   5   6
ENDBRANCH   4   5
TORSDOF 7
ENDMDL
MODEL       56
REMARK 921   NORMALIZED FREE ENERGY PREDICTED BY IDOCK:   -6.17 KCAL/MOL
REMARK 922        TOTAL FREE ENERGY PREDICTED BY IDOCK:  -10.46 KCAL/MOL
REMARK 923 INTER-LIGAND FREE ENERGY PREDICTED BY IDOCK:   -8.26 KCAL/MOL
REMARK 924 INTRA-LIGAND FREE ENERGY PREDICTED BY IDOCK:   -2.19 KCAL/MOL
REMARK 927      BINDING AFFINITY PREDICTED BY RF-SCORE:    0.00 PKD
ROOT
HETATM    1  C   UNL     1      -8.309  20.315  66.460  1.00  0.00    -0.257 C  
HETATM    2  C   UNL     1      -7.980  18.824  66.415  1.00  0.00    -0.300 C  
HETATM    3  C   UNL     1      -6.551  18.625  65.902  1.00  0.00    -0.291 C  
HETATM    4  C   UNL     1      -8.211  18.198  67.805  1.00  0.00    -0.245 C  
ENDROOT
BRANCH   4   5
HETATM    5  C   UNL     1      -7.907  16.703  67.815  1.00  0.00    -0.175 C  
BRANCH   5   6
HETATM    6  C   UNL     1      -8.555  15.973  68.988  1.00  0.00    -0.244 C  
HETATM    7  C   UNL     1     -10.090  16.133  68.984  1.00  0.00    -0.247 C  
HETATM    8  C   UNL     1     -10.722  15.580  67.698  1.00  0.00    -0.302 C  
HETATM    9  C   UNL     1     -10.678  15.461  70.239  1.00  0.00    -0.320 C  
BRANCH   9  10
HETATM   10  C   UNL     1     -12.198  15.590  70.290  1.00  0.00    -0.432 C  
BRANCH  10  11
HETATM   11  C   UNL     1     -12.892  14.237  70.320  1.00  0.00    -0.207 C  
HETATM   12  C   UNL     1     -12.508  13.428  71.576  1.00  0.00    -0.251 C  
HETATM   13  C   UNL     1     -13.117  12.018  71.536  1.00  0.00    -0.362 C  
HETATM   14  C   UNL     1     -12.946  14.120  72.873  1.00  0.00    -0.498 C  
BRANCH  13  15
HETATM   15  C   UNL     1     -12.738  11.183  70.314  1.00  0.00    -0.213 C  
BRANCH  15  16
HETATM   16  C   UNL     1     -11.223  11.017  70.093  1.00  0.00    -0.264 C  
BRANCH  16  17
HETATM   17  C   UNL     1     -10.767  11.327  68.640  1.00  0.00    -0.205 C  
HETATM   18  C   UNL     1      -9.581  12.316  68.688  1.00  0.00    -0.051 C  
HETATM   19  C   UNL     1     -11.973  11.817  67.840  1.00  0.00    -0.168 C  
HETATM   20  C   UNL     1     -11.575  12.129  66.417  1.00  0.00    -0.429 C  
HETATM   21  C   UNL     1     -10.649  11.090  65.845  1.00  0.00    -0.270 A  
HETATM   22  C   UNL     1     -10.304  11.129  64.481  1.00  0.00    -0.400 A  
HETATM   23  C   UNL     1     -10.813  12.223  63.576  1.00  0.00    -0.508 C  
HETATM   24  C   UNL     1      -9.456  10.128  63.976  1.00  0.00    -0.282 A  
HETATM   25  C   UNL     1      -8.925   9.110  64.794  1.00  0.00    -0.177 A  
HETATM   26  O   UNL     1      -9.099  10.109  62.652  1.00  0.00    -0.238 OA 
HETATM   27  C   UNL     1      -8.018   8.062  64.202  1.00  0.00    -0.137 C  
HETATM   28  C   UNL     1      -9.245   9.099  66.171  1.00  0.00    -0.259 A  
HETATM   29  H   UNL     1      -8.526   9.432  62.311  1.00  0.00     0.000 HD 
HETATM   30  C   UNL     1     -10.090  10.105  66.687  1.00  0.00    -0.223 A  
HETATM   31  C   UNL     1      -8.696   8.059  67.117  1.00  0.00    -0.134 C  
HETATM   32  O   UNL     1     -10.306  10.085  68.053  1.00  0.00    -0.175 OA 
ENDBRANCH  16  17
ENDBRANCH  15  16
ENDBRANCH  13  15
ENDBRANCH  10  11
ENDBRANCH   9  10
ENDBRANCH   5   6
ENDBRANCH   4   5
TORSDOF 7
ENDMDL
MODEL       57
REMARK 921   NORMALIZED FREE ENERGY PREDICTED BY IDOCK:   -6.17 KCAL/MOL
REMARK 922        TOTAL FREE ENERGY PREDICTED BY IDOCK:  -10.45 KCAL/MOL
REMARK 923 INTER-LIGAND FREE ENERGY PREDICTED BY IDOCK:   -7.71 KCAL/MOL
REMARK 924 INTRA-LIGAND FREE ENERGY PREDICTED BY IDOCK:   -2.74 KCAL/MOL
REMARK 927      BINDING AFFINITY PREDICTED BY RF-SCORE:    0.00 PKD
ROOT
HETATM    1  C   UNL     1     -12.321  13.717  66.363  1.00  0.00    -0.460 C  
HETATM    2  C   UNL     1     -11.543  13.181  65.164  1.00  0.00    -0.347 C  
HETATM    3  C   UNL     1     -10.342  14.088  64.879  1.00  0.00    -0.434 C  
HETATM    4  C   UNL     1     -11.139  11.715  65.417  1.00  0.00    -0.299 C  
ENDROOT
BRANCH   4   5
HETATM    5  C   UNL     1     -10.365  11.124  64.243  1.00  0.00    -0.413 C  
BRANCH   5   6
HETATM    6  C   UNL     1      -9.021  10.530  64.656  1.00  0.00    -0.229 C  
HETATM    7  C   UNL     1      -8.774   9.158  63.995  1.00  0.00    -0.165 C  
HETATM    8  C   UNL     1      -8.780   9.249  62.462  1.00  0.00    -0.233 C  
HETATM    9  C   UNL     1      -7.454   8.566  64.524  1.00  0.00    -0.105 C  
BRANCH   9  10
HETATM   10  C   UNL     1      -7.158   7.202  63.903  1.00  0.00    -0.061 C  
BRANCH  10  11
HETATM   11  C   UNL     1      -7.096   6.095  64.944  1.00  0.00    -0.060 C  
HETATM   12  C   UNL     1      -8.408   5.286  64.995  1.00  0.00    -0.146 C  
HETATM   13  C   UNL     1      -8.379   4.252  66.130  1.00  0.00    -0.109 C  
HETATM   14  C   UNL     1      -8.700   4.564  63.674  1.00  0.00    -0.132 C  
BRANCH  13  15
HETATM   15  C   UNL     1      -8.136   4.828  67.525  1.00  0.00    -0.101 C  
BRANCH  15  16
HETATM   16  C   UNL     1      -9.415   5.164  68.314  1.00  0.00    -0.164 C  
BRANCH  16  17
HETATM   17  C   UNL     1      -9.823   6.662  68.229  1.00  0.00    -0.137 C  
HETATM   18  C   UNL     1     -10.855   6.836  67.093  1.00  0.00    -0.462 C  
HETATM   19  C   UNL     1      -8.560   7.509  68.077  1.00  0.00    -0.122 C  
HETATM   20  C   UNL     1      -8.911   8.975  67.993  1.00  0.00    -0.129 C  
HETATM   21  C   UNL     1      -9.976   9.363  68.982  1.00  0.00    -0.182 A  
HETATM   22  C   UNL     1     -10.313  10.718  69.159  1.00  0.00    -0.238 A  
HETATM   23  C   UNL     1      -9.653  11.801  68.343  1.00  0.00    -0.191 C  
HETATM   24  C   UNL     1     -11.296  11.045  70.109  1.00  0.00    -0.251 A  
HETATM   25  C   UNL     1     -11.967  10.062  70.865  1.00  0.00    -0.453 A  
HETATM   26  O   UNL     1     -11.653  12.349  70.333  1.00  0.00    -0.530 OA 
HETATM   27  C   UNL     1     -13.015  10.466  71.870  1.00  0.00    -0.555 C  
HETATM   28  C   UNL     1     -11.650   8.699  70.655  1.00  0.00    -0.225 A  
HETATM   29  H   UNL     1     -12.317  12.570  70.975  1.00  0.00     0.000 HD 
HETATM   30  C   UNL     1     -10.669   8.363  69.697  1.00  0.00    -0.198 A  
HETATM   31  C   UNL     1     -12.342   7.587  71.405  1.00  0.00    -0.374 C  
HETATM   32  O   UNL     1     -10.458   7.013  69.484  1.00  0.00    -0.205 OA 
ENDBRANCH  16  17
ENDBRANCH  15  16
ENDBRANCH  13  15
ENDBRANCH  10  11
ENDBRANCH   9  10
ENDBRANCH   5   6
ENDBRANCH   4   5
TORSDOF 7
ENDMDL
MODEL       58
REMARK 921   NORMALIZED FREE ENERGY PREDICTED BY IDOCK:   -6.16 KCAL/MOL
REMARK 922        TOTAL FREE ENERGY PREDICTED BY IDOCK:  -10.44 KCAL/MOL
REMARK 923 INTER-LIGAND FREE ENERGY PREDICTED BY IDOCK:   -9.30 KCAL/MOL
REMARK 924 INTRA-LIGAND FREE ENERGY PREDICTED BY IDOCK:   -1.14 KCAL/MOL
REMARK 927      BINDING AFFINITY PREDICTED BY RF-SCORE:    0.00 PKD
ROOT
HETATM    1  C   UNL     1     -11.401   2.347  73.508  1.00  0.00    -0.302 C  
HETATM    2  C   UNL     1     -10.568   3.602  73.756  1.00  0.00    -0.287 C  
HETATM    3  C   UNL     1      -9.196   3.451  73.091  1.00  0.00    -0.114 C  
HETATM    4  C   UNL     1     -11.337   4.845  73.265  1.00  0.00    -0.408 C  
ENDROOT
BRANCH   4   5
HETATM    5  C   UNL     1     -10.552   6.132  73.498  1.00  0.00    -0.283 C  
BRANCH   5   6
HETATM    6  C   UNL     1     -11.261   7.367  72.949  1.00  0.00    -0.368 C  
HETATM    7  C   UNL     1     -10.485   7.999  71.775  1.00  0.00    -0.287 C  
HETATM    8  C   UNL     1     -10.312   7.017  70.606  1.00  0.00    -0.223 C  
HETATM    9  C   UNL     1     -11.194   9.292  71.329  1.00  0.00    -0.425 C  
BRANCH   9  10
HETATM   10  C   UNL     1     -10.467   9.963  70.166  1.00  0.00    -0.339 C  
BRANCH  10  11
HETATM   11  C   UNL     1     -11.402  10.797  69.304  1.00  0.00    -0.352 C  
HETATM   12  C   UNL     1     -10.753  11.168  67.955  1.00  0.00    -0.261 C  
HETATM   13  C   UNL     1     -11.656  12.111  67.145  1.00  0.00    -0.405 C  
HETATM   14  C   UNL     1     -10.434   9.934  67.102  1.00  0.00    -0.305 C  
BRANCH  13  15
HETATM   15  C   UNL     1     -12.033  13.413  67.852  1.00  0.00    -0.360 C  
BRANCH  15  16
HETATM   16  C   UNL     1     -11.690  14.692  67.066  1.00  0.00    -0.379 C  
BRANCH  16  17
HETATM   17  C   UNL     1     -10.266  15.241  67.359  1.00  0.00    -0.243 C  
HETATM   18  C   UNL     1      -9.304  14.749  66.255  1.00  0.00    -0.310 C  
HETATM   19  C   UNL     1      -9.866  14.839  68.778  1.00  0.00    -0.227 C  
HETATM   20  C   UNL     1      -8.486  15.355  69.107  1.00  0.00    -0.241 C  
HETATM   21  C   UNL     1      -8.275  16.764  68.624  1.00  0.00    -0.252 A  
HETATM   22  C   UNL     1      -7.108  17.465  68.983  1.00  0.00    -0.233 A  
HETATM   23  C   UNL     1      -6.032  16.816  69.817  1.00  0.00    -0.226 C  
HETATM   24  C   UNL     1      -6.956  18.788  68.534  1.00  0.00    -0.265 A  
HETATM   25  C   UNL     1      -7.918  19.419  67.719  1.00  0.00    -0.321 A  
HETATM   26  O   UNL     1      -5.847  19.522  68.865  1.00  0.00    -0.217 OA 
HETATM   27  C   UNL     1      -7.706  20.840  67.262  1.00  0.00    -0.332 C  
HETATM   28  C   UNL     1      -9.070  18.697  67.331  1.00  0.00    -0.290 A  
HETATM   29  H   UNL     1      -5.745  20.416  68.561  1.00  0.00     0.000 HD 
HETATM   30  C   UNL     1      -9.226  17.365  67.772  1.00  0.00    -0.248 A  
HETATM   31  C   UNL     1     -10.132  19.293  66.440  1.00  0.00    -0.507 C  
HETATM   32  O   UNL     1     -10.334  16.687  67.298  1.00  0.00    -0.289 OA 
ENDBRANCH  16  17
ENDBRANCH  15  16
ENDBRANCH  13  15
ENDBRANCH  10  11
ENDBRANCH   9  10
ENDBRANCH   5   6
ENDBRANCH   4   5
TORSDOF 7
ENDMDL
MODEL       59
REMARK 921   NORMALIZED FREE ENERGY PREDICTED BY IDOCK:   -6.15 KCAL/MOL
REMARK 922        TOTAL FREE ENERGY PREDICTED BY IDOCK:  -10.43 KCAL/MOL
REMARK 923 INTER-LIGAND FREE ENERGY PREDICTED BY IDOCK:   -8.84 KCAL/MOL
REMARK 924 INTRA-LIGAND FREE ENERGY PREDICTED BY IDOCK:   -1.58 KCAL/MOL
REMARK 927      BINDING AFFINITY PREDICTED BY RF-SCORE:    0.00 PKD
ROOT
HETATM    1  C   UNL     1      -9.927  17.591  67.054  1.00  0.00    -0.311 C  
HETATM    2  C   UNL     1     -10.241  16.138  66.704  1.00  0.00    -0.291 C  
HETATM    3  C   UNL     1     -11.167  15.538  67.766  1.00  0.00    -0.302 C  
HETATM    4  C   UNL     1     -10.831  16.059  65.281  1.00  0.00    -0.376 C  
ENDROOT
BRANCH   4   5
HETATM    5  C   UNL     1     -11.154  14.625  64.875  1.00  0.00    -0.409 C  
BRANCH   5   6
HETATM    6  C   UNL     1     -10.044  13.641  65.238  1.00  0.00    -0.297 C  
HETATM    7  C   UNL     1     -10.444  12.185  64.920  1.00  0.00    -0.325 C  
HETATM    8  C   UNL     1     -10.757  11.988  63.429  1.00  0.00    -0.475 C  
HETATM    9  C   UNL     1      -9.330  11.233  65.396  1.00  0.00    -0.232 C  
BRANCH   9  10
HETATM   10  C   UNL     1      -9.672   9.774  65.107  1.00  0.00    -0.338 C  
BRANCH  10  11
HETATM   11  C   UNL     1      -9.135   8.832  66.174  1.00  0.00    -0.251 C  
HETATM   12  C   UNL     1      -8.890   7.416  65.613  1.00  0.00    -0.056 C  
HETATM   13  C   UNL     1      -8.465   6.445  66.725  1.00  0.00    -0.112 C  
HETATM   14  C   UNL     1      -7.826   7.403  64.509  1.00  0.00    -0.129 C  
BRANCH  13  15
HETATM   15  C   UNL     1      -9.450   6.318  67.886  1.00  0.00    -0.115 C  
BRANCH  15  16
HETATM   16  C   UNL     1      -8.840   6.569  69.278  1.00  0.00    -0.132 C  
BRANCH  16  17
HETATM   17  C   UNL     1      -9.785   7.335  70.244  1.00  0.00    -0.175 C  
HETATM   18  C   UNL     1      -9.051   7.565  71.584  1.00  0.00    -0.149 C  
HETATM   19  C   UNL     1     -11.099   6.564  70.362  1.00  0.00    -0.389 C  
HETATM   20  C   UNL     1     -12.051   7.277  71.293  1.00  0.00    -0.373 C  
HETATM   21  C   UNL     1     -12.056   8.764  71.072  1.00  0.00    -0.262 A  
HETATM   22  C   UNL     1     -12.998   9.572  71.736  1.00  0.00    -0.502 A  
HETATM   23  C   UNL     1     -13.991   8.980  72.705  1.00  0.00    -0.381 C  
HETATM   24  C   UNL     1     -12.988  10.955  71.487  1.00  0.00    -0.451 A  
HETATM   25  C   UNL     1     -12.053  11.556  70.619  1.00  0.00    -0.450 A  
HETATM   26  O   UNL     1     -13.893  11.787  72.094  1.00  0.00    -0.271 OA 
HETATM   27  C   UNL     1     -12.085  13.045  70.389  1.00  0.00    -0.391 C  
HETATM   28  C   UNL     1     -11.084  10.744  69.985  1.00  0.00    -0.327 A  
HETATM   29  H   UNL     1     -13.886  12.722  71.925  1.00  0.00     0.000 HD 
HETATM   30  C   UNL     1     -11.084   9.354  70.236  1.00  0.00    -0.257 A  
HETATM   31  C   UNL     1     -10.034  11.314  69.064  1.00  0.00    -0.124 C  
HETATM   32  O   UNL     1     -10.066   8.625  69.648  1.00  0.00    -0.191 OA 
ENDBRANCH  16  17
ENDBRANCH  15  16
ENDBRANCH  13  15
ENDBRANCH  10  11
ENDBRANCH   9  10
ENDBRANCH   5   6
ENDBRANCH   4   5
TORSDOF 7
ENDMDL
MODEL       60
REMARK 921   NORMALIZED FREE ENERGY PREDICTED BY IDOCK:   -6.15 KCAL/MOL
REMARK 922        TOTAL FREE ENERGY PREDICTED BY IDOCK:  -10.42 KCAL/MOL
REMARK 923 INTER-LIGAND FREE ENERGY PREDICTED BY IDOCK:   -7.46 KCAL/MOL
REMARK 924 INTRA-LIGAND FREE ENERGY PREDICTED BY IDOCK:   -2.95 KCAL/MOL
REMARK 927      BINDING AFFINITY PREDICTED BY RF-SCORE:    0.00 PKD
ROOT
HETATM    1  C   UNL     1      -9.901   4.380  67.025  1.00  0.00    -0.227 C  
HETATM    2  C   UNL     1      -9.861   5.868  66.682  1.00  0.00    -0.197 C  
HETATM    3  C   UNL     1     -11.005   6.594  67.396  1.00  0.00    -0.434 C  
HETATM    4  C   UNL     1      -8.475   6.446  67.031  1.00  0.00    -0.112 C  
ENDROOT
BRANCH   4   5
HETATM    5  C   UNL     1      -8.375   7.932  66.698  1.00  0.00    -0.125 C  
BRANCH   5   6
HETATM    6  C   UNL     1      -8.832   8.254  65.278  1.00  0.00    -0.074 C  
HETATM    7  C   UNL     1      -8.889   9.775  65.026  1.00  0.00    -0.224 C  
HETATM    8  C   UNL     1      -7.520  10.443  65.227  1.00  0.00    -0.113 C  
HETATM    9  C   UNL     1      -9.447  10.039  63.615  1.00  0.00    -0.253 C  
BRANCH   9  10
HETATM   10  C   UNL     1      -9.528  11.533  63.310  1.00  0.00    -0.303 C  
BRANCH  10  11
HETATM   11  C   UNL     1     -10.289  12.301  64.379  1.00  0.00    -0.358 C  
HETATM   12  C   UNL     1     -11.589  12.916  63.822  1.00  0.00    -0.538 C  
HETATM   13  C   UNL     1     -12.285  13.790  64.877  1.00  0.00    -0.443 C  
HETATM   14  C   UNL     1     -12.576  11.850  63.331  1.00  0.00    -0.555 C  
BRANCH  13  15
HETATM   15  C   UNL     1     -11.436  14.930  65.437  1.00  0.00    -0.320 C  
BRANCH  15  16
HETATM   16  C   UNL     1     -11.489  15.078  66.970  1.00  0.00    -0.288 C  
BRANCH  16  17
HETATM   17  C   UNL     1     -10.343  14.330  67.707  1.00  0.00    -0.238 C  
HETATM   18  C   UNL     1     -10.115  14.996  69.082  1.00  0.00    -0.245 C  
HETATM   19  C   UNL     1      -9.112  14.299  66.802  1.00  0.00    -0.269 C  
HETATM   20  C   UNL     1      -7.972  13.578  67.480  1.00  0.00    -0.186 C  
HETATM   21  C   UNL     1      -8.429  12.333  68.190  1.00  0.00    -0.176 A  
HETATM   22  C   UNL     1      -7.482  11.448  68.740  1.00  0.00    -0.124 A  
HETATM   23  C   UNL     1      -6.005  11.740  68.668  1.00  0.00    -0.050 C  
HETATM   24  C   UNL     1      -7.945  10.283  69.375  1.00  0.00    -0.159 A  
HETATM   25  C   UNL     1      -9.319   9.990  69.500  1.00  0.00    -0.247 A  
HETATM   26  O   UNL     1      -7.067   9.379  69.915  1.00  0.00    -0.059 OA 
HETATM   27  C   UNL     1      -9.762   8.727  70.192  1.00  0.00    -0.188 C  
HETATM   28  C   UNL     1     -10.266  10.902  68.979  1.00  0.00    -0.219 A  
HETATM   29  H   UNL     1      -7.380   8.591  70.344  1.00  0.00     0.000 HD 
HETATM   30  C   UNL     1      -9.808  12.078  68.346  1.00  0.00    -0.204 A  
HETATM   31  C   UNL     1     -11.752  10.673  69.095  1.00  0.00    -0.324 C  
HETATM   32  O   UNL     1     -10.782  12.966  67.925  1.00  0.00    -0.212 OA 
ENDBRANCH  16  17
ENDBRANCH  15  16
ENDBRANCH  13  15
ENDBRANCH  10  11
ENDBRANCH   9  10
ENDBRANCH   5   6
ENDBRANCH   4   5
TORSDOF 7
ENDMDL
MODEL       61
REMARK 921   NORMALIZED FREE ENERGY PREDICTED BY IDOCK:   -6.14 KCAL/MOL
REMARK 922        TOTAL FREE ENERGY PREDICTED BY IDOCK:  -10.41 KCAL/MOL
REMARK 923 INTER-LIGAND FREE ENERGY PREDICTED BY IDOCK:   -8.74 KCAL/MOL
REMARK 924 INTRA-LIGAND FREE ENERGY PREDICTED BY IDOCK:   -1.66 KCAL/MOL
REMARK 927      BINDING AFFINITY PREDICTED BY RF-SCORE:    0.00 PKD
ROOT
HETATM    1  C   UNL     1      -7.638   9.850  65.309  1.00  0.00    -0.130 C  
HETATM    2  C   UNL     1      -8.384   8.595  64.859  1.00  0.00    -0.174 C  
HETATM    3  C   UNL     1      -8.438   8.547  63.329  1.00  0.00    -0.051 C  
HETATM    4  C   UNL     1      -7.722   7.346  65.475  1.00  0.00    -0.107 C  
ENDROOT
BRANCH   4   5
HETATM    5  C   UNL     1      -8.435   6.061  65.065  1.00  0.00    -0.089 C  
BRANCH   5   6
HETATM    6  C   UNL     1      -8.525   5.045  66.200  1.00  0.00    -0.114 C  
HETATM    7  C   UNL     1      -9.330   5.593  67.397  1.00  0.00    -0.113 C  
HETATM    8  C   UNL     1     -10.767   5.963  67.002  1.00  0.00    -0.396 C  
HETATM    9  C   UNL     1      -9.303   4.566  68.545  1.00  0.00    -0.198 C  
BRANCH   9  10
HETATM   10  C   UNL     1     -10.086   5.057  69.761  1.00  0.00    -0.337 C  
BRANCH  10  11
HETATM   11  C   UNL     1      -9.813   6.520  70.071  1.00  0.00    -0.183 C  
HETATM   12  C   UNL     1     -11.117   7.340  70.144  1.00  0.00    -0.281 C  
HETATM   13  C   UNL     1     -10.823   8.836  70.336  1.00  0.00    -0.256 C  
HETATM   14  C   UNL     1     -12.040   6.868  71.274  1.00  0.00    -0.419 C  
BRANCH  13  15
HETATM   15  C   UNL     1      -9.941   9.466  69.259  1.00  0.00    -0.182 C  
BRANCH  15  16
HETATM   16  C   UNL     1      -9.788  10.995  69.367  1.00  0.00     0.021 C  
BRANCH  16  17
HETATM   17  C   UNL     1     -10.569  11.778  68.275  1.00  0.00    -0.211 C  
HETATM   18  C   UNL     1     -12.007  12.035  68.777  1.00  0.00    -0.299 C  
HETATM   19  C   UNL     1     -10.482  11.006  66.958  1.00  0.00    -0.284 C  
HETATM   20  C   UNL     1     -11.228  11.734  65.866  1.00  0.00    -0.345 C  
HETATM   21  C   UNL     1     -10.981  13.218  65.900  1.00  0.00    -0.288 A  
HETATM   22  C   UNL     1     -11.463  14.036  64.861  1.00  0.00    -0.358 A  
HETATM   23  C   UNL     1     -12.265  13.461  63.721  1.00  0.00    -0.482 C  
HETATM   24  C   UNL     1     -11.192  15.414  64.913  1.00  0.00    -0.403 A  
HETATM   25  C   UNL     1     -10.480  16.000  65.980  1.00  0.00    -0.356 A  
HETATM   26  O   UNL     1     -11.624  16.255  63.921  1.00  0.00    -1.489 OA 
HETATM   27  C   UNL     1     -10.218  17.484  65.989  1.00  0.00    -0.306 C  
HETATM   28  C   UNL     1     -10.031  15.178  67.040  1.00  0.00    -0.242 A  
HETATM   29  H   UNL     1     -11.441  17.187  63.957  1.00  0.00     0.000 HD 
HETATM   30  C   UNL     1     -10.306  13.793  66.998  1.00  0.00    -0.260 A  
HETATM   31  C   UNL     1      -9.286  15.732  68.229  1.00  0.00    -0.193 C  
HETATM   32  O   UNL     1      -9.909  13.055  68.098  1.00  0.00    -0.218 OA 
ENDBRANCH  16  17
ENDBRANCH  15  16
ENDBRANCH  13  15
ENDBRANCH  10  11
ENDBRANCH   9  10
ENDBRANCH   5   6
ENDBRANCH   4   5
TORSDOF 7
ENDMDL
MODEL       62
REMARK 921   NORMALIZED FREE ENERGY PREDICTED BY IDOCK:   -6.10 KCAL/MOL
REMARK 922        TOTAL FREE ENERGY PREDICTED BY IDOCK:  -10.35 KCAL/MOL
REMARK 923 INTER-LIGAND FREE ENERGY PREDICTED BY IDOCK:   -9.24 KCAL/MOL
REMARK 924 INTRA-LIGAND FREE ENERGY PREDICTED BY IDOCK:   -1.11 KCAL/MOL
REMARK 927      BINDING AFFINITY PREDICTED BY RF-SCORE:    0.00 PKD
ROOT
HETATM    1  C   UNL     1     -12.721  15.862  73.369  1.00  0.00    -0.676 C  
HETATM    2  C   UNL     1     -12.478  14.885  72.220  1.00  0.00    -0.422 C  
HETATM    3  C   UNL     1     -13.817  14.480  71.595  1.00  0.00    -0.513 C  
HETATM    4  C   UNL     1     -11.506  15.510  71.201  1.00  0.00    -0.442 C  
ENDROOT
BRANCH   4   5
HETATM    5  C   UNL     1     -11.220  14.570  70.034  1.00  0.00    -0.228 C  
BRANCH   5   6
HETATM    6  C   UNL     1     -11.106  15.299  68.698  1.00  0.00    -0.282 C  
HETATM    7  C   UNL     1     -11.093  14.317  67.508  1.00  0.00    -0.309 C  
HETATM    8  C   UNL     1     -12.369  13.463  67.454  1.00  0.00    -0.113 C  
HETATM    9  C   UNL     1     -10.879  15.100  66.199  1.00  0.00    -0.330 C  
BRANCH   9  10
HETATM   10  C   UNL     1     -10.856  14.176  64.984  1.00  0.00    -0.408 C  
BRANCH  10  11
HETATM   11  C   UNL     1     -10.057  12.907  65.239  1.00  0.00    -0.254 C  
HETATM   12  C   UNL     1     -10.847  11.645  64.834  1.00  0.00    -0.359 C  
HETATM   13  C   UNL     1     -10.081  10.367  65.208  1.00  0.00    -0.370 C  
HETATM   14  C   UNL     1     -11.165  11.612  63.334  1.00  0.00    -0.401 C  
BRANCH  13  15
HETATM   15  C   UNL     1      -9.725  10.235  66.689  1.00  0.00    -0.233 C  
BRANCH  15  16
HETATM   16  C   UNL     1     -10.748   9.447  67.528  1.00  0.00    -0.290 C  
BRANCH  16  17
HETATM   17  C   UNL     1     -10.180   8.129  68.125  1.00  0.00    -0.209 C  
HETATM   18  C   UNL     1      -8.649   8.267  68.276  1.00  0.00    -0.133 C  
HETATM   19  C   UNL     1     -10.631   6.958  67.251  1.00  0.00    -0.393 C  
HETATM   20  C   UNL     1     -10.102   5.654  67.797  1.00  0.00    -0.209 C  
HETATM   21  C   UNL     1     -10.215   5.577  69.295  1.00  0.00    -0.315 A  
HETATM   22  C   UNL     1      -9.922   4.372  69.963  1.00  0.00    -0.245 A  
HETATM   23  C   UNL     1      -9.454   3.154  69.208  1.00  0.00    -0.179 C  
HETATM   24  C   UNL     1     -10.063   4.330  71.360  1.00  0.00    -0.117 A  
HETATM   25  C   UNL     1     -10.459   5.457  72.110  1.00  0.00    -0.273 A  
HETATM   26  O   UNL     1      -9.805   3.179  72.060  1.00  0.00    -0.156 OA 
HETATM   27  C   UNL     1     -10.591   5.358  73.608  1.00  0.00    -0.318 C  
HETATM   28  C   UNL     1     -10.714   6.674  71.438  1.00  0.00    -0.264 A  
HETATM   29  H   UNL     1      -9.900   3.151  73.005  1.00  0.00     0.000 HD 
HETATM   30  C   UNL     1     -10.569   6.726  70.034  1.00  0.00    -0.220 A  
HETATM   31  C   UNL     1     -11.117   7.930  72.170  1.00  0.00    -0.351 C  
HETATM   32  O   UNL     1     -10.759   7.962  69.443  1.00  0.00    -0.228 OA 
ENDBRANCH  16  17
ENDBRANCH  15  16
ENDBRANCH  13  15
ENDBRANCH  10  11
ENDBRANCH   9  10
ENDBRANCH   5   6
ENDBRANCH   4   5
TORSDOF 7
ENDMDL
MODEL       63
REMARK 921   NORMALIZED FREE ENERGY PREDICTED BY IDOCK:   -6.09 KCAL/MOL
REMARK 922        TOTAL FREE ENERGY PREDICTED BY IDOCK:  -10.34 KCAL/MOL
REMARK 923 INTER-LIGAND FREE ENERGY PREDICTED BY IDOCK:   -7.99 KCAL/MOL
REMARK 924 INTRA-LIGAND FREE ENERGY PREDICTED BY IDOCK:   -2.36 KCAL/MOL
REMARK 927      BINDING AFFINITY PREDICTED BY RF-SCORE:    0.00 PKD
ROOT
HETATM    1  C   UNL     1      -7.274  10.406  69.575  1.00  0.00    -0.130 C  
HETATM    2  C   UNL     1      -8.573   9.621  69.402  1.00  0.00    -0.160 C  
HETATM    3  C   UNL     1      -8.307   8.353  68.585  1.00  0.00    -0.120 C  
HETATM    4  C   UNL     1      -9.191   9.325  70.783  1.00  0.00    -0.316 C  
ENDROOT
BRANCH   4   5
HETATM    5  C   UNL     1     -10.500   8.550  70.669  1.00  0.00    -0.234 C  
BRANCH   5   6
HETATM    6  C   UNL     1     -11.581   9.068  71.613  1.00  0.00    -0.426 C  
HETATM    7  C   UNL     1     -12.132  10.435  71.158  1.00  0.00    -0.487 C  
HETATM    8  C   UNL     1     -12.750  10.367  69.753  1.00  0.00     0.134 C  
HETATM    9  C   UNL     1     -13.145  10.951  72.198  1.00  0.00    -0.325 C  
BRANCH   9  10
HETATM   10  C   UNL     1     -13.724  12.306  71.799  1.00  0.00     0.138 C  
BRANCH  10  11
HETATM   11  C   UNL     1     -12.700  13.425  71.904  1.00  0.00    -0.277 C  
HETATM   12  C   UNL     1     -13.060  14.615  70.990  1.00  0.00    -0.427 C  
HETATM   13  C   UNL     1     -11.958  15.685  71.011  1.00  0.00    -0.445 C  
HETATM   14  C   UNL     1     -14.392  15.267  71.379  1.00  0.00    -0.578 C  
BRANCH  13  15
HETATM   15  C   UNL     1     -10.569  15.193  70.606  1.00  0.00    -0.075 C  
BRANCH  15  16
HETATM   16  C   UNL     1     -10.217  15.413  69.123  1.00  0.00    -0.239 C  
BRANCH  16  17
HETATM   17  C   UNL     1     -10.045  14.093  68.320  1.00  0.00    -0.241 C  
HETATM   18  C   UNL     1     -10.576  12.919  69.170  1.00  0.00     0.009 C  
HETATM   19  C   UNL     1      -8.582  13.962  67.896  1.00  0.00    -0.180 C  
HETATM   20  C   UNL     1      -8.370  12.691  67.109  1.00  0.00    -0.172 C  
HETATM   21  C   UNL     1      -9.477  12.441  66.122  1.00  0.00    -0.201 A  
HETATM   22  C   UNL     1      -9.367  11.391  65.191  1.00  0.00    -0.172 A  
HETATM   23  C   UNL     1      -8.170  10.475  65.183  1.00  0.00    -0.134 C  
HETATM   24  C   UNL     1     -10.410  11.203  64.268  1.00  0.00    -0.351 A  
HETATM   25  C   UNL     1     -11.566  12.010  64.265  1.00  0.00    -0.435 A  
HETATM   26  O   UNL     1     -10.349  10.206  63.329  1.00  0.00    -0.364 OA 
HETATM   27  C   UNL     1     -12.657  11.764  63.254  1.00  0.00    -0.382 C  
HETATM   28  C   UNL     1     -11.688  13.039  65.228  1.00  0.00    -0.388 A  
HETATM   29  H   UNL     1     -11.054  10.079  62.705  1.00  0.00     0.000 HD 
HETATM   30  C   UNL     1     -10.647  13.230  66.163  1.00  0.00    -0.287 A  
HETATM   31  C   UNL     1     -12.904  13.929  65.307  1.00  0.00    -0.437 C  
HETATM   32  O   UNL     1     -10.857  14.200  67.125  1.00  0.00    -0.285 OA 
ENDBRANCH  16  17
ENDBRANCH  15  16
ENDBRANCH  13  15
ENDBRANCH  10  11
ENDBRANCH   9  10
ENDBRANCH   5   6
ENDBRANCH   4   5
TORSDOF 7
ENDMDL
MODEL       64
REMARK 921   NORMALIZED FREE ENERGY PREDICTED BY IDOCK:   -6.05 KCAL/MOL
REMARK 922        TOTAL FREE ENERGY PREDICTED BY IDOCK:  -10.28 KCAL/MOL
REMARK 923 INTER-LIGAND FREE ENERGY PREDICTED BY IDOCK:   -8.37 KCAL/MOL
REMARK 924 INTRA-LIGAND FREE ENERGY PREDICTED BY IDOCK:   -1.91 KCAL/MOL
REMARK 927      BINDING AFFINITY PREDICTED BY RF-SCORE:    0.00 PKD
ROOT
HETATM    1  C   UNL     1      -7.974   7.556  63.602  1.00  0.00    -0.074 C  
HETATM    2  C   UNL     1      -8.412   8.857  64.272  1.00  0.00    -0.165 C  
HETATM    3  C   UNL     1      -7.289   9.377  65.175  1.00  0.00    -0.104 C  
HETATM    4  C   UNL     1      -8.838   9.879  63.199  1.00  0.00    -0.254 C  
ENDROOT
BRANCH   4   5
HETATM    5  C   UNL     1      -9.296  11.197  63.815  1.00  0.00    -0.204 C  
BRANCH   5   6
HETATM    6  C   UNL     1     -10.515  11.038  64.718  1.00  0.00    -0.384 C  
HETATM    7  C   UNL     1     -10.227  11.513  66.158  1.00  0.00    -0.272 C  
HETATM    8  C   UNL     1      -9.816  12.992  66.204  1.00  0.00    -0.275 C  
HETATM    9  C   UNL     1     -11.458  11.238  67.043  1.00  0.00    -0.177 C  
BRANCH   9  10
HETATM   10  C   UNL     1     -11.229  11.688  68.484  1.00  0.00    -0.312 C  
BRANCH  10  11
HETATM   11  C   UNL     1     -12.259  11.109  69.441  1.00  0.00    -0.329 C  
HETATM   12  C   UNL     1     -12.197  11.789  70.824  1.00  0.00    -0.424 C  
HETATM   13  C   UNL     1     -13.156  11.115  71.817  1.00  0.00    -0.536 C  
HETATM   14  C   UNL     1     -12.528  13.285  70.754  1.00  0.00    -0.403 C  
BRANCH  13  15
HETATM   15  C   UNL     1     -12.926   9.618  72.027  1.00  0.00    -0.518 C  
BRANCH  15  16
HETATM   16  C   UNL     1     -11.472   9.156  71.816  1.00  0.00    -0.452 C  
BRANCH  16  17
HETATM   17  C   UNL     1     -11.352   7.698  71.291  1.00  0.00    -0.264 C  
HETATM   18  C   UNL     1     -12.768   7.098  71.153  1.00  0.00    -0.363 C  
HETATM   19  C   UNL     1     -10.416   6.918  72.214  1.00  0.00    -0.233 C  
HETATM   20  C   UNL     1     -10.269   5.492  71.739  1.00  0.00    -0.256 C  
HETATM   21  C   UNL     1     -10.116   5.404  70.245  1.00  0.00    -0.318 A  
HETATM   22  C   UNL     1      -9.805   4.171  69.641  1.00  0.00    -0.208 A  
HETATM   23  C   UNL     1      -9.658   2.914  70.460  1.00  0.00    -0.172 C  
HETATM   24  C   UNL     1      -9.646   4.131  68.245  1.00  0.00    -0.128 A  
HETATM   25  C   UNL     1      -9.814   5.274  67.436  1.00  0.00    -0.183 A  
HETATM   26  O   UNL     1      -9.329   2.961  67.606  1.00  0.00    -0.194 OA 
HETATM   27  C   UNL     1      -9.634   5.176  65.943  1.00  0.00    -0.163 C  
HETATM   28  C   UNL     1     -10.164   6.501  68.046  1.00  0.00    -0.192 A  
HETATM   29  H   UNL     1      -9.221   2.934  66.662  1.00  0.00     0.000 HD 
HETATM   30  C   UNL     1     -10.332   6.547  69.447  1.00  0.00    -0.205 A  
HETATM   31  C   UNL     1     -10.386   7.762  67.248  1.00  0.00    -0.371 C  
HETATM   32  O   UNL     1     -10.748   7.756  69.975  1.00  0.00    -0.239 OA 
ENDBRANCH  16  17
ENDBRANCH  15  16
ENDBRANCH  13  15
ENDBRANCH  10  11
ENDBRANCH   9  10
ENDBRANCH   5   6
ENDBRANCH   4   5
TORSDOF 7
ENDMDL
MODEL       65
REMARK 921   NORMALIZED FREE ENERGY PREDICTED BY IDOCK:   -6.02 KCAL/MOL
REMARK 922        TOTAL FREE ENERGY PREDICTED BY IDOCK:  -10.23 KCAL/MOL
REMARK 923 INTER-LIGAND FREE ENERGY PREDICTED BY IDOCK:   -6.27 KCAL/MOL
REMARK 924 INTRA-LIGAND FREE ENERGY PREDICTED BY IDOCK:   -3.97 KCAL/MOL
REMARK 927      BINDING AFFINITY PREDICTED BY RF-SCORE:    0.00 PKD
ROOT
HETATM    1  C   UNL     1      -5.824   3.186  66.514  1.00  0.00    -0.023 C  
HETATM    2  C   UNL     1      -6.918   3.011  67.565  1.00  0.00    -0.049 C  
HETATM    3  C   UNL     1      -6.383   3.420  68.941  1.00  0.00    -0.029 C  
HETATM    4  C   UNL     1      -8.172   3.806  67.150  1.00  0.00    -0.095 C  
ENDROOT
BRANCH   4   5
HETATM    5  C   UNL     1      -9.304   3.657  68.163  1.00  0.00    -0.236 C  
BRANCH   5   6
HETATM    6  C   UNL     1      -9.991   4.982  68.484  1.00  0.00    -0.207 C  
HETATM    7  C   UNL     1     -10.419   5.061  69.964  1.00  0.00    -0.226 C  
HETATM    8  C   UNL     1      -9.221   4.928  70.917  1.00  0.00    -0.196 C  
HETATM    9  C   UNL     1     -11.191   6.373  70.204  1.00  0.00    -0.454 C  
BRANCH   9  10
HETATM   10  C   UNL     1     -11.642   6.505  71.657  1.00  0.00    -0.357 C  
BRANCH  10  11
HETATM   11  C   UNL     1     -11.880   7.952  72.058  1.00  0.00    -0.364 C  
HETATM   12  C   UNL     1     -13.066   8.569  71.288  1.00  0.00    -0.167 C  
HETATM   13  C   UNL     1     -13.220  10.063  71.611  1.00  0.00    -0.518 C  
HETATM   14  C   UNL     1     -14.390   7.858  71.589  1.00  0.00    -0.595 C  
BRANCH  13  15
HETATM   15  C   UNL     1     -11.986  10.919  71.324  1.00  0.00    -0.226 C  
BRANCH  15  16
HETATM   16  C   UNL     1     -11.911  11.478  69.891  1.00  0.00    -0.430 C  
BRANCH  16  17
HETATM   17  C   UNL     1     -10.776  10.849  69.035  1.00  0.00    -0.224 C  
HETATM   18  C   UNL     1      -9.784  11.960  68.625  1.00  0.00    -0.116 C  
HETATM   19  C   UNL     1     -11.403  10.092  67.865  1.00  0.00    -0.108 C  
HETATM   20  C   UNL     1     -10.334   9.461  67.007  1.00  0.00    -0.322 C  
HETATM   21  C   UNL     1      -9.243   8.830  67.828  1.00  0.00    -0.146 A  
HETATM   22  C   UNL     1      -8.248   8.056  67.202  1.00  0.00    -0.117 A  
HETATM   23  C   UNL     1      -8.225   7.873  65.706  1.00  0.00    -0.130 C  
HETATM   24  C   UNL     1      -7.260   7.461  68.005  1.00  0.00    -0.090 A  
HETATM   25  C   UNL     1      -7.220   7.637  69.403  1.00  0.00    -0.081 A  
HETATM   26  O   UNL     1      -6.275   6.684  67.450  1.00  0.00    -0.030 OA 
HETATM   27  C   UNL     1      -6.136   6.979  70.217  1.00  0.00    -0.024 C  
HETATM   28  C   UNL     1      -8.200   8.448  70.021  1.00  0.00    -0.121 A  
HETATM   29  H   UNL     1      -5.607   6.282  67.993  1.00  0.00     0.000 HD 
HETATM   30  C   UNL     1      -9.193   9.054  69.221  1.00  0.00    -0.145 A  
HETATM   31  C   UNL     1      -8.211   8.707  71.507  1.00  0.00    -0.209 C  
HETATM   32  O   UNL     1     -10.077   9.895  69.872  1.00  0.00    -0.230 OA 
ENDBRANCH  16  17
ENDBRANCH  15  16
ENDBRANCH  13  15
ENDBRANCH  10  11
ENDBRANCH   9  10
ENDBRANCH   5   6
ENDBRANCH   4   5
TORSDOF 7
ENDMDL
MODEL       66
REMARK 921   NORMALIZED FREE ENERGY PREDICTED BY IDOCK:   -6.01 KCAL/MOL
REMARK 922        TOTAL FREE ENERGY PREDICTED BY IDOCK:  -10.23 KCAL/MOL
REMARK 923 INTER-LIGAND FREE ENERGY PREDICTED BY IDOCK:   -7.58 KCAL/MOL
REMARK 924 INTRA-LIGAND FREE ENERGY PREDICTED BY IDOCK:   -2.64 KCAL/MOL
REMARK 927      BINDING AFFINITY PREDICTED BY RF-SCORE:    0.00 PKD
ROOT
HETATM    1  C   UNL     1     -11.570   7.687  72.360  1.00  0.00    -0.386 C  
HETATM    2  C   UNL     1     -12.389   8.634  71.485  1.00  0.00    -0.370 C  
HETATM    3  C   UNL     1     -13.746   8.902  72.143  1.00  0.00    -0.527 C  
HETATM    4  C   UNL     1     -11.587   9.924  71.221  1.00  0.00    -0.456 C  
ENDROOT
BRANCH   4   5
HETATM    5  C   UNL     1     -12.356  10.904  70.340  1.00  0.00    -0.436 C  
BRANCH   5   6
HETATM    6  C   UNL     1     -12.549  12.267  70.999  1.00  0.00    -0.352 C  
HETATM    7  C   UNL     1     -11.800  13.382  70.239  1.00  0.00    -0.316 C  
HETATM    8  C   UNL     1     -12.278  13.507  68.785  1.00  0.00    -0.178 C  
HETATM    9  C   UNL     1     -11.951  14.712  71.003  1.00  0.00    -0.399 C  
BRANCH   9  10
HETATM   10  C   UNL     1     -11.226  15.855  70.295  1.00  0.00    -0.388 C  
BRANCH  10  11
HETATM   11  C   UNL     1     -10.008  15.375  69.522  1.00  0.00    -0.266 C  
HETATM   12  C   UNL     1      -9.808  16.176  68.219  1.00  0.00    -0.224 C  
HETATM   13  C   UNL     1      -8.650  15.605  67.388  1.00  0.00    -0.192 C  
HETATM   14  C   UNL     1      -9.543  17.663  68.483  1.00  0.00    -0.315 C  
BRANCH  13  15
HETATM   15  C   UNL     1      -8.790  14.131  67.008  1.00  0.00    -0.237 C  
BRANCH  15  16
HETATM   16  C   UNL     1      -7.895  13.171  67.815  1.00  0.00    -0.152 C  
BRANCH  16  17
HETATM   17  C   UNL     1      -8.263  11.672  67.629  1.00  0.00    -0.141 C  
HETATM   18  C   UNL     1      -7.259  11.030  66.647  1.00  0.00    -0.143 C  
HETATM   19  C   UNL     1      -9.726  11.574  67.200  1.00  0.00    -0.199 C  
HETATM   20  C   UNL     1     -10.128  10.131  67.010  1.00  0.00    -0.277 C  
HETATM   21  C   UNL     1      -9.589   9.242  68.098  1.00  0.00    -0.159 A  
HETATM   22  C   UNL     1      -9.995   7.897  68.174  1.00  0.00    -0.210 A  
HETATM   23  C   UNL     1     -10.938   7.306  67.156  1.00  0.00    -0.285 C  
HETATM   24  C   UNL     1      -9.490   7.103  69.218  1.00  0.00    -0.152 A  
HETATM   25  C   UNL     1      -8.576   7.603  70.168  1.00  0.00    -0.140 A  
HETATM   26  O   UNL     1      -9.863   5.791  69.349  1.00  0.00    -0.149 OA 
HETATM   27  C   UNL     1      -8.063   6.709  71.267  1.00  0.00    -0.112 C  
HETATM   28  C   UNL     1      -8.142   8.946  70.063  1.00  0.00    -0.116 A  
HETATM   29  H   UNL     1      -9.522   5.254  70.055  1.00  0.00     0.000 HD 
HETATM   30  C   UNL     1      -8.640   9.747  69.012  1.00  0.00    -0.146 A  
HETATM   31  C   UNL     1      -7.147   9.548  71.024  1.00  0.00    -0.017 C  
HETATM   32  O   UNL     1      -8.122  11.026  68.918  1.00  0.00    -0.142 OA 
ENDBRANCH  16  17
ENDBRANCH  15  16
ENDBRANCH  13  15
ENDBRANCH  10  11
ENDBRANCH   9  10
ENDBRANCH   5   6
ENDBRANCH   4   5
TORSDOF 7
ENDMDL
MODEL       67
REMARK 921   NORMALIZED FREE ENERGY PREDICTED BY IDOCK:   -6.01 KCAL/MOL
REMARK 922        TOTAL FREE ENERGY PREDICTED BY IDOCK:  -10.23 KCAL/MOL
REMARK 923 INTER-LIGAND FREE ENERGY PREDICTED BY IDOCK:   -7.92 KCAL/MOL
REMARK 924 INTRA-LIGAND FREE ENERGY PREDICTED BY IDOCK:   -2.31 KCAL/MOL
REMARK 927      BINDING AFFINITY PREDICTED BY RF-SCORE:    0.00 PKD
ROOT
HETATM    1  C   UNL     1      -7.277  16.026  67.191  1.00  0.00    -0.257 C  
HETATM    2  C   UNL     1      -8.802  16.100  67.197  1.00  0.00    -0.218 C  
HETATM    3  C   UNL     1      -9.249  17.561  67.312  1.00  0.00    -0.240 C  
HETATM    4  C   UNL     1      -9.363  15.399  65.943  1.00  0.00    -0.329 C  
ENDROOT
BRANCH   4   5
HETATM    5  C   UNL     1     -10.888  15.435  65.903  1.00  0.00    -0.328 C  
BRANCH   5   6
HETATM    6  C   UNL     1     -11.522  14.089  66.244  1.00  0.00    -0.358 C  
HETATM    7  C   UNL     1     -11.177  13.640  67.679  1.00  0.00    -0.303 C  
HETATM    8  C   UNL     1     -11.662  14.650  68.729  1.00  0.00    -0.357 C  
HETATM    9  C   UNL     1     -11.760  12.236  67.930  1.00  0.00    -0.410 C  
BRANCH   9  10
HETATM   10  C   UNL     1     -11.447  11.739  69.340  1.00  0.00    -0.371 C  
BRANCH  10  11
HETATM   11  C   UNL     1     -12.394  10.636  69.787  1.00  0.00    -0.263 C  
HETATM   12  C   UNL     1     -12.568  10.620  71.319  1.00  0.00    -0.533 C  
HETATM   13  C   UNL     1     -13.427   9.429  71.769  1.00  0.00    -0.485 C  
HETATM   14  C   UNL     1     -13.198  11.914  71.849  1.00  0.00    -0.467 C  
BRANCH  13  15
HETATM   15  C   UNL     1     -12.902   8.056  71.348  1.00  0.00    -0.289 C  
BRANCH  15  16
HETATM   16  C   UNL     1     -11.745   7.518  72.210  1.00  0.00    -0.348 C  
BRANCH  16  17
HETATM   17  C   UNL     1     -10.359   7.595  71.511  1.00  0.00    -0.196 C  
HETATM   18  C   UNL     1      -9.693   6.203  71.566  1.00  0.00    -0.182 C  
HETATM   19  C   UNL     1      -9.544   8.717  72.156  1.00  0.00    -0.378 C  
HETATM   20  C   UNL     1      -8.187   8.829  71.503  1.00  0.00    -0.190 C  
HETATM   21  C   UNL     1      -8.263   8.703  70.007  1.00  0.00    -0.122 A  
HETATM   22  C   UNL     1      -7.120   8.944  69.221  1.00  0.00    -0.058 A  
HETATM   23  C   UNL     1      -5.796   9.290  69.852  1.00  0.00    -0.035 C  
HETATM   24  C   UNL     1      -7.235   8.840  67.824  1.00  0.00    -0.084 A  
HETATM   25  C   UNL     1      -8.443   8.480  67.193  1.00  0.00    -0.118 A  
HETATM   26  O   UNL     1      -6.158   9.079  67.009  1.00  0.00    -0.056 OA 
HETATM   27  C   UNL     1      -8.511   8.381  65.691  1.00  0.00    -0.179 C  
HETATM   28  C   UNL     1      -9.578   8.202  67.991  1.00  0.00    -0.174 A  
HETATM   29  H   UNL     1      -6.235   9.009  66.065  1.00  0.00     0.000 HD 
HETATM   30  C   UNL     1      -9.468   8.297  69.395  1.00  0.00    -0.159 A  
HETATM   31  C   UNL     1     -10.899   7.785  67.394  1.00  0.00    -0.207 C  
HETATM   32  O   UNL     1     -10.589   7.940  70.123  1.00  0.00    -0.228 OA 
ENDBRANCH  16  17
ENDBRANCH  15  16
ENDBRANCH  13  15
ENDBRANCH  10  11
ENDBRANCH   9  10
ENDBRANCH   5   6
ENDBRANCH   4   5
TORSDOF 7
ENDMDL
MODEL       68
REMARK 921   NORMALIZED FREE ENERGY PREDICTED BY IDOCK:   -6.00 KCAL/MOL
REMARK 922        TOTAL FREE ENERGY PREDICTED BY IDOCK:  -10.21 KCAL/MOL
REMARK 923 INTER-LIGAND FREE ENERGY PREDICTED BY IDOCK:   -9.05 KCAL/MOL
REMARK 924 INTRA-LIGAND FREE ENERGY PREDICTED BY IDOCK:   -1.16 KCAL/MOL
REMARK 927      BINDING AFFINITY PREDICTED BY RF-SCORE:    0.00 PKD
ROOT
HETATM    1  C   UNL     1      -9.617   2.330  73.118  1.00  0.00    -0.125 C  
HETATM    2  C   UNL     1     -10.388   3.613  72.813  1.00  0.00    -0.239 C  
HETATM    3  C   UNL     1     -10.246   4.592  73.983  1.00  0.00    -0.253 C  
HETATM    4  C   UNL     1      -9.905   4.205  71.475  1.00  0.00    -0.255 C  
ENDROOT
BRANCH   4   5
HETATM    5  C   UNL     1     -10.652   5.487  71.115  1.00  0.00    -0.303 C  
BRANCH   5   6
HETATM    6  C   UNL     1     -10.726   5.728  69.609  1.00  0.00    -0.416 C  
HETATM    7  C   UNL     1     -10.057   7.060  69.210  1.00  0.00    -0.178 C  
HETATM    8  C   UNL     1      -8.573   7.100  69.605  1.00  0.00    -0.137 C  
HETATM    9  C   UNL     1     -10.248   7.295  67.699  1.00  0.00    -0.257 C  
BRANCH   9  10
HETATM   10  C   UNL     1      -9.606   8.604  67.246  1.00  0.00    -0.216 C  
BRANCH  10  11
HETATM   11  C   UNL     1     -10.143   9.077  65.904  1.00  0.00    -0.041 C  
HETATM   12  C   UNL     1      -9.046   9.755  65.058  1.00  0.00    -0.280 C  
HETATM   13  C   UNL     1      -9.625  10.336  63.760  1.00  0.00    -0.344 C  
HETATM   14  C   UNL     1      -7.904   8.794  64.705  1.00  0.00    -0.127 C  
BRANCH  13  15
HETATM   15  C   UNL     1     -10.755  11.349  63.950  1.00  0.00    -0.462 C  
BRANCH  15  16
HETATM   16  C   UNL     1     -10.287  12.782  64.265  1.00  0.00    -0.402 C  
BRANCH  16  17
HETATM   17  C   UNL     1     -10.369  13.147  65.773  1.00  0.00    -0.289 C  
HETATM   18  C   UNL     1      -9.087  12.651  66.478  1.00  0.00    -0.163 C  
HETATM   19  C   UNL     1     -11.669  12.585  66.346  1.00  0.00    -0.458 C  
HETATM   20  C   UNL     1     -11.791  12.920  67.814  1.00  0.00    -0.391 C  
HETATM   21  C   UNL     1     -11.373  14.333  68.112  1.00  0.00    -0.313 A  
HETATM   22  C   UNL     1     -11.573  14.871  69.397  1.00  0.00    -0.337 A  
HETATM   23  C   UNL     1     -12.167  14.042  70.508  1.00  0.00    -0.435 C  
HETATM   24  C   UNL     1     -11.193  16.204  69.632  1.00  0.00    -0.331 A  
HETATM   25  C   UNL     1     -10.598  17.002  68.634  1.00  0.00    -0.362 A  
HETATM   26  O   UNL     1     -11.378  16.783  70.861  1.00  0.00    -0.485 OA 
HETATM   27  C   UNL     1     -10.207  18.425  68.939  1.00  0.00    -0.284 C  
HETATM   28  C   UNL     1     -10.365  16.444  67.356  1.00  0.00    -0.295 A  
HETATM   29  H   UNL     1     -11.121  17.684  71.019  1.00  0.00     0.000 HD 
HETATM   30  C   UNL     1     -10.738  15.104  67.114  1.00  0.00    -0.310 A  
HETATM   31  C   UNL     1      -9.710  17.225  66.243  1.00  0.00    -0.282 C  
HETATM   32  O   UNL     1     -10.416  14.592  65.870  1.00  0.00    -0.287 OA 
ENDBRANCH  16  17
ENDBRANCH  15  16
ENDBRANCH  13  15
ENDBRANCH  10  11
ENDBRANCH   9  10
ENDBRANCH   5   6
ENDBRANCH   4   5
TORSDOF 7
ENDMDL
MODEL       69
REMARK 921   NORMALIZED FREE ENERGY PREDICTED BY IDOCK:   -6.00 KCAL/MOL
REMARK 922        TOTAL FREE ENERGY PREDICTED BY IDOCK:  -10.20 KCAL/MOL
REMARK 923 INTER-LIGAND FREE ENERGY PREDICTED BY IDOCK:   -9.16 KCAL/MOL
REMARK 924 INTRA-LIGAND FREE ENERGY PREDICTED BY IDOCK:   -1.04 KCAL/MOL
REMARK 927      BINDING AFFINITY PREDICTED BY RF-SCORE:    0.00 PKD
ROOT
HETATM    1  C   UNL     1      -8.372   6.136  69.328  1.00  0.00    -0.116 C  
HETATM    2  C   UNL     1      -9.746   6.326  69.967  1.00  0.00    -0.193 C  
HETATM    3  C   UNL     1     -10.840   5.996  68.946  1.00  0.00    -0.400 C  
HETATM    4  C   UNL     1      -9.848   5.475  71.248  1.00  0.00    -0.228 C  
ENDROOT
BRANCH   4   5
HETATM    5  C   UNL     1     -11.201   5.634  71.935  1.00  0.00    -0.246 C  
BRANCH   5   6
HETATM    6  C   UNL     1     -11.385   7.009  72.571  1.00  0.00    -0.301 C  
HETATM    7  C   UNL     1     -12.230   7.944  71.680  1.00  0.00    -0.339 C  
HETATM    8  C   UNL     1     -13.631   7.373  71.415  1.00  0.00    -0.410 C  
HETATM    9  C   UNL     1     -12.299   9.341  72.325  1.00  0.00    -0.344 C  
BRANCH   9  10
HETATM   10  C   UNL     1     -13.125  10.312  71.483  1.00  0.00    -0.534 C  
BRANCH  10  11
HETATM   11  C   UNL     1     -12.303  11.492  70.990  1.00  0.00    -0.434 C  
HETATM   12  C   UNL     1     -13.126  12.796  70.983  1.00  0.00    -0.062 C  
HETATM   13  C   UNL     1     -12.325  13.955  70.369  1.00  0.00    -0.433 C  
HETATM   14  C   UNL     1     -13.588  13.202  72.388  1.00  0.00    -0.667 C  
BRANCH  13  15
HETATM   15  C   UNL     1     -11.826  13.715  68.945  1.00  0.00    -0.402 C  
BRANCH  15  16
HETATM   16  C   UNL     1     -11.906  14.944  68.020  1.00  0.00    -0.296 C  
BRANCH  16  17
HETATM   17  C   UNL     1     -10.522  15.421  67.497  1.00  0.00    -0.275 C  
HETATM   18  C   UNL     1     -10.516  15.338  65.954  1.00  0.00    -0.345 C  
HETATM   19  C   UNL     1      -9.428  14.603  68.183  1.00  0.00    -0.212 C  
HETATM   20  C   UNL     1      -8.063  15.036  67.704  1.00  0.00    -0.184 C  
HETATM   21  C   UNL     1      -7.946  16.532  67.596  1.00  0.00    -0.178 A  
HETATM   22  C   UNL     1      -6.698  17.123  67.322  1.00  0.00    -0.190 A  
HETATM   23  C   UNL     1      -5.469  16.281  67.090  1.00  0.00    -0.053 C  
HETATM   24  C   UNL     1      -6.622  18.525  67.253  1.00  0.00    -0.199 A  
HETATM   25  C   UNL     1      -7.753  19.348  67.423  1.00  0.00    -0.282 A  
HETATM   26  O   UNL     1      -5.429  19.154  67.004  1.00  0.00    -0.163 OA 
HETATM   27  C   UNL     1      -7.617  20.847  67.337  1.00  0.00    -0.298 C  
HETATM   28  C   UNL     1      -9.011  18.747  67.661  1.00  0.00    -0.299 A  
HETATM   29  H   UNL     1      -5.378  20.101  66.957  1.00  0.00     0.000 HD 
HETATM   30  C   UNL     1      -9.097  17.339  67.724  1.00  0.00    -0.235 A  
HETATM   31  C   UNL     1     -10.273  19.557  67.827  1.00  0.00    -0.550 C  
HETATM   32  O   UNL     1     -10.364  16.808  67.883  1.00  0.00    -0.293 OA 
ENDBRANCH  16  17
ENDBRANCH  15  16
ENDBRANCH  13  15
ENDBRANCH  10  11
ENDBRANCH   9  10
ENDBRANCH   5   6
ENDBRANCH   4   5
TORSDOF 7
ENDMDL
MODEL       70
REMARK 921   NORMALIZED FREE ENERGY PREDICTED BY IDOCK:   -5.99 KCAL/MOL
REMARK 922        TOTAL FREE ENERGY PREDICTED BY IDOCK:  -10.20 KCAL/MOL
REMARK 923 INTER-LIGAND FREE ENERGY PREDICTED BY IDOCK:   -9.30 KCAL/MOL
REMARK 924 INTRA-LIGAND FREE ENERGY PREDICTED BY IDOCK:   -0.90 KCAL/MOL
REMARK 927      BINDING AFFINITY PREDICTED BY RF-SCORE:    0.00 PKD
ROOT
HETATM    1  C   UNL     1      -9.164  19.967  66.300  1.00  0.00    -0.457 C  
HETATM    2  C   UNL     1      -8.366  18.681  66.502  1.00  0.00    -0.304 C  
HETATM    3  C   UNL     1      -6.925  18.885  66.024  1.00  0.00    -0.294 C  
HETATM    4  C   UNL     1      -8.450  18.241  67.977  1.00  0.00    -0.273 C  
ENDROOT
BRANCH   4   5
HETATM    5  C   UNL     1      -7.677  16.951  68.234  1.00  0.00    -0.205 C  
BRANCH   5   6
HETATM    6  C   UNL     1      -8.332  16.067  69.292  1.00  0.00    -0.217 C  
HETATM    7  C   UNL     1      -9.867  16.040  69.145  1.00  0.00    -0.247 C  
HETATM    8  C   UNL     1     -10.304  15.507  67.772  1.00  0.00    -0.263 C  
HETATM    9  C   UNL     1     -10.477  15.215  70.294  1.00  0.00    -0.151 C  
BRANCH   9  10
HETATM   10  C   UNL     1     -12.000  15.155  70.201  1.00  0.00    -0.374 C  
BRANCH  10  11
HETATM   11  C   UNL     1     -12.532  13.738  70.343  1.00  0.00    -0.384 C  
HETATM   12  C   UNL     1     -12.944  13.427  71.796  1.00  0.00    -0.435 C  
HETATM   13  C   UNL     1     -13.364  11.957  71.952  1.00  0.00    -0.405 C  
HETATM   14  C   UNL     1     -14.088  14.324  72.283  1.00  0.00    -0.621 C  
BRANCH  13  15
HETATM   15  C   UNL     1     -12.306  10.933  71.542  1.00  0.00    -0.344 C  
BRANCH  15  16
HETATM   16  C   UNL     1     -12.847   9.735  70.740  1.00  0.00    -0.230 C  
BRANCH  16  17
HETATM   17  C   UNL     1     -12.381   8.357  71.289  1.00  0.00    -0.266 C  
HETATM   18  C   UNL     1     -13.626   7.494  71.594  1.00  0.00    -0.442 C  
HETATM   19  C   UNL     1     -11.458   8.590  72.485  1.00  0.00    -0.368 C  
HETATM   20  C   UNL     1     -10.979   7.274  73.049  1.00  0.00    -0.388 C  
HETATM   21  C   UNL     1     -10.600   6.296  71.970  1.00  0.00    -0.253 A  
HETATM   22  C   UNL     1      -9.980   5.079  72.309  1.00  0.00    -0.233 A  
HETATM   23  C   UNL     1      -9.718   4.708  73.746  1.00  0.00    -0.156 C  
HETATM   24  C   UNL     1      -9.618   4.201  71.272  1.00  0.00    -0.172 A  
HETATM   25  C   UNL     1      -9.880   4.489  69.917  1.00  0.00    -0.298 A  
HETATM   26  O   UNL     1      -8.998   3.009  71.544  1.00  0.00    -0.083 OA 
HETATM   27  C   UNL     1      -9.473   3.512  68.845  1.00  0.00    -0.210 C  
HETATM   28  C   UNL     1     -10.538   5.697  69.587  1.00  0.00    -0.401 A  
HETATM   29  H   UNL     1      -8.754   2.415  70.843  1.00  0.00     0.000 HD 
HETATM   30  C   UNL     1     -10.911   6.580  70.623  1.00  0.00    -0.266 A  
HETATM   31  C   UNL     1     -10.877   6.066  68.163  1.00  0.00    -0.365 C  
HETATM   32  O   UNL     1     -11.617   7.707  70.243  1.00  0.00    -0.195 OA 
ENDBRANCH  16  17
ENDBRANCH  15  16
ENDBRANCH  13  15
ENDBRANCH  10  11
ENDBRANCH   9  10
ENDBRANCH   5   6
ENDBRANCH   4   5
TORSDOF 7
ENDMDL
MODEL       71
REMARK 921   NORMALIZED FREE ENERGY PREDICTED BY IDOCK:   -5.98 KCAL/MOL
REMARK 922        TOTAL FREE ENERGY PREDICTED BY IDOCK:  -10.18 KCAL/MOL
REMARK 923 INTER-LIGAND FREE ENERGY PREDICTED BY IDOCK:   -9.17 KCAL/MOL
REMARK 924 INTRA-LIGAND FREE ENERGY PREDICTED BY IDOCK:   -1.01 KCAL/MOL
REMARK 927      BINDING AFFINITY PREDICTED BY RF-SCORE:    0.00 PKD
ROOT
HETATM    1  C   UNL     1     -12.157   6.841  71.006  1.00  0.00    -0.426 C  
HETATM    2  C   UNL     1     -10.724   6.745  70.487  1.00  0.00    -0.277 C  
HETATM    3  C   UNL     1     -10.524   5.408  69.767  1.00  0.00    -0.378 C  
HETATM    4  C   UNL     1     -10.412   7.960  69.590  1.00  0.00    -0.226 C  
ENDROOT
BRANCH   4   5
HETATM    5  C   UNL     1      -8.985   7.919  69.050  1.00  0.00    -0.145 C  
BRANCH   5   6
HETATM    6  C   UNL     1      -8.927   7.931  67.525  1.00  0.00    -0.131 C  
HETATM    7  C   UNL     1      -9.326   9.305  66.947  1.00  0.00    -0.193 C  
HETATM    8  C   UNL     1      -8.405  10.428  67.447  1.00  0.00    -0.121 C  
HETATM    9  C   UNL     1      -9.344   9.227  65.409  1.00  0.00    -0.292 C  
BRANCH   9  10
HETATM   10  C   UNL     1      -9.734  10.563  64.781  1.00  0.00    -0.365 C  
BRANCH  10  11
HETATM   11  C   UNL     1     -10.833  11.268  65.559  1.00  0.00    -0.244 C  
HETATM   12  C   UNL     1     -11.309  12.548  64.841  1.00  0.00    -0.351 C  
HETATM   13  C   UNL     1     -12.330  13.316  65.694  1.00  0.00    -0.521 C  
HETATM   14  C   UNL     1     -11.931  12.252  63.471  1.00  0.00    -0.625 C  
BRANCH  13  15
HETATM   15  C   UNL     1     -11.840  13.721  67.084  1.00  0.00    -0.441 C  
BRANCH  15  16
HETATM   16  C   UNL     1     -11.631  15.234  67.277  1.00  0.00    -0.164 C  
BRANCH  16  17
HETATM   17  C   UNL     1     -10.155  15.628  67.564  1.00  0.00    -0.253 C  
HETATM   18  C   UNL     1      -9.256  15.036  66.456  1.00  0.00    -0.320 C  
HETATM   19  C   UNL     1      -9.794  15.185  68.982  1.00  0.00    -0.238 C  
HETATM   20  C   UNL     1      -8.364  15.551  69.304  1.00  0.00    -0.257 C  
HETATM   21  C   UNL     1      -8.007  16.929  68.819  1.00  0.00    -0.254 A  
HETATM   22  C   UNL     1      -6.770  17.501  69.172  1.00  0.00    -0.243 A  
HETATM   23  C   UNL     1      -5.765  16.741  70.001  1.00  0.00    -0.221 C  
HETATM   24  C   UNL     1      -6.480  18.800  68.722  1.00  0.00    -0.252 A  
HETATM   25  C   UNL     1      -7.373  19.531  67.911  1.00  0.00    -0.310 A  
HETATM   26  O   UNL     1      -5.297  19.411  69.048  1.00  0.00    -0.190 OA 
HETATM   27  C   UNL     1      -7.012  20.921  67.454  1.00  0.00    -0.426 C  
HETATM   28  C   UNL     1      -8.597  18.936  67.529  1.00  0.00    -0.296 A  
HETATM   29  H   UNL     1      -5.101  20.290  68.744  1.00  0.00     0.000 HD 
HETATM   30  C   UNL     1      -8.892  17.628  67.972  1.00  0.00    -0.257 A  
HETATM   31  C   UNL     1      -9.594  19.642  66.643  1.00  0.00    -0.479 C  
HETATM   32  O   UNL     1     -10.069  17.073  67.503  1.00  0.00    -0.277 OA 
ENDBRANCH  16  17
ENDBRANCH  15  16
ENDBRANCH  13  15
ENDBRANCH  10  11
ENDBRANCH   9  10
ENDBRANCH   5   6
ENDBRANCH   4   5
TORSDOF 7
ENDMDL
MODEL       72
REMARK 921   NORMALIZED FREE ENERGY PREDICTED BY IDOCK:   -5.97 KCAL/MOL
REMARK 922        TOTAL FREE ENERGY PREDICTED BY IDOCK:  -10.17 KCAL/MOL
REMARK 923 INTER-LIGAND FREE ENERGY PREDICTED BY IDOCK:   -7.18 KCAL/MOL
REMARK 924 INTRA-LIGAND FREE ENERGY PREDICTED BY IDOCK:   -2.99 KCAL/MOL
REMARK 927      BINDING AFFINITY PREDICTED BY RF-SCORE:    0.00 PKD
ROOT
HETATM    1  C   UNL     1      -9.040   9.091  65.579  1.00  0.00    -0.271 C  
HETATM    2  C   UNL     1      -9.314   7.695  66.133  1.00  0.00    -0.141 C  
HETATM    3  C   UNL     1      -8.127   7.235  66.986  1.00  0.00    -0.117 C  
HETATM    4  C   UNL     1     -10.645   7.694  66.911  1.00  0.00    -0.359 C  
ENDROOT
BRANCH   4   5
HETATM    5  C   UNL     1     -10.974   6.317  67.480  1.00  0.00    -0.444 C  
BRANCH   5   6
HETATM    6  C   UNL     1     -10.927   6.279  69.005  1.00  0.00    -0.437 C  
HETATM    7  C   UNL     1     -10.264   4.986  69.525  1.00  0.00    -0.286 C  
HETATM    8  C   UNL     1      -8.821   4.838  69.021  1.00  0.00    -0.121 C  
HETATM    9  C   UNL     1     -10.334   4.958  71.064  1.00  0.00    -0.217 C  
BRANCH   9  10
HETATM   10  C   UNL     1      -9.691   3.697  71.635  1.00  0.00    -0.236 C  
BRANCH  10  11
HETATM   11  C   UNL     1      -8.329   3.971  72.253  1.00  0.00    -0.098 C  
HETATM   12  C   UNL     1      -8.419   5.002  73.397  1.00  0.00    -0.110 C  
HETATM   13  C   UNL     1      -7.024   5.362  73.930  1.00  0.00    -0.085 C  
HETATM   14  C   UNL     1      -9.283   4.506  74.562  1.00  0.00    -0.120 C  
BRANCH  13  15
HETATM   15  C   UNL     1      -6.053   5.912  72.886  1.00  0.00    -0.048 C  
BRANCH  15  16
HETATM   16  C   UNL     1      -6.067   7.445  72.740  1.00  0.00    -0.050 C  
BRANCH  16  17
HETATM   17  C   UNL     1      -7.046   7.958  71.647  1.00  0.00    -0.067 C  
HETATM   18  C   UNL     1      -7.177   6.880  70.548  1.00  0.00    -0.072 C  
HETATM   19  C   UNL     1      -6.560   9.319  71.149  1.00  0.00    -0.080 C  
HETATM   20  C   UNL     1      -7.486   9.856  70.084  1.00  0.00    -0.178 C  
HETATM   21  C   UNL     1      -8.934   9.641  70.428  1.00  0.00    -0.239 A  
HETATM   22  C   UNL     1      -9.940  10.220  69.632  1.00  0.00    -0.240 A  
HETATM   23  C   UNL     1      -9.599  11.027  68.405  1.00  0.00    -0.181 C  
HETATM   24  C   UNL     1     -11.282  10.018  69.998  1.00  0.00    -0.288 A  
HETATM   25  C   UNL     1     -11.648   9.238  71.114  1.00  0.00    -0.397 A  
HETATM   26  O   UNL     1     -12.302  10.571  69.267  1.00  0.00    -0.665 OA 
HETATM   27  C   UNL     1     -13.102   9.051  71.461  1.00  0.00    -0.389 C  
HETATM   28  C   UNL     1     -10.633   8.628  71.887  1.00  0.00    -0.411 A  
HETATM   29  H   UNL     1     -13.209  10.434  69.515  1.00  0.00     0.000 HD 
HETATM   30  C   UNL     1      -9.283   8.820  71.522  1.00  0.00    -0.262 A  
HETATM   31  C   UNL     1     -10.943   7.757  73.080  1.00  0.00    -0.442 C  
HETATM   32  O   UNL     1      -8.341   8.137  72.270  1.00  0.00    -0.130 OA 
ENDBRANCH  16  17
ENDBRANCH  15  16
ENDBRANCH  13  15
ENDBRANCH  10  11
ENDBRANCH   9  10
ENDBRANCH   5   6
ENDBRANCH   4   5
TORSDOF 7
ENDMDL
MODEL       73
REMARK 921   NORMALIZED FREE ENERGY PREDICTED BY IDOCK:   -5.96 KCAL/MOL
REMARK 922        TOTAL FREE ENERGY PREDICTED BY IDOCK:  -10.16 KCAL/MOL
REMARK 923 INTER-LIGAND FREE ENERGY PREDICTED BY IDOCK:   -8.80 KCAL/MOL
REMARK 924 INTRA-LIGAND FREE ENERGY PREDICTED BY IDOCK:   -1.36 KCAL/MOL
REMARK 927      BINDING AFFINITY PREDICTED BY RF-SCORE:    0.00 PKD
ROOT
HETATM    1  C   UNL     1      -5.937  15.373  68.927  1.00  0.00    -0.101 C  
HETATM    2  C   UNL     1      -7.132  16.099  68.313  1.00  0.00    -0.130 C  
HETATM    3  C   UNL     1      -6.826  16.459  66.856  1.00  0.00    -0.231 C  
HETATM    4  C   UNL     1      -8.400  15.235  68.462  1.00  0.00    -0.152 C  
ENDROOT
BRANCH   4   5
HETATM    5  C   UNL     1      -9.630  15.919  67.873  1.00  0.00    -0.215 C  
BRANCH   5   6
HETATM    6  C   UNL     1      -9.977  15.416  66.474  1.00  0.00    -0.282 C  
HETATM    7  C   UNL     1     -10.501  13.965  66.502  1.00  0.00    -0.282 C  
HETATM    8  C   UNL     1     -11.766  13.826  67.362  1.00  0.00    -0.417 C  
HETATM    9  C   UNL     1     -10.740  13.479  65.060  1.00  0.00    -0.366 C  
BRANCH   9  10
HETATM   10  C   UNL     1     -11.259  12.044  65.025  1.00  0.00    -0.374 C  
BRANCH  10  11
HETATM   11  C   UNL     1     -10.272  11.058  65.630  1.00  0.00    -0.318 C  
HETATM   12  C   UNL     1      -9.751  10.057  64.579  1.00  0.00    -0.310 C  
HETATM   13  C   UNL     1      -8.851   8.992  65.224  1.00  0.00    -0.234 C  
HETATM   14  C   UNL     1      -8.972  10.747  63.452  1.00  0.00    -0.208 C  
BRANCH  13  15
HETATM   15  C   UNL     1      -9.504   8.186  66.347  1.00  0.00    -0.285 C  
BRANCH  15  16
HETATM   16  C   UNL     1      -8.604   7.946  67.573  1.00  0.00    -0.122 C  
BRANCH  16  17
HETATM   17  C   UNL     1      -9.390   7.823  68.909  1.00  0.00    -0.146 C  
HETATM   18  C   UNL     1      -8.387   7.834  70.082  1.00  0.00    -0.128 C  
HETATM   19  C   UNL     1     -10.280   6.582  68.844  1.00  0.00    -0.206 C  
HETATM   20  C   UNL     1     -11.066   6.425  70.123  1.00  0.00    -0.428 C  
HETATM   21  C   UNL     1     -11.617   7.734  70.617  1.00  0.00    -0.233 A  
HETATM   22  C   UNL     1     -12.509   7.758  71.706  1.00  0.00    -0.348 A  
HETATM   23  C   UNL     1     -12.901   6.491  72.423  1.00  0.00     0.174 C  
HETATM   24  C   UNL     1     -13.022   8.997  72.125  1.00  0.00    -0.424 A  
HETATM   25  C   UNL     1     -12.651  10.211  71.509  1.00  0.00    -0.537 A  
HETATM   26  O   UNL     1     -13.906   9.077  73.169  1.00  0.00    -1.096 OA 
HETATM   27  C   UNL     1     -13.229  11.513  71.999  1.00  0.00    -0.443 C  
HETATM   28  C   UNL     1     -11.725  10.184  70.440  1.00  0.00    -0.390 A  
HETATM   29  H   UNL     1     -14.252   9.916  73.452  1.00  0.00     0.000 HD 
HETATM   30  C   UNL     1     -11.200   8.943  70.019  1.00  0.00    -0.110 A  
HETATM   31  C   UNL     1     -11.259  11.440  69.747  1.00  0.00    -0.266 C  
HETATM   32  O   UNL     1     -10.243   8.989  69.022  1.00  0.00    -0.194 OA 
ENDBRANCH  16  17
ENDBRANCH  15  16
ENDBRANCH  13  15
ENDBRANCH  10  11
ENDBRANCH   9  10
ENDBRANCH   5   6
ENDBRANCH   4   5
TORSDOF 7
ENDMDL
MODEL       74
REMARK 921   NORMALIZED FREE ENERGY PREDICTED BY IDOCK:   -5.93 KCAL/MOL
REMARK 922        TOTAL FREE ENERGY PREDICTED BY IDOCK:  -10.11 KCAL/MOL
REMARK 923 INTER-LIGAND FREE ENERGY PREDICTED BY IDOCK:   -8.86 KCAL/MOL
REMARK 924 INTRA-LIGAND FREE ENERGY PREDICTED BY IDOCK:   -1.26 KCAL/MOL
REMARK 927      BINDING AFFINITY PREDICTED BY RF-SCORE:    0.00 PKD
ROOT
HETATM    1  C   UNL     1      -6.611  16.450  68.927  1.00  0.00    -0.165 C  
HETATM    2  C   UNL     1      -7.929  16.976  68.363  1.00  0.00    -0.239 C  
HETATM    3  C   UNL     1      -8.015  16.660  66.867  1.00  0.00    -0.255 C  
HETATM    4  C   UNL     1      -9.110  16.394  69.167  1.00  0.00    -0.202 C  
ENDROOT
BRANCH   4   5
HETATM    5  C   UNL     1     -10.455  16.897  68.651  1.00  0.00    -0.352 C  
BRANCH   5   6
HETATM    6  C   UNL     1     -11.513  15.799  68.583  1.00  0.00    -0.389 C  
HETATM    7  C   UNL     1     -11.358  14.783  69.734  1.00  0.00    -0.319 C  
HETATM    8  C   UNL     1     -11.483  15.451  71.111  1.00  0.00    -0.425 C  
HETATM    9  C   UNL     1     -12.386  13.649  69.558  1.00  0.00    -0.232 C  
BRANCH   9  10
HETATM   10  C   UNL     1     -12.278  12.610  70.671  1.00  0.00    -0.373 C  
BRANCH  10  11
HETATM   11  C   UNL     1     -11.966  11.221  70.137  1.00  0.00    -0.452 C  
HETATM   12  C   UNL     1     -11.835  10.189  71.276  1.00  0.00    -0.448 C  
HETATM   13  C   UNL     1     -11.399   8.819  70.736  1.00  0.00    -0.313 C  
HETATM   14  C   UNL     1     -13.140  10.020  72.063  1.00  0.00    -0.541 C  
BRANCH  13  15
HETATM   15  C   UNL     1     -10.084   8.817  69.957  1.00  0.00    -0.200 C  
BRANCH  15  16
HETATM   16  C   UNL     1      -9.856   7.569  69.083  1.00  0.00    -0.170 C  
BRANCH  16  17
HETATM   17  C   UNL     1      -9.750   7.883  67.565  1.00  0.00    -0.159 C  
HETATM   18  C   UNL     1     -10.741   6.980  66.798  1.00  0.00    -0.282 C  
HETATM   19  C   UNL     1      -8.291   7.737  67.133  1.00  0.00    -0.118 C  
HETATM   20  C   UNL     1      -8.141   8.036  65.660  1.00  0.00    -0.121 C  
HETATM   21  C   UNL     1      -8.947   9.233  65.237  1.00  0.00    -0.260 A  
HETATM   22  C   UNL     1      -8.804   9.756  63.938  1.00  0.00    -0.259 A  
HETATM   23  C   UNL     1      -7.880   9.113  62.934  1.00  0.00    -0.129 C  
HETATM   24  C   UNL     1      -9.555  10.890  63.587  1.00  0.00    -0.302 A  
HETATM   25  C   UNL     1     -10.460  11.499  64.480  1.00  0.00    -0.369 A  
HETATM   26  O   UNL     1      -9.444  11.450  62.340  1.00  0.00    -0.507 OA 
HETATM   27  C   UNL     1     -11.243  12.713  64.052  1.00  0.00    -0.459 C  
HETATM   28  C   UNL     1     -10.628  10.946  65.771  1.00  0.00    -0.230 A  
HETATM   29  H   UNL     1      -9.952  12.217  62.103  1.00  0.00     0.000 HD 
HETATM   30  C   UNL     1      -9.882   9.802  66.129  1.00  0.00    -0.263 A  
HETATM   31  C   UNL     1     -11.595  11.523  66.775  1.00  0.00    -0.133 C  
HETATM   32  O   UNL     1     -10.144   9.264  67.376  1.00  0.00    -0.191 OA 
ENDBRANCH  16  17
ENDBRANCH  15  16
ENDBRANCH  13  15
ENDBRANCH  10  11
ENDBRANCH   9  10
ENDBRANCH   5   6
ENDBRANCH   4   5
TORSDOF 7
ENDMDL
MODEL       75
REMARK 921   NORMALIZED FREE ENERGY PREDICTED BY IDOCK:   -5.93 KCAL/MOL
REMARK 922        TOTAL FREE ENERGY PREDICTED BY IDOCK:  -10.11 KCAL/MOL
REMARK 923 INTER-LIGAND FREE ENERGY PREDICTED BY IDOCK:   -8.10 KCAL/MOL
REMARK 924 INTRA-LIGAND FREE ENERGY PREDICTED BY IDOCK:   -2.01 KCAL/MOL
REMARK 927      BINDING AFFINITY PREDICTED BY RF-SCORE:    0.00 PKD
ROOT
HETATM    1  C   UNL     1      -5.984  13.310  69.363  1.00  0.00    -0.100 C  
HETATM    2  C   UNL     1      -6.976  12.822  68.309  1.00  0.00    -0.097 C  
HETATM    3  C   UNL     1      -7.601  14.023  67.592  1.00  0.00    -0.191 C  
HETATM    4  C   UNL     1      -6.274  11.848  67.343  1.00  0.00    -0.125 C  
ENDROOT
BRANCH   4   5
HETATM    5  C   UNL     1      -7.224  11.320  66.272  1.00  0.00     0.007 C  
BRANCH   5   6
HETATM    6  C   UNL     1      -6.746  10.013  65.645  1.00  0.00    -0.105 C  
HETATM    7  C   UNL     1      -7.813   8.903  65.751  1.00  0.00    -0.099 C  
HETATM    8  C   UNL     1      -9.121   9.294  65.047  1.00  0.00    -0.245 C  
HETATM    9  C   UNL     1      -7.239   7.587  65.193  1.00  0.00    -0.066 C  
BRANCH   9  10
HETATM   10  C   UNL     1      -8.254   6.449  65.274  1.00  0.00    -0.137 C  
BRANCH  10  11
HETATM   11  C   UNL     1      -8.799   6.261  66.680  1.00  0.00    -0.132 C  
HETATM   12  C   UNL     1     -10.338   6.158  66.686  1.00  0.00    -0.249 C  
HETATM   13  C   UNL     1     -10.885   6.091  68.120  1.00  0.00    -0.365 C  
HETATM   14  C   UNL     1     -10.844   4.940  65.904  1.00  0.00    -0.140 C  
BRANCH  13  15
HETATM   15  C   UNL     1     -10.496   7.265  69.017  1.00  0.00    -0.219 C  
BRANCH  15  16
HETATM   16  C   UNL     1     -11.373   7.432  70.272  1.00  0.00    -0.244 C  
BRANCH  16  17
HETATM   17  C   UNL     1     -11.494   8.905  70.756  1.00  0.00    -0.275 C  
HETATM   18  C   UNL     1     -10.239   9.265  71.580  1.00  0.00    -0.338 C  
HETATM   19  C   UNL     1     -12.817   9.070  71.505  1.00  0.00    -0.394 C  
HETATM   20  C   UNL     1     -12.977  10.490  71.992  1.00  0.00    -0.490 C  
HETATM   21  C   UNL     1     -12.554  11.497  70.958  1.00  0.00    -0.457 A  
HETATM   22  C   UNL     1     -12.785  12.868  71.175  1.00  0.00    -0.366 A  
HETATM   23  C   UNL     1     -13.418  13.363  72.451  1.00  0.00    -0.685 C  
HETATM   24  C   UNL     1     -12.398  13.779  70.176  1.00  0.00    -0.323 A  
HETATM   25  C   UNL     1     -11.767  13.364  68.986  1.00  0.00    -0.368 A  
HETATM   26  O   UNL     1     -12.613  15.124  70.328  1.00  0.00    -0.442 OA 
HETATM   27  C   UNL     1     -11.370  14.382  67.947  1.00  0.00    -0.322 C  
HETATM   28  C   UNL     1     -11.503  11.989  68.791  1.00  0.00    -0.355 A  
HETATM   29  H   UNL     1     -12.351  15.739  69.653  1.00  0.00     0.000 HD 
HETATM   30  C   UNL     1     -11.882  11.069  69.793  1.00  0.00    -0.347 A  
HETATM   31  C   UNL     1     -10.808  11.469  67.557  1.00  0.00    -0.285 C  
HETATM   32  O   UNL     1     -11.530   9.749  69.579  1.00  0.00    -0.144 OA 
ENDBRANCH  16  17
ENDBRANCH  15  16
ENDBRANCH  13  15
ENDBRANCH  10  11
ENDBRANCH   9  10
ENDBRANCH   5   6
ENDBRANCH   4   5
TORSDOF 7
ENDMDL
MODEL       76
REMARK 921   NORMALIZED FREE ENERGY PREDICTED BY IDOCK:   -5.88 KCAL/MOL
REMARK 922        TOTAL FREE ENERGY PREDICTED BY IDOCK:  -10.04 KCAL/MOL
REMARK 923 INTER-LIGAND FREE ENERGY PREDICTED BY IDOCK:   -7.93 KCAL/MOL
REMARK 924 INTRA-LIGAND FREE ENERGY PREDICTED BY IDOCK:   -2.11 KCAL/MOL
REMARK 927      BINDING AFFINITY PREDICTED BY RF-SCORE:    0.00 PKD
ROOT
HETATM    1  C   UNL     1     -11.659   7.196  72.073  1.00  0.00    -0.317 C  
HETATM    2  C   UNL     1     -10.158   7.224  71.793  1.00  0.00    -0.193 C  
HETATM    3  C   UNL     1      -9.577   8.576  72.219  1.00  0.00    -0.377 C  
HETATM    4  C   UNL     1      -9.474   6.032  72.493  1.00  0.00    -0.153 C  
ENDROOT
BRANCH   4   5
HETATM    5  C   UNL     1      -7.970   6.005  72.237  1.00  0.00    -0.102 C  
BRANCH   5   6
HETATM    6  C   UNL     1      -7.617   5.560  70.820  1.00  0.00    -0.090 C  
HETATM    7  C   UNL     1      -7.149   6.744  69.948  1.00  0.00    -0.071 C  
HETATM    8  C   UNL     1      -5.906   7.432  70.532  1.00  0.00    -0.027 C  
HETATM    9  C   UNL     1      -6.902   6.253  68.509  1.00  0.00    -0.074 C  
BRANCH   9  10
HETATM   10  C   UNL     1      -6.436   7.386  67.598  1.00  0.00    -0.056 C  
BRANCH  10  11
HETATM   11  C   UNL     1      -7.551   8.373  67.287  1.00  0.00    -0.097 C  
HETATM   12  C   UNL     1      -7.836   8.452  65.773  1.00  0.00    -0.101 C  
HETATM   13  C   UNL     1      -8.877   9.538  65.461  1.00  0.00    -0.201 C  
HETATM   14  C   UNL     1      -8.327   7.116  65.201  1.00  0.00    -0.081 C  
BRANCH  13  15
HETATM   15  C   UNL     1      -8.510  10.943  65.936  1.00  0.00    -0.158 C  
BRANCH  15  16
HETATM   16  C   UNL     1      -9.714  11.850  66.252  1.00  0.00    -0.247 C  
BRANCH  16  17
HETATM   17  C   UNL     1     -10.220  11.727  67.716  1.00  0.00    -0.191 C  
HETATM   18  C   UNL     1      -9.002  11.690  68.665  1.00  0.00    -0.087 C  
HETATM   19  C   UNL     1     -11.143  10.513  67.817  1.00  0.00    -0.382 C  
HETATM   20  C   UNL     1     -11.662  10.356  69.226  1.00  0.00    -0.212 C  
HETATM   21  C   UNL     1     -12.061  11.672  69.835  1.00  0.00    -0.373 A  
HETATM   22  C   UNL     1     -12.716  11.702  71.081  1.00  0.00    -0.426 A  
HETATM   23  C   UNL     1     -12.996  10.434  71.848  1.00  0.00    -0.555 C  
HETATM   24  C   UNL     1     -13.096  12.948  71.608  1.00  0.00    -0.335 A  
HETATM   25  C   UNL     1     -12.819  14.161  70.944  1.00  0.00    -0.404 A  
HETATM   26  O   UNL     1     -13.750  13.035  72.809  1.00  0.00    -0.697 OA 
HETATM   27  C   UNL     1     -13.247  15.471  71.554  1.00  0.00    -0.589 C  
HETATM   28  C   UNL     1     -12.127  14.127  69.711  1.00  0.00    -0.409 A  
HETATM   29  H   UNL     1     -14.007  13.878  73.165  1.00  0.00     0.000 HD 
HETATM   30  C   UNL     1     -11.735  12.879  69.179  1.00  0.00    -0.324 A  
HETATM   31  C   UNL     1     -11.770  15.381  68.953  1.00  0.00    -0.377 C  
HETATM   32  O   UNL     1     -10.996  12.914  68.011  1.00  0.00    -0.230 OA 
ENDBRANCH  16  17
ENDBRANCH  15  16
ENDBRANCH  13  15
ENDBRANCH  10  11
ENDBRANCH   9  10
ENDBRANCH   5   6
ENDBRANCH   4   5
TORSDOF 7
ENDMDL
MODEL       77
REMARK 921   NORMALIZED FREE ENERGY PREDICTED BY IDOCK:   -5.88 KCAL/MOL
REMARK 922        TOTAL FREE ENERGY PREDICTED BY IDOCK:  -10.04 KCAL/MOL
REMARK 923 INTER-LIGAND FREE ENERGY PREDICTED BY IDOCK:   -8.23 KCAL/MOL
REMARK 924 INTRA-LIGAND FREE ENERGY PREDICTED BY IDOCK:   -1.81 KCAL/MOL
REMARK 927      BINDING AFFINITY PREDICTED BY RF-SCORE:    0.00 PKD
ROOT
HETATM    1  C   UNL     1     -10.044   5.293  69.330  1.00  0.00    -0.311 C  
HETATM    2  C   UNL     1     -10.900   5.484  70.581  1.00  0.00    -0.257 C  
HETATM    3  C   UNL     1     -10.050   5.240  71.831  1.00  0.00    -0.252 C  
HETATM    4  C   UNL     1     -11.547   6.883  70.560  1.00  0.00    -0.396 C  
ENDROOT
BRANCH   4   5
HETATM    5  C   UNL     1     -12.424   7.125  71.785  1.00  0.00    -0.385 C  
BRANCH   5   6
HETATM    6  C   UNL     1     -12.314   8.549  72.322  1.00  0.00    -0.450 C  
HETATM    7  C   UNL     1     -12.667   9.596  71.245  1.00  0.00    -0.443 C  
HETATM    8  C   UNL     1     -14.099   9.418  70.718  1.00  0.00     0.358 C  
HETATM    9  C   UNL     1     -12.445  11.010  71.814  1.00  0.00    -0.195 C  
BRANCH   9  10
HETATM   10  C   UNL     1     -12.778  12.091  70.788  1.00  0.00    -0.231 C  
BRANCH  10  11
HETATM   11  C   UNL     1     -11.915  13.332  70.954  1.00  0.00    -0.090 C  
HETATM   12  C   UNL     1     -12.754  14.624  70.878  1.00  0.00    -0.413 C  
HETATM   13  C   UNL     1     -11.859  15.871  70.924  1.00  0.00    -0.453 C  
HETATM   14  C   UNL     1     -13.789  14.715  72.005  1.00  0.00    -0.557 C  
BRANCH  13  15
HETATM   15  C   UNL     1     -10.794  15.945  69.830  1.00  0.00    -0.328 C  
BRANCH  15  16
HETATM   16  C   UNL     1     -11.350  16.064  68.398  1.00  0.00    -0.355 C  
BRANCH  16  17
HETATM   17  C   UNL     1     -10.815  14.972  67.430  1.00  0.00    -0.305 C  
HETATM   18  C   UNL     1     -10.313  15.653  66.138  1.00  0.00    -0.329 C  
HETATM   19  C   UNL     1     -11.909  13.926  67.215  1.00  0.00    -0.442 C  
HETATM   20  C   UNL     1     -11.430  12.842  66.279  1.00  0.00    -0.395 C  
HETATM   21  C   UNL     1     -10.016  12.421  66.573  1.00  0.00    -0.242 A  
HETATM   22  C   UNL     1      -9.460  11.311  65.909  1.00  0.00    -0.247 A  
HETATM   23  C   UNL     1     -10.242  10.550  64.868  1.00  0.00    -0.371 C  
HETATM   24  C   UNL     1      -8.145  10.932  66.226  1.00  0.00    -0.165 A  
HETATM   25  C   UNL     1      -7.364  11.639  67.163  1.00  0.00    -0.143 A  
HETATM   26  O   UNL     1      -7.558   9.850  65.621  1.00  0.00    -0.108 OA 
HETATM   27  C   UNL     1      -5.957  11.190  67.466  1.00  0.00    -0.048 C  
HETATM   28  C   UNL     1      -7.916  12.775  67.799  1.00  0.00    -0.157 A  
HETATM   29  H   UNL     1      -6.669   9.594  65.836  1.00  0.00     0.000 HD 
HETATM   30  C   UNL     1      -9.234  13.167  67.480  1.00  0.00    -0.206 A  
HETATM   31  C   UNL     1      -7.136  13.600  68.793  1.00  0.00    -0.103 C  
HETATM   32  O   UNL     1      -9.690  14.328  68.077  1.00  0.00    -0.212 OA 
ENDBRANCH  16  17
ENDBRANCH  15  16
ENDBRANCH  13  15
ENDBRANCH  10  11
ENDBRANCH   9  10
ENDBRANCH   5   6
ENDBRANCH   4   5
TORSDOF 7
ENDMDL
MODEL       78
REMARK 921   NORMALIZED FREE ENERGY PREDICTED BY IDOCK:   -5.84 KCAL/MOL
REMARK 922        TOTAL FREE ENERGY PREDICTED BY IDOCK:   -9.99 KCAL/MOL
REMARK 923 INTER-LIGAND FREE ENERGY PREDICTED BY IDOCK:   -7.22 KCAL/MOL
REMARK 924 INTRA-LIGAND FREE ENERGY PREDICTED BY IDOCK:   -2.77 KCAL/MOL
REMARK 927      BINDING AFFINITY PREDICTED BY RF-SCORE:    0.00 PKD
ROOT
HETATM    1  C   UNL     1      -9.885   8.597  66.155  1.00  0.00    -0.269 C  
HETATM    2  C   UNL     1      -9.395  10.031  65.967  1.00  0.00    -0.224 C  
HETATM    3  C   UNL     1      -8.087  10.031  65.171  1.00  0.00    -0.144 C  
HETATM    4  C   UNL     1     -10.500  10.877  65.303  1.00  0.00    -0.299 C  
ENDROOT
BRANCH   4   5
HETATM    5  C   UNL     1     -10.066  12.326  65.101  1.00  0.00    -0.284 C  
BRANCH   5   6
HETATM    6  C   UNL     1     -10.908  13.315  65.903  1.00  0.00    -0.289 C  
HETATM    7  C   UNL     1     -10.932  12.961  67.405  1.00  0.00    -0.288 C  
HETATM    8  C   UNL     1      -9.523  12.961  68.017  1.00  0.00    -0.213 C  
HETATM    9  C   UNL     1     -11.872  13.932  68.144  1.00  0.00    -0.407 C  
BRANCH   9  10
HETATM   10  C   UNL     1     -11.936  13.627  69.639  1.00  0.00    -0.402 C  
BRANCH  10  11
HETATM   11  C   UNL     1     -12.510  12.248  69.924  1.00  0.00     0.017 C  
HETATM   12  C   UNL     1     -12.574  11.959  71.438  1.00  0.00    -0.346 C  
HETATM   13  C   UNL     1     -13.039  10.520  71.709  1.00  0.00    -0.570 C  
HETATM   14  C   UNL     1     -13.503  12.929  72.178  1.00  0.00    -0.619 C  
BRANCH  13  15
HETATM   15  C   UNL     1     -12.183   9.430  71.066  1.00  0.00    -0.354 C  
BRANCH  15  16
HETATM   16  C   UNL     1     -11.099   8.837  71.986  1.00  0.00    -0.441 C  
BRANCH  16  17
HETATM   17  C   UNL     1      -9.757   8.542  71.258  1.00  0.00    -0.208 C  
HETATM   18  C   UNL     1      -8.673   8.237  72.315  1.00  0.00    -0.264 C  
HETATM   19  C   UNL     1      -9.432   9.714  70.332  1.00  0.00    -0.280 C  
HETATM   20  C   UNL     1      -8.134   9.467  69.601  1.00  0.00    -0.128 C  
HETATM   21  C   UNL     1      -8.016   8.050  69.112  1.00  0.00    -0.114 A  
HETATM   22  C   UNL     1      -6.948   7.682  68.272  1.00  0.00    -0.072 A  
HETATM   23  C   UNL     1      -5.885   8.675  67.877  1.00  0.00    -0.043 C  
HETATM   24  C   UNL     1      -6.884   6.354  67.814  1.00  0.00    -0.070 A  
HETATM   25  C   UNL     1      -7.835   5.383  68.189  1.00  0.00    -0.092 A  
HETATM   26  O   UNL     1      -5.875   5.944  66.981  1.00  0.00    -0.016 OA 
HETATM   27  C   UNL     1      -7.718   3.973  67.671  1.00  0.00    -0.071 C  
HETATM   28  C   UNL     1      -8.883   5.751  69.064  1.00  0.00    -0.111 A  
HETATM   29  H   UNL     1      -5.832   5.047  66.672  1.00  0.00     0.000 HD 
HETATM   30  C   UNL     1      -8.950   7.080  69.534  1.00  0.00    -0.143 A  
HETATM   31  C   UNL     1      -9.924   4.764  69.533  1.00  0.00    -0.287 C  
HETATM   32  O   UNL     1      -9.953   7.359  70.445  1.00  0.00    -0.187 OA 
ENDBRANCH  16  17
ENDBRANCH  15  16
ENDBRANCH  13  15
ENDBRANCH  10  11
ENDBRANCH   9  10
ENDBRANCH   5   6
ENDBRANCH   4   5
TORSDOF 7
ENDMDL
MODEL       79
REMARK 921   NORMALIZED FREE ENERGY PREDICTED BY IDOCK:   -5.81 KCAL/MOL
REMARK 922        TOTAL FREE ENERGY PREDICTED BY IDOCK:   -9.95 KCAL/MOL
REMARK 923 INTER-LIGAND FREE ENERGY PREDICTED BY IDOCK:   -9.12 KCAL/MOL
REMARK 924 INTRA-LIGAND FREE ENERGY PREDICTED BY IDOCK:   -0.83 KCAL/MOL
REMARK 927      BINDING AFFINITY PREDICTED BY RF-SCORE:    0.00 PKD
ROOT
HETATM    1  C   UNL     1      -9.389  18.945  68.217  1.00  0.00    -0.384 C  
HETATM    2  C   UNL     1     -10.331  18.376  67.157  1.00  0.00    -0.419 C  
HETATM    3  C   UNL     1     -10.434  19.351  65.980  1.00  0.00    -0.596 C  
HETATM    4  C   UNL     1      -9.851  16.974  66.732  1.00  0.00    -0.283 C  
ENDROOT
BRANCH   4   5
HETATM    5  C   UNL     1     -10.764  16.353  65.679  1.00  0.00    -0.280 C  
BRANCH   5   6
HETATM    6  C   UNL     1     -10.209  15.052  65.105  1.00  0.00    -0.399 C  
HETATM    7  C   UNL     1     -10.855  13.815  65.764  1.00  0.00    -0.277 C  
HETATM    8  C   UNL     1     -12.378  13.787  65.565  1.00  0.00    -0.507 C  
HETATM    9  C   UNL     1     -10.188  12.538  65.217  1.00  0.00    -0.302 C  
BRANCH   9  10
HETATM   10  C   UNL     1     -10.789  11.278  65.836  1.00  0.00    -0.264 C  
BRANCH  10  11
HETATM   11  C   UNL     1     -10.941  11.392  67.345  1.00  0.00    -0.326 C  
HETATM   12  C   UNL     1     -10.076  10.352  68.085  1.00  0.00    -0.179 C  
HETATM   13  C   UNL     1     -10.331  10.395  69.600  1.00  0.00    -0.261 C  
HETATM   14  C   UNL     1      -8.577  10.551  67.829  1.00  0.00    -0.118 C  
BRANCH  13  15
HETATM   15  C   UNL     1     -11.783  10.171  70.019  1.00  0.00    -0.294 C  
BRANCH  15  16
HETATM   16  C   UNL     1     -11.966   9.687  71.470  1.00  0.00    -0.485 C  
BRANCH  16  17
HETATM   17  C   UNL     1     -11.831   8.147  71.635  1.00  0.00    -0.292 C  
HETATM   18  C   UNL     1     -13.230   7.506  71.504  1.00  0.00    -0.404 C  
HETATM   19  C   UNL     1     -11.117   7.855  72.954  1.00  0.00    -0.442 C  
HETATM   20  C   UNL     1     -10.961   6.366  73.155  1.00  0.00    -0.249 C  
HETATM   21  C   UNL     1     -10.550   5.662  71.891  1.00  0.00    -0.287 A  
HETATM   22  C   UNL     1     -10.202   4.298  71.926  1.00  0.00    -0.200 A  
HETATM   23  C   UNL     1     -10.269   3.507  73.208  1.00  0.00    -0.225 C  
HETATM   24  C   UNL     1      -9.799   3.679  70.730  1.00  0.00    -0.072 A  
HETATM   25  C   UNL     1      -9.760   4.371  69.502  1.00  0.00    -0.280 A  
HETATM   26  O   UNL     1      -9.434   2.358  70.709  1.00  0.00    -0.135 OA 
HETATM   27  C   UNL     1      -9.323   3.659  68.248  1.00  0.00    -0.228 C  
HETATM   28  C   UNL     1     -10.148   5.730  69.467  1.00  0.00    -0.278 A  
HETATM   29  H   UNL     1      -9.162   1.940  69.901  1.00  0.00     0.000 HD 
HETATM   30  C   UNL     1     -10.561   6.357  70.663  1.00  0.00    -0.237 A  
HETATM   31  C   UNL     1     -10.159   6.532  68.189  1.00  0.00    -0.170 C  
HETATM   32  O   UNL     1     -11.000   7.664  70.551  1.00  0.00    -0.242 OA 
ENDBRANCH  16  17
ENDBRANCH  15  16
ENDBRANCH  13  15
ENDBRANCH  10  11
ENDBRANCH   9  10
ENDBRANCH   5   6
ENDBRANCH   4   5
TORSDOF 7
ENDMDL
MODEL       80
REMARK 921   NORMALIZED FREE ENERGY PREDICTED BY IDOCK:   -5.81 KCAL/MOL
REMARK 922        TOTAL FREE ENERGY PREDICTED BY IDOCK:   -9.94 KCAL/MOL
REMARK 923 INTER-LIGAND FREE ENERGY PREDICTED BY IDOCK:   -8.65 KCAL/MOL
REMARK 924 INTRA-LIGAND FREE ENERGY PREDICTED BY IDOCK:   -1.29 KCAL/MOL
REMARK 927      BINDING AFFINITY PREDICTED BY RF-SCORE:    0.00 PKD
ROOT
HETATM    1  C   UNL     1      -9.756  19.609  68.821  1.00  0.00    -0.488 C  
HETATM    2  C   UNL     1      -9.645  18.756  67.559  1.00  0.00    -0.333 C  
HETATM    3  C   UNL     1      -9.625  19.661  66.323  1.00  0.00    -0.488 C  
HETATM    4  C   UNL     1      -8.405  17.845  67.653  1.00  0.00    -0.234 C  
ENDROOT
BRANCH   4   5
HETATM    5  C   UNL     1      -8.251  16.961  66.419  1.00  0.00    -0.342 C  
BRANCH   5   6
HETATM    6  C   UNL     1      -8.430  15.476  66.727  1.00  0.00    -0.314 C  
HETATM    7  C   UNL     1      -9.886  15.017  66.506  1.00  0.00    -0.276 C  
HETATM    8  C   UNL     1     -10.346  15.241  65.057  1.00  0.00    -0.375 C  
HETATM    9  C   UNL     1     -10.027  13.541  66.924  1.00  0.00    -0.256 C  
BRANCH   9  10
HETATM   10  C   UNL     1     -11.453  13.032  66.727  1.00  0.00    -0.392 C  
BRANCH  10  11
HETATM   11  C   UNL     1     -11.896  12.108  67.850  1.00  0.00    -0.338 C  
HETATM   12  C   UNL     1     -11.390  12.596  69.223  1.00  0.00    -0.306 C  
HETATM   13  C   UNL     1     -11.738  11.592  70.333  1.00  0.00    -0.328 C  
HETATM   14  C   UNL     1     -11.960  13.969  69.601  1.00  0.00    -0.393 C  
BRANCH  13  15
HETATM   15  C   UNL     1     -11.201  10.177  70.118  1.00  0.00    -0.377 C  
BRANCH  15  16
HETATM   16  C   UNL     1      -9.802  10.110  69.478  1.00  0.00    -0.255 C  
BRANCH  16  17
HETATM   17  C   UNL     1      -9.542   8.799  68.684  1.00  0.00    -0.154 C  
HETATM   18  C   UNL     1      -8.071   8.783  68.214  1.00  0.00    -0.114 C  
HETATM   19  C   UNL     1     -10.571   8.693  67.558  1.00  0.00    -0.292 C  
HETATM   20  C   UNL     1     -10.356   7.429  66.761  1.00  0.00    -0.321 C  
HETATM   21  C   UNL     1     -10.060   6.245  67.639  1.00  0.00    -0.179 A  
HETATM   22  C   UNL     1      -9.992   4.954  67.082  1.00  0.00    -0.229 A  
HETATM   23  C   UNL     1     -10.172   4.731  65.602  1.00  0.00    -0.213 C  
HETATM   24  C   UNL     1      -9.737   3.868  67.938  1.00  0.00    -0.073 A  
HETATM   25  C   UNL     1      -9.522   4.036  69.321  1.00  0.00    -0.260 A  
HETATM   26  O   UNL     1      -9.675   2.588  67.452  1.00  0.00    -0.398 OA 
HETATM   27  C   UNL     1      -9.250   2.838  70.194  1.00  0.00    -0.205 C  
HETATM   28  C   UNL     1      -9.554   5.340  69.868  1.00  0.00    -0.241 A  
HETATM   29  H   UNL     1      -9.502   1.854  68.030  1.00  0.00     0.000 HD 
HETATM   30  C   UNL     1      -9.803   6.436  69.014  1.00  0.00    -0.138 A  
HETATM   31  C   UNL     1      -9.308   5.605  71.333  1.00  0.00    -0.169 C  
HETATM   32  O   UNL     1      -9.746   7.691  69.593  1.00  0.00    -0.170 OA 
ENDBRANCH  16  17
ENDBRANCH  15  16
ENDBRANCH  13  15
ENDBRANCH  10  11
ENDBRANCH   9  10
ENDBRANCH   5   6
ENDBRANCH   4   5
TORSDOF 7
ENDMDL
MODEL       81
REMARK 921   NORMALIZED FREE ENERGY PREDICTED BY IDOCK:   -5.81 KCAL/MOL
REMARK 922        TOTAL FREE ENERGY PREDICTED BY IDOCK:   -9.94 KCAL/MOL
REMARK 923 INTER-LIGAND FREE ENERGY PREDICTED BY IDOCK:   -7.90 KCAL/MOL
REMARK 924 INTRA-LIGAND FREE ENERGY PREDICTED BY IDOCK:   -2.04 KCAL/MOL
REMARK 927      BINDING AFFINITY PREDICTED BY RF-SCORE:    0.00 PKD
ROOT
HETATM    1  C   UNL     1     -12.138  14.549  64.423  1.00  0.00    -0.492 C  
HETATM    2  C   UNL     1     -11.326  13.267  64.598  1.00  0.00    -0.372 C  
HETATM    3  C   UNL     1     -11.777  12.538  65.867  1.00  0.00    -0.480 C  
HETATM    4  C   UNL     1     -11.448  12.396  63.332  1.00  0.00    -0.526 C  
ENDROOT
BRANCH   4   5
HETATM    5  C   UNL     1     -10.645  11.104  63.448  1.00  0.00    -0.340 C  
BRANCH   5   6
HETATM    6  C   UNL     1      -9.185  11.273  63.038  1.00  0.00    -0.310 C  
HETATM    7  C   UNL     1      -8.355  10.008  63.341  1.00  0.00    -0.170 C  
HETATM    8  C   UNL     1      -8.896   8.775  62.602  1.00  0.00    -0.006 C  
HETATM    9  C   UNL     1      -6.877  10.271  62.998  1.00  0.00    -0.125 C  
BRANCH   9  10
HETATM   10  C   UNL     1      -6.005   9.050  63.280  1.00  0.00    -0.088 C  
BRANCH  10  11
HETATM   11  C   UNL     1      -5.784   8.829  64.768  1.00  0.00    -0.062 C  
HETATM   12  C   UNL     1      -6.667   7.686  65.311  1.00  0.00    -0.044 C  
HETATM   13  C   UNL     1      -6.527   7.553  66.835  1.00  0.00    -0.056 C  
HETATM   14  C   UNL     1      -6.336   6.336  64.663  1.00  0.00    -0.034 C  
BRANCH  13  15
HETATM   15  C   UNL     1      -6.863   8.814  67.629  1.00  0.00    -0.071 C  
BRANCH  15  16
HETATM   16  C   UNL     1      -8.026   9.645  67.055  1.00  0.00    -0.109 C  
BRANCH  16  17
HETATM   17  C   UNL     1      -9.302   9.627  67.943  1.00  0.00    -0.128 C  
HETATM   18  C   UNL     1     -10.499   9.156  67.087  1.00  0.00    -0.325 C  
HETATM   19  C   UNL     1      -9.478  11.005  68.580  1.00  0.00    -0.197 C  
HETATM   20  C   UNL     1     -10.708  11.032  69.455  1.00  0.00    -0.247 C  
HETATM   21  C   UNL     1     -10.845   9.784  70.283  1.00  0.00    -0.356 A  
HETATM   22  C   UNL     1     -11.840   9.702  71.275  1.00  0.00    -0.460 A  
HETATM   23  C   UNL     1     -12.811  10.833  71.503  1.00  0.00    -0.567 C  
HETATM   24  C   UNL     1     -11.923   8.530  72.046  1.00  0.00    -0.361 A  
HETATM   25  C   UNL     1     -11.062   7.433  71.839  1.00  0.00    -0.276 A  
HETATM   26  O   UNL     1     -12.863   8.402  73.035  1.00  0.00    -0.706 OA 
HETATM   27  C   UNL     1     -11.194   6.198  72.693  1.00  0.00    -0.312 C  
HETATM   28  C   UNL     1     -10.089   7.506  70.816  1.00  0.00    -0.192 A  
HETATM   29  H   UNL     1     -12.919   7.610  73.556  1.00  0.00     0.000 HD 
HETATM   30  C   UNL     1     -10.004   8.678  70.033  1.00  0.00    -0.185 A  
HETATM   31  C   UNL     1      -9.148   6.365  70.516  1.00  0.00    -0.155 C  
HETATM   32  O   UNL     1      -9.085   8.661  69.000  1.00  0.00    -0.144 OA 
ENDBRANCH  16  17
ENDBRANCH  15  16
ENDBRANCH  13  15
ENDBRANCH  10  11
ENDBRANCH   9  10
ENDBRANCH   5   6
ENDBRANCH   4   5
TORSDOF 7
ENDMDL
MODEL       82
REMARK 921   NORMALIZED FREE ENERGY PREDICTED BY IDOCK:   -5.78 KCAL/MOL
REMARK 922        TOTAL FREE ENERGY PREDICTED BY IDOCK:   -9.90 KCAL/MOL
REMARK 923 INTER-LIGAND FREE ENERGY PREDICTED BY IDOCK:   -8.54 KCAL/MOL
REMARK 924 INTRA-LIGAND FREE ENERGY PREDICTED BY IDOCK:   -1.36 KCAL/MOL
REMARK 927      BINDING AFFINITY PREDICTED BY RF-SCORE:    0.00 PKD
ROOT
HETATM    1  C   UNL     1     -12.238  15.098  72.794  1.00  0.00    -0.485 C  
HETATM    2  C   UNL     1     -11.835  14.804  71.351  1.00  0.00    -0.394 C  
HETATM    3  C   UNL     1     -12.529  13.526  70.870  1.00  0.00    -0.448 C  
HETATM    4  C   UNL     1     -12.147  16.025  70.463  1.00  0.00    -0.231 C  
ENDROOT
BRANCH   4   5
HETATM    5  C   UNL     1     -11.754  15.789  69.008  1.00  0.00    -0.405 C  
BRANCH   5   6
HETATM    6  C   UNL     1     -10.267  15.486  68.836  1.00  0.00    -0.210 C  
HETATM    7  C   UNL     1     -10.037  14.133  68.131  1.00  0.00    -0.239 C  
HETATM    8  C   UNL     1     -10.672  14.097  66.734  1.00  0.00    -0.286 C  
HETATM    9  C   UNL     1      -8.526  13.837  68.075  1.00  0.00    -0.176 C  
BRANCH   9  10
HETATM   10  C   UNL     1      -8.237  12.504  67.387  1.00  0.00    -0.183 C  
BRANCH  10  11
HETATM   11  C   UNL     1      -8.645  11.313  68.239  1.00  0.00    -0.153 C  
HETATM   12  C   UNL     1     -10.038  10.781  67.844  1.00  0.00    -0.197 C  
HETATM   13  C   UNL     1     -10.492   9.658  68.789  1.00  0.00    -0.238 C  
HETATM   14  C   UNL     1     -10.077  10.261  66.402  1.00  0.00    -0.296 C  
BRANCH  13  15
HETATM   15  C   UNL     1     -10.544  10.038  70.269  1.00  0.00    -0.354 C  
BRANCH  15  16
HETATM   16  C   UNL     1     -11.790   9.531  71.019  1.00  0.00    -0.408 C  
BRANCH  16  17
HETATM   17  C   UNL     1     -11.659   8.068  71.527  1.00  0.00    -0.275 C  
HETATM   18  C   UNL     1     -13.062   7.424  71.565  1.00  0.00    -0.424 C  
HETATM   19  C   UNL     1     -10.925   8.075  72.868  1.00  0.00    -0.398 C  
HETATM   20  C   UNL     1     -10.773   6.669  73.397  1.00  0.00    -0.315 C  
HETATM   21  C   UNL     1     -10.386   5.694  72.320  1.00  0.00    -0.250 A  
HETATM   22  C   UNL     1     -10.043   4.371  72.657  1.00  0.00    -0.229 A  
HETATM   23  C   UNL     1     -10.093   3.891  74.086  1.00  0.00    -0.206 C  
HETATM   24  C   UNL     1      -9.663   3.495  71.627  1.00  0.00    -0.163 A  
HETATM   25  C   UNL     1      -9.640   3.890  70.274  1.00  0.00    -0.271 A  
HETATM   26  O   UNL     1      -9.304   2.200  71.900  1.00  0.00    -0.084 OA 
HETATM   27  C   UNL     1      -9.226   2.909  69.207  1.00  0.00    -0.212 C  
HETATM   28  C   UNL     1     -10.022   5.209  69.937  1.00  0.00    -0.316 A  
HETATM   29  H   UNL     1      -9.047   1.607  71.203  1.00  0.00     0.000 HD 
HETATM   30  C   UNL     1     -10.413   6.094  70.967  1.00  0.00    -0.229 A  
HETATM   31  C   UNL     1     -10.050   5.701  68.511  1.00  0.00    -0.236 C  
HETATM   32  O   UNL     1     -10.848   7.345  70.568  1.00  0.00    -0.233 OA 
ENDBRANCH  16  17
ENDBRANCH  15  16
ENDBRANCH  13  15
ENDBRANCH  10  11
ENDBRANCH   9  10
ENDBRANCH   5   6
ENDBRANCH   4   5
TORSDOF 7
ENDMDL
MODEL       83
REMARK 921   NORMALIZED FREE ENERGY PREDICTED BY IDOCK:   -5.78 KCAL/MOL
REMARK 922        TOTAL FREE ENERGY PREDICTED BY IDOCK:   -9.89 KCAL/MOL
REMARK 923 INTER-LIGAND FREE ENERGY PREDICTED BY IDOCK:   -7.52 KCAL/MOL
REMARK 924 INTRA-LIGAND FREE ENERGY PREDICTED BY IDOCK:   -2.37 KCAL/MOL
REMARK 927      BINDING AFFINITY PREDICTED BY RF-SCORE:    0.00 PKD
ROOT
HETATM    1  C   UNL     1     -12.557  13.979  65.826  1.00  0.00    -0.512 C  
HETATM    2  C   UNL     1     -11.137  14.355  66.241  1.00  0.00    -0.331 C  
HETATM    3  C   UNL     1     -10.467  15.161  65.124  1.00  0.00    -0.437 C  
HETATM    4  C   UNL     1     -11.169  15.108  67.586  1.00  0.00    -0.329 C  
ENDROOT
BRANCH   4   5
HETATM    5  C   UNL     1      -9.771  15.500  68.055  1.00  0.00    -0.207 C  
BRANCH   5   6
HETATM    6  C   UNL     1      -8.979  14.320  68.613  1.00  0.00    -0.154 C  
HETATM    7  C   UNL     1      -7.920  13.815  67.610  1.00  0.00    -0.179 C  
HETATM    8  C   UNL     1      -6.908  14.911  67.243  1.00  0.00    -0.000 C  
HETATM    9  C   UNL     1      -7.224  12.568  68.186  1.00  0.00    -0.106 C  
BRANCH   9  10
HETATM   10  C   UNL     1      -6.163  12.022  67.232  1.00  0.00    -0.149 C  
BRANCH  10  11
HETATM   11  C   UNL     1      -6.322  10.531  66.983  1.00  0.00    -0.074 C  
HETATM   12  C   UNL     1      -7.767  10.171  66.582  1.00  0.00    -0.106 C  
HETATM   13  C   UNL     1      -7.945   8.651  66.453  1.00  0.00    -0.099 C  
HETATM   14  C   UNL     1      -8.188  10.833  65.264  1.00  0.00    -0.052 C  
BRANCH  13  15
HETATM   15  C   UNL     1      -7.601   7.849  67.708  1.00  0.00    -0.109 C  
BRANCH  15  16
HETATM   16  C   UNL     1      -8.745   6.967  68.242  1.00  0.00    -0.127 C  
BRANCH  16  17
HETATM   17  C   UNL     1      -9.528   7.609  69.421  1.00  0.00    -0.152 C  
HETATM   18  C   UNL     1      -8.539   7.920  70.566  1.00  0.00    -0.131 C  
HETATM   19  C   UNL     1     -10.680   6.683  69.809  1.00  0.00    -0.304 C  
HETATM   20  C   UNL     1     -11.471   7.271  70.953  1.00  0.00    -0.321 C  
HETATM   21  C   UNL     1     -11.700   8.748  70.787  1.00  0.00    -0.253 A  
HETATM   22  C   UNL     1     -12.554   9.432  71.672  1.00  0.00    -0.460 A  
HETATM   23  C   UNL     1     -13.222   8.720  72.821  1.00  0.00    -0.205 C  
HETATM   24  C   UNL     1     -12.764  10.808  71.472  1.00  0.00    -0.431 A  
HETATM   25  C   UNL     1     -12.129  11.521  70.435  1.00  0.00    -0.471 A  
HETATM   26  O   UNL     1     -13.597  11.520  72.294  1.00  0.00    -0.535 OA 
HETATM   27  C   UNL     1     -12.387  12.996  70.265  1.00  0.00    -0.311 C  
HETATM   28  C   UNL     1     -11.242  10.836  69.572  1.00  0.00    -0.342 A  
HETATM   29  H   UNL     1     -13.739  12.450  72.158  1.00  0.00     0.000 HD 
HETATM   30  C   UNL     1     -11.021   9.456  69.772  1.00  0.00    -0.215 A  
HETATM   31  C   UNL     1     -10.504  11.533  68.456  1.00  0.00    -0.228 C  
HETATM   32  O   UNL     1     -10.087   8.858  68.945  1.00  0.00    -0.186 OA 
ENDBRANCH  16  17
ENDBRANCH  15  16
ENDBRANCH  13  15
ENDBRANCH  10  11
ENDBRANCH   9  10
ENDBRANCH   5   6
ENDBRANCH   4   5
TORSDOF 7
ENDMDL
MODEL       84
REMARK 921   NORMALIZED FREE ENERGY PREDICTED BY IDOCK:   -5.77 KCAL/MOL
REMARK 922        TOTAL FREE ENERGY PREDICTED BY IDOCK:   -9.89 KCAL/MOL
REMARK 923 INTER-LIGAND FREE ENERGY PREDICTED BY IDOCK:   -8.41 KCAL/MOL
REMARK 924 INTRA-LIGAND FREE ENERGY PREDICTED BY IDOCK:   -1.48 KCAL/MOL
REMARK 927      BINDING AFFINITY PREDICTED BY RF-SCORE:    0.00 PKD
ROOT
HETATM    1  C   UNL     1      -9.070   7.394  73.815  1.00  0.00    -0.294 C  
HETATM    2  C   UNL     1      -9.985   7.289  72.596  1.00  0.00    -0.223 C  
HETATM    3  C   UNL     1     -11.331   6.687  73.010  1.00  0.00    -0.099 C  
HETATM    4  C   UNL     1     -10.126   8.672  71.930  1.00  0.00    -0.398 C  
ENDROOT
BRANCH   4   5
HETATM    5  C   UNL     1     -11.024   8.623  70.698  1.00  0.00    -0.274 C  
BRANCH   5   6
HETATM    6  C   UNL     1     -10.653   7.495  69.738  1.00  0.00    -0.245 C  
HETATM    7  C   UNL     1      -9.671   7.971  68.647  1.00  0.00    -0.163 C  
HETATM    8  C   UNL     1      -8.362   8.507  69.247  1.00  0.00    -0.120 C  
HETATM    9  C   UNL     1      -9.412   6.821  67.655  1.00  0.00    -0.126 C  
BRANCH   9  10
HETATM   10  C   UNL     1      -8.444   7.237  66.549  1.00  0.00    -0.125 C  
BRANCH  10  11
HETATM   11  C   UNL     1      -9.066   8.231  65.581  1.00  0.00    -0.122 C  
HETATM   12  C   UNL     1      -8.233   9.525  65.481  1.00  0.00    -0.126 C  
HETATM   13  C   UNL     1      -8.933  10.568  64.597  1.00  0.00    -0.229 C  
HETATM   14  C   UNL     1      -6.825   9.272  64.930  1.00  0.00    -0.086 C  
BRANCH  13  15
HETATM   15  C   UNL     1     -10.342  10.958  65.044  1.00  0.00    -0.356 C  
BRANCH  15  16
HETATM   16  C   UNL     1     -10.565  10.921  66.567  1.00  0.00    -0.295 C  
BRANCH  16  17
HETATM   17  C   UNL     1     -10.933  12.303  67.176  1.00  0.00    -0.262 C  
HETATM   18  C   UNL     1     -12.169  12.862  66.437  1.00  0.00    -0.301 C  
HETATM   19  C   UNL     1      -9.701  13.206  67.130  1.00  0.00    -0.235 C  
HETATM   20  C   UNL     1     -10.013  14.562  67.715  1.00  0.00    -0.225 C  
HETATM   21  C   UNL     1     -10.842  14.464  68.967  1.00  0.00    -0.267 A  
HETATM   22  C   UNL     1     -11.092  15.615  69.738  1.00  0.00    -0.315 A  
HETATM   23  C   UNL     1     -10.577  16.967  69.314  1.00  0.00    -0.325 C  
HETATM   24  C   UNL     1     -11.849  15.481  70.914  1.00  0.00    -0.371 A  
HETATM   25  C   UNL     1     -12.384  14.243  71.327  1.00  0.00    -0.439 A  
HETATM   26  O   UNL     1     -12.111  16.565  71.711  1.00  0.00    -0.618 OA 
HETATM   27  C   UNL     1     -13.191  14.155  72.597  1.00  0.00    -0.612 C  
HETATM   28  C   UNL     1     -12.161  13.098  70.528  1.00  0.00    -0.385 A  
HETATM   29  H   UNL     1     -12.623  16.475  72.506  1.00  0.00     0.000 HD 
HETATM   30  C   UNL     1     -11.407  13.226  69.341  1.00  0.00    -0.219 A  
HETATM   31  C   UNL     1     -12.721  11.743  70.888  1.00  0.00    -0.328 C  
HETATM   32  O   UNL     1     -11.287  12.088  68.564  1.00  0.00    -0.226 OA 
ENDBRANCH  16  17
ENDBRANCH  15  16
ENDBRANCH  13  15
ENDBRANCH  10  11
ENDBRANCH   9  10
ENDBRANCH   5   6
ENDBRANCH   4   5
TORSDOF 7
ENDMDL
MODEL       85
REMARK 921   NORMALIZED FREE ENERGY PREDICTED BY IDOCK:   -5.77 KCAL/MOL
REMARK 922        TOTAL FREE ENERGY PREDICTED BY IDOCK:   -9.88 KCAL/MOL
REMARK 923 INTER-LIGAND FREE ENERGY PREDICTED BY IDOCK:   -7.25 KCAL/MOL
REMARK 924 INTRA-LIGAND FREE ENERGY PREDICTED BY IDOCK:   -2.63 KCAL/MOL
REMARK 927      BINDING AFFINITY PREDICTED BY RF-SCORE:    0.00 PKD
ROOT
HETATM    1  C   UNL     1     -12.887   9.939  72.185  1.00  0.00    -0.435 C  
HETATM    2  C   UNL     1     -12.656  11.193  71.345  1.00  0.00    -0.479 C  
HETATM    3  C   UNL     1     -12.987  10.901  69.878  1.00  0.00     0.161 C  
HETATM    4  C   UNL     1     -13.474  12.366  71.921  1.00  0.00    -0.366 C  
ENDROOT
BRANCH   4   5
HETATM    5  C   UNL     1     -13.272  13.650  71.123  1.00  0.00    -0.254 C  
BRANCH   5   6
HETATM    6  C   UNL     1     -11.825  13.851  70.678  1.00  0.00    -0.292 C  
HETATM    7  C   UNL     1     -11.544  15.318  70.292  1.00  0.00    -0.332 C  
HETATM    8  C   UNL     1     -11.798  16.280  71.463  1.00  0.00    -0.441 C  
HETATM    9  C   UNL     1     -10.103  15.440  69.761  1.00  0.00    -0.266 C  
BRANCH   9  10
HETATM   10  C   UNL     1      -9.768  16.875  69.361  1.00  0.00    -0.012 C  
BRANCH  10  11
HETATM   11  C   UNL     1      -9.547  17.021  67.864  1.00  0.00    -0.249 C  
HETATM   12  C   UNL     1     -10.759  17.676  67.170  1.00  0.00    -0.203 C  
HETATM   13  C   UNL     1     -10.576  17.707  65.645  1.00  0.00    -0.137 C  
HETATM   14  C   UNL     1     -11.014  19.104  67.668  1.00  0.00    -0.365 C  
BRANCH  13  15
HETATM   15  C   UNL     1     -10.350  16.343  64.992  1.00  0.00     0.030 C  
BRANCH  15  16
HETATM   16  C   UNL     1     -11.478  15.322  65.228  1.00  0.00    -0.217 C  
BRANCH  16  17
HETATM   17  C   UNL     1     -10.966  13.899  65.585  1.00  0.00    -0.290 C  
HETATM   18  C   UNL     1     -10.463  13.211  64.297  1.00  0.00    -0.410 C  
HETATM   19  C   UNL     1     -12.076  13.145  66.318  1.00  0.00    -0.460 C  
HETATM   20  C   UNL     1     -11.619  11.754  66.686  1.00  0.00    -0.273 C  
HETATM   21  C   UNL     1     -10.210  11.739  67.212  1.00  0.00    -0.226 A  
HETATM   22  C   UNL     1      -9.674  10.556  67.755  1.00  0.00    -0.180 A  
HETATM   23  C   UNL     1     -10.473   9.278  67.788  1.00  0.00    -0.313 C  
HETATM   24  C   UNL     1      -8.362  10.585  68.259  1.00  0.00    -0.122 A  
HETATM   25  C   UNL     1      -7.565  11.747  68.211  1.00  0.00    -0.122 A  
HETATM   26  O   UNL     1      -7.795   9.467  68.813  1.00  0.00    -0.082 OA 
HETATM   27  C   UNL     1      -6.163  11.724  68.764  1.00  0.00    -0.057 C  
HETATM   28  C   UNL     1      -8.096  12.921  67.629  1.00  0.00    -0.167 A  
HETATM   29  H   UNL     1      -6.908   9.487  69.153  1.00  0.00     0.000 HD 
HETATM   30  C   UNL     1      -9.410  12.898  67.115  1.00  0.00    -0.229 A  
HETATM   31  C   UNL     1      -7.297  14.197  67.518  1.00  0.00    -0.193 C  
HETATM   32  O   UNL     1      -9.846  14.053  66.491  1.00  0.00    -0.272 OA 
ENDBRANCH  16  17
ENDBRANCH  15  16
ENDBRANCH  13  15
ENDBRANCH  10  11
ENDBRANCH   9  10
ENDBRANCH   5   6
ENDBRANCH   4   5
TORSDOF 7
ENDMDL
MODEL       86
REMARK 921   NORMALIZED FREE ENERGY PREDICTED BY IDOCK:   -5.76 KCAL/MOL
REMARK 922        TOTAL FREE ENERGY PREDICTED BY IDOCK:   -9.87 KCAL/MOL
REMARK 923 INTER-LIGAND FREE ENERGY PREDICTED BY IDOCK:   -6.51 KCAL/MOL
REMARK 924 INTRA-LIGAND FREE ENERGY PREDICTED BY IDOCK:   -3.36 KCAL/MOL
REMARK 927      BINDING AFFINITY PREDICTED BY RF-SCORE:    0.00 PKD
ROOT
HETATM    1  C   UNL     1     -12.523  12.529  64.344  1.00  0.00    -0.530 C  
HETATM    2  C   UNL     1     -11.052  12.488  63.936  1.00  0.00    -0.476 C  
HETATM    3  C   UNL     1     -10.230  13.377  64.874  1.00  0.00    -0.339 C  
HETATM    4  C   UNL     1     -10.559  11.027  63.911  1.00  0.00    -0.382 C  
ENDROOT
BRANCH   4   5
HETATM    5  C   UNL     1      -9.094  10.926  63.498  1.00  0.00    -0.211 C  
BRANCH   5   6
HETATM    6  C   UNL     1      -8.191  10.438  64.629  1.00  0.00    -0.137 C  
HETATM    7  C   UNL     1      -8.495   8.975  65.014  1.00  0.00    -0.191 C  
HETATM    8  C   UNL     1      -8.301   8.016  63.830  1.00  0.00     0.043 C  
HETATM    9  C   UNL     1      -7.625   8.572  66.219  1.00  0.00    -0.090 C  
BRANCH   9  10
HETATM   10  C   UNL     1      -7.886   7.129  66.647  1.00  0.00    -0.109 C  
BRANCH  10  11
HETATM   11  C   UNL     1      -8.634   7.045  67.968  1.00  0.00    -0.124 C  
HETATM   12  C   UNL     1     -10.162   7.029  67.757  1.00  0.00    -0.227 C  
HETATM   13  C   UNL     1     -10.908   7.067  69.100  1.00  0.00    -0.223 C  
HETATM   14  C   UNL     1     -10.630   5.802  66.965  1.00  0.00    -0.373 C  
BRANCH  13  15
HETATM   15  C   UNL     1     -10.576   8.262  69.993  1.00  0.00    -0.235 C  
BRANCH  15  16
HETATM   16  C   UNL     1     -11.327   9.559  69.637  1.00  0.00    -0.069 C  
BRANCH  16  17
HETATM   17  C   UNL     1     -10.463  10.584  68.850  1.00  0.00    -0.206 C  
HETATM   18  C   UNL     1     -10.721  10.399  67.338  1.00  0.00    -0.338 C  
HETATM   19  C   UNL     1      -9.002  10.422  69.271  1.00  0.00    -0.176 C  
HETATM   20  C   UNL     1      -8.125  11.403  68.531  1.00  0.00    -0.149 C  
HETATM   21  C   UNL     1      -8.748  12.770  68.442  1.00  0.00    -0.119 A  
HETATM   22  C   UNL     1      -8.006  13.850  67.930  1.00  0.00    -0.160 A  
HETATM   23  C   UNL     1      -6.597  13.662  67.426  1.00  0.00     0.011 C  
HETATM   24  C   UNL     1      -8.612  15.117  67.885  1.00  0.00    -0.153 A  
HETATM   25  C   UNL     1      -9.940  15.331  68.309  1.00  0.00    -0.222 A  
HETATM   26  O   UNL     1      -7.930  16.208  67.411  1.00  0.00    -0.142 OA 
HETATM   27  C   UNL     1     -10.543  16.710  68.238  1.00  0.00    -0.338 C  
HETATM   28  C   UNL     1     -10.693  14.233  68.787  1.00  0.00    -0.262 A  
HETATM   29  H   UNL     1      -8.341  17.065  67.380  1.00  0.00     0.000 HD 
HETATM   30  C   UNL     1     -10.093  12.956  68.828  1.00  0.00    -0.046 A  
HETATM   31  C   UNL     1     -12.127  14.374  69.234  1.00  0.00    -0.336 C  
HETATM   32  O   UNL     1     -10.903  11.910  69.233  1.00  0.00    -0.200 OA 
ENDBRANCH  16  17
ENDBRANCH  15  16
ENDBRANCH  13  15
ENDBRANCH  10  11
ENDBRANCH   9  10
ENDBRANCH   5   6
ENDBRANCH   4   5
TORSDOF 7
ENDMDL
MODEL       87
REMARK 921   NORMALIZED FREE ENERGY PREDICTED BY IDOCK:   -5.75 KCAL/MOL
REMARK 922        TOTAL FREE ENERGY PREDICTED BY IDOCK:   -9.86 KCAL/MOL
REMARK 923 INTER-LIGAND FREE ENERGY PREDICTED BY IDOCK:   -8.17 KCAL/MOL
REMARK 924 INTRA-LIGAND FREE ENERGY PREDICTED BY IDOCK:   -1.69 KCAL/MOL
REMARK 927      BINDING AFFINITY PREDICTED BY RF-SCORE:    0.00 PKD
ROOT
HETATM    1  C   UNL     1      -6.827   3.851  71.578  1.00  0.00    -0.027 C  
HETATM    2  C   UNL     1      -7.700   4.319  72.740  1.00  0.00    -0.081 C  
HETATM    3  C   UNL     1      -7.891   3.173  73.738  1.00  0.00    -0.065 C  
HETATM    4  C   UNL     1      -7.081   5.576  73.383  1.00  0.00    -0.086 C  
ENDROOT
BRANCH   4   5
HETATM    5  C   UNL     1      -7.920   6.095  74.547  1.00  0.00    -0.101 C  
BRANCH   5   6
HETATM    6  C   UNL     1      -8.821   7.263  74.155  1.00  0.00    -0.262 C  
HETATM    7  C   UNL     1      -9.922   6.829  73.164  1.00  0.00    -0.214 C  
HETATM    8  C   UNL     1     -10.825   5.734  73.751  1.00  0.00    -0.169 C  
HETATM    9  C   UNL     1     -10.735   8.064  72.731  1.00  0.00    -0.431 C  
BRANCH   9  10
HETATM   10  C   UNL     1     -11.842   7.694  71.746  1.00  0.00    -0.324 C  
BRANCH  10  11
HETATM   11  C   UNL     1     -11.564   8.213  70.344  1.00  0.00    -0.063 C  
HETATM   12  C   UNL     1     -10.528   7.339  69.607  1.00  0.00    -0.239 C  
HETATM   13  C   UNL     1     -10.165   7.942  68.241  1.00  0.00    -0.240 C  
HETATM   14  C   UNL     1     -11.019   5.901  69.400  1.00  0.00    -0.421 C  
BRANCH  13  15
HETATM   15  C   UNL     1      -9.619   9.368  68.286  1.00  0.00    -0.156 C  
BRANCH  15  16
HETATM   16  C   UNL     1     -10.058  10.262  67.111  1.00  0.00    -0.259 C  
BRANCH  16  17
HETATM   17  C   UNL     1     -10.551  11.670  67.549  1.00  0.00    -0.209 C  
HETATM   18  C   UNL     1     -11.698  12.111  66.614  1.00  0.00    -0.385 C  
HETATM   19  C   UNL     1      -9.355  12.621  67.583  1.00  0.00    -0.190 C  
HETATM   20  C   UNL     1      -9.789  14.004  68.007  1.00  0.00    -0.228 C  
HETATM   21  C   UNL     1     -10.769  13.968  69.147  1.00  0.00    -0.198 A  
HETATM   22  C   UNL     1     -11.158  15.164  69.780  1.00  0.00    -0.295 A  
HETATM   23  C   UNL     1     -10.640  16.501  69.311  1.00  0.00    -0.327 C  
HETATM   24  C   UNL     1     -12.056  15.090  70.858  1.00  0.00    -0.324 A  
HETATM   25  C   UNL     1     -12.596  13.866  71.303  1.00  0.00    -0.450 A  
HETATM   26  O   UNL     1     -12.457  16.221  71.520  1.00  0.00    -0.564 OA 
HETATM   27  C   UNL     1     -13.558  13.842  72.463  1.00  0.00    -0.680 C  
HETATM   28  C   UNL     1     -12.231  12.672  70.639  1.00  0.00    -0.373 A  
HETATM   29  H   UNL     1     -13.065  16.171  72.249  1.00  0.00     0.000 HD 
HETATM   30  C   UNL     1     -11.334  12.739  69.551  1.00  0.00    -0.154 A  
HETATM   31  C   UNL     1     -12.785  11.326  71.038  1.00  0.00    -0.457 C  
HETATM   32  O   UNL     1     -11.074  11.550  68.895  1.00  0.00    -0.201 OA 
ENDBRANCH  16  17
ENDBRANCH  15  16
ENDBRANCH  13  15
ENDBRANCH  10  11
ENDBRANCH   9  10
ENDBRANCH   5   6
ENDBRANCH   4   5
TORSDOF 7
ENDMDL
MODEL       88
REMARK 921   NORMALIZED FREE ENERGY PREDICTED BY IDOCK:   -5.71 KCAL/MOL
REMARK 922        TOTAL FREE ENERGY PREDICTED BY IDOCK:   -9.81 KCAL/MOL
REMARK 923 INTER-LIGAND FREE ENERGY PREDICTED BY IDOCK:   -8.74 KCAL/MOL
REMARK 924 INTRA-LIGAND FREE ENERGY PREDICTED BY IDOCK:   -1.06 KCAL/MOL
REMARK 927      BINDING AFFINITY PREDICTED BY RF-SCORE:    0.00 PKD
ROOT
HETATM    1  C   UNL     1      -5.613  16.780  68.708  1.00  0.00    -0.132 C  
HETATM    2  C   UNL     1      -6.901  17.400  68.172  1.00  0.00    -0.184 C  
HETATM    3  C   UNL     1      -6.743  18.920  68.075  1.00  0.00    -0.244 C  
HETATM    4  C   UNL     1      -7.272  16.750  66.824  1.00  0.00    -0.270 C  
ENDROOT
BRANCH   4   5
HETATM    5  C   UNL     1      -8.561  17.326  66.247  1.00  0.00    -0.264 C  
BRANCH   5   6
HETATM    6  C   UNL     1      -9.787  16.474  66.564  1.00  0.00    -0.292 C  
HETATM    7  C   UNL     1     -10.203  16.596  68.045  1.00  0.00    -0.280 C  
HETATM    8  C   UNL     1     -10.544  18.044  68.428  1.00  0.00    -0.249 C  
HETATM    9  C   UNL     1     -11.379  15.643  68.327  1.00  0.00    -0.357 C  
BRANCH   9  10
HETATM   10  C   UNL     1     -11.833  15.721  69.783  1.00  0.00    -0.352 C  
BRANCH  10  11
HETATM   11  C   UNL     1     -12.644  14.505  70.201  1.00  0.00    -0.339 C  
HETATM   12  C   UNL     1     -12.707  14.362  71.736  1.00  0.00    -0.427 C  
HETATM   13  C   UNL     1     -13.423  13.066  72.144  1.00  0.00    -0.638 C  
HETATM   14  C   UNL     1     -13.411  15.549  72.404  1.00  0.00    -0.577 C  
BRANCH  13  15
HETATM   15  C   UNL     1     -12.810  11.782  71.585  1.00  0.00    -0.433 C  
BRANCH  15  16
HETATM   16  C   UNL     1     -13.245  10.494  72.307  1.00  0.00    -0.253 C  
BRANCH  16  17
HETATM   17  C   UNL     1     -12.800   9.192  71.583  1.00  0.00    -0.363 C  
HETATM   18  C   UNL     1     -14.048   8.491  71.003  1.00  0.00    -0.016 C  
HETATM   19  C   UNL     1     -11.985   8.341  72.556  1.00  0.00    -0.420 C  
HETATM   20  C   UNL     1     -11.530   7.064  71.891  1.00  0.00    -0.304 C  
HETATM   21  C   UNL     1     -11.042   7.296  70.487  1.00  0.00    -0.290 A  
HETATM   22  C   UNL     1     -10.430   6.250  69.773  1.00  0.00    -0.289 A  
HETATM   23  C   UNL     1     -10.283   4.874  70.372  1.00  0.00    -0.292 C  
HETATM   24  C   UNL     1      -9.965   6.511  68.472  1.00  0.00    -0.142 A  
HETATM   25  C   UNL     1     -10.117   7.771  67.858  1.00  0.00    -0.232 A  
HETATM   26  O   UNL     1      -9.346   5.533  67.736  1.00  0.00    -0.111 OA 
HETATM   27  C   UNL     1      -9.602   7.996  66.459  1.00  0.00    -0.295 C  
HETATM   28  C   UNL     1     -10.768   8.806  68.567  1.00  0.00    -0.108 A  
HETATM   29  H   UNL     1      -9.032   5.709  66.857  1.00  0.00     0.000 HD 
HETATM   30  C   UNL     1     -11.244   8.550  69.872  1.00  0.00    -0.032 A  
HETATM   31  C   UNL     1     -10.993  10.174  67.970  1.00  0.00    -0.326 C  
HETATM   32  O   UNL     1     -11.938   9.578  70.484  1.00  0.00    -0.234 OA 
ENDBRANCH  16  17
ENDBRANCH  15  16
ENDBRANCH  13  15
ENDBRANCH  10  11
ENDBRANCH   9  10
ENDBRANCH   5   6
ENDBRANCH   4   5
TORSDOF 7
ENDMDL
MODEL       89
REMARK 921   NORMALIZED FREE ENERGY PREDICTED BY IDOCK:   -5.68 KCAL/MOL
REMARK 922        TOTAL FREE ENERGY PREDICTED BY IDOCK:   -9.76 KCAL/MOL
REMARK 923 INTER-LIGAND FREE ENERGY PREDICTED BY IDOCK:   -7.78 KCAL/MOL
REMARK 924 INTRA-LIGAND FREE ENERGY PREDICTED BY IDOCK:   -1.98 KCAL/MOL
REMARK 927      BINDING AFFINITY PREDICTED BY RF-SCORE:    0.00 PKD
ROOT
HETATM    1  C   UNL     1     -12.558   9.493  72.011  1.00  0.00    -0.456 C  
HETATM    2  C   UNL     1     -12.255  10.796  71.274  1.00  0.00    -0.426 C  
HETATM    3  C   UNL     1     -12.412  10.585  69.765  1.00  0.00    -0.133 C  
HETATM    4  C   UNL     1     -13.154  11.924  71.817  1.00  0.00    -0.465 C  
ENDROOT
BRANCH   4   5
HETATM    5  C   UNL     1     -12.884  13.255  71.121  1.00  0.00    -0.363 C  
BRANCH   5   6
HETATM    6  C   UNL     1     -11.601  13.243  70.294  1.00  0.00    -0.096 C  
HETATM    7  C   UNL     1     -11.661  14.255  69.131  1.00  0.00    -0.346 C  
HETATM    8  C   UNL     1     -11.867  15.693  69.630  1.00  0.00    -0.377 C  
HETATM    9  C   UNL     1     -10.384  14.129  68.277  1.00  0.00    -0.245 C  
BRANCH   9  10
HETATM   10  C   UNL     1     -10.389  15.109  67.106  1.00  0.00    -0.263 C  
BRANCH  10  11
HETATM   11  C   UNL     1     -10.265  14.405  65.764  1.00  0.00    -0.355 C  
HETATM   12  C   UNL     1     -11.362  13.338  65.576  1.00  0.00    -0.315 C  
HETATM   13  C   UNL     1     -11.155  12.551  64.273  1.00  0.00    -0.403 C  
HETATM   14  C   UNL     1     -12.771  13.945  65.570  1.00  0.00    -0.536 C  
BRANCH  13  15
HETATM   15  C   UNL     1      -9.802  11.851  64.147  1.00  0.00    -0.233 C  
BRANCH  15  16
HETATM   16  C   UNL     1      -9.862  10.315  64.240  1.00  0.00    -0.357 C  
BRANCH  16  17
HETATM   17  C   UNL     1      -9.191   9.741  65.519  1.00  0.00    -0.215 C  
HETATM   18  C   UNL     1      -8.016   8.829  65.100  1.00  0.00    -0.125 C  
HETATM   19  C   UNL     1     -10.259   9.053  66.369  1.00  0.00    -0.297 C  
HETATM   20  C   UNL     1      -9.649   8.481  67.626  1.00  0.00    -0.187 C  
HETATM   21  C   UNL     1      -8.658   9.422  68.257  1.00  0.00    -0.120 A  
HETATM   22  C   UNL     1      -8.112   9.126  69.520  1.00  0.00    -0.107 A  
HETATM   23  C   UNL     1      -8.469   7.855  70.248  1.00  0.00    -0.128 C  
HETATM   24  C   UNL     1      -7.208  10.040  70.089  1.00  0.00    -0.161 A  
HETATM   25  C   UNL     1      -6.815  11.220  69.426  1.00  0.00    -0.121 A  
HETATM   26  O   UNL     1      -6.657   9.809  71.323  1.00  0.00    -0.301 OA 
HETATM   27  C   UNL     1      -5.841  12.165  70.080  1.00  0.00    -0.152 C  
HETATM   28  C   UNL     1      -7.339  11.492  68.140  1.00  0.00    -0.094 A  
HETATM   29  H   UNL     1      -6.046  10.427  71.707  1.00  0.00     0.000 HD 
HETATM   30  C   UNL     1      -8.242  10.576  67.559  1.00  0.00    -0.114 A  
HETATM   31  C   UNL     1      -6.948  12.720  67.355  1.00  0.00    -0.132 C  
HETATM   32  O   UNL     1      -8.659  10.859  66.272  1.00  0.00    -0.153 OA 
ENDBRANCH  16  17
ENDBRANCH  15  16
ENDBRANCH  13  15
ENDBRANCH  10  11
ENDBRANCH   9  10
ENDBRANCH   5   6
ENDBRANCH   4   5
TORSDOF 7
ENDMDL
MODEL       90
REMARK 921   NORMALIZED FREE ENERGY PREDICTED BY IDOCK:   -5.67 KCAL/MOL
REMARK 922        TOTAL FREE ENERGY PREDICTED BY IDOCK:   -9.75 KCAL/MOL
REMARK 923 INTER-LIGAND FREE ENERGY PREDICTED BY IDOCK:   -6.67 KCAL/MOL
REMARK 924 INTRA-LIGAND FREE ENERGY PREDICTED BY IDOCK:   -3.08 KCAL/MOL
REMARK 927      BINDING AFFINITY PREDICTED BY RF-SCORE:    0.00 PKD
ROOT
HETATM    1  C   UNL     1     -11.762  12.964  63.551  1.00  0.00    -0.576 C  
HETATM    2  C   UNL     1     -11.257  13.561  64.864  1.00  0.00    -0.353 C  
HETATM    3  C   UNL     1     -12.446  13.897  65.770  1.00  0.00    -0.530 C  
HETATM    4  C   UNL     1     -10.256  12.593  65.525  1.00  0.00    -0.298 C  
ENDROOT
BRANCH   4   5
HETATM    5  C   UNL     1      -9.711  13.145  66.839  1.00  0.00    -0.243 C  
BRANCH   5   6
HETATM    6  C   UNL     1      -9.254  12.050  67.799  1.00  0.00    -0.190 C  
HETATM    7  C   UNL     1     -10.413  11.544  68.683  1.00  0.00    -0.224 C  
HETATM    8  C   UNL     1     -11.563  10.964  67.847  1.00  0.00    -0.270 C  
HETATM    9  C   UNL     1      -9.873  10.514  69.694  1.00  0.00    -0.117 C  
BRANCH   9  10
HETATM   10  C   UNL     1     -10.979   9.978  70.600  1.00  0.00    -0.392 C  
BRANCH  10  11
HETATM   11  C   UNL     1     -11.229   8.493  70.389  1.00  0.00    -0.224 C  
HETATM   12  C   UNL     1     -10.962   7.683  71.674  1.00  0.00    -0.267 C  
HETATM   13  C   UNL     1     -11.099   6.174  71.418  1.00  0.00    -0.346 C  
HETATM   14  C   UNL     1     -11.901   8.078  72.820  1.00  0.00    -0.303 C  
BRANCH  13  15
HETATM   15  C   UNL     1     -10.190   5.618  70.322  1.00  0.00    -0.311 C  
BRANCH  15  16
HETATM   16  C   UNL     1      -8.686   5.665  70.648  1.00  0.00    -0.138 C  
BRANCH  16  17
HETATM   17  C   UNL     1      -7.851   6.484  69.624  1.00  0.00    -0.111 C  
HETATM   18  C   UNL     1      -6.939   5.518  68.836  1.00  0.00    -0.060 C  
HETATM   19  C   UNL     1      -7.110   7.594  70.369  1.00  0.00    -0.058 C  
HETATM   20  C   UNL     1      -6.285   8.418  69.409  1.00  0.00    -0.037 C  
HETATM   21  C   UNL     1      -7.026   8.716  68.134  1.00  0.00    -0.074 A  
HETATM   22  C   UNL     1      -6.476   9.606  67.192  1.00  0.00    -0.070 A  
HETATM   23  C   UNL     1      -5.130  10.247  67.415  1.00  0.00    -0.040 C  
HETATM   24  C   UNL     1      -7.208   9.879  66.023  1.00  0.00    -0.106 A  
HETATM   25  C   UNL     1      -8.452   9.272  65.756  1.00  0.00    -0.144 A  
HETATM   26  O   UNL     1      -6.728  10.750  65.080  1.00  0.00    -0.352 OA 
HETATM   27  C   UNL     1      -9.194   9.598  64.486  1.00  0.00    -0.277 C  
HETATM   28  C   UNL     1      -8.980   8.350  66.689  1.00  0.00    -0.181 A  
HETATM   29  H   UNL     1      -7.222  10.935  64.289  1.00  0.00     0.000 HD 
HETATM   30  C   UNL     1      -8.248   8.065  67.862  1.00  0.00    -0.129 A  
HETATM   31  C   UNL     1     -10.292   7.639  66.464  1.00  0.00    -0.122 C  
HETATM   32  O   UNL     1      -8.779   7.099  68.697  1.00  0.00    -0.127 OA 
ENDBRANCH  16  17
ENDBRANCH  15  16
ENDBRANCH  13  15
ENDBRANCH  10  11
ENDBRANCH   9  10
ENDBRANCH   5   6
ENDBRANCH   4   5
TORSDOF 7
ENDMDL
MODEL       91
REMARK 921   NORMALIZED FREE ENERGY PREDICTED BY IDOCK:   -5.66 KCAL/MOL
REMARK 922        TOTAL FREE ENERGY PREDICTED BY IDOCK:   -9.73 KCAL/MOL
REMARK 923 INTER-LIGAND FREE ENERGY PREDICTED BY IDOCK:   -8.08 KCAL/MOL
REMARK 924 INTRA-LIGAND FREE ENERGY PREDICTED BY IDOCK:   -1.65 KCAL/MOL
REMARK 927      BINDING AFFINITY PREDICTED BY RF-SCORE:    0.00 PKD
ROOT
HETATM    1  C   UNL     1     -13.020   9.667  72.240  1.00  0.00    -0.440 C  
HETATM    2  C   UNL     1     -12.688  10.920  71.432  1.00  0.00    -0.539 C  
HETATM    3  C   UNL     1     -13.094  10.715  69.969  1.00  0.00     0.190 C  
HETATM    4  C   UNL     1     -13.364  12.148  72.074  1.00  0.00    -0.470 C  
ENDROOT
BRANCH   4   5
HETATM    5  C   UNL     1     -13.056  13.433  71.311  1.00  0.00    -0.317 C  
BRANCH   5   6
HETATM    6  C   UNL     1     -11.818  13.316  70.426  1.00  0.00    -0.270 C  
HETATM    7  C   UNL     1     -11.922  14.213  69.174  1.00  0.00    -0.388 C  
HETATM    8  C   UNL     1     -12.080  15.696  69.542  1.00  0.00    -0.307 C  
HETATM    9  C   UNL     1     -10.694  13.979  68.274  1.00  0.00    -0.262 C  
BRANCH   9  10
HETATM   10  C   UNL     1     -10.743  14.843  67.016  1.00  0.00    -0.307 C  
BRANCH  10  11
HETATM   11  C   UNL     1     -10.144  14.139  65.808  1.00  0.00    -0.352 C  
HETATM   12  C   UNL     1     -11.222  13.409  64.981  1.00  0.00    -0.332 C  
HETATM   13  C   UNL     1     -10.591  12.602  63.836  1.00  0.00    -0.460 C  
HETATM   14  C   UNL     1     -12.260  14.373  64.395  1.00  0.00    -0.481 C  
BRANCH  13  15
HETATM   15  C   UNL     1      -9.557  11.563  64.268  1.00  0.00    -0.174 C  
BRANCH  15  16
HETATM   16  C   UNL     1     -10.152  10.237  64.778  1.00  0.00    -0.336 C  
BRANCH  16  17
HETATM   17  C   UNL     1      -9.957  10.012  66.303  1.00  0.00    -0.245 C  
HETATM   18  C   UNL     1     -11.140  10.657  67.059  1.00  0.00    -0.217 C  
HETATM   19  C   UNL     1      -8.580  10.540  66.707  1.00  0.00    -0.126 C  
HETATM   20  C   UNL     1      -8.348  10.339  68.185  1.00  0.00    -0.118 C  
HETATM   21  C   UNL     1      -8.817   8.990  68.657  1.00  0.00    -0.137 A  
HETATM   22  C   UNL     1      -8.535   8.565  69.969  1.00  0.00    -0.125 A  
HETATM   23  C   UNL     1      -7.798   9.455  70.937  1.00  0.00    -0.097 C  
HETATM   24  C   UNL     1      -8.968   7.289  70.367  1.00  0.00    -0.151 A  
HETATM   25  C   UNL     1      -9.695   6.440  69.507  1.00  0.00    -0.167 A  
HETATM   26  O   UNL     1      -8.707   6.818  71.628  1.00  0.00    -0.126 OA 
HETATM   27  C   UNL     1     -10.138   5.081  69.985  1.00  0.00    -0.342 C  
HETATM   28  C   UNL     1     -10.008   6.888  68.203  1.00  0.00    -0.170 A  
HETATM   29  H   UNL     1      -9.000   5.955  71.897  1.00  0.00     0.000 HD 
HETATM   30  C   UNL     1      -9.582   8.172  67.798  1.00  0.00    -0.151 A  
HETATM   31  C   UNL     1     -10.804   6.050  67.233  1.00  0.00    -0.403 C  
HETATM   32  O   UNL     1      -9.984   8.583  66.541  1.00  0.00    -0.259 OA 
ENDBRANCH  16  17
ENDBRANCH  15  16
ENDBRANCH  13  15
ENDBRANCH  10  11
ENDBRANCH   9  10
ENDBRANCH   5   6
ENDBRANCH   4   5
TORSDOF 7
ENDMDL
MODEL       92
REMARK 921   NORMALIZED FREE ENERGY PREDICTED BY IDOCK:   -5.64 KCAL/MOL
REMARK 922        TOTAL FREE ENERGY PREDICTED BY IDOCK:   -9.71 KCAL/MOL
REMARK 923 INTER-LIGAND FREE ENERGY PREDICTED BY IDOCK:   -7.21 KCAL/MOL
REMARK 924 INTRA-LIGAND FREE ENERGY PREDICTED BY IDOCK:   -2.50 KCAL/MOL
REMARK 927      BINDING AFFINITY PREDICTED BY RF-SCORE:    0.00 PKD
ROOT
HETATM    1  C   UNL     1      -9.983  16.189  67.671  1.00  0.00    -0.241 C  
HETATM    2  C   UNL     1     -10.767  15.198  66.814  1.00  0.00    -0.311 C  
HETATM    3  C   UNL     1     -10.167  15.143  65.406  1.00  0.00    -0.402 C  
HETATM    4  C   UNL     1     -10.799  13.820  67.506  1.00  0.00    -0.274 C  
ENDROOT
BRANCH   4   5
HETATM    5  C   UNL     1     -11.581  12.792  66.695  1.00  0.00    -0.430 C  
BRANCH   5   6
HETATM    6  C   UNL     1     -11.293  11.355  67.123  1.00  0.00    -0.327 C  
HETATM    7  C   UNL     1     -10.362  10.636  66.124  1.00  0.00    -0.291 C  
HETATM    8  C   UNL     1      -9.009  11.349  65.983  1.00  0.00    -0.203 C  
HETATM    9  C   UNL     1     -10.187   9.167  66.555  1.00  0.00    -0.322 C  
BRANCH   9  10
HETATM   10  C   UNL     1      -9.274   8.403  65.598  1.00  0.00    -0.118 C  
BRANCH  10  11
HETATM   11  C   UNL     1      -8.093   7.765  66.313  1.00  0.00    -0.114 C  
HETATM   12  C   UNL     1      -8.403   6.317  66.745  1.00  0.00    -0.110 C  
HETATM   13  C   UNL     1      -7.251   5.725  67.571  1.00  0.00    -0.076 C  
HETATM   14  C   UNL     1      -8.679   5.398  65.549  1.00  0.00    -0.154 C  
BRANCH  13  15
HETATM   15  C   UNL     1      -6.883   6.514  68.827  1.00  0.00    -0.070 C  
BRANCH  15  16
HETATM   16  C   UNL     1      -7.238   5.814  70.153  1.00  0.00    -0.072 C  
BRANCH  16  17
HETATM   17  C   UNL     1      -8.568   6.313  70.784  1.00  0.00    -0.135 C  
HETATM   18  C   UNL     1      -8.360   6.503  72.302  1.00  0.00    -0.106 C  
HETATM   19  C   UNL     1      -9.685   5.339  70.411  1.00  0.00    -0.259 C  
HETATM   20  C   UNL     1     -10.999   5.788  71.004  1.00  0.00    -0.300 C  
HETATM   21  C   UNL     1     -11.205   7.272  70.874  1.00  0.00    -0.298 A  
HETATM   22  C   UNL     1     -12.442   7.845  71.224  1.00  0.00    -0.283 A  
HETATM   23  C   UNL     1     -13.568   7.003  71.769  1.00  0.00    -0.305 C  
HETATM   24  C   UNL     1     -12.606   9.232  71.066  1.00  0.00    -0.185 A  
HETATM   25  C   UNL     1     -11.568  10.063  70.598  1.00  0.00    -0.422 A  
HETATM   26  O   UNL     1     -13.795   9.840  71.377  1.00  0.00    -0.240 OA 
HETATM   27  C   UNL     1     -11.796  11.545  70.449  1.00  0.00    -0.413 C  
HETATM   28  C   UNL     1     -10.315   9.486  70.284  1.00  0.00    -0.321 A  
HETATM   29  H   UNL     1     -13.905  10.778  71.270  1.00  0.00     0.000 HD 
HETATM   30  C   UNL     1     -10.141   8.095  70.447  1.00  0.00    -0.194 A  
HETATM   31  C   UNL     1      -9.147  10.311  69.803  1.00  0.00    -0.089 C  
HETATM   32  O   UNL     1      -8.873   7.602  70.197  1.00  0.00    -0.144 OA 
ENDBRANCH  16  17
ENDBRANCH  15  16
ENDBRANCH  13  15
ENDBRANCH  10  11
ENDBRANCH   9  10
ENDBRANCH   5   6
ENDBRANCH   4   5
TORSDOF 7
ENDMDL
MODEL       93
REMARK 921   NORMALIZED FREE ENERGY PREDICTED BY IDOCK:   -5.64 KCAL/MOL
REMARK 922        TOTAL FREE ENERGY PREDICTED BY IDOCK:   -9.70 KCAL/MOL
REMARK 923 INTER-LIGAND FREE ENERGY PREDICTED BY IDOCK:   -6.05 KCAL/MOL
REMARK 924 INTRA-LIGAND FREE ENERGY PREDICTED BY IDOCK:   -3.65 KCAL/MOL
REMARK 927      BINDING AFFINITY PREDICTED BY RF-SCORE:    0.00 PKD
ROOT
HETATM    1  C   UNL     1     -12.511   8.767  72.014  1.00  0.00    -0.452 C  
HETATM    2  C   UNL     1     -11.049   8.326  71.978  1.00  0.00    -0.379 C  
HETATM    3  C   UNL     1     -10.954   6.897  71.434  1.00  0.00    -0.270 C  
HETATM    4  C   UNL     1     -10.220   9.334  71.159  1.00  0.00    -0.387 C  
ENDROOT
BRANCH   4   5
HETATM    5  C   UNL     1      -8.746   8.946  71.098  1.00  0.00    -0.280 C  
BRANCH   5   6
HETATM    6  C   UNL     1      -8.138   9.137  69.711  1.00  0.00    -0.111 C  
HETATM    7  C   UNL     1      -7.194  10.357  69.662  1.00  0.00    -0.148 C  
HETATM    8  C   UNL     1      -6.030  10.223  70.655  1.00  0.00    -0.106 C  
HETATM    9  C   UNL     1      -6.690  10.556  68.220  1.00  0.00    -0.060 C  
BRANCH   9  10
HETATM   10  C   UNL     1      -5.750  11.754  68.111  1.00  0.00    -0.047 C  
BRANCH  10  11
HETATM   11  C   UNL     1      -6.428  12.965  67.490  1.00  0.00    -0.162 C  
HETATM   12  C   UNL     1      -7.372  13.664  68.490  1.00  0.00    -0.114 C  
HETATM   13  C   UNL     1      -8.142  14.811  67.817  1.00  0.00    -0.161 C  
HETATM   14  C   UNL     1      -6.625  14.217  69.709  1.00  0.00    -0.125 C  
BRANCH  13  15
HETATM   15  C   UNL     1      -8.974  14.407  66.600  1.00  0.00    -0.232 C  
BRANCH  15  16
HETATM   16  C   UNL     1     -10.427  14.008  66.918  1.00  0.00    -0.276 C  
BRANCH  16  17
HETATM   17  C   UNL     1     -10.702  12.485  66.767  1.00  0.00    -0.236 C  
HETATM   18  C   UNL     1     -11.901  12.286  65.814  1.00  0.00    -0.417 C  
HETATM   19  C   UNL     1     -10.885  11.878  68.158  1.00  0.00    -0.259 C  
HETATM   20  C   UNL     1     -11.153  10.395  68.058  1.00  0.00    -0.359 C  
HETATM   21  C   UNL     1     -10.270   9.724  67.042  1.00  0.00    -0.292 A  
HETATM   22  C   UNL     1     -10.266   8.322  66.929  1.00  0.00    -0.388 A  
HETATM   23  C   UNL     1     -11.166   7.466  67.785  1.00  0.00     0.202 C  
HETATM   24  C   UNL     1      -9.410   7.728  65.985  1.00  0.00    -0.037 A  
HETATM   25  C   UNL     1      -8.582   8.492  65.137  1.00  0.00    -0.179 A  
HETATM   26  O   UNL     1      -9.354   6.366  65.843  1.00  0.00    -0.344 OA 
HETATM   27  C   UNL     1      -7.684   7.805  64.141  1.00  0.00    -0.125 C  
HETATM   28  C   UNL     1      -8.619   9.903  65.230  1.00  0.00    -0.168 A  
HETATM   29  H   UNL     1      -8.776   5.965  65.205  1.00  0.00     0.000 HD 
HETATM   30  C   UNL     1      -9.482  10.506  66.171  1.00  0.00    -0.180 A  
HETATM   31  C   UNL     1      -7.783  10.790  64.341  1.00  0.00     0.270 C  
HETATM   32  O   UNL     1      -9.529  11.888  66.161  1.00  0.00    -0.225 OA 
ENDBRANCH  16  17
ENDBRANCH  15  16
ENDBRANCH  13  15
ENDBRANCH  10  11
ENDBRANCH   9  10
ENDBRANCH   5   6
ENDBRANCH   4   5
TORSDOF 7
ENDMDL
MODEL       94
REMARK 921   NORMALIZED FREE ENERGY PREDICTED BY IDOCK:   -5.63 KCAL/MOL
REMARK 922        TOTAL FREE ENERGY PREDICTED BY IDOCK:   -9.69 KCAL/MOL
REMARK 923 INTER-LIGAND FREE ENERGY PREDICTED BY IDOCK:   -8.82 KCAL/MOL
REMARK 924 INTRA-LIGAND FREE ENERGY PREDICTED BY IDOCK:   -0.88 KCAL/MOL
REMARK 927      BINDING AFFINITY PREDICTED BY RF-SCORE:    0.00 PKD
ROOT
HETATM    1  C   UNL     1      -5.310   2.239  70.361  1.00  0.00    -0.008 C  
HETATM    2  C   UNL     1      -6.718   2.672  70.764  1.00  0.00    -0.032 C  
HETATM    3  C   UNL     1      -7.712   2.291  69.662  1.00  0.00    -0.046 C  
HETATM    4  C   UNL     1      -7.080   2.063  72.133  1.00  0.00    -0.030 C  
ENDROOT
BRANCH   4   5
HETATM    5  C   UNL     1      -8.477   2.473  72.590  1.00  0.00    -0.067 C  
BRANCH   5   6
HETATM    6  C   UNL     1      -8.640   3.985  72.716  1.00  0.00    -0.101 C  
HETATM    7  C   UNL     1     -10.102   4.424  72.488  1.00  0.00    -0.237 C  
HETATM    8  C   UNL     1     -11.060   3.777  73.499  1.00  0.00    -0.328 C  
HETATM    9  C   UNL     1     -10.186   5.962  72.530  1.00  0.00    -0.214 C  
BRANCH   9  10
HETATM   10  C   UNL     1     -11.614   6.455  72.309  1.00  0.00    -0.341 C  
BRANCH  10  11
HETATM   11  C   UNL     1     -11.682   7.602  71.313  1.00  0.00    -0.308 C  
HETATM   12  C   UNL     1     -10.703   7.394  70.138  1.00  0.00    -0.254 C  
HETATM   13  C   UNL     1     -10.691   8.614  69.204  1.00  0.00    -0.136 C  
HETATM   14  C   UNL     1     -11.035   6.143  69.316  1.00  0.00    -0.450 C  
BRANCH  13  15
HETATM   15  C   UNL     1     -10.334   9.941  69.875  1.00  0.00    -0.298 C  
BRANCH  15  16
HETATM   16  C   UNL     1      -9.495  10.895  69.006  1.00  0.00    -0.160 C  
BRANCH  16  17
HETATM   17  C   UNL     1     -10.331  11.678  67.955  1.00  0.00    -0.188 C  
HETATM   18  C   UNL     1     -11.778  11.822  68.474  1.00  0.00    -0.390 C  
HETATM   19  C   UNL     1     -10.206  10.975  66.603  1.00  0.00    -0.280 C  
HETATM   20  C   UNL     1     -11.002  11.706  65.549  1.00  0.00    -0.327 C  
HETATM   21  C   UNL     1     -10.847  13.199  65.651  1.00  0.00    -0.294 A  
HETATM   22  C   UNL     1     -11.386  14.033  64.654  1.00  0.00    -0.378 A  
HETATM   23  C   UNL     1     -12.159  13.463  63.491  1.00  0.00    -0.497 C  
HETATM   24  C   UNL     1     -11.200  15.421  64.769  1.00  0.00    -0.395 A  
HETATM   25  C   UNL     1     -10.519  16.000  65.860  1.00  0.00    -0.373 A  
HETATM   26  O   UNL     1     -11.691  16.279  63.819  1.00  0.00    -1.511 OA 
HETATM   27  C   UNL     1     -10.349  17.495  65.937  1.00  0.00    -0.265 C  
HETATM   28  C   UNL     1     -10.013  15.159  66.878  1.00  0.00    -0.243 A  
HETATM   29  H   UNL     1     -11.565  17.217  63.898  1.00  0.00     0.000 HD 
HETATM   30  C   UNL     1     -10.202  13.763  66.772  1.00  0.00    -0.268 A  
HETATM   31  C   UNL     1      -9.295  15.702  68.089  1.00  0.00    -0.194 C  
HETATM   32  O   UNL     1      -9.752  13.001  67.835  1.00  0.00    -0.205 OA 
ENDBRANCH  16  17
ENDBRANCH  15  16
ENDBRANCH  13  15
ENDBRANCH  10  11
ENDBRANCH   9  10
ENDBRANCH   5   6
ENDBRANCH   4   5
TORSDOF 7
ENDMDL
MODEL       95
REMARK 921   NORMALIZED FREE ENERGY PREDICTED BY IDOCK:   -5.63 KCAL/MOL
REMARK 922        TOTAL FREE ENERGY PREDICTED BY IDOCK:   -9.69 KCAL/MOL
REMARK 923 INTER-LIGAND FREE ENERGY PREDICTED BY IDOCK:   -8.35 KCAL/MOL
REMARK 924 INTRA-LIGAND FREE ENERGY PREDICTED BY IDOCK:   -1.34 KCAL/MOL
REMARK 927      BINDING AFFINITY PREDICTED BY RF-SCORE:    0.00 PKD
ROOT
HETATM    1  C   UNL     1     -12.536  15.286  74.126  1.00  0.00    -0.739 C  
HETATM    2  C   UNL     1     -12.575  14.808  72.676  1.00  0.00    -0.443 C  
HETATM    3  C   UNL     1     -13.909  14.109  72.398  1.00  0.00    -0.638 C  
HETATM    4  C   UNL     1     -12.311  15.995  71.728  1.00  0.00    -0.496 C  
ENDROOT
BRANCH   4   5
HETATM    5  C   UNL     1     -12.328  15.570  70.263  1.00  0.00    -0.431 C  
BRANCH   5   6
HETATM    6  C   UNL     1     -11.065  15.980  69.511  1.00  0.00    -0.333 C  
HETATM    7  C   UNL     1     -10.653  14.923  68.465  1.00  0.00    -0.245 C  
HETATM    8  C   UNL     1     -11.752  14.693  67.417  1.00  0.00    -0.413 C  
HETATM    9  C   UNL     1      -9.323  15.343  67.810  1.00  0.00    -0.195 C  
BRANCH   9  10
HETATM   10  C   UNL     1      -8.864  14.330  66.763  1.00  0.00    -0.207 C  
BRANCH  10  11
HETATM   11  C   UNL     1      -8.544  12.975  67.373  1.00  0.00    -0.199 C  
HETATM   12  C   UNL     1      -7.030  12.679  67.340  1.00  0.00    -0.143 C  
HETATM   13  C   UNL     1      -6.731  11.259  67.845  1.00  0.00    -0.063 C  
HETATM   14  C   UNL     1      -6.221  13.682  68.171  1.00  0.00    -0.117 C  
BRANCH  13  15
HETATM   15  C   UNL     1      -7.439  10.138  67.084  1.00  0.00    -0.091 C  
BRANCH  15  16
HETATM   16  C   UNL     1      -6.965   8.718  67.445  1.00  0.00    -0.075 C  
BRANCH  16  17
HETATM   17  C   UNL     1      -7.718   8.098  68.656  1.00  0.00    -0.112 C  
HETATM   18  C   UNL     1      -6.892   8.345  69.937  1.00  0.00    -0.043 C  
HETATM   19  C   UNL     1      -8.005   6.627  68.356  1.00  0.00    -0.111 C  
HETATM   20  C   UNL     1      -8.739   5.985  69.509  1.00  0.00    -0.125 C  
HETATM   21  C   UNL     1      -9.817   6.876  70.064  1.00  0.00    -0.180 A  
HETATM   22  C   UNL     1     -10.710   6.381  71.033  1.00  0.00    -0.301 A  
HETATM   23  C   UNL     1     -10.587   4.975  71.564  1.00  0.00    -0.175 C  
HETATM   24  C   UNL     1     -11.719   7.234  71.511  1.00  0.00    -0.289 A  
HETATM   25  C   UNL     1     -11.845   8.568  71.072  1.00  0.00    -0.290 A  
HETATM   26  O   UNL     1     -12.625   6.800  72.444  1.00  0.00    -0.519 OA 
HETATM   27  C   UNL     1     -12.944   9.442  71.619  1.00  0.00    -0.471 C  
HETATM   28  C   UNL     1     -10.921   9.071  70.127  1.00  0.00    -0.256 A  
HETATM   29  H   UNL     1     -13.307   7.377  72.767  1.00  0.00     0.000 HD 
HETATM   30  C   UNL     1      -9.900   8.221  69.647  1.00  0.00    -0.184 A  
HETATM   31  C   UNL     1     -10.973  10.494  69.628  1.00  0.00    -0.333 C  
HETATM   32  O   UNL     1      -8.983   8.792  68.783  1.00  0.00    -0.137 OA 
ENDBRANCH  16  17
ENDBRANCH  15  16
ENDBRANCH  13  15
ENDBRANCH  10  11
ENDBRANCH   9  10
ENDBRANCH   5   6
ENDBRANCH   4   5
TORSDOF 7
ENDMDL
MODEL       96
REMARK 921   NORMALIZED FREE ENERGY PREDICTED BY IDOCK:   -5.63 KCAL/MOL
REMARK 922        TOTAL FREE ENERGY PREDICTED BY IDOCK:   -9.69 KCAL/MOL
REMARK 923 INTER-LIGAND FREE ENERGY PREDICTED BY IDOCK:   -8.99 KCAL/MOL
REMARK 924 INTRA-LIGAND FREE ENERGY PREDICTED BY IDOCK:   -0.69 KCAL/MOL
REMARK 927      BINDING AFFINITY PREDICTED BY RF-SCORE:    0.00 PKD
ROOT
HETATM    1  C   UNL     1     -12.821  15.348  73.878  1.00  0.00    -0.592 C  
HETATM    2  C   UNL     1     -12.695  14.990  72.399  1.00  0.00    -0.426 C  
HETATM    3  C   UNL     1     -14.052  14.526  71.862  1.00  0.00    -0.595 C  
HETATM    4  C   UNL     1     -12.121  16.190  71.619  1.00  0.00    -0.479 C  
ENDROOT
BRANCH   4   5
HETATM    5  C   UNL     1     -11.964  15.883  70.133  1.00  0.00    -0.306 C  
BRANCH   5   6
HETATM    6  C   UNL     1     -10.644  16.389  69.559  1.00  0.00    -0.320 C  
HETATM    7  C   UNL     1     -10.054  15.406  68.526  1.00  0.00    -0.213 C  
HETATM    8  C   UNL     1     -11.006  15.175  67.343  1.00  0.00    -0.314 C  
HETATM    9  C   UNL     1      -8.680  15.921  68.056  1.00  0.00    -0.169 C  
BRANCH   9  10
HETATM   10  C   UNL     1      -8.046  14.983  67.031  1.00  0.00    -0.225 C  
BRANCH  10  11
HETATM   11  C   UNL     1      -7.919  13.560  67.550  1.00  0.00    -0.186 C  
HETATM   12  C   UNL     1      -6.462  13.057  67.482  1.00  0.00    -0.159 C  
HETATM   13  C   UNL     1      -6.365  11.580  67.894  1.00  0.00    -0.056 C  
HETATM   14  C   UNL     1      -5.518  13.881  68.366  1.00  0.00    -0.101 C  
BRANCH  13  15
HETATM   15  C   UNL     1      -7.225  10.620  67.072  1.00  0.00    -0.101 C  
BRANCH  15  16
HETATM   16  C   UNL     1      -8.653  11.121  66.785  1.00  0.00    -0.157 C  
BRANCH  16  17
HETATM   17  C   UNL     1      -9.729  10.504  67.722  1.00  0.00    -0.160 C  
HETATM   18  C   UNL     1     -10.400   9.316  66.998  1.00  0.00    -0.325 C  
HETATM   19  C   UNL     1     -10.692  11.608  68.160  1.00  0.00    -0.248 C  
HETATM   20  C   UNL     1     -11.755  11.052  69.076  1.00  0.00    -0.402 C  
HETATM   21  C   UNL     1     -11.192  10.085  70.082  1.00  0.00    -0.367 A  
HETATM   22  C   UNL     1     -12.007   9.592  71.118  1.00  0.00    -0.452 A  
HETATM   23  C   UNL     1     -13.460   9.982  71.223  1.00  0.00    -0.331 C  
HETATM   24  C   UNL     1     -11.440   8.710  72.053  1.00  0.00    -0.367 A  
HETATM   25  C   UNL     1     -10.098   8.287  71.970  1.00  0.00    -0.331 A  
HETATM   26  O   UNL     1     -12.184   8.211  73.092  1.00  0.00    -0.645 OA 
HETATM   27  C   UNL     1      -9.540   7.338  72.999  1.00  0.00    -0.219 C  
HETATM   28  C   UNL     1      -9.295   8.757  70.905  1.00  0.00    -0.266 A  
HETATM   29  H   UNL     1     -11.800   7.614  73.724  1.00  0.00     0.000 HD 
HETATM   30  C   UNL     1      -9.860   9.638  69.957  1.00  0.00    -0.246 A  
HETATM   31  C   UNL     1      -7.858   8.331  70.731  1.00  0.00    -0.091 C  
HETATM   32  O   UNL     1      -9.048  10.001  68.897  1.00  0.00    -0.142 OA 
ENDBRANCH  16  17
ENDBRANCH  15  16
ENDBRANCH  13  15
ENDBRANCH  10  11
ENDBRANCH   9  10
ENDBRANCH   5   6
ENDBRANCH   4   5
TORSDOF 7
ENDMDL
MODEL       97
REMARK 921   NORMALIZED FREE ENERGY PREDICTED BY IDOCK:   -5.61 KCAL/MOL
REMARK 922        TOTAL FREE ENERGY PREDICTED BY IDOCK:   -9.67 KCAL/MOL
REMARK 923 INTER-LIGAND FREE ENERGY PREDICTED BY IDOCK:   -6.96 KCAL/MOL
REMARK 924 INTRA-LIGAND FREE ENERGY PREDICTED BY IDOCK:   -2.71 KCAL/MOL
REMARK 927      BINDING AFFINITY PREDICTED BY RF-SCORE:    0.00 PKD
ROOT
HETATM    1  C   UNL     1     -11.323   8.973  71.176  1.00  0.00    -0.375 C  
HETATM    2  C   UNL     1     -12.220  10.115  70.706  1.00  0.00    -0.434 C  
HETATM    3  C   UNL     1     -13.075  10.617  71.874  1.00  0.00    -0.563 C  
HETATM    4  C   UNL     1     -11.360  11.228  70.073  1.00  0.00    -0.292 C  
ENDROOT
BRANCH   4   5
HETATM    5  C   UNL     1     -12.209  12.393  69.575  1.00  0.00    -0.145 C  
BRANCH   5   6
HETATM    6  C   UNL     1     -11.855  13.716  70.248  1.00  0.00    -0.336 C  
HETATM    7  C   UNL     1     -11.287  14.737  69.240  1.00  0.00    -0.317 C  
HETATM    8  C   UNL     1     -12.285  15.051  68.116  1.00  0.00     0.075 C  
HETATM    9  C   UNL     1     -10.858  16.012  69.990  1.00  0.00    -0.353 C  
BRANCH   9  10
HETATM   10  C   UNL     1     -10.285  17.061  69.040  1.00  0.00    -0.313 C  
BRANCH  10  11
HETATM   11  C   UNL     1      -8.782  16.916  68.857  1.00  0.00    -0.212 C  
HETATM   12  C   UNL     1      -8.185  18.108  68.081  1.00  0.00    -0.284 C  
HETATM   13  C   UNL     1      -6.691  17.893  67.797  1.00  0.00    -0.194 C  
HETATM   14  C   UNL     1      -8.361  19.437  68.827  1.00  0.00    -0.379 C  
BRANCH  13  15
HETATM   15  C   UNL     1      -6.356  16.621  67.019  1.00  0.00    -0.222 C  
BRANCH  15  16
HETATM   16  C   UNL     1      -5.584  15.559  67.825  1.00  0.00    -0.139 C  
BRANCH  16  17
HETATM   17  C   UNL     1      -6.405  14.268  68.102  1.00  0.00    -0.132 C  
HETATM   18  C   UNL     1      -7.021  14.362  69.515  1.00  0.00    -0.119 C  
HETATM   19  C   UNL     1      -5.503  13.054  67.880  1.00  0.00    -0.116 C  
HETATM   20  C   UNL     1      -6.263  11.775  68.137  1.00  0.00    -0.050 C  
HETATM   21  C   UNL     1      -7.651  11.812  67.559  1.00  0.00    -0.135 A  
HETATM   22  C   UNL     1      -8.446  10.650  67.560  1.00  0.00    -0.121 A  
HETATM   23  C   UNL     1      -7.949   9.363  68.170  1.00  0.00    -0.091 C  
HETATM   24  C   UNL     1      -9.729  10.716  66.990  1.00  0.00    -0.176 A  
HETATM   25  C   UNL     1     -10.249  11.907  66.445  1.00  0.00    -0.240 A  
HETATM   26  O   UNL     1     -10.539   9.611  66.951  1.00  0.00    -0.228 OA 
HETATM   27  C   UNL     1     -11.632  11.924  65.847  1.00  0.00    -0.291 C  
HETATM   28  C   UNL     1      -9.460  13.081  66.481  1.00  0.00    -0.246 A  
HETATM   29  H   UNL     1     -11.407   9.655  66.565  1.00  0.00     0.000 HD 
HETATM   30  C   UNL     1      -8.173  13.024  67.059  1.00  0.00    -0.062 A  
HETATM   31  C   UNL     1      -9.955  14.401  65.943  1.00  0.00    -0.350 C  
HETATM   32  O   UNL     1      -7.481  14.219  67.133  1.00  0.00    -0.117 OA 
ENDBRANCH  16  17
ENDBRANCH  15  16
ENDBRANCH  13  15
ENDBRANCH  10  11
ENDBRANCH   9  10
ENDBRANCH   5   6
ENDBRANCH   4   5
TORSDOF 7
ENDMDL
MODEL       98
REMARK 921   NORMALIZED FREE ENERGY PREDICTED BY IDOCK:   -5.60 KCAL/MOL
REMARK 922        TOTAL FREE ENERGY PREDICTED BY IDOCK:   -9.65 KCAL/MOL
REMARK 923 INTER-LIGAND FREE ENERGY PREDICTED BY IDOCK:   -7.21 KCAL/MOL
REMARK 924 INTRA-LIGAND FREE ENERGY PREDICTED BY IDOCK:   -2.45 KCAL/MOL
REMARK 927      BINDING AFFINITY PREDICTED BY RF-SCORE:    0.00 PKD
ROOT
HETATM    1  C   UNL     1     -12.687  13.001  65.358  1.00  0.00    -0.369 C  
HETATM    2  C   UNL     1     -11.521  12.693  64.421  1.00  0.00    -0.402 C  
HETATM    3  C   UNL     1     -10.458  13.790  64.540  1.00  0.00    -0.378 C  
HETATM    4  C   UNL     1     -10.967  11.287  64.724  1.00  0.00    -0.262 C  
ENDROOT
BRANCH   4   5
HETATM    5  C   UNL     1      -9.803  10.922  63.807  1.00  0.00    -0.391 C  
BRANCH   5   6
HETATM    6  C   UNL     1      -8.551  10.505  64.574  1.00  0.00    -0.165 C  
HETATM    7  C   UNL     1      -8.273   8.993  64.439  1.00  0.00    -0.165 C  
HETATM    8  C   UNL     1      -8.071   8.575  62.975  1.00  0.00    -0.174 C  
HETATM    9  C   UNL     1      -7.060   8.616  65.310  1.00  0.00    -0.082 C  
BRANCH   9  10
HETATM   10  C   UNL     1      -6.739   7.126  65.216  1.00  0.00    -0.047 C  
BRANCH  10  11
HETATM   11  C   UNL     1      -7.012   6.393  66.519  1.00  0.00    -0.067 C  
HETATM   12  C   UNL     1      -8.523   6.306  66.819  1.00  0.00    -0.111 C  
HETATM   13  C   UNL     1      -8.781   5.673  68.195  1.00  0.00    -0.102 C  
HETATM   14  C   UNL     1      -9.283   5.506  65.754  1.00  0.00    -0.132 C  
BRANCH  13  15
HETATM   15  C   UNL     1      -8.116   6.387  69.371  1.00  0.00    -0.118 C  
BRANCH  15  16
HETATM   16  C   UNL     1      -8.947   6.399  70.668  1.00  0.00    -0.144 C  
BRANCH  16  17
HETATM   17  C   UNL     1      -9.612   7.771  70.969  1.00  0.00    -0.159 C  
HETATM   18  C   UNL     1      -8.854   8.450  72.131  1.00  0.00    -0.285 C  
HETATM   19  C   UNL     1     -11.103   7.550  71.225  1.00  0.00    -0.267 C  
HETATM   20  C   UNL     1     -11.791   8.861  71.520  1.00  0.00    -0.402 C  
HETATM   21  C   UNL     1     -11.327   9.965  70.609  1.00  0.00    -0.413 A  
HETATM   22  C   UNL     1     -11.974  11.214  70.631  1.00  0.00    -0.459 A  
HETATM   23  C   UNL     1     -13.110  11.491  71.584  1.00  0.00    -0.478 C  
HETATM   24  C   UNL     1     -11.530  12.214  69.749  1.00  0.00    -0.188 A  
HETATM   25  C   UNL     1     -10.446  12.012  68.869  1.00  0.00    -0.154 A  
HETATM   26  O   UNL     1     -12.133  13.444  69.716  1.00  0.00    -0.322 OA 
HETATM   27  C   UNL     1     -10.008  13.119  67.944  1.00  0.00    -0.233 C  
HETATM   28  C   UNL     1      -9.776  10.767  68.879  1.00  0.00    -0.207 A  
HETATM   29  H   UNL     1     -11.832  14.120  69.120  1.00  0.00     0.000 HD 
HETATM   30  C   UNL     1     -10.213   9.761  69.768  1.00  0.00    -0.242 A  
HETATM   31  C   UNL     1      -8.593  10.482  67.988  1.00  0.00    -0.121 C  
HETATM   32  O   UNL     1      -9.471   8.593  69.785  1.00  0.00    -0.163 OA 
ENDBRANCH  16  17
ENDBRANCH  15  16
ENDBRANCH  13  15
ENDBRANCH  10  11
ENDBRANCH   9  10
ENDBRANCH   5   6
ENDBRANCH   4   5
TORSDOF 7
ENDMDL
MODEL       99
REMARK 921   NORMALIZED FREE ENERGY PREDICTED BY IDOCK:   -5.60 KCAL/MOL
REMARK 922        TOTAL FREE ENERGY PREDICTED BY IDOCK:   -9.65 KCAL/MOL
REMARK 923 INTER-LIGAND FREE ENERGY PREDICTED BY IDOCK:   -8.38 KCAL/MOL
REMARK 924 INTRA-LIGAND FREE ENERGY PREDICTED BY IDOCK:   -1.28 KCAL/MOL
REMARK 927      BINDING AFFINITY PREDICTED BY RF-SCORE:    0.00 PKD
ROOT
HETATM    1  C   UNL     1      -8.783   7.691  74.062  1.00  0.00    -0.303 C  
HETATM    2  C   UNL     1      -9.700   6.643  73.435  1.00  0.00    -0.203 C  
HETATM    3  C   UNL     1     -10.022   5.555  74.465  1.00  0.00    -0.271 C  
HETATM    4  C   UNL     1     -10.962   7.324  72.870  1.00  0.00    -0.381 C  
ENDROOT
BRANCH   4   5
HETATM    5  C   UNL     1     -11.911   6.321  72.221  1.00  0.00    -0.326 C  
BRANCH   5   6
HETATM    6  C   UNL     1     -12.233   6.663  70.769  1.00  0.00    -0.302 C  
HETATM    7  C   UNL     1     -10.974   6.628  69.879  1.00  0.00    -0.373 C  
HETATM    8  C   UNL     1     -10.305   5.246  69.883  1.00  0.00    -0.374 C  
HETATM    9  C   UNL     1     -11.343   7.076  68.451  1.00  0.00     0.152 C  
BRANCH   9  10
HETATM   10  C   UNL     1     -10.130   7.062  67.524  1.00  0.00    -0.236 C  
BRANCH  10  11
HETATM   11  C   UNL     1      -9.987   8.358  66.741  1.00  0.00    -0.354 C  
HETATM   12  C   UNL     1      -9.232   9.432  67.551  1.00  0.00    -0.139 C  
HETATM   13  C   UNL     1      -9.200  10.772  66.801  1.00  0.00    -0.174 C  
HETATM   14  C   UNL     1      -7.793   9.012  67.877  1.00  0.00    -0.101 C  
BRANCH  13  15
HETATM   15  C   UNL     1     -10.570  11.344  66.438  1.00  0.00    -0.311 C  
BRANCH  15  16
HETATM   16  C   UNL     1     -10.553  12.381  65.299  1.00  0.00    -0.322 C  
BRANCH  16  17
HETATM   17  C   UNL     1     -10.641  13.852  65.793  1.00  0.00    -0.297 C  
HETATM   18  C   UNL     1     -11.684  13.935  66.929  1.00  0.00    -0.425 C  
HETATM   19  C   UNL     1     -10.929  14.757  64.596  1.00  0.00    -0.332 C  
HETATM   20  C   UNL     1     -11.021  16.200  65.032  1.00  0.00    -0.357 C  
HETATM   21  C   UNL     1      -9.951  16.564  66.025  1.00  0.00    -0.359 A  
HETATM   22  C   UNL     1      -9.782  17.904  66.419  1.00  0.00    -0.321 A  
HETATM   23  C   UNL     1     -10.683  18.993  65.893  1.00  0.00    -0.404 C  
HETATM   24  C   UNL     1      -8.756  18.210  67.330  1.00  0.00    -0.244 A  
HETATM   25  C   UNL     1      -7.917  17.219  67.877  1.00  0.00    -0.205 A  
HETATM   26  O   UNL     1      -8.537  19.501  67.736  1.00  0.00    -0.300 OA 
HETATM   27  C   UNL     1      -6.833  17.600  68.852  1.00  0.00    -0.243 C  
HETATM   28  C   UNL     1      -8.117  15.868  67.506  1.00  0.00    -0.171 A  
HETATM   29  H   UNL     1      -7.843  19.708  68.352  1.00  0.00     0.000 HD 
HETATM   30  C   UNL     1      -9.150  15.553  66.597  1.00  0.00    -0.279 A  
HETATM   31  C   UNL     1      -7.278  14.747  68.067  1.00  0.00    -0.145 C  
HETATM   32  O   UNL     1      -9.344  14.209  66.333  1.00  0.00    -0.275 OA 
ENDBRANCH  16  17
ENDBRANCH  15  16
ENDBRANCH  13  15
ENDBRANCH  10  11
ENDBRANCH   9  10
ENDBRANCH   5   6
ENDBRANCH   4   5
TORSDOF 7
ENDMDL
MODEL      100
REMARK 921   NORMALIZED FREE ENERGY PREDICTED BY IDOCK:   -5.60 KCAL/MOL
REMARK 922        TOTAL FREE ENERGY PREDICTED BY IDOCK:   -9.65 KCAL/MOL
REMARK 923 INTER-LIGAND FREE ENERGY PREDICTED BY IDOCK:   -7.69 KCAL/MOL
REMARK 924 INTRA-LIGAND FREE ENERGY PREDICTED BY IDOCK:   -1.96 KCAL/MOL
REMARK 927      BINDING AFFINITY PREDICTED BY RF-SCORE:    0.00 PKD
ROOT
HETATM    1  C   UNL     1      -5.944   6.043  65.165  1.00  0.00    -0.025 C  
HETATM    2  C   UNL     1      -7.282   6.435  65.788  1.00  0.00    -0.078 C  
HETATM    3  C   UNL     1      -7.813   7.706  65.117  1.00  0.00    -0.124 C  
HETATM    4  C   UNL     1      -8.267   5.253  65.694  1.00  0.00    -0.121 C  
ENDROOT
BRANCH   4   5
HETATM    5  C   UNL     1      -9.621   5.586  66.313  1.00  0.00    -0.173 C  
BRANCH   5   6
HETATM    6  C   UNL     1     -10.020   4.620  67.425  1.00  0.00    -0.190 C  
HETATM    7  C   UNL     1      -8.995   4.618  68.577  1.00  0.00    -0.139 C  
HETATM    8  C   UNL     1      -8.843   6.007  69.215  1.00  0.00    -0.123 C  
HETATM    9  C   UNL     1      -9.398   3.556  69.619  1.00  0.00    -0.244 C  
BRANCH   9  10
HETATM   10  C   UNL     1      -8.414   3.508  70.786  1.00  0.00    -0.103 C  
BRANCH  10  11
HETATM   11  C   UNL     1      -8.891   4.325  71.977  1.00  0.00    -0.134 C  
HETATM   12  C   UNL     1     -10.347   3.984  72.356  1.00  0.00    -0.207 C  
HETATM   13  C   UNL     1     -10.857   4.899  73.479  1.00  0.00    -0.370 C  
HETATM   14  C   UNL     1     -10.508   2.523  72.794  1.00  0.00    -0.225 C  
BRANCH  13  15
HETATM   15  C   UNL     1     -10.797   6.395  73.174  1.00  0.00    -0.282 C  
BRANCH  15  16
HETATM   16  C   UNL     1     -11.378   6.796  71.805  1.00  0.00    -0.307 C  
BRANCH  16  17
HETATM   17  C   UNL     1     -11.267   8.317  71.502  1.00  0.00    -0.262 C  
HETATM   18  C   UNL     1      -9.926   8.841  72.063  1.00  0.00    -0.391 C  
HETATM   19  C   UNL     1     -12.506   9.021  72.052  1.00  0.00    -0.460 C  
HETATM   20  C   UNL     1     -12.440  10.504  71.777  1.00  0.00    -0.362 C  
HETATM   21  C   UNL     1     -11.945  10.803  70.388  1.00  0.00    -0.448 A  
HETATM   22  C   UNL     1     -11.971  12.123  69.900  1.00  0.00    -0.380 A  
HETATM   23  C   UNL     1     -12.454  13.265  70.759  1.00  0.00    -0.403 C  
HETATM   24  C   UNL     1     -11.523  12.362  68.590  1.00  0.00    -0.303 A  
HETATM   25  C   UNL     1     -11.027  11.331  67.766  1.00  0.00    -0.305 A  
HETATM   26  O   UNL     1     -11.541  13.625  68.058  1.00  0.00    -0.293 OA 
HETATM   27  C   UNL     1     -10.556  11.641  66.368  1.00  0.00    -0.299 C  
HETATM   28  C   UNL     1     -10.967  10.013  68.276  1.00  0.00    -0.278 A  
HETATM   29  H   UNL     1     -11.238  13.786  67.172  1.00  0.00     0.000 HD 
HETATM   30  C   UNL     1     -11.409   9.767  69.594  1.00  0.00    -0.122 A  
HETATM   31  C   UNL     1     -10.425   8.860  67.467  1.00  0.00    -0.337 C  
HETATM   32  O   UNL     1     -11.255   8.474  70.062  1.00  0.00    -0.205 OA 
ENDBRANCH  16  17
ENDBRANCH  15  16
ENDBRANCH  13  15
ENDBRANCH  10  11
ENDBRANCH   9  10
ENDBRANCH   5   6
ENDBRANCH   4   5
TORSDOF 7
ENDMDL
MODEL      101
REMARK 921   NORMALIZED FREE ENERGY PREDICTED BY IDOCK:   -5.58 KCAL/MOL
REMARK 922        TOTAL FREE ENERGY PREDICTED BY IDOCK:   -9.62 KCAL/MOL
REMARK 923 INTER-LIGAND FREE ENERGY PREDICTED BY IDOCK:   -5.85 KCAL/MOL
REMARK 924 INTRA-LIGAND FREE ENERGY PREDICTED BY IDOCK:   -3.77 KCAL/MOL
REMARK 927      BINDING AFFINITY PREDICTED BY RF-SCORE:    0.00 PKD
ROOT
HETATM    1  C   UNL     1     -12.364  13.849  66.385  1.00  0.00    -0.468 C  
HETATM    2  C   UNL     1     -11.876  12.908  65.287  1.00  0.00    -0.429 C  
HETATM    3  C   UNL     1     -12.059  13.571  63.918  1.00  0.00    -0.493 C  
HETATM    4  C   UNL     1     -10.415  12.498  65.563  1.00  0.00    -0.305 C  
ENDROOT
BRANCH   4   5
HETATM    5  C   UNL     1      -9.878  11.546  64.498  1.00  0.00    -0.278 C  
BRANCH   5   6
HETATM    6  C   UNL     1      -9.841  10.093  64.965  1.00  0.00    -0.392 C  
HETATM    7  C   UNL     1      -8.479   9.431  64.668  1.00  0.00    -0.179 C  
HETATM    8  C   UNL     1      -7.321  10.162  65.363  1.00  0.00    -0.144 C  
HETATM    9  C   UNL     1      -8.535   7.945  65.070  1.00  0.00    -0.072 C  
BRANCH   9  10
HETATM   10  C   UNL     1      -7.210   7.236  64.796  1.00  0.00    -0.072 C  
BRANCH  10  11
HETATM   11  C   UNL     1      -7.121   5.888  65.494  1.00  0.00    -0.069 C  
HETATM   12  C   UNL     1      -8.336   4.996  65.167  1.00  0.00    -0.138 C  
HETATM   13  C   UNL     1      -8.297   3.688  65.972  1.00  0.00    -0.106 C  
HETATM   14  C   UNL     1      -8.427   4.657  63.675  1.00  0.00    -0.125 C  
BRANCH  13  15
HETATM   15  C   UNL     1      -8.245   3.862  67.490  1.00  0.00    -0.094 C  
BRANCH  15  16
HETATM   16  C   UNL     1      -9.615   4.080  68.159  1.00  0.00    -0.189 C  
BRANCH  16  17
HETATM   17  C   UNL     1      -9.873   5.552  68.586  1.00  0.00    -0.148 C  
HETATM   18  C   UNL     1     -10.217   5.583  70.091  1.00  0.00    -0.333 C  
HETATM   19  C   UNL     1     -10.946   6.148  67.675  1.00  0.00    -0.400 C  
HETATM   20  C   UNL     1     -11.227   7.583  68.054  1.00  0.00     0.329 C  
HETATM   21  C   UNL     1      -9.968   8.349  68.354  1.00  0.00    -0.208 A  
HETATM   22  C   UNL     1     -10.023   9.739  68.567  1.00  0.00    -0.177 A  
HETATM   23  C   UNL     1     -11.335  10.483  68.540  1.00  0.00    -0.320 C  
HETATM   24  C   UNL     1      -8.824  10.426  68.820  1.00  0.00    -0.157 A  
HETATM   25  C   UNL     1      -7.580   9.765  68.894  1.00  0.00    -0.081 A  
HETATM   26  O   UNL     1      -8.817  11.782  69.020  1.00  0.00    -0.376 OA 
HETATM   27  C   UNL     1      -6.323  10.549  69.171  1.00  0.00    -0.051 C  
HETATM   28  C   UNL     1      -7.537   8.363  68.717  1.00  0.00    -0.101 A  
HETATM   29  H   UNL     1      -8.006  12.246  69.191  1.00  0.00     0.000 HD 
HETATM   30  C   UNL     1      -8.739   7.665  68.469  1.00  0.00    -0.128 A  
HETATM   31  C   UNL     1      -6.250   7.579  68.806  1.00  0.00    -0.032 C  
HETATM   32  O   UNL     1      -8.642   6.288  68.380  1.00  0.00    -0.114 OA 
ENDBRANCH  16  17
ENDBRANCH  15  16
ENDBRANCH  13  15
ENDBRANCH  10  11
ENDBRANCH   9  10
ENDBRANCH   5   6
ENDBRANCH   4   5
TORSDOF 7
ENDMDL
MODEL      102
REMARK 921   NORMALIZED FREE ENERGY PREDICTED BY IDOCK:   -5.58 KCAL/MOL
REMARK 922        TOTAL FREE ENERGY PREDICTED BY IDOCK:   -9.62 KCAL/MOL
REMARK 923 INTER-LIGAND FREE ENERGY PREDICTED BY IDOCK:   -8.54 KCAL/MOL
REMARK 924 INTRA-LIGAND FREE ENERGY PREDICTED BY IDOCK:   -1.07 KCAL/MOL
REMARK 927      BINDING AFFINITY PREDICTED BY RF-SCORE:    0.00 PKD
ROOT
HETATM    1  C   UNL     1      -5.907   2.777  67.718  1.00  0.00    -0.019 C  
HETATM    2  C   UNL     1      -6.778   2.885  68.968  1.00  0.00    -0.037 C  
HETATM    3  C   UNL     1      -6.098   3.796  69.995  1.00  0.00    -0.023 C  
HETATM    4  C   UNL     1      -8.189   3.370  68.580  1.00  0.00    -0.085 C  
ENDROOT
BRANCH   4   5
HETATM    5  C   UNL     1      -9.107   3.487  69.793  1.00  0.00    -0.196 C  
BRANCH   5   6
HETATM    6  C   UNL     1     -10.057   4.678  69.706  1.00  0.00    -0.243 C  
HETATM    7  C   UNL     1     -10.256   5.353  71.079  1.00  0.00    -0.296 C  
HETATM    8  C   UNL     1      -8.932   5.868  71.664  1.00  0.00    -0.142 C  
HETATM    9  C   UNL     1     -11.295   6.482  70.949  1.00  0.00    -0.393 C  
BRANCH   9  10
HETATM   10  C   UNL     1     -11.534   7.187  72.282  1.00  0.00    -0.309 C  
BRANCH  10  11
HETATM   11  C   UNL     1     -11.709   8.688  72.119  1.00  0.00    -0.442 C  
HETATM   12  C   UNL     1     -12.919   9.027  71.224  1.00  0.00    -0.280 C  
HETATM   13  C   UNL     1     -13.013  10.539  70.966  1.00  0.00    -0.475 C  
HETATM   14  C   UNL     1     -14.244   8.543  71.826  1.00  0.00    -0.525 C  
BRANCH  13  15
HETATM   15  C   UNL     1     -11.774  11.166  70.327  1.00  0.00    -0.431 C  
BRANCH  15  16
HETATM   16  C   UNL     1     -11.827  11.271  68.791  1.00  0.00    -0.396 C  
BRANCH  16  17
HETATM   17  C   UNL     1     -11.539  12.701  68.255  1.00  0.00    -0.332 C  
HETATM   18  C   UNL     1     -12.057  13.734  69.280  1.00  0.00    -0.374 C  
HETATM   19  C   UNL     1     -12.144  12.834  66.857  1.00  0.00    -0.267 C  
HETATM   20  C   UNL     1     -11.885  14.211  66.295  1.00  0.00    -0.427 C  
HETATM   21  C   UNL     1     -10.483  14.683  66.569  1.00  0.00    -0.290 A  
HETATM   22  C   UNL     1     -10.013  15.873  65.982  1.00  0.00    -0.360 A  
HETATM   23  C   UNL     1     -10.904  16.717  65.106  1.00  0.00    -0.150 C  
HETATM   24  C   UNL     1      -8.690  16.270  66.241  1.00  0.00    -0.335 A  
HETATM   25  C   UNL     1      -7.836  15.533  67.086  1.00  0.00    -0.256 A  
HETATM   26  O   UNL     1      -8.176  17.412  65.683  1.00  0.00    -0.491 OA 
HETATM   27  C   UNL     1      -6.426  16.004  67.332  1.00  0.00    -0.214 C  
HETATM   28  C   UNL     1      -8.327  14.359  67.703  1.00  0.00    -0.186 A  
HETATM   29  H   UNL     1      -7.281  17.680  65.859  1.00  0.00     0.000 HD 
HETATM   30  C   UNL     1      -9.657  13.957  67.453  1.00  0.00    -0.235 A  
HETATM   31  C   UNL     1      -7.484  13.529  68.640  1.00  0.00    -0.108 C  
HETATM   32  O   UNL     1     -10.102  12.845  68.144  1.00  0.00    -0.227 OA 
ENDBRANCH  16  17
ENDBRANCH  15  16
ENDBRANCH  13  15
ENDBRANCH  10  11
ENDBRANCH   9  10
ENDBRANCH   5   6
ENDBRANCH   4   5
TORSDOF 7
ENDMDL
MODEL      103
REMARK 921   NORMALIZED FREE ENERGY PREDICTED BY IDOCK:   -5.57 KCAL/MOL
REMARK 922        TOTAL FREE ENERGY PREDICTED BY IDOCK:   -9.61 KCAL/MOL
REMARK 923 INTER-LIGAND FREE ENERGY PREDICTED BY IDOCK:   -7.76 KCAL/MOL
REMARK 924 INTRA-LIGAND FREE ENERGY PREDICTED BY IDOCK:   -1.85 KCAL/MOL
REMARK 927      BINDING AFFINITY PREDICTED BY RF-SCORE:    0.00 PKD
ROOT
HETATM    1  C   UNL     1     -13.247  15.614  73.012  1.00  0.00    -0.664 C  
HETATM    2  C   UNL     1     -12.200  14.955  72.116  1.00  0.00    -0.428 C  
HETATM    3  C   UNL     1     -12.801  13.718  71.443  1.00  0.00    -0.449 C  
HETATM    4  C   UNL     1     -11.658  15.984  71.104  1.00  0.00    -0.492 C  
ENDROOT
BRANCH   4   5
HETATM    5  C   UNL     1     -10.598  15.380  70.188  1.00  0.00    -0.314 C  
BRANCH   5   6
HETATM    6  C   UNL     1     -10.545  16.053  68.819  1.00  0.00    -0.262 C  
HETATM    7  C   UNL     1     -10.863  15.061  67.680  1.00  0.00    -0.291 C  
HETATM    8  C   UNL     1     -12.261  14.444  67.830  1.00  0.00    -0.190 C  
HETATM    9  C   UNL     1     -10.697  15.769  66.323  1.00  0.00    -0.282 C  
BRANCH   9  10
HETATM   10  C   UNL     1     -10.999  14.832  65.156  1.00  0.00    -0.403 C  
BRANCH  10  11
HETATM   11  C   UNL     1     -10.093  13.611  65.146  1.00  0.00    -0.298 C  
HETATM   12  C   UNL     1     -10.880  12.315  65.431  1.00  0.00    -0.324 C  
HETATM   13  C   UNL     1      -9.938  11.107  65.540  1.00  0.00    -0.298 C  
HETATM   14  C   UNL     1     -11.936  12.026  64.357  1.00  0.00    -0.385 C  
BRANCH  13  15
HETATM   15  C   UNL     1      -8.847  11.229  66.603  1.00  0.00    -0.175 C  
BRANCH  15  16
HETATM   16  C   UNL     1      -9.363  11.530  68.023  1.00  0.00    -0.175 C  
BRANCH  16  17
HETATM   17  C   UNL     1      -9.668  10.256  68.859  1.00  0.00    -0.189 C  
HETATM   18  C   UNL     1     -11.173  10.232  69.202  1.00  0.00    -0.268 C  
HETATM   19  C   UNL     1      -8.737  10.228  70.071  1.00  0.00     0.115 C  
HETATM   20  C   UNL     1      -8.998   9.001  70.912  1.00  0.00    -0.300 C  
HETATM   21  C   UNL     1      -9.198   7.768  70.074  1.00  0.00    -0.153 A  
HETATM   22  C   UNL     1      -9.292   6.506  70.689  1.00  0.00    -0.166 A  
HETATM   23  C   UNL     1      -9.235   6.361  72.189  1.00  0.00    -0.140 C  
HETATM   24  C   UNL     1      -9.454   5.374  69.872  1.00  0.00    -0.159 A  
HETATM   25  C   UNL     1      -9.553   5.467  68.469  1.00  0.00    -0.169 A  
HETATM   26  O   UNL     1      -9.536   4.118  70.417  1.00  0.00    -0.164 OA 
HETATM   27  C   UNL     1      -9.729   4.221  67.640  1.00  0.00    -0.186 C  
HETATM   28  C   UNL     1      -9.496   6.742  67.860  1.00  0.00    -0.118 A  
HETATM   29  H   UNL     1      -9.646   3.353  69.865  1.00  0.00     0.000 HD 
HETATM   30  C   UNL     1      -9.340   7.885  68.674  1.00  0.00    -0.145 A  
HETATM   31  C   UNL     1      -9.620   6.928  66.368  1.00  0.00    -0.152 C  
HETATM   32  O   UNL     1      -9.368   9.107  68.028  1.00  0.00    -0.137 OA 
ENDBRANCH  16  17
ENDBRANCH  15  16
ENDBRANCH  13  15
ENDBRANCH  10  11
ENDBRANCH   9  10
ENDBRANCH   5   6
ENDBRANCH   4   5
TORSDOF 7
ENDMDL
MODEL      104
REMARK 921   NORMALIZED FREE ENERGY PREDICTED BY IDOCK:   -5.57 KCAL/MOL
REMARK 922        TOTAL FREE ENERGY PREDICTED BY IDOCK:   -9.60 KCAL/MOL
REMARK 923 INTER-LIGAND FREE ENERGY PREDICTED BY IDOCK:   -8.72 KCAL/MOL
REMARK 924 INTRA-LIGAND FREE ENERGY PREDICTED BY IDOCK:   -0.88 KCAL/MOL
REMARK 927      BINDING AFFINITY PREDICTED BY RF-SCORE:    0.00 PKD
ROOT
HETATM    1  C   UNL     1      -9.100   3.197  65.827  1.00  0.00    -0.149 C  
HETATM    2  C   UNL     1      -8.127   3.681  64.754  1.00  0.00    -0.090 C  
HETATM    3  C   UNL     1      -7.428   2.480  64.110  1.00  0.00    -0.063 C  
HETATM    4  C   UNL     1      -8.874   4.558  63.730  1.00  0.00    -0.140 C  
ENDROOT
BRANCH   4   5
HETATM    5  C   UNL     1      -7.945   5.079  62.638  1.00  0.00    -0.082 C  
BRANCH   5   6
HETATM    6  C   UNL     1      -7.841   6.602  62.623  1.00  0.00    -0.104 C  
HETATM    7  C   UNL     1      -7.416   7.161  63.997  1.00  0.00    -0.099 C  
HETATM    8  C   UNL     1      -6.050   6.616  64.441  1.00  0.00    -0.035 C  
HETATM    9  C   UNL     1      -7.423   8.700  63.947  1.00  0.00    -0.116 C  
BRANCH   9  10
HETATM   10  C   UNL     1      -7.010   9.310  65.285  1.00  0.00    -0.089 C  
BRANCH  10  11
HETATM   11  C   UNL     1      -8.000  10.355  65.774  1.00  0.00    -0.152 C  
HETATM   12  C   UNL     1      -9.459   9.896  65.572  1.00  0.00    -0.313 C  
HETATM   13  C   UNL     1     -10.449  11.007  65.955  1.00  0.00    -0.304 C  
HETATM   14  C   UNL     1      -9.791   8.636  66.380  1.00  0.00    -0.341 C  
BRANCH  13  15
HETATM   15  C   UNL     1     -10.269  12.324  65.200  1.00  0.00    -0.305 C  
BRANCH  15  16
HETATM   16  C   UNL     1      -9.923  13.533  66.090  1.00  0.00    -0.310 C  
BRANCH  16  17
HETATM   17  C   UNL     1     -10.968  13.802  67.209  1.00  0.00    -0.292 C  
HETATM   18  C   UNL     1     -12.377  13.844  66.577  1.00  0.00    -0.447 C  
HETATM   19  C   UNL     1     -10.569  15.073  67.959  1.00  0.00    -0.250 C  
HETATM   20  C   UNL     1     -11.558  15.372  69.060  1.00  0.00    -0.361 C  
HETATM   21  C   UNL     1     -11.962  14.134  69.813  1.00  0.00    -0.396 A  
HETATM   22  C   UNL     1     -12.751  14.243  70.974  1.00  0.00    -0.430 A  
HETATM   23  C   UNL     1     -13.240  15.582  71.466  1.00  0.00    -0.589 C  
HETATM   24  C   UNL     1     -13.089  13.067  71.666  1.00  0.00    -0.347 A  
HETATM   25  C   UNL     1     -12.687  11.791  71.221  1.00  0.00    -0.420 A  
HETATM   26  O   UNL     1     -13.841  13.115  72.811  1.00  0.00    -0.721 OA 
HETATM   27  C   UNL     1     -13.078  10.562  71.999  1.00  0.00    -0.511 C  
HETATM   28  C   UNL     1     -11.927  11.686  70.033  1.00  0.00    -0.429 A  
HETATM   29  H   UNL     1     -14.070  12.320  73.279  1.00  0.00     0.000 HD 
HETATM   30  C   UNL     1     -11.590  12.862  69.328  1.00  0.00    -0.310 A  
HETATM   31  C   UNL     1     -11.482  10.356  69.476  1.00  0.00    -0.311 C  
HETATM   32  O   UNL     1     -10.912  12.690  68.135  1.00  0.00    -0.216 OA 
ENDBRANCH  16  17
ENDBRANCH  15  16
ENDBRANCH  13  15
ENDBRANCH  10  11
ENDBRANCH   9  10
ENDBRANCH   5   6
ENDBRANCH   4   5
TORSDOF 7
ENDMDL
MODEL      105
REMARK 921   NORMALIZED FREE ENERGY PREDICTED BY IDOCK:   -5.56 KCAL/MOL
REMARK 922        TOTAL FREE ENERGY PREDICTED BY IDOCK:   -9.59 KCAL/MOL
REMARK 923 INTER-LIGAND FREE ENERGY PREDICTED BY IDOCK:   -8.64 KCAL/MOL
REMARK 924 INTRA-LIGAND FREE ENERGY PREDICTED BY IDOCK:   -0.96 KCAL/MOL
REMARK 927      BINDING AFFINITY PREDICTED BY RF-SCORE:    0.00 PKD
ROOT
HETATM    1  C   UNL     1     -11.144   1.700  73.292  1.00  0.00    -0.267 C  
HETATM    2  C   UNL     1     -10.194   2.753  73.856  1.00  0.00    -0.192 C  
HETATM    3  C   UNL     1      -8.758   2.220  73.835  1.00  0.00    -0.063 C  
HETATM    4  C   UNL     1     -10.353   4.073  73.074  1.00  0.00    -0.240 C  
ENDROOT
BRANCH   4   5
HETATM    5  C   UNL     1      -9.432   5.166  73.605  1.00  0.00    -0.134 C  
BRANCH   5   6
HETATM    6  C   UNL     1      -9.066   6.201  72.544  1.00  0.00    -0.138 C  
HETATM    7  C   UNL     1     -10.313   6.936  72.008  1.00  0.00    -0.220 C  
HETATM    8  C   UNL     1     -11.069   7.674  73.123  1.00  0.00    -0.373 C  
HETATM    9  C   UNL     1      -9.895   7.894  70.876  1.00  0.00    -0.192 C  
BRANCH   9  10
HETATM   10  C   UNL     1     -11.092   8.649  70.305  1.00  0.00    -0.230 C  
BRANCH  10  11
HETATM   11  C   UNL     1     -10.837  10.145  70.204  1.00  0.00    -0.368 C  
HETATM   12  C   UNL     1     -12.153  10.950  70.224  1.00  0.00    -0.440 C  
HETATM   13  C   UNL     1     -11.891  12.447  69.999  1.00  0.00    -0.363 C  
HETATM   14  C   UNL     1     -12.925  10.773  71.537  1.00  0.00    -0.562 C  
BRANCH  13  15
HETATM   15  C   UNL     1     -11.159  12.789  68.702  1.00  0.00    -0.304 C  
BRANCH  15  16
HETATM   16  C   UNL     1      -9.862  13.598  68.890  1.00  0.00     0.019 C  
BRANCH  16  17
HETATM   17  C   UNL     1     -10.027  15.117  68.599  1.00  0.00    -0.220 C  
HETATM   18  C   UNL     1     -10.883  15.750  69.718  1.00  0.00    -0.314 C  
HETATM   19  C   UNL     1     -10.592  15.289  67.189  1.00  0.00    -0.302 C  
HETATM   20  C   UNL     1     -10.767  16.753  66.863  1.00  0.00    -0.139 C  
HETATM   21  C   UNL     1      -9.600  17.582  67.325  1.00  0.00    -0.273 A  
HETATM   22  C   UNL     1      -9.515  18.940  66.964  1.00  0.00    -0.341 A  
HETATM   23  C   UNL     1     -10.596  19.602  66.149  1.00  0.00    -0.584 C  
HETATM   24  C   UNL     1      -8.398  19.677  67.394  1.00  0.00    -0.300 A  
HETATM   25  C   UNL     1      -7.383  19.109  68.190  1.00  0.00    -0.304 A  
HETATM   26  O   UNL     1      -8.255  20.999  67.059  1.00  0.00    -0.576 OA 
HETATM   27  C   UNL     1      -6.207  19.945  68.626  1.00  0.00    -0.307 C  
HETATM   28  C   UNL     1      -7.494  17.754  68.581  1.00  0.00    -0.274 A  
HETATM   29  H   UNL     1      -7.500  21.497  67.349  1.00  0.00     0.000 HD 
HETATM   30  C   UNL     1      -8.617  17.009  68.160  1.00  0.00    -0.228 A  
HETATM   31  C   UNL     1      -6.464  17.081  69.454  1.00  0.00    -0.236 C  
HETATM   32  O   UNL     1      -8.708  15.714  68.636  1.00  0.00    -0.172 OA 
ENDBRANCH  16  17
ENDBRANCH  15  16
ENDBRANCH  13  15
ENDBRANCH  10  11
ENDBRANCH   9  10
ENDBRANCH   5   6
ENDBRANCH   4   5
TORSDOF 7
ENDMDL
MODEL      106
REMARK 921   NORMALIZED FREE ENERGY PREDICTED BY IDOCK:   -5.56 KCAL/MOL
REMARK 922        TOTAL FREE ENERGY PREDICTED BY IDOCK:   -9.59 KCAL/MOL
REMARK 923 INTER-LIGAND FREE ENERGY PREDICTED BY IDOCK:   -7.95 KCAL/MOL
REMARK 924 INTRA-LIGAND FREE ENERGY PREDICTED BY IDOCK:   -1.64 KCAL/MOL
REMARK 927      BINDING AFFINITY PREDICTED BY RF-SCORE:    0.00 PKD
ROOT
HETATM    1  C   UNL     1      -7.711   8.216  67.088  1.00  0.00    -0.097 C  
HETATM    2  C   UNL     1      -8.596   7.021  67.435  1.00  0.00    -0.121 C  
HETATM    3  C   UNL     1      -8.704   6.089  66.225  1.00  0.00    -0.138 C  
HETATM    4  C   UNL     1      -8.046   6.311  68.689  1.00  0.00    -0.109 C  
ENDROOT
BRANCH   4   5
HETATM    5  C   UNL     1      -8.901   5.112  69.088  1.00  0.00    -0.110 C  
BRANCH   5   6
HETATM    6  C   UNL     1      -9.413   5.199  70.523  1.00  0.00    -0.229 C  
HETATM    7  C   UNL     1     -10.297   6.444  70.741  1.00  0.00    -0.244 C  
HETATM    8  C   UNL     1     -11.525   6.446  69.819  1.00  0.00    -0.468 C  
HETATM    9  C   UNL     1     -10.702   6.531  72.225  1.00  0.00    -0.252 C  
BRANCH   9  10
HETATM   10  C   UNL     1     -11.580   7.749  72.501  1.00  0.00    -0.422 C  
BRANCH  10  11
HETATM   11  C   UNL     1     -11.060   9.003  71.817  1.00  0.00    -0.444 C  
HETATM   12  C   UNL     1     -12.183   9.753  71.071  1.00  0.00    -0.436 C  
HETATM   13  C   UNL     1     -11.625  10.948  70.284  1.00  0.00    -0.426 C  
HETATM   14  C   UNL     1     -13.280  10.253  72.019  1.00  0.00    -0.516 C  
BRANCH  13  15
HETATM   15  C   UNL     1     -10.542  10.602  69.262  1.00  0.00    -0.263 C  
BRANCH  15  16
HETATM   16  C   UNL     1     -10.800  11.145  67.844  1.00  0.00    -0.285 C  
BRANCH  16  17
HETATM   17  C   UNL     1      -9.916  12.369  67.474  1.00  0.00    -0.196 C  
HETATM   18  C   UNL     1     -10.069  12.659  65.965  1.00  0.00    -0.274 C  
HETATM   19  C   UNL     1      -8.482  12.096  67.929  1.00  0.00    -0.163 C  
HETATM   20  C   UNL     1      -7.588  13.265  67.591  1.00  0.00    -0.171 C  
HETATM   21  C   UNL     1      -8.243  14.587  67.882  1.00  0.00    -0.155 A  
HETATM   22  C   UNL     1      -7.500  15.778  67.782  1.00  0.00    -0.162 A  
HETATM   23  C   UNL     1      -6.057  15.766  67.347  1.00  0.00    -0.117 C  
HETATM   24  C   UNL     1      -8.139  16.993  68.086  1.00  0.00    -0.212 A  
HETATM   25  C   UNL     1      -9.498  17.055  68.459  1.00  0.00    -0.269 A  
HETATM   26  O   UNL     1      -7.460  18.182  68.020  1.00  0.00    -0.228 OA 
HETATM   27  C   UNL     1     -10.135  18.384  68.772  1.00  0.00    -0.393 C  
HETATM   28  C   UNL     1     -10.248  15.857  68.520  1.00  0.00    -0.226 A  
HETATM   29  H   UNL     1      -7.892  19.002  68.225  1.00  0.00     0.000 HD 
HETATM   30  C   UNL     1      -9.615  14.634  68.210  1.00  0.00    -0.208 A  
HETATM   31  C   UNL     1     -11.712  15.843  68.885  1.00  0.00    -0.376 C  
HETATM   32  O   UNL     1     -10.419  13.509  68.214  1.00  0.00    -0.239 OA 
ENDBRANCH  16  17
ENDBRANCH  15  16
ENDBRANCH  13  15
ENDBRANCH  10  11
ENDBRANCH   9  10
ENDBRANCH   5   6
ENDBRANCH   4   5
TORSDOF 7
ENDMDL
MODEL      107
REMARK 921   NORMALIZED FREE ENERGY PREDICTED BY IDOCK:   -5.55 KCAL/MOL
REMARK 922        TOTAL FREE ENERGY PREDICTED BY IDOCK:   -9.58 KCAL/MOL
REMARK 923 INTER-LIGAND FREE ENERGY PREDICTED BY IDOCK:   -8.44 KCAL/MOL
REMARK 924 INTRA-LIGAND FREE ENERGY PREDICTED BY IDOCK:   -1.14 KCAL/MOL
REMARK 927      BINDING AFFINITY PREDICTED BY RF-SCORE:    0.00 PKD
ROOT
HETATM    1  C   UNL     1      -7.909   3.865  64.519  1.00  0.00    -0.085 C  
HETATM    2  C   UNL     1      -8.126   3.158  65.855  1.00  0.00    -0.086 C  
HETATM    3  C   UNL     1      -6.873   2.361  66.228  1.00  0.00    -0.043 C  
HETATM    4  C   UNL     1      -8.523   4.188  66.931  1.00  0.00    -0.100 C  
ENDROOT
BRANCH   4   5
HETATM    5  C   UNL     1      -8.763   3.533  68.288  1.00  0.00    -0.136 C  
BRANCH   5   6
HETATM    6  C   UNL     1      -7.950   4.175  69.409  1.00  0.00    -0.056 C  
HETATM    7  C   UNL     1      -8.830   5.054  70.323  1.00  0.00    -0.143 C  
HETATM    8  C   UNL     1      -9.958   4.248  70.983  1.00  0.00    -0.223 C  
HETATM    9  C   UNL     1      -7.942   5.751  71.372  1.00  0.00    -0.113 C  
BRANCH   9  10
HETATM   10  C   UNL     1      -8.761   6.638  72.306  1.00  0.00    -0.132 C  
BRANCH  10  11
HETATM   11  C   UNL     1      -9.181   7.941  71.644  1.00  0.00    -0.180 C  
HETATM   12  C   UNL     1     -10.697   7.974  71.360  1.00  0.00    -0.270 C  
HETATM   13  C   UNL     1     -11.089   9.240  70.583  1.00  0.00    -0.335 C  
HETATM   14  C   UNL     1     -11.533   7.901  72.643  1.00  0.00    -0.454 C  
BRANCH  13  15
HETATM   15  C   UNL     1     -10.364   9.433  69.251  1.00  0.00    -0.217 C  
BRANCH  15  16
HETATM   16  C   UNL     1      -9.795  10.847  69.028  1.00  0.00    -0.196 C  
BRANCH  16  17
HETATM   17  C   UNL     1     -10.558  11.662  67.946  1.00  0.00    -0.193 C  
HETATM   18  C   UNL     1     -12.028  11.826  68.387  1.00  0.00    -0.250 C  
HETATM   19  C   UNL     1     -10.372  10.976  66.592  1.00  0.00    -0.288 C  
HETATM   20  C   UNL     1     -11.096  11.738  65.508  1.00  0.00    -0.336 C  
HETATM   21  C   UNL     1     -10.919  13.226  65.642  1.00  0.00    -0.292 A  
HETATM   22  C   UNL     1     -11.387  14.085  64.630  1.00  0.00    -0.378 A  
HETATM   23  C   UNL     1     -12.105  13.547  63.418  1.00  0.00    -0.351 C  
HETATM   24  C   UNL     1     -11.182  15.467  64.777  1.00  0.00    -0.390 A  
HETATM   25  C   UNL     1     -10.550  16.016  65.912  1.00  0.00    -0.338 A  
HETATM   26  O   UNL     1     -11.603  16.348  63.816  1.00  0.00    -1.605 OA 
HETATM   27  C   UNL     1     -10.357  17.507  66.022  1.00  0.00    -0.309 C  
HETATM   28  C   UNL     1     -10.117  15.151  66.943  1.00  0.00    -0.256 A  
HETATM   29  H   UNL     1     -11.464  17.283  63.916  1.00  0.00     0.000 HD 
HETATM   30  C   UNL     1     -10.325  13.761  66.805  1.00  0.00    -0.272 A  
HETATM   31  C   UNL     1      -9.457  15.662  68.200  1.00  0.00    -0.195 C  
HETATM   32  O   UNL     1      -9.949  12.975  67.878  1.00  0.00    -0.217 OA 
ENDBRANCH  16  17
ENDBRANCH  15  16
ENDBRANCH  13  15
ENDBRANCH  10  11
ENDBRANCH   9  10
ENDBRANCH   5   6
ENDBRANCH   4   5
TORSDOF 7
ENDMDL
MODEL      108
REMARK 921   NORMALIZED FREE ENERGY PREDICTED BY IDOCK:   -5.52 KCAL/MOL
REMARK 922        TOTAL FREE ENERGY PREDICTED BY IDOCK:   -9.53 KCAL/MOL
REMARK 923 INTER-LIGAND FREE ENERGY PREDICTED BY IDOCK:   -8.38 KCAL/MOL
REMARK 924 INTRA-LIGAND FREE ENERGY PREDICTED BY IDOCK:   -1.15 KCAL/MOL
REMARK 927      BINDING AFFINITY PREDICTED BY RF-SCORE:    0.00 PKD
ROOT
HETATM    1  C   UNL     1     -11.248   2.055  73.230  1.00  0.00    -0.262 C  
HETATM    2  C   UNL     1     -10.314   3.253  73.069  1.00  0.00    -0.245 C  
HETATM    3  C   UNL     1      -9.768   3.295  71.639  1.00  0.00    -0.234 C  
HETATM    4  C   UNL     1     -11.053   4.547  73.466  1.00  0.00    -0.398 C  
ENDROOT
BRANCH   4   5
HETATM    5  C   UNL     1     -10.161   5.777  73.333  1.00  0.00    -0.207 C  
BRANCH   5   6
HETATM    6  C   UNL     1     -10.864   6.951  72.657  1.00  0.00    -0.290 C  
HETATM    7  C   UNL     1      -9.971   7.617  71.590  1.00  0.00    -0.207 C  
HETATM    8  C   UNL     1      -9.565   6.631  70.484  1.00  0.00    -0.177 C  
HETATM    9  C   UNL     1     -10.694   8.849  71.014  1.00  0.00    -0.315 C  
BRANCH   9  10
HETATM   10  C   UNL     1      -9.853   9.552  69.950  1.00  0.00    -0.254 C  
BRANCH  10  11
HETATM   11  C   UNL     1     -10.645   9.837  68.684  1.00  0.00    -0.249 C  
HETATM   12  C   UNL     1      -9.740   9.834  67.434  1.00  0.00    -0.202 C  
HETATM   13  C   UNL     1     -10.526  10.244  66.179  1.00  0.00    -0.200 C  
HETATM   14  C   UNL     1      -9.090   8.467  67.188  1.00  0.00    -0.164 C  
BRANCH  13  15
HETATM   15  C   UNL     1     -11.205  11.611  66.257  1.00  0.00    -0.332 C  
BRANCH  15  16
HETATM   16  C   UNL     1     -10.675  12.649  65.249  1.00  0.00    -0.318 C  
BRANCH  16  17
HETATM   17  C   UNL     1     -10.670  14.103  65.798  1.00  0.00    -0.299 C  
HETATM   18  C   UNL     1     -11.711  14.213  66.933  1.00  0.00    -0.437 C  
HETATM   19  C   UNL     1     -10.892  15.069  64.634  1.00  0.00    -0.290 C  
HETATM   20  C   UNL     1     -10.891  16.498  65.123  1.00  0.00    -0.247 C  
HETATM   21  C   UNL     1      -9.805  16.754  66.132  1.00  0.00    -0.330 A  
HETATM   22  C   UNL     1      -9.551  18.065  66.575  1.00  0.00    -0.318 A  
HETATM   23  C   UNL     1     -10.376  19.229  66.088  1.00  0.00    -0.578 C  
HETATM   24  C   UNL     1      -8.513  18.269  67.500  1.00  0.00    -0.249 A  
HETATM   25  C   UNL     1      -7.743  17.205  68.013  1.00  0.00    -0.189 A  
HETATM   26  O   UNL     1      -8.211  19.527  67.954  1.00  0.00    -0.295 OA 
HETATM   27  C   UNL     1      -6.642  17.479  69.005  1.00  0.00    -0.243 C  
HETATM   28  C   UNL     1      -8.029  15.886  67.592  1.00  0.00    -0.163 A  
HETATM   29  H   UNL     1      -7.509  19.665  68.580  1.00  0.00     0.000 HD 
HETATM   30  C   UNL     1      -9.075  15.672  66.668  1.00  0.00    -0.282 A  
HETATM   31  C   UNL     1      -7.268  14.692  68.113  1.00  0.00    -0.127 C  
HETATM   32  O   UNL     1      -9.356  14.355  66.354  1.00  0.00    -0.280 OA 
ENDBRANCH  16  17
ENDBRANCH  15  16
ENDBRANCH  13  15
ENDBRANCH  10  11
ENDBRANCH   9  10
ENDBRANCH   5   6
ENDBRANCH   4   5
TORSDOF 7
ENDMDL
MODEL      109
REMARK 921   NORMALIZED FREE ENERGY PREDICTED BY IDOCK:   -5.50 KCAL/MOL
REMARK 922        TOTAL FREE ENERGY PREDICTED BY IDOCK:   -9.50 KCAL/MOL
REMARK 923 INTER-LIGAND FREE ENERGY PREDICTED BY IDOCK:   -7.52 KCAL/MOL
REMARK 924 INTRA-LIGAND FREE ENERGY PREDICTED BY IDOCK:   -1.98 KCAL/MOL
REMARK 927      BINDING AFFINITY PREDICTED BY RF-SCORE:    0.00 PKD
ROOT
HETATM    1  C   UNL     1      -8.996  10.611  64.319  1.00  0.00    -0.214 C  
HETATM    2  C   UNL     1      -8.381   9.482  65.143  1.00  0.00    -0.148 C  
HETATM    3  C   UNL     1      -7.904   8.363  64.213  1.00  0.00    -0.143 C  
HETATM    4  C   UNL     1      -7.253  10.042  66.033  1.00  0.00    -0.112 C  
ENDROOT
BRANCH   4   5
HETATM    5  C   UNL     1      -6.608   8.956  66.889  1.00  0.00    -0.061 C  
BRANCH   5   6
HETATM    6  C   UNL     1      -7.631   8.045  67.563  1.00  0.00    -0.101 C  
HETATM    7  C   UNL     1      -7.089   7.452  68.880  1.00  0.00    -0.080 C  
HETATM    8  C   UNL     1      -6.716   8.545  69.892  1.00  0.00    -0.042 C  
HETATM    9  C   UNL     1      -8.123   6.469  69.462  1.00  0.00    -0.118 C  
BRANCH   9  10
HETATM   10  C   UNL     1      -7.638   5.847  70.769  1.00  0.00    -0.092 C  
BRANCH  10  11
HETATM   11  C   UNL     1      -8.732   5.791  71.823  1.00  0.00    -0.136 C  
HETATM   12  C   UNL     1      -9.830   4.773  71.452  1.00  0.00    -0.255 C  
HETATM   13  C   UNL     1     -10.989   4.813  72.460  1.00  0.00    -0.171 C  
HETATM   14  C   UNL     1      -9.292   3.339  71.371  1.00  0.00    -0.206 C  
BRANCH  13  15
HETATM   15  C   UNL     1     -11.659   6.177  72.623  1.00  0.00    -0.239 C  
BRANCH  15  16
HETATM   16  C   UNL     1     -11.959   6.908  71.301  1.00  0.00    -0.402 C  
BRANCH  16  17
HETATM   17  C   UNL     1     -11.843   8.454  71.404  1.00  0.00    -0.296 C  
HETATM   18  C   UNL     1     -10.526   8.809  72.128  1.00  0.00    -0.384 C  
HETATM   19  C   UNL     1     -13.105   8.999  72.073  1.00  0.00    -0.474 C  
HETATM   20  C   UNL     1     -13.035  10.503  72.191  1.00  0.00    -0.366 C  
HETATM   21  C   UNL     1     -12.491  11.148  70.946  1.00  0.00    -0.509 A  
HETATM   22  C   UNL     1     -12.506  12.549  70.814  1.00  0.00    -0.357 A  
HETATM   23  C   UNL     1     -13.024  13.433  71.921  1.00  0.00    -0.422 C  
HETATM   24  C   UNL     1     -12.012  13.115  69.626  1.00  0.00    -0.306 A  
HETATM   25  C   UNL     1     -11.482  12.328  68.583  1.00  0.00    -0.355 A  
HETATM   26  O   UNL     1     -12.017  14.473  69.438  1.00  0.00    -0.303 OA 
HETATM   27  C   UNL     1     -10.964  12.986  67.330  1.00  0.00    -0.288 C  
HETATM   28  C   UNL     1     -11.435  10.923  68.737  1.00  0.00    -0.376 A  
HETATM   29  H   UNL     1     -11.683  14.855  68.635  1.00  0.00     0.000 HD 
HETATM   30  C   UNL     1     -11.923  10.348  69.931  1.00  0.00    -0.215 A  
HETATM   31  C   UNL     1     -10.860  10.015  67.679  1.00  0.00    -0.336 C  
HETATM   32  O   UNL     1     -11.781   8.978  70.055  1.00  0.00    -0.017 OA 
ENDBRANCH  16  17
ENDBRANCH  15  16
ENDBRANCH  13  15
ENDBRANCH  10  11
ENDBRANCH   9  10
ENDBRANCH   5   6
ENDBRANCH   4   5
TORSDOF 7
ENDMDL
MODEL      110
REMARK 921   NORMALIZED FREE ENERGY PREDICTED BY IDOCK:   -5.48 KCAL/MOL
REMARK 922        TOTAL FREE ENERGY PREDICTED BY IDOCK:   -9.48 KCAL/MOL
REMARK 923 INTER-LIGAND FREE ENERGY PREDICTED BY IDOCK:   -5.79 KCAL/MOL
REMARK 924 INTRA-LIGAND FREE ENERGY PREDICTED BY IDOCK:   -3.69 KCAL/MOL
REMARK 927      BINDING AFFINITY PREDICTED BY RF-SCORE:    0.00 PKD
ROOT
HETATM    1  C   UNL     1     -11.871  12.595  66.247  1.00  0.00    -0.471 C  
HETATM    2  C   UNL     1     -10.777  12.176  65.268  1.00  0.00    -0.328 C  
HETATM    3  C   UNL     1      -9.671  13.236  65.243  1.00  0.00     0.008 C  
HETATM    4  C   UNL     1     -10.254  10.774  65.640  1.00  0.00    -0.320 C  
ENDROOT
BRANCH   4   5
HETATM    5  C   UNL     1      -9.162  10.300  64.685  1.00  0.00    -0.290 C  
BRANCH   5   6
HETATM    6  C   UNL     1      -8.047   9.534  65.392  1.00  0.00    -0.125 C  
HETATM    7  C   UNL     1      -8.283   8.010  65.351  1.00  0.00    -0.152 C  
HETATM    8  C   UNL     1      -8.359   7.479  63.912  1.00  0.00     0.153 C  
HETATM    9  C   UNL     1      -7.182   7.300  66.161  1.00  0.00    -0.074 C  
BRANCH   9  10
HETATM   10  C   UNL     1      -7.366   5.784  66.156  1.00  0.00    -0.078 C  
BRANCH  10  11
HETATM   11  C   UNL     1      -7.694   5.238  67.537  1.00  0.00    -0.096 C  
HETATM   12  C   UNL     1      -9.073   4.548  67.564  1.00  0.00    -0.137 C  
HETATM   13  C   UNL     1      -9.446   4.109  68.989  1.00  0.00    -0.244 C  
HETATM   14  C   UNL     1      -9.134   3.328  66.638  1.00  0.00    -0.180 C  
BRANCH  13  15
HETATM   15  C   UNL     1      -9.468   5.230  70.028  1.00  0.00    -0.216 C  
BRANCH  15  16
HETATM   16  C   UNL     1     -10.699   6.153  69.952  1.00  0.00    -0.366 C  
BRANCH  16  17
HETATM   17  C   UNL     1     -10.394   7.549  69.340  1.00  0.00    -0.213 C  
HETATM   18  C   UNL     1     -10.875   7.568  67.872  1.00  0.00    -0.128 C  
HETATM   19  C   UNL     1      -8.908   7.855  69.527  1.00  0.00    -0.142 C  
HETATM   20  C   UNL     1      -8.567   9.207  68.948  1.00  0.00    -0.131 C  
HETATM   21  C   UNL     1      -9.607  10.244  69.273  1.00  0.00    -0.239 A  
HETATM   22  C   UNL     1      -9.378  11.595  68.954  1.00  0.00     0.033 A  
HETATM   23  C   UNL     1      -8.117  12.030  68.251  1.00  0.00    -0.155 C  
HETATM   24  C   UNL     1     -10.361  12.540  69.295  1.00  0.00     0.318 A  
HETATM   25  C   UNL     1     -11.572  12.173  69.916  1.00  0.00    -0.297 A  
HETATM   26  O   UNL     1     -10.184  13.871  69.021  1.00  0.00    -0.390 OA 
HETATM   27  C   UNL     1     -12.595  13.225  70.259  1.00  0.00    -0.160 C  
HETATM   28  C   UNL     1     -11.813  10.808  70.199  1.00  0.00    -0.427 A  
HETATM   29  H   UNL     1     -10.849  14.510  69.252  1.00  0.00     0.000 HD 
HETATM   30  C   UNL     1     -10.832   9.853  69.854  1.00  0.00    -0.278 A  
HETATM   31  C   UNL     1     -13.094  10.332  70.839  1.00  0.00    -0.423 C  
HETATM   32  O   UNL     1     -11.157   8.528  70.086  1.00  0.00    -0.248 OA 
ENDBRANCH  16  17
ENDBRANCH  15  16
ENDBRANCH  13  15
ENDBRANCH  10  11
ENDBRANCH   9  10
ENDBRANCH   5   6
ENDBRANCH   4   5
TORSDOF 7
ENDMDL
MODEL      111
REMARK 921   NORMALIZED FREE ENERGY PREDICTED BY IDOCK:   -5.47 KCAL/MOL
REMARK 922        TOTAL FREE ENERGY PREDICTED BY IDOCK:   -9.47 KCAL/MOL
REMARK 923 INTER-LIGAND FREE ENERGY PREDICTED BY IDOCK:   -8.44 KCAL/MOL
REMARK 924 INTRA-LIGAND FREE ENERGY PREDICTED BY IDOCK:   -1.03 KCAL/MOL
REMARK 927      BINDING AFFINITY PREDICTED BY RF-SCORE:    0.00 PKD
ROOT
HETATM    1  C   UNL     1      -7.353  20.780  67.645  1.00  0.00    -0.304 C  
HETATM    2  C   UNL     1      -8.291  19.578  67.561  1.00  0.00    -0.333 C  
HETATM    3  C   UNL     1      -9.026  19.400  68.893  1.00  0.00    -0.344 C  
HETATM    4  C   UNL     1      -9.251  19.748  66.366  1.00  0.00    -0.468 C  
ENDROOT
BRANCH   4   5
HETATM    5  C   UNL     1     -10.207  18.567  66.228  1.00  0.00    -0.446 C  
BRANCH   5   6
HETATM    6  C   UNL     1      -9.510  17.218  66.385  1.00  0.00    -0.282 C  
HETATM    7  C   UNL     1     -10.487  16.041  66.182  1.00  0.00    -0.334 C  
HETATM    8  C   UNL     1     -11.130  16.062  64.787  1.00  0.00    -0.378 C  
HETATM    9  C   UNL     1      -9.753  14.714  66.449  1.00  0.00    -0.315 C  
BRANCH   9  10
HETATM   10  C   UNL     1     -10.675  13.511  66.263  1.00  0.00    -0.288 C  
BRANCH  10  11
HETATM   11  C   UNL     1      -9.910  12.248  65.900  1.00  0.00    -0.266 C  
HETATM   12  C   UNL     1     -10.473  11.588  64.624  1.00  0.00    -0.356 C  
HETATM   13  C   UNL     1      -9.775  10.251  64.336  1.00  0.00    -0.381 C  
HETATM   14  C   UNL     1     -10.340  12.492  63.393  1.00  0.00    -0.194 C  
BRANCH  13  15
HETATM   15  C   UNL     1      -9.855   9.221  65.463  1.00  0.00    -0.155 C  
BRANCH  15  16
HETATM   16  C   UNL     1      -8.516   8.932  66.167  1.00  0.00    -0.133 C  
BRANCH  16  17
HETATM   17  C   UNL     1      -8.671   8.171  67.513  1.00  0.00    -0.129 C  
HETATM   18  C   UNL     1      -7.430   8.446  68.389  1.00  0.00    -0.095 C  
HETATM   19  C   UNL     1      -8.926   6.693  67.216  1.00  0.00    -0.115 C  
HETATM   20  C   UNL     1      -9.086   5.914  68.499  1.00  0.00    -0.111 C  
HETATM   21  C   UNL     1      -9.927   6.646  69.509  1.00  0.00    -0.178 A  
HETATM   22  C   UNL     1     -10.316   6.004  70.700  1.00  0.00    -0.280 A  
HETATM   23  C   UNL     1      -9.874   4.596  71.010  1.00  0.00    -0.268 C  
HETATM   24  C   UNL     1     -11.122   6.711  71.609  1.00  0.00    -0.250 A  
HETATM   25  C   UNL     1     -11.525   8.042  71.378  1.00  0.00    -0.293 A  
HETATM   26  O   UNL     1     -11.543   6.129  72.777  1.00  0.00    -0.444 OA 
HETATM   27  C   UNL     1     -12.388   8.756  72.387  1.00  0.00    -0.414 C  
HETATM   28  C   UNL     1     -11.099   8.694  70.198  1.00  0.00    -0.199 A  
HETATM   29  H   UNL     1     -12.087   6.608  73.391  1.00  0.00     0.000 HD 
HETATM   30  C   UNL     1     -10.283   7.993  69.283  1.00  0.00    -0.213 A  
HETATM   31  C   UNL     1     -11.466  10.125  69.891  1.00  0.00    -0.317 C  
HETATM   32  O   UNL     1      -9.837   8.707  68.186  1.00  0.00    -0.155 OA 
ENDBRANCH  16  17
ENDBRANCH  15  16
ENDBRANCH  13  15
ENDBRANCH  10  11
ENDBRANCH   9  10
ENDBRANCH   5   6
ENDBRANCH   4   5
TORSDOF 7
ENDMDL
MODEL      112
REMARK 921   NORMALIZED FREE ENERGY PREDICTED BY IDOCK:   -5.47 KCAL/MOL
REMARK 922        TOTAL FREE ENERGY PREDICTED BY IDOCK:   -9.46 KCAL/MOL
REMARK 923 INTER-LIGAND FREE ENERGY PREDICTED BY IDOCK:   -8.29 KCAL/MOL
REMARK 924 INTRA-LIGAND FREE ENERGY PREDICTED BY IDOCK:   -1.17 KCAL/MOL
REMARK 927      BINDING AFFINITY PREDICTED BY RF-SCORE:    0.00 PKD
ROOT
HETATM    1  C   UNL     1      -7.811   6.926  67.636  1.00  0.00    -0.112 C  
HETATM    2  C   UNL     1      -8.814   5.911  68.179  1.00  0.00    -0.110 C  
HETATM    3  C   UNL     1      -9.230   4.948  67.063  1.00  0.00    -0.127 C  
HETATM    4  C   UNL     1      -8.213   5.187  69.401  1.00  0.00    -0.087 C  
ENDROOT
BRANCH   4   5
HETATM    5  C   UNL     1      -9.180   4.165  69.991  1.00  0.00    -0.213 C  
BRANCH   5   6
HETATM    6  C   UNL     1      -9.635   4.524  71.403  1.00  0.00    -0.232 C  
HETATM    7  C   UNL     1     -10.297   5.917  71.454  1.00  0.00    -0.271 C  
HETATM    8  C   UNL     1     -11.531   6.001  70.543  1.00  0.00    -0.227 C  
HETATM    9  C   UNL     1     -10.645   6.265  72.914  1.00  0.00    -0.257 C  
BRANCH   9  10
HETATM   10  C   UNL     1     -11.304   7.638  73.026  1.00  0.00    -0.334 C  
BRANCH  10  11
HETATM   11  C   UNL     1     -10.748   8.629  72.016  1.00  0.00    -0.427 C  
HETATM   12  C   UNL     1     -11.845   9.148  71.064  1.00  0.00    -0.354 C  
HETATM   13  C   UNL     1     -11.252  10.053  69.973  1.00  0.00    -0.345 C  
HETATM   14  C   UNL     1     -12.943   9.920  71.805  1.00  0.00    -0.549 C  
BRANCH  13  15
HETATM   15  C   UNL     1     -10.164   9.406  69.116  1.00  0.00    -0.209 C  
BRANCH  15  16
HETATM   16  C   UNL     1     -10.295   9.669  67.605  1.00  0.00    -0.290 C  
BRANCH  16  17
HETATM   17  C   UNL     1      -9.616  10.988  67.140  1.00  0.00    -0.169 C  
HETATM   18  C   UNL     1      -8.750  10.694  65.896  1.00  0.00    -0.186 C  
HETATM   19  C   UNL     1      -8.853  11.591  68.320  1.00  0.00    -0.166 C  
HETATM   20  C   UNL     1      -8.179  12.879  67.912  1.00  0.00    -0.165 C  
HETATM   21  C   UNL     1      -9.066  13.740  67.056  1.00  0.00    -0.253 A  
HETATM   22  C   UNL     1      -8.666  15.047  66.718  1.00  0.00    -0.293 A  
HETATM   23  C   UNL     1      -7.335  15.597  67.166  1.00  0.00    -0.247 C  
HETATM   24  C   UNL     1      -9.532  15.831  65.937  1.00  0.00    -0.342 A  
HETATM   25  C   UNL     1     -10.767  15.343  65.464  1.00  0.00    -0.397 A  
HETATM   26  O   UNL     1      -9.199  17.116  65.591  1.00  0.00    -0.509 OA 
HETATM   27  C   UNL     1     -11.657  16.226  64.627  1.00  0.00    -0.067 C  
HETATM   28  C   UNL     1     -11.146  14.017  65.775  1.00  0.00    -0.305 A  
HETATM   29  H   UNL     1      -9.785  17.646  65.063  1.00  0.00     0.000 HD 
HETATM   30  C   UNL     1     -10.278  13.220  66.553  1.00  0.00    -0.283 A  
HETATM   31  C   UNL     1     -12.438  13.412  65.285  1.00  0.00    -0.532 C  
HETATM   32  O   UNL     1     -10.668  11.910  66.760  1.00  0.00    -0.227 OA 
ENDBRANCH  16  17
ENDBRANCH  15  16
ENDBRANCH  13  15
ENDBRANCH  10  11
ENDBRANCH   9  10
ENDBRANCH   5   6
ENDBRANCH   4   5
TORSDOF 7
ENDMDL
MODEL      113
REMARK 921   NORMALIZED FREE ENERGY PREDICTED BY IDOCK:   -5.46 KCAL/MOL
REMARK 922        TOTAL FREE ENERGY PREDICTED BY IDOCK:   -9.45 KCAL/MOL
REMARK 923 INTER-LIGAND FREE ENERGY PREDICTED BY IDOCK:   -7.70 KCAL/MOL
REMARK 924 INTRA-LIGAND FREE ENERGY PREDICTED BY IDOCK:   -1.75 KCAL/MOL
REMARK 927      BINDING AFFINITY PREDICTED BY RF-SCORE:    0.00 PKD
ROOT
HETATM    1  C   UNL     1     -11.857  15.844  69.734  1.00  0.00    -0.303 C  
HETATM    2  C   UNL     1     -11.598  14.386  69.362  1.00  0.00    -0.349 C  
HETATM    3  C   UNL     1     -12.399  13.465  70.287  1.00  0.00    -0.354 C  
HETATM    4  C   UNL     1     -11.921  14.163  67.871  1.00  0.00    -0.378 C  
ENDROOT
BRANCH   4   5
HETATM    5  C   UNL     1     -11.669  12.721  67.441  1.00  0.00    -0.425 C  
BRANCH   5   6
HETATM    6  C   UNL     1     -10.253  12.496  66.918  1.00  0.00    -0.237 C  
HETATM    7  C   UNL     1     -10.189  11.316  65.926  1.00  0.00    -0.298 C  
HETATM    8  C   UNL     1     -11.094  11.541  64.706  1.00  0.00    -0.300 C  
HETATM    9  C   UNL     1      -8.725  11.075  65.511  1.00  0.00    -0.144 C  
BRANCH   9  10
HETATM   10  C   UNL     1      -8.601   9.914  64.527  1.00  0.00    -0.198 C  
BRANCH  10  11
HETATM   11  C   UNL     1      -8.217   8.613  65.215  1.00  0.00    -0.148 C  
HETATM   12  C   UNL     1      -8.020   7.468  64.199  1.00  0.00    -0.098 C  
HETATM   13  C   UNL     1      -7.753   6.134  64.912  1.00  0.00    -0.101 C  
HETATM   14  C   UNL     1      -6.872   7.747  63.222  1.00  0.00    -0.071 C  
BRANCH  13  15
HETATM   15  C   UNL     1      -8.837   5.697  65.897  1.00  0.00    -0.154 C  
BRANCH  15  16
HETATM   16  C   UNL     1      -8.373   4.675  66.952  1.00  0.00    -0.106 C  
BRANCH  16  17
HETATM   17  C   UNL     1      -8.753   5.066  68.408  1.00  0.00    -0.101 C  
HETATM   18  C   UNL     1      -7.461   5.382  69.194  1.00  0.00    -0.077 C  
HETATM   19  C   UNL     1      -9.609   3.952  69.009  1.00  0.00    -0.209 C  
HETATM   20  C   UNL     1     -10.004   4.292  70.426  1.00  0.00    -0.213 C  
HETATM   21  C   UNL     1     -10.412   5.733  70.573  1.00  0.00    -0.331 A  
HETATM   22  C   UNL     1     -10.964   6.188  71.785  1.00  0.00    -0.315 A  
HETATM   23  C   UNL     1     -11.123   5.266  72.967  1.00  0.00    -0.377 C  
HETATM   24  C   UNL     1     -11.356   7.535  71.877  1.00  0.00    -0.260 A  
HETATM   25  C   UNL     1     -11.189   8.441  70.810  1.00  0.00    -0.290 A  
HETATM   26  O   UNL     1     -11.914   8.028  73.028  1.00  0.00    -0.626 OA 
HETATM   27  C   UNL     1     -11.625   9.876  70.963  1.00  0.00    -0.470 C  
HETATM   28  C   UNL     1     -10.598   7.986  69.609  1.00  0.00    -0.223 A  
HETATM   29  H   UNL     1     -12.179   8.939  73.090  1.00  0.00     0.000 HD 
HETATM   30  C   UNL     1     -10.195   6.636  69.511  1.00  0.00    -0.183 A  
HETATM   31  C   UNL     1     -10.361   8.900  68.431  1.00  0.00    -0.237 C  
HETATM   32  O   UNL     1      -9.556   6.270  68.340  1.00  0.00    -0.121 OA 
ENDBRANCH  16  17
ENDBRANCH  15  16
ENDBRANCH  13  15
ENDBRANCH  10  11
ENDBRANCH   9  10
ENDBRANCH   5   6
ENDBRANCH   4   5
TORSDOF 7
ENDMDL
MODEL      114
REMARK 921   NORMALIZED FREE ENERGY PREDICTED BY IDOCK:   -5.45 KCAL/MOL
REMARK 922        TOTAL FREE ENERGY PREDICTED BY IDOCK:   -9.43 KCAL/MOL
REMARK 923 INTER-LIGAND FREE ENERGY PREDICTED BY IDOCK:   -7.62 KCAL/MOL
REMARK 924 INTRA-LIGAND FREE ENERGY PREDICTED BY IDOCK:   -1.81 KCAL/MOL
REMARK 927      BINDING AFFINITY PREDICTED BY RF-SCORE:    0.00 PKD
ROOT
HETATM    1  C   UNL     1      -7.337  17.379  66.098  1.00  0.00    -0.331 C  
HETATM    2  C   UNL     1      -8.600  16.958  66.846  1.00  0.00    -0.241 C  
HETATM    3  C   UNL     1      -9.413  18.199  67.228  1.00  0.00    -0.260 C  
HETATM    4  C   UNL     1      -9.403  15.956  65.993  1.00  0.00    -0.385 C  
ENDROOT
BRANCH   4   5
HETATM    5  C   UNL     1     -10.673  15.493  66.700  1.00  0.00    -0.306 C  
BRANCH   5   6
HETATM    6  C   UNL     1     -10.398  14.499  67.825  1.00  0.00    -0.237 C  
HETATM    7  C   UNL     1     -11.555  13.493  67.997  1.00  0.00    -0.372 C  
HETATM    8  C   UNL     1     -11.801  12.677  66.719  1.00  0.00    -0.440 C  
HETATM    9  C   UNL     1     -11.267  12.583  69.206  1.00  0.00    -0.256 C  
BRANCH   9  10
HETATM   10  C   UNL     1     -12.383  11.564  69.425  1.00  0.00    -0.157 C  
BRANCH  10  11
HETATM   11  C   UNL     1     -11.854  10.220  69.899  1.00  0.00    -0.267 C  
HETATM   12  C   UNL     1     -11.931  10.087  71.434  1.00  0.00    -0.470 C  
HETATM   13  C   UNL     1     -11.283   8.779  71.911  1.00  0.00    -0.438 C  
HETATM   14  C   UNL     1     -13.372  10.144  71.954  1.00  0.00    -0.505 C  
BRANCH  13  15
HETATM   15  C   UNL     1      -9.822   8.593  71.502  1.00  0.00    -0.342 C  
BRANCH  15  16
HETATM   16  C   UNL     1      -9.436   7.147  71.135  1.00  0.00    -0.157 C  
BRANCH  16  17
HETATM   17  C   UNL     1      -9.501   6.854  69.610  1.00  0.00    -0.147 C  
HETATM   18  C   UNL     1     -10.962   6.533  69.225  1.00  0.00    -0.389 C  
HETATM   19  C   UNL     1      -8.498   5.749  69.278  1.00  0.00    -0.108 C  
HETATM   20  C   UNL     1      -8.527   5.432  67.802  1.00  0.00    -0.105 C  
HETATM   21  C   UNL     1      -8.605   6.673  66.955  1.00  0.00    -0.113 A  
HETATM   22  C   UNL     1      -8.478   6.580  65.557  1.00  0.00    -0.139 A  
HETATM   23  C   UNL     1      -8.303   5.247  64.874  1.00  0.00    -0.144 C  
HETATM   24  C   UNL     1      -8.531   7.763  64.800  1.00  0.00     0.031 A  
HETATM   25  C   UNL     1      -8.733   9.026  65.393  1.00  0.00    -0.221 A  
HETATM   26  O   UNL     1      -8.398   7.733  63.436  1.00  0.00    -0.358 OA 
HETATM   27  C   UNL     1      -8.784  10.264  64.534  1.00  0.00    -0.205 C  
HETATM   28  C   UNL     1      -8.898   9.108  66.795  1.00  0.00    -0.143 A  
HETATM   29  H   UNL     1      -8.434   8.533  62.924  1.00  0.00     0.000 HD 
HETATM   30  C   UNL     1      -8.853   7.923  67.561  1.00  0.00    -0.128 A  
HETATM   31  C   UNL     1      -9.145  10.418  67.501  1.00  0.00    -0.142 C  
HETATM   32  O   UNL     1      -9.096   8.059  68.916  1.00  0.00    -0.144 OA 
ENDBRANCH  16  17
ENDBRANCH  15  16
ENDBRANCH  13  15
ENDBRANCH  10  11
ENDBRANCH   9  10
ENDBRANCH   5   6
ENDBRANCH   4   5
TORSDOF 7
ENDMDL
MODEL      115
REMARK 921   NORMALIZED FREE ENERGY PREDICTED BY IDOCK:   -5.41 KCAL/MOL
REMARK 922        TOTAL FREE ENERGY PREDICTED BY IDOCK:   -9.38 KCAL/MOL
REMARK 923 INTER-LIGAND FREE ENERGY PREDICTED BY IDOCK:   -9.00 KCAL/MOL
REMARK 924 INTRA-LIGAND FREE ENERGY PREDICTED BY IDOCK:   -0.38 KCAL/MOL
REMARK 927      BINDING AFFINITY PREDICTED BY RF-SCORE:    0.00 PKD
ROOT
HETATM    1  C   UNL     1      -5.379  19.517  64.061  1.00  0.00    -0.272 C  
HETATM    2  C   UNL     1      -6.037  19.529  65.439  1.00  0.00    -0.255 C  
HETATM    3  C   UNL     1      -5.201  20.377  66.403  1.00  0.00    -0.185 C  
HETATM    4  C   UNL     1      -7.493  20.021  65.318  1.00  0.00     0.008 C  
ENDROOT
BRANCH   4   5
HETATM    5  C   UNL     1      -8.203  20.043  66.669  1.00  0.00    -0.355 C  
BRANCH   5   6
HETATM    6  C   UNL     1      -9.231  18.925  66.818  1.00  0.00    -0.335 C  
HETATM    7  C   UNL     1      -9.404  18.498  68.290  1.00  0.00    -0.350 C  
HETATM    8  C   UNL     1      -9.868  19.665  69.175  1.00  0.00    -0.408 C  
HETATM    9  C   UNL     1     -10.376  17.306  68.367  1.00  0.00    -0.366 C  
BRANCH   9  10
HETATM   10  C   UNL     1     -10.585  16.839  69.806  1.00  0.00    -0.174 C  
BRANCH  10  11
HETATM   11  C   UNL     1     -11.563  15.678  69.900  1.00  0.00    -0.354 C  
HETATM   12  C   UNL     1     -11.458  14.955  71.259  1.00  0.00    -0.322 C  
HETATM   13  C   UNL     1     -12.361  13.712  71.296  1.00  0.00    -0.359 C  
HETATM   14  C   UNL     1     -11.822  15.868  72.436  1.00  0.00    -0.618 C  
BRANCH  13  15
HETATM   15  C   UNL     1     -12.092  12.681  70.201  1.00  0.00    -0.368 C  
BRANCH  15  16
HETATM   16  C   UNL     1     -12.154  13.237  68.766  1.00  0.00    -0.254 C  
BRANCH  16  17
HETATM   17  C   UNL     1     -11.164  12.545  67.787  1.00  0.00    -0.269 C  
HETATM   18  C   UNL     1      -9.743  13.090  68.046  1.00  0.00    -0.224 C  
HETATM   19  C   UNL     1     -11.670  12.739  66.357  1.00  0.00    -0.464 C  
HETATM   20  C   UNL     1     -10.737  12.079  65.370  1.00  0.00    -0.330 C  
HETATM   21  C   UNL     1     -10.275  10.727  65.841  1.00  0.00    -0.319 A  
HETATM   22  C   UNL     1      -9.531   9.899  64.980  1.00  0.00    -0.343 A  
HETATM   23  C   UNL     1      -9.148  10.354  63.594  1.00  0.00    -0.277 C  
HETATM   24  C   UNL     1      -9.137   8.632  65.445  1.00  0.00    -0.090 A  
HETATM   25  C   UNL     1      -9.439   8.182  66.746  1.00  0.00    -0.256 A  
HETATM   26  O   UNL     1      -8.425   7.778  64.643  1.00  0.00    -0.350 OA 
HETATM   27  C   UNL     1      -8.990   6.816  67.196  1.00  0.00    -0.116 C  
HETATM   28  C   UNL     1     -10.153   9.035  67.619  1.00  0.00    -0.271 A  
HETATM   29  H   UNL     1      -8.158   6.922  64.958  1.00  0.00     0.000 HD 
HETATM   30  C   UNL     1     -10.546  10.312  67.162  1.00  0.00    -0.260 A  
HETATM   31  C   UNL     1     -10.492   8.638  69.035  1.00  0.00    -0.216 C  
HETATM   32  O   UNL     1     -11.175  11.128  68.085  1.00  0.00    -0.244 OA 
ENDBRANCH  16  17
ENDBRANCH  15  16
ENDBRANCH  13  15
ENDBRANCH  10  11
ENDBRANCH   9  10
ENDBRANCH   5   6
ENDBRANCH   4   5
TORSDOF 7
ENDMDL
MODEL      116
REMARK 921   NORMALIZED FREE ENERGY PREDICTED BY IDOCK:   -5.39 KCAL/MOL
REMARK 922        TOTAL FREE ENERGY PREDICTED BY IDOCK:   -9.35 KCAL/MOL
REMARK 923 INTER-LIGAND FREE ENERGY PREDICTED BY IDOCK:   -7.76 KCAL/MOL
REMARK 924 INTRA-LIGAND FREE ENERGY PREDICTED BY IDOCK:   -1.59 KCAL/MOL
REMARK 927      BINDING AFFINITY PREDICTED BY RF-SCORE:    0.00 PKD
ROOT
HETATM    1  C   UNL     1      -7.450   3.434  64.845  1.00  0.00    -0.073 C  
HETATM    2  C   UNL     1      -8.548   3.829  65.830  1.00  0.00    -0.112 C  
HETATM    3  C   UNL     1      -7.995   3.805  67.258  1.00  0.00    -0.091 C  
HETATM    4  C   UNL     1      -9.132   5.201  65.437  1.00  0.00    -0.145 C  
ENDROOT
BRANCH   4   5
HETATM    5  C   UNL     1     -10.244   5.641  66.385  1.00  0.00    -0.220 C  
BRANCH   5   6
HETATM    6  C   UNL     1     -10.017   7.038  66.957  1.00  0.00    -0.273 C  
HETATM    7  C   UNL     1     -10.854   7.277  68.231  1.00  0.00    -0.114 C  
HETATM    8  C   UNL     1     -10.514   6.270  69.340  1.00  0.00    -0.298 C  
HETATM    9  C   UNL     1     -10.660   8.730  68.706  1.00  0.00    -0.174 C  
BRANCH   9  10
HETATM   10  C   UNL     1     -11.468   9.025  69.967  1.00  0.00    -0.005 C  
BRANCH  10  11
HETATM   11  C   UNL     1     -11.389  10.488  70.375  1.00  0.00    -0.411 C  
HETATM   12  C   UNL     1     -12.710  10.976  71.004  1.00  0.00    -0.485 C  
HETATM   13  C   UNL     1     -12.661  12.482  71.300  1.00  0.00    -0.350 C  
HETATM   14  C   UNL     1     -13.051  10.228  72.299  1.00  0.00    -0.315 C  
BRANCH  13  15
HETATM   15  C   UNL     1     -12.369  13.371  70.091  1.00  0.00    -0.322 C  
BRANCH  15  16
HETATM   16  C   UNL     1     -10.927  13.280  69.559  1.00  0.00     0.009 C  
BRANCH  16  17
HETATM   17  C   UNL     1     -10.838  13.178  68.011  1.00  0.00    -0.242 C  
HETATM   18  C   UNL     1     -10.054  14.396  67.474  1.00  0.00    -0.232 C  
HETATM   19  C   UNL     1     -12.251  13.030  67.445  1.00  0.00    -0.155 C  
HETATM   20  C   UNL     1     -12.211  12.926  65.940  1.00  0.00    -0.469 C  
HETATM   21  C   UNL     1     -11.099  12.034  65.460  1.00  0.00    -0.361 A  
HETATM   22  C   UNL     1     -11.010  11.690  64.098  1.00  0.00    -0.442 A  
HETATM   23  C   UNL     1     -11.990  12.232  63.089  1.00  0.00    -0.342 C  
HETATM   24  C   UNL     1      -9.972  10.835  63.690  1.00  0.00    -0.345 A  
HETATM   25  C   UNL     1      -9.010  10.337  64.593  1.00  0.00    -0.240 A  
HETATM   26  O   UNL     1      -9.846  10.455  62.379  1.00  0.00    -0.687 OA 
HETATM   27  C   UNL     1      -7.915   9.424  64.103  1.00  0.00    -0.134 C  
HETATM   28  C   UNL     1      -9.083  10.716  65.953  1.00  0.00    -0.201 A  
HETATM   29  H   UNL     1      -9.144   9.877  62.104  1.00  0.00     0.000 HD 
HETATM   30  C   UNL     1     -10.119  11.581  66.369  1.00  0.00    -0.216 A  
HETATM   31  C   UNL     1      -8.077  10.247  66.976  1.00  0.00    -0.121 C  
HETATM   32  O   UNL     1     -10.093  11.976  67.694  1.00  0.00    -0.192 OA 
ENDBRANCH  16  17
ENDBRANCH  15  16
ENDBRANCH  13  15
ENDBRANCH  10  11
ENDBRANCH   9  10
ENDBRANCH   5   6
ENDBRANCH   4   5
TORSDOF 7
ENDMDL
MODEL      117
REMARK 921   NORMALIZED FREE ENERGY PREDICTED BY IDOCK:   -5.38 KCAL/MOL
REMARK 922        TOTAL FREE ENERGY PREDICTED BY IDOCK:   -9.34 KCAL/MOL
REMARK 923 INTER-LIGAND FREE ENERGY PREDICTED BY IDOCK:   -7.86 KCAL/MOL
REMARK 924 INTRA-LIGAND FREE ENERGY PREDICTED BY IDOCK:   -1.48 KCAL/MOL
REMARK 927      BINDING AFFINITY PREDICTED BY RF-SCORE:    0.00 PKD
ROOT
HETATM    1  C   UNL     1      -9.633   3.285  64.002  1.00  0.00    -0.141 C  
HETATM    2  C   UNL     1      -9.484   4.438  64.993  1.00  0.00    -0.169 C  
HETATM    3  C   UNL     1     -10.786   4.613  65.781  1.00  0.00    -0.195 C  
HETATM    4  C   UNL     1      -8.263   4.192  65.900  1.00  0.00    -0.109 C  
ENDROOT
BRANCH   4   5
HETATM    5  C   UNL     1      -8.061   5.322  66.905  1.00  0.00    -0.104 C  
BRANCH   5   6
HETATM    6  C   UNL     1      -7.595   4.826  68.271  1.00  0.00    -0.077 C  
HETATM    7  C   UNL     1      -8.469   5.386  69.413  1.00  0.00    -0.099 C  
HETATM    8  C   UNL     1      -9.943   4.982  69.260  1.00  0.00    -0.277 C  
HETATM    9  C   UNL     1      -7.894   4.932  70.768  1.00  0.00    -0.078 C  
BRANCH   9  10
HETATM   10  C   UNL     1      -8.721   5.460  71.938  1.00  0.00    -0.136 C  
BRANCH  10  11
HETATM   11  C   UNL     1      -9.131   6.912  71.747  1.00  0.00    -0.138 C  
HETATM   12  C   UNL     1     -10.573   7.165  72.232  1.00  0.00    -0.244 C  
HETATM   13  C   UNL     1     -11.019   8.602  71.923  1.00  0.00    -0.412 C  
HETATM   14  C   UNL     1     -10.737   6.908  73.735  1.00  0.00    -0.231 C  
BRANCH  13  15
HETATM   15  C   UNL     1     -10.951   8.999  70.448  1.00  0.00    -0.283 C  
BRANCH  15  16
HETATM   16  C   UNL     1      -9.746   9.883  70.075  1.00  0.00    -0.274 C  
BRANCH  16  17
HETATM   17  C   UNL     1     -10.034  10.868  68.908  1.00  0.00    -0.196 C  
HETATM   18  C   UNL     1      -8.997  12.012  68.953  1.00  0.00     0.200 C  
HETATM   19  C   UNL     1     -11.490  11.324  68.995  1.00  0.00    -0.369 C  
HETATM   20  C   UNL     1     -11.814  12.283  67.875  1.00  0.00    -0.358 C  
HETATM   21  C   UNL     1     -11.229  11.842  66.561  1.00  0.00    -0.383 A  
HETATM   22  C   UNL     1     -11.563  12.525  65.377  1.00  0.00    -0.416 A  
HETATM   23  C   UNL     1     -12.473  13.727  65.398  1.00  0.00    -0.532 C  
HETATM   24  C   UNL     1     -11.017  12.070  64.165  1.00  0.00    -0.360 A  
HETATM   25  C   UNL     1     -10.130  10.975  64.104  1.00  0.00    -0.403 A  
HETATM   26  O   UNL     1     -11.320  12.689  62.979  1.00  0.00    -0.753 OA 
HETATM   27  C   UNL     1      -9.571  10.529  62.777  1.00  0.00    -0.323 C  
HETATM   28  C   UNL     1      -9.769  10.317  65.302  1.00  0.00    -0.354 A  
HETATM   29  H   UNL     1     -10.950  12.381  62.160  1.00  0.00     0.000 HD 
HETATM   30  C   UNL     1     -10.308  10.773  66.525  1.00  0.00    -0.244 A  
HETATM   31  C   UNL     1      -8.806   9.155  65.324  1.00  0.00    -0.240 C  
HETATM   32  O   UNL     1      -9.859  10.138  67.668  1.00  0.00    -0.164 OA 
ENDBRANCH  16  17
ENDBRANCH  15  16
ENDBRANCH  13  15
ENDBRANCH  10  11
ENDBRANCH   9  10
ENDBRANCH   5   6
ENDBRANCH   4   5
TORSDOF 7
ENDMDL
MODEL      118
REMARK 921   NORMALIZED FREE ENERGY PREDICTED BY IDOCK:   -5.38 KCAL/MOL
REMARK 922        TOTAL FREE ENERGY PREDICTED BY IDOCK:   -9.34 KCAL/MOL
REMARK 923 INTER-LIGAND FREE ENERGY PREDICTED BY IDOCK:   -8.41 KCAL/MOL
REMARK 924 INTRA-LIGAND FREE ENERGY PREDICTED BY IDOCK:   -0.93 KCAL/MOL
REMARK 927      BINDING AFFINITY PREDICTED BY RF-SCORE:    0.00 PKD
ROOT
HETATM    1  C   UNL     1     -10.825   6.391  67.984  1.00  0.00    -0.396 C  
HETATM    2  C   UNL     1     -10.067   7.338  67.056  1.00  0.00    -0.316 C  
HETATM    3  C   UNL     1     -10.379   8.790  67.431  1.00  0.00    -0.349 C  
HETATM    4  C   UNL     1      -8.559   7.018  67.104  1.00  0.00    -0.121 C  
ENDROOT
BRANCH   4   5
HETATM    5  C   UNL     1      -7.752   7.930  66.185  1.00  0.00    -0.091 C  
BRANCH   5   6
HETATM    6  C   UNL     1      -8.474   8.245  64.877  1.00  0.00    -0.115 C  
HETATM    7  C   UNL     1      -8.575   9.764  64.630  1.00  0.00    -0.199 C  
HETATM    8  C   UNL     1      -7.192  10.428  64.557  1.00  0.00    -0.008 C  
HETATM    9  C   UNL     1      -9.395  10.021  63.351  1.00  0.00    -0.300 C  
BRANCH   9  10
HETATM   10  C   UNL     1      -9.529  11.513  63.056  1.00  0.00    -0.346 C  
BRANCH  10  11
HETATM   11  C   UNL     1     -10.252  12.259  64.167  1.00  0.00    -0.376 C  
HETATM   12  C   UNL     1     -11.622  12.791  63.698  1.00  0.00    -0.572 C  
HETATM   13  C   UNL     1     -12.288  13.645  64.788  1.00  0.00    -0.429 C  
HETATM   14  C   UNL     1     -12.580  11.662  63.298  1.00  0.00    -0.237 C  
BRANCH  13  15
HETATM   15  C   UNL     1     -11.466  14.842  65.266  1.00  0.00    -0.352 C  
BRANCH  15  16
HETATM   16  C   UNL     1     -10.991  14.752  66.728  1.00  0.00    -0.327 C  
BRANCH  16  17
HETATM   17  C   UNL     1     -10.422  16.088  67.282  1.00  0.00    -0.308 C  
HETATM   18  C   UNL     1     -11.251  16.512  68.513  1.00  0.00    -0.296 C  
HETATM   19  C   UNL     1     -10.390  17.116  66.150  1.00  0.00    -0.327 C  
HETATM   20  C   UNL     1      -9.840  18.432  66.645  1.00  0.00    -0.362 C  
HETATM   21  C   UNL     1      -8.649  18.250  67.545  1.00  0.00    -0.253 A  
HETATM   22  C   UNL     1      -7.908  19.369  67.969  1.00  0.00    -0.337 A  
HETATM   23  C   UNL     1      -8.307  20.767  67.570  1.00  0.00    -0.180 C  
HETATM   24  C   UNL     1      -6.787  19.158  68.789  1.00  0.00    -0.307 A  
HETATM   25  C   UNL     1      -6.401  17.871  69.218  1.00  0.00    -0.244 A  
HETATM   26  O   UNL     1      -6.020  20.210  69.219  1.00  0.00    -0.272 OA 
HETATM   27  C   UNL     1      -5.191  17.701  70.100  1.00  0.00    -0.222 C  
HETATM   28  C   UNL     1      -7.172  16.755  68.820  1.00  0.00    -0.217 A  
HETATM   29  H   UNL     1      -5.262  20.067  69.774  1.00  0.00     0.000 HD 
HETATM   30  C   UNL     1      -8.304  16.960  68.002  1.00  0.00    -0.204 A  
HETATM   31  C   UNL     1      -6.840  15.349  69.258  1.00  0.00    -0.157 C  
HETATM   32  O   UNL     1      -9.060  15.839  67.708  1.00  0.00    -0.187 OA 
ENDBRANCH  16  17
ENDBRANCH  15  16
ENDBRANCH  13  15
ENDBRANCH  10  11
ENDBRANCH   9  10
ENDBRANCH   5   6
ENDBRANCH   4   5
TORSDOF 7
ENDMDL
MODEL      119
REMARK 921   NORMALIZED FREE ENERGY PREDICTED BY IDOCK:   -5.37 KCAL/MOL
REMARK 922        TOTAL FREE ENERGY PREDICTED BY IDOCK:   -9.32 KCAL/MOL
REMARK 923 INTER-LIGAND FREE ENERGY PREDICTED BY IDOCK:   -8.76 KCAL/MOL
REMARK 924 INTRA-LIGAND FREE ENERGY PREDICTED BY IDOCK:   -0.56 KCAL/MOL
REMARK 927      BINDING AFFINITY PREDICTED BY RF-SCORE:    0.00 PKD
ROOT
HETATM    1  C   UNL     1      -9.439  20.304  66.302  1.00  0.00    -0.387 C  
HETATM    2  C   UNL     1      -8.537  19.197  66.843  1.00  0.00    -0.315 C  
HETATM    3  C   UNL     1      -7.847  19.673  68.125  1.00  0.00    -0.346 C  
HETATM    4  C   UNL     1      -9.358  17.909  67.049  1.00  0.00    -0.267 C  
ENDROOT
BRANCH   4   5
HETATM    5  C   UNL     1      -8.502  16.764  67.581  1.00  0.00    -0.197 C  
BRANCH   5   6
HETATM    6  C   UNL     1      -8.974  16.250  68.938  1.00  0.00    -0.248 C  
HETATM    7  C   UNL     1     -10.486  15.943  68.940  1.00  0.00    -0.233 C  
HETATM    8  C   UNL     1     -10.858  14.879  67.896  1.00  0.00    -0.276 C  
HETATM    9  C   UNL     1     -10.921  15.524  70.357  1.00  0.00    -0.360 C  
BRANCH   9  10
HETATM   10  C   UNL     1     -12.414  15.208  70.419  1.00  0.00    -0.416 C  
BRANCH  10  11
HETATM   11  C   UNL     1     -12.700  13.726  70.232  1.00  0.00    -0.208 C  
HETATM   12  C   UNL     1     -12.725  12.976  71.579  1.00  0.00    -0.349 C  
HETATM   13  C   UNL     1     -12.892  11.463  71.370  1.00  0.00    -0.502 C  
HETATM   14  C   UNL     1     -13.843  13.475  72.503  1.00  0.00    -0.624 C  
BRANCH  13  15
HETATM   15  C   UNL     1     -11.823  10.808  70.496  1.00  0.00    -0.453 C  
BRANCH  15  16
HETATM   16  C   UNL     1     -11.949  11.110  68.991  1.00  0.00    -0.389 C  
BRANCH  16  17
HETATM   17  C   UNL     1     -10.772  10.551  68.143  1.00  0.00    -0.233 C  
HETATM   18  C   UNL     1      -9.454  10.758  68.921  1.00  0.00    -0.190 C  
HETATM   19  C   UNL     1     -10.806  11.206  66.762  1.00  0.00    -0.322 C  
HETATM   20  C   UNL     1      -9.678  10.689  65.902  1.00  0.00    -0.273 C  
HETATM   21  C   UNL     1      -9.493   9.202  66.039  1.00  0.00    -0.321 A  
HETATM   22  C   UNL     1      -8.597   8.524  65.192  1.00  0.00    -0.179 A  
HETATM   23  C   UNL     1      -7.778   9.264  64.165  1.00  0.00    -0.120 C  
HETATM   24  C   UNL     1      -8.468   7.131  65.332  1.00  0.00    -0.082 A  
HETATM   25  C   UNL     1      -9.184   6.404  66.305  1.00  0.00    -0.162 A  
HETATM   26  O   UNL     1      -7.621   6.417  64.524  1.00  0.00    -0.086 OA 
HETATM   27  C   UNL     1      -9.007   4.912  66.415  1.00  0.00    -0.117 C  
HETATM   28  C   UNL     1     -10.054   7.098  67.178  1.00  0.00    -0.293 A  
HETATM   29  H   UNL     1      -7.535   5.476  64.619  1.00  0.00     0.000 HD 
HETATM   30  C   UNL     1     -10.183   8.498  67.048  1.00  0.00    -0.301 A  
HETATM   31  C   UNL     1     -10.835   6.396  68.262  1.00  0.00    -0.384 C  
HETATM   32  O   UNL     1     -10.990   9.128  67.978  1.00  0.00    -0.125 OA 
ENDBRANCH  16  17
ENDBRANCH  15  16
ENDBRANCH  13  15
ENDBRANCH  10  11
ENDBRANCH   9  10
ENDBRANCH   5   6
ENDBRANCH   4   5
TORSDOF 7
ENDMDL
MODEL      120
REMARK 921   NORMALIZED FREE ENERGY PREDICTED BY IDOCK:   -5.36 KCAL/MOL
REMARK 922        TOTAL FREE ENERGY PREDICTED BY IDOCK:   -9.31 KCAL/MOL
REMARK 923 INTER-LIGAND FREE ENERGY PREDICTED BY IDOCK:   -8.24 KCAL/MOL
REMARK 924 INTRA-LIGAND FREE ENERGY PREDICTED BY IDOCK:   -1.06 KCAL/MOL
REMARK 927      BINDING AFFINITY PREDICTED BY RF-SCORE:    0.00 PKD
ROOT
HETATM    1  C   UNL     1     -14.016   8.899  72.101  1.00  0.00    -0.520 C  
HETATM    2  C   UNL     1     -12.671   8.315  71.671  1.00  0.00    -0.351 C  
HETATM    3  C   UNL     1     -11.895   9.352  70.853  1.00  0.00    -0.365 C  
HETATM    4  C   UNL     1     -11.894   7.828  72.910  1.00  0.00    -0.152 C  
ENDROOT
BRANCH   4   5
HETATM    5  C   UNL     1     -10.544   7.224  72.537  1.00  0.00    -0.285 C  
BRANCH   5   6
HETATM    6  C   UNL     1      -9.418   8.255  72.517  1.00  0.00    -0.356 C  
HETATM    7  C   UNL     1      -8.232   7.791  71.646  1.00  0.00    -0.121 C  
HETATM    8  C   UNL     1      -8.650   7.546  70.189  1.00  0.00    -0.141 C  
HETATM    9  C   UNL     1      -7.091   8.822  71.743  1.00  0.00    -0.077 C  
BRANCH   9  10
HETATM   10  C   UNL     1      -5.886   8.412  70.899  1.00  0.00    -0.033 C  
BRANCH  10  11
HETATM   11  C   UNL     1      -5.686   9.323  69.699  1.00  0.00    -0.033 C  
HETATM   12  C   UNL     1      -6.109  10.774  70.007  1.00  0.00    -0.107 C  
HETATM   13  C   UNL     1      -6.018  11.658  68.754  1.00  0.00    -0.048 C  
HETATM   14  C   UNL     1      -5.264  11.404  71.121  1.00  0.00    -0.096 C  
BRANCH  13  15
HETATM   15  C   UNL     1      -6.844  11.178  67.561  1.00  0.00    -0.086 C  
BRANCH  15  16
HETATM   16  C   UNL     1      -8.258  10.680  67.916  1.00  0.00    -0.112 C  
BRANCH  16  17
HETATM   17  C   UNL     1      -9.389  11.409  67.138  1.00  0.00    -0.172 C  
HETATM   18  C   UNL     1     -10.694  11.327  67.959  1.00  0.00    -0.245 C  
HETATM   19  C   UNL     1      -9.482  10.814  65.733  1.00  0.00    -0.244 C  
HETATM   20  C   UNL     1     -10.570  11.496  64.939  1.00  0.00    -0.360 C  
HETATM   21  C   UNL     1     -10.571  12.987  65.139  1.00  0.00    -0.327 A  
HETATM   22  C   UNL     1     -11.408  13.802  64.355  1.00  0.00    -0.375 A  
HETATM   23  C   UNL     1     -12.346  13.208  63.334  1.00  0.00    -0.443 C  
HETATM   24  C   UNL     1     -11.365  15.193  64.552  1.00  0.00    -0.290 A  
HETATM   25  C   UNL     1     -10.533  15.789  65.523  1.00  0.00    -0.425 A  
HETATM   26  O   UNL     1     -12.148  16.036  63.806  1.00  0.00    -1.318 OA 
HETATM   27  C   UNL     1     -10.526  17.286  65.695  1.00  0.00    -0.191 C  
HETATM   28  C   UNL     1      -9.722  14.961  66.333  1.00  0.00    -0.306 A  
HETATM   29  H   UNL     1     -12.118  16.976  63.940  1.00  0.00     0.000 HD 
HETATM   30  C   UNL     1      -9.766  13.562  66.145  1.00  0.00    -0.252 A  
HETATM   31  C   UNL     1      -8.825  15.519  67.411  1.00  0.00    -0.203 C  
HETATM   32  O   UNL     1      -9.008  12.802  67.018  1.00  0.00    -0.208 OA 
ENDBRANCH  16  17
ENDBRANCH  15  16
ENDBRANCH  13  15
ENDBRANCH  10  11
ENDBRANCH   9  10
ENDBRANCH   5   6
ENDBRANCH   4   5
TORSDOF 7
ENDMDL
MODEL      121
REMARK 921   NORMALIZED FREE ENERGY PREDICTED BY IDOCK:   -5.35 KCAL/MOL
REMARK 922        TOTAL FREE ENERGY PREDICTED BY IDOCK:   -9.30 KCAL/MOL
REMARK 923 INTER-LIGAND FREE ENERGY PREDICTED BY IDOCK:   -7.74 KCAL/MOL
REMARK 924 INTRA-LIGAND FREE ENERGY PREDICTED BY IDOCK:   -1.56 KCAL/MOL
REMARK 927      BINDING AFFINITY PREDICTED BY RF-SCORE:    0.00 PKD
ROOT
HETATM    1  C   UNL     1      -8.469   2.219  66.836  1.00  0.00    -0.102 C  
HETATM    2  C   UNL     1      -9.411   3.345  67.258  1.00  0.00    -0.237 C  
HETATM    3  C   UNL     1      -9.235   3.634  68.752  1.00  0.00    -0.222 C  
HETATM    4  C   UNL     1      -9.167   4.586  66.376  1.00  0.00    -0.137 C  
ENDROOT
BRANCH   4   5
HETATM    5  C   UNL     1     -10.091   5.742  66.748  1.00  0.00    -0.235 C  
BRANCH   5   6
HETATM    6  C   UNL     1      -9.500   7.107  66.406  1.00  0.00    -0.177 C  
HETATM    7  C   UNL     1      -9.320   7.984  67.663  1.00  0.00    -0.162 C  
HETATM    8  C   UNL     1      -8.387   7.329  68.692  1.00  0.00    -0.125 C  
HETATM    9  C   UNL     1      -8.816   9.379  67.246  1.00  0.00    -0.136 C  
BRANCH   9  10
HETATM   10  C   UNL     1      -8.620  10.293  68.453  1.00  0.00    -0.125 C  
BRANCH  10  11
HETATM   11  C   UNL     1      -9.574  11.477  68.441  1.00  0.00    -0.195 C  
HETATM   12  C   UNL     1     -11.047  11.023  68.507  1.00  0.00    -0.297 C  
HETATM   13  C   UNL     1     -12.002  12.218  68.371  1.00  0.00    -0.266 C  
HETATM   14  C   UNL     1     -11.369  10.275  69.806  1.00  0.00    -0.334 C  
BRANCH  13  15
HETATM   15  C   UNL     1     -11.829  13.045  67.097  1.00  0.00    -0.431 C  
BRANCH  15  16
HETATM   16  C   UNL     1     -11.863  14.570  67.312  1.00  0.00    -0.419 C  
BRANCH  16  17
HETATM   17  C   UNL     1     -10.457  15.202  67.515  1.00  0.00    -0.258 C  
HETATM   18  C   UNL     1      -9.502  14.655  66.431  1.00  0.00    -0.325 C  
HETATM   19  C   UNL     1     -10.005  14.945  68.952  1.00  0.00    -0.233 C  
HETATM   20  C   UNL     1      -8.641  15.545  69.194  1.00  0.00    -0.246 C  
HETATM   21  C   UNL     1      -8.505  16.913  68.583  1.00  0.00    -0.260 A  
HETATM   22  C   UNL     1      -7.361  17.691  68.845  1.00  0.00    -0.239 A  
HETATM   23  C   UNL     1      -6.237  17.165  69.702  1.00  0.00    -0.235 C  
HETATM   24  C   UNL     1      -7.280  18.974  68.277  1.00  0.00    -0.276 A  
HETATM   25  C   UNL     1      -8.289  19.490  67.439  1.00  0.00    -0.330 A  
HETATM   26  O   UNL     1      -6.196  19.781  68.512  1.00  0.00    -0.241 OA 
HETATM   27  C   UNL     1      -8.151  20.872  66.853  1.00  0.00    -0.054 C  
HETATM   28  C   UNL     1      -9.417  18.689  67.149  1.00  0.00    -0.308 A  
HETATM   29  H   UNL     1      -6.141  20.648  68.127  1.00  0.00     0.000 HD 
HETATM   30  C   UNL     1      -9.503  17.396  67.710  1.00  0.00    -0.261 A  
HETATM   31  C   UNL     1     -10.526  19.158  66.240  1.00  0.00    -0.551 C  
HETATM   32  O   UNL     1     -10.591  16.633  67.329  1.00  0.00    -0.320 OA 
ENDBRANCH  16  17
ENDBRANCH  15  16
ENDBRANCH  13  15
ENDBRANCH  10  11
ENDBRANCH   9  10
ENDBRANCH   5   6
ENDBRANCH   4   5
TORSDOF 7
ENDMDL
MODEL      122
REMARK 921   NORMALIZED FREE ENERGY PREDICTED BY IDOCK:   -5.35 KCAL/MOL
REMARK 922        TOTAL FREE ENERGY PREDICTED BY IDOCK:   -9.29 KCAL/MOL
REMARK 923 INTER-LIGAND FREE ENERGY PREDICTED BY IDOCK:   -7.26 KCAL/MOL
REMARK 924 INTRA-LIGAND FREE ENERGY PREDICTED BY IDOCK:   -2.04 KCAL/MOL
REMARK 927      BINDING AFFINITY PREDICTED BY RF-SCORE:    0.00 PKD
ROOT
HETATM    1  C   UNL     1     -12.843  13.663  65.387  1.00  0.00    -0.440 C  
HETATM    2  C   UNL     1     -11.344  13.576  65.667  1.00  0.00    -0.312 C  
HETATM    3  C   UNL     1     -10.589  13.298  64.363  1.00  0.00    -0.438 C  
HETATM    4  C   UNL     1     -10.869  14.862  66.371  1.00  0.00    -0.325 C  
ENDROOT
BRANCH   4   5
HETATM    5  C   UNL     1      -9.376  14.824  66.685  1.00  0.00    -0.291 C  
BRANCH   5   6
HETATM    6  C   UNL     1      -9.007  13.731  67.684  1.00  0.00    -0.194 C  
HETATM    7  C   UNL     1      -7.512  13.360  67.600  1.00  0.00    -0.182 C  
HETATM    8  C   UNL     1      -6.604  14.565  67.888  1.00  0.00    -0.178 C  
HETATM    9  C   UNL     1      -7.221  12.189  68.558  1.00  0.00    -0.102 C  
BRANCH   9  10
HETATM   10  C   UNL     1      -5.751  11.776  68.516  1.00  0.00    -0.048 C  
BRANCH  10  11
HETATM   11  C   UNL     1      -5.570  10.327  68.093  1.00  0.00    -0.037 C  
HETATM   12  C   UNL     1      -6.071  10.086  66.654  1.00  0.00    -0.064 C  
HETATM   13  C   UNL     1      -5.996   8.598  66.282  1.00  0.00    -0.051 C  
HETATM   14  C   UNL     1      -5.283  10.897  65.618  1.00  0.00    -0.138 C  
BRANCH  13  15
HETATM   15  C   UNL     1      -6.772   7.659  67.205  1.00  0.00    -0.068 C  
BRANCH  15  16
HETATM   16  C   UNL     1      -8.177   7.279  66.702  1.00  0.00    -0.118 C  
BRANCH  16  17
HETATM   17  C   UNL     1      -9.318   7.676  67.681  1.00  0.00    -0.142 C  
HETATM   18  C   UNL     1     -10.675   7.306  67.044  1.00  0.00    -0.406 C  
HETATM   19  C   UNL     1      -9.165   9.154  68.041  1.00  0.00    -0.142 C  
HETATM   20  C   UNL     1     -10.254   9.583  68.995  1.00  0.00    -0.211 C  
HETATM   21  C   UNL     1     -10.509   8.558  70.066  1.00  0.00    -0.226 A  
HETATM   22  C   UNL     1     -11.374   8.856  71.135  1.00  0.00    -0.357 A  
HETATM   23  C   UNL     1     -12.092  10.180  71.214  1.00  0.00    -0.489 C  
HETATM   24  C   UNL     1     -11.569   7.883  72.131  1.00  0.00    -0.328 A  
HETATM   25  C   UNL     1     -10.949   6.618  72.076  1.00  0.00    -0.274 A  
HETATM   26  O   UNL     1     -12.389   8.126  73.202  1.00  0.00    -0.652 OA 
HETATM   27  C   UNL     1     -11.194   5.610  73.169  1.00  0.00    -0.285 C  
HETATM   28  C   UNL     1     -10.111   6.311  70.980  1.00  0.00    -0.221 A  
HETATM   29  H   UNL     1     -12.520   7.468  73.875  1.00  0.00     0.000 HD 
HETATM   30  C   UNL     1      -9.916   7.280  69.972  1.00  0.00    -0.184 A  
HETATM   31  C   UNL     1      -9.433   4.970  70.835  1.00  0.00    -0.222 C  
HETATM   32  O   UNL     1      -9.148   6.894  68.889  1.00  0.00    -0.135 OA 
ENDBRANCH  16  17
ENDBRANCH  15  16
ENDBRANCH  13  15
ENDBRANCH  10  11
ENDBRANCH   9  10
ENDBRANCH   5   6
ENDBRANCH   4   5
TORSDOF 7
ENDMDL
MODEL      123
REMARK 921   NORMALIZED FREE ENERGY PREDICTED BY IDOCK:   -5.34 KCAL/MOL
REMARK 922        TOTAL FREE ENERGY PREDICTED BY IDOCK:   -9.28 KCAL/MOL
REMARK 923 INTER-LIGAND FREE ENERGY PREDICTED BY IDOCK:   -8.46 KCAL/MOL
REMARK 924 INTRA-LIGAND FREE ENERGY PREDICTED BY IDOCK:   -0.82 KCAL/MOL
REMARK 927      BINDING AFFINITY PREDICTED BY RF-SCORE:    0.00 PKD
ROOT
HETATM    1  C   UNL     1      -9.330   5.200  68.318  1.00  0.00    -0.152 C  
HETATM    2  C   UNL     1     -10.191   6.275  68.977  1.00  0.00    -0.224 C  
HETATM    3  C   UNL     1     -11.058   6.965  67.919  1.00  0.00    -0.200 C  
HETATM    4  C   UNL     1     -11.021   5.652  70.117  1.00  0.00    -0.303 C  
ENDROOT
BRANCH   4   5
HETATM    5  C   UNL     1     -11.895   6.687  70.819  1.00  0.00    -0.441 C  
BRANCH   5   6
HETATM    6  C   UNL     1     -11.298   8.091  70.784  1.00  0.00    -0.282 C  
HETATM    7  C   UNL     1     -12.341   9.167  71.150  1.00  0.00    -0.330 C  
HETATM    8  C   UNL     1     -12.918   8.953  72.557  1.00  0.00    -0.415 C  
HETATM    9  C   UNL     1     -11.709  10.564  71.002  1.00  0.00    -0.384 C  
BRANCH   9  10
HETATM   10  C   UNL     1     -12.700  11.672  71.351  1.00  0.00    -0.445 C  
BRANCH  10  11
HETATM   11  C   UNL     1     -12.100  13.058  71.181  1.00  0.00     0.048 C  
HETATM   12  C   UNL     1     -13.139  14.067  70.649  1.00  0.00    -0.178 C  
HETATM   13  C   UNL     1     -12.493  15.432  70.365  1.00  0.00    -0.447 C  
HETATM   14  C   UNL     1     -14.310  14.265  71.619  1.00  0.00    -0.458 C  
BRANCH  13  15
HETATM   15  C   UNL     1     -11.327  15.404  69.377  1.00  0.00    -0.315 C  
BRANCH  15  16
HETATM   16  C   UNL     1     -11.672  14.829  67.991  1.00  0.00    -0.360 C  
BRANCH  16  17
HETATM   17  C   UNL     1     -10.965  13.480  67.682  1.00  0.00    -0.263 C  
HETATM   18  C   UNL     1     -11.881  12.321  68.132  1.00  0.00    -0.372 C  
HETATM   19  C   UNL     1      -9.582  13.489  68.333  1.00  0.00    -0.196 C  
HETATM   20  C   UNL     1      -8.857  12.194  68.056  1.00  0.00    -0.181 C  
HETATM   21  C   UNL     1      -9.027  11.740  66.632  1.00  0.00    -0.195 A  
HETATM   22  C   UNL     1      -8.291  10.641  66.150  1.00  0.00    -0.158 A  
HETATM   23  C   UNL     1      -7.354   9.874  67.047  1.00  0.00    -0.091 C  
HETATM   24  C   UNL     1      -8.459  10.260  64.807  1.00  0.00    -0.174 A  
HETATM   25  C   UNL     1      -9.354  10.924  63.944  1.00  0.00    -0.267 A  
HETATM   26  O   UNL     1      -7.756   9.207  64.281  1.00  0.00    -0.111 OA 
HETATM   27  C   UNL     1      -9.498  10.474  62.513  1.00  0.00    -0.288 C  
HETATM   28  C   UNL     1     -10.119  12.003  64.445  1.00  0.00    -0.298 A  
HETATM   29  H   UNL     1      -7.870   8.950  63.373  1.00  0.00     0.000 HD 
HETATM   30  C   UNL     1      -9.961  12.387  65.795  1.00  0.00    -0.254 A  
HETATM   31  C   UNL     1     -11.117  12.747  63.593  1.00  0.00    -0.443 C  
HETATM   32  O   UNL     1     -10.790  13.398  66.246  1.00  0.00    -0.286 OA 
ENDBRANCH  16  17
ENDBRANCH  15  16
ENDBRANCH  13  15
ENDBRANCH  10  11
ENDBRANCH   9  10
ENDBRANCH   5   6
ENDBRANCH   4   5
TORSDOF 7
ENDMDL
MODEL      124
REMARK 921   NORMALIZED FREE ENERGY PREDICTED BY IDOCK:   -5.31 KCAL/MOL
REMARK 922        TOTAL FREE ENERGY PREDICTED BY IDOCK:   -9.24 KCAL/MOL
REMARK 923 INTER-LIGAND FREE ENERGY PREDICTED BY IDOCK:   -8.00 KCAL/MOL
REMARK 924 INTRA-LIGAND FREE ENERGY PREDICTED BY IDOCK:   -1.24 KCAL/MOL
REMARK 927      BINDING AFFINITY PREDICTED BY RF-SCORE:    0.00 PKD
ROOT
HETATM    1  C   UNL     1      -9.833  15.976  67.242  1.00  0.00    -0.236 C  
HETATM    2  C   UNL     1     -11.100  15.479  67.933  1.00  0.00    -0.321 C  
HETATM    3  C   UNL     1     -11.812  14.459  67.039  1.00  0.00    -0.437 C  
HETATM    4  C   UNL     1     -10.748  14.913  69.324  1.00  0.00    -0.253 C  
ENDROOT
BRANCH   4   5
HETATM    5  C   UNL     1     -11.982  14.410  70.066  1.00  0.00    -0.394 C  
BRANCH   5   6
HETATM    6  C   UNL     1     -12.381  12.993  69.662  1.00  0.00    -0.104 C  
HETATM    7  C   UNL     1     -12.165  11.988  70.813  1.00  0.00    -0.382 C  
HETATM    8  C   UNL     1     -12.986  12.355  72.058  1.00  0.00    -0.376 C  
HETATM    9  C   UNL     1     -12.490  10.566  70.318  1.00  0.00    -0.345 C  
BRANCH   9  10
HETATM   10  C   UNL     1     -12.292   9.526  71.419  1.00  0.00    -0.451 C  
BRANCH  10  11
HETATM   11  C   UNL     1     -11.534   8.303  70.928  1.00  0.00    -0.296 C  
HETATM   12  C   UNL     1     -10.329   7.977  71.835  1.00  0.00    -0.284 C  
HETATM   13  C   UNL     1      -9.501   6.817  71.262  1.00  0.00    -0.166 C  
HETATM   14  C   UNL     1     -10.754   7.625  73.265  1.00  0.00    -0.409 C  
BRANCH  13  15
HETATM   15  C   UNL     1      -8.968   7.037  69.847  1.00  0.00    -0.142 C  
BRANCH  15  16
HETATM   16  C   UNL     1      -9.600   6.131  68.774  1.00  0.00    -0.137 C  
BRANCH  16  17
HETATM   17  C   UNL     1      -9.500   6.707  67.334  1.00  0.00    -0.129 C  
HETATM   18  C   UNL     1     -10.670   6.153  66.491  1.00  0.00    -0.207 C  
HETATM   19  C   UNL     1      -8.111   6.399  66.776  1.00  0.00    -0.109 C  
HETATM   20  C   UNL     1      -7.969   6.945  65.375  1.00  0.00    -0.125 C  
HETATM   21  C   UNL     1      -8.559   8.321  65.238  1.00  0.00    -0.159 A  
HETATM   22  C   UNL     1      -8.375   9.051  64.048  1.00  0.00    -0.180 A  
HETATM   23  C   UNL     1      -7.625   8.465  62.879  1.00  0.00    -0.119 C  
HETATM   24  C   UNL     1      -8.920  10.344  63.965  1.00  0.00    -0.228 A  
HETATM   25  C   UNL     1      -9.662  10.916  65.019  1.00  0.00    -0.319 A  
HETATM   26  O   UNL     1      -8.759  11.105  62.837  1.00  0.00    -0.397 OA 
HETATM   27  C   UNL     1     -10.227  12.306  64.877  1.00  0.00    -0.307 C  
HETATM   28  C   UNL     1      -9.876  10.162  66.196  1.00  0.00    -0.297 A  
HETATM   29  H   UNL     1      -9.128  11.979  62.781  1.00  0.00     0.000 HD 
HETATM   30  C   UNL     1      -9.337   8.860  66.285  1.00  0.00    -0.219 A  
HETATM   31  C   UNL     1     -10.680  10.693  67.357  1.00  0.00    -0.326 C  
HETATM   32  O   UNL     1      -9.644   8.146  67.429  1.00  0.00    -0.148 OA 
ENDBRANCH  16  17
ENDBRANCH  15  16
ENDBRANCH  13  15
ENDBRANCH  10  11
ENDBRANCH   9  10
ENDBRANCH   5   6
ENDBRANCH   4   5
TORSDOF 7
ENDMDL
MODEL      125
REMARK 921   NORMALIZED FREE ENERGY PREDICTED BY IDOCK:   -5.30 KCAL/MOL
REMARK 922        TOTAL FREE ENERGY PREDICTED BY IDOCK:   -9.22 KCAL/MOL
REMARK 923 INTER-LIGAND FREE ENERGY PREDICTED BY IDOCK:   -9.46 KCAL/MOL
REMARK 924 INTRA-LIGAND FREE ENERGY PREDICTED BY IDOCK:    0.24 KCAL/MOL
REMARK 927      BINDING AFFINITY PREDICTED BY RF-SCORE:    0.00 PKD
ROOT
HETATM    1  C   UNL     1      -9.073   2.192  67.347  1.00  0.00    -0.176 C  
HETATM    2  C   UNL     1      -8.473   3.335  66.531  1.00  0.00    -0.107 C  
HETATM    3  C   UNL     1      -9.071   3.333  65.121  1.00  0.00    -0.146 C  
HETATM    4  C   UNL     1      -8.686   4.671  67.269  1.00  0.00    -0.104 C  
ENDROOT
BRANCH   4   5
HETATM    5  C   UNL     1      -8.094   5.849  66.501  1.00  0.00    -0.102 C  
BRANCH   5   6
HETATM    6  C   UNL     1      -9.097   6.979  66.282  1.00  0.00    -0.178 C  
HETATM    7  C   UNL     1      -8.417   8.247  65.726  1.00  0.00    -0.164 C  
HETATM    8  C   UNL     1      -7.725   7.986  64.380  1.00  0.00    -0.130 C  
HETATM    9  C   UNL     1      -9.457   9.379  65.619  1.00  0.00    -0.328 C  
BRANCH   9  10
HETATM   10  C   UNL     1      -8.838  10.665  65.074  1.00  0.00    -0.212 C  
BRANCH  10  11
HETATM   11  C   UNL     1      -9.687  11.889  65.378  1.00  0.00    -0.228 C  
HETATM   12  C   UNL     1     -10.250  12.526  64.090  1.00  0.00    -0.376 C  
HETATM   13  C   UNL     1     -11.003  13.829  64.399  1.00  0.00    -0.356 C  
HETATM   14  C   UNL     1     -11.188  11.579  63.333  1.00  0.00    -0.342 C  
BRANCH  13  15
HETATM   15  C   UNL     1     -10.182  14.896  65.123  1.00  0.00    -0.409 C  
BRANCH  15  16
HETATM   16  C   UNL     1      -9.748  14.514  66.551  1.00  0.00    -0.301 C  
BRANCH  16  17
HETATM   17  C   UNL     1     -10.923  14.468  67.568  1.00  0.00    -0.293 C  
HETATM   18  C   UNL     1     -12.254  14.368  66.790  1.00  0.00    -0.319 C  
HETATM   19  C   UNL     1     -10.817  15.678  68.497  1.00  0.00    -0.282 C  
HETATM   20  C   UNL     1     -11.941  15.672  69.505  1.00  0.00    -0.363 C  
HETATM   21  C   UNL     1     -12.196  14.299  70.065  1.00  0.00    -0.417 A  
HETATM   22  C   UNL     1     -13.096  14.131  71.134  1.00  0.00    -0.398 A  
HETATM   23  C   UNL     1     -13.849  15.301  71.714  1.00  0.00    -0.622 C  
HETATM   24  C   UNL     1     -13.291  12.837  71.647  1.00  0.00    -0.254 A  
HETATM   25  C   UNL     1     -12.638  11.709  71.109  1.00  0.00    -0.439 A  
HETATM   26  O   UNL     1     -14.143  12.617  72.698  1.00  0.00    -0.624 OA 
HETATM   27  C   UNL     1     -12.884  10.342  71.695  1.00  0.00    -0.579 C  
HETATM   28  C   UNL     1     -11.764  11.880  70.010  1.00  0.00    -0.366 A  
HETATM   29  H   UNL     1     -14.275  11.742  73.044  1.00  0.00     0.000 HD 
HETATM   30  C   UNL     1     -11.569  13.176  69.485  1.00  0.00    -0.283 A  
HETATM   31  C   UNL     1     -11.049  10.720  69.362  1.00  0.00    -0.324 C  
HETATM   32  O   UNL     1     -10.764  13.268  68.364  1.00  0.00    -0.242 OA 
ENDBRANCH  16  17
ENDBRANCH  15  16
ENDBRANCH  13  15
ENDBRANCH  10  11
ENDBRANCH   9  10
ENDBRANCH   5   6
ENDBRANCH   4   5
TORSDOF 7
ENDMDL
MODEL      126
REMARK 921   NORMALIZED FREE ENERGY PREDICTED BY IDOCK:   -5.28 KCAL/MOL
REMARK 922        TOTAL FREE ENERGY PREDICTED BY IDOCK:   -9.20 KCAL/MOL
REMARK 923 INTER-LIGAND FREE ENERGY PREDICTED BY IDOCK:   -8.67 KCAL/MOL
REMARK 924 INTRA-LIGAND FREE ENERGY PREDICTED BY IDOCK:   -0.53 KCAL/MOL
REMARK 927      BINDING AFFINITY PREDICTED BY RF-SCORE:    0.00 PKD
ROOT
HETATM    1  C   UNL     1      -8.240  19.388  68.739  1.00  0.00    -0.382 C  
HETATM    2  C   UNL     1      -9.101  18.487  67.857  1.00  0.00    -0.306 C  
HETATM    3  C   UNL     1      -9.978  19.346  66.940  1.00  0.00    -0.470 C  
HETATM    4  C   UNL     1      -8.202  17.506  67.077  1.00  0.00    -0.240 C  
ENDROOT
BRANCH   4   5
HETATM    5  C   UNL     1      -9.015  16.573  66.185  1.00  0.00    -0.344 C  
BRANCH   5   6
HETATM    6  C   UNL     1      -8.913  15.110  66.607  1.00  0.00    -0.319 C  
HETATM    7  C   UNL     1     -10.234  14.350  66.365  1.00  0.00    -0.294 C  
HETATM    8  C   UNL     1     -10.644  14.369  64.885  1.00  0.00    -0.456 C  
HETATM    9  C   UNL     1     -10.102  12.911  66.899  1.00  0.00    -0.241 C  
BRANCH   9  10
HETATM   10  C   UNL     1     -11.385  12.110  66.686  1.00  0.00    -0.405 C  
BRANCH  10  11
HETATM   11  C   UNL     1     -11.909  11.505  67.978  1.00  0.00    -0.287 C  
HETATM   12  C   UNL     1     -11.528  12.361  69.204  1.00  0.00    -0.358 C  
HETATM   13  C   UNL     1     -11.956  11.679  70.512  1.00  0.00    -0.413 C  
HETATM   14  C   UNL     1     -12.146  13.764  69.151  1.00  0.00    -0.374 C  
BRANCH  13  15
HETATM   15  C   UNL     1     -11.385  10.278  70.730  1.00  0.00    -0.421 C  
BRANCH  15  16
HETATM   16  C   UNL     1     -10.120   9.965  69.909  1.00  0.00    -0.297 C  
BRANCH  16  17
HETATM   17  C   UNL     1      -9.691   8.472  69.971  1.00  0.00    -0.170 C  
HETATM   18  C   UNL     1      -8.149   8.396  69.998  1.00  0.00    -0.115 C  
HETATM   19  C   UNL     1     -10.346   7.724  68.810  1.00  0.00    -0.219 C  
HETATM   20  C   UNL     1      -9.957   6.265  68.833  1.00  0.00    -0.179 C  
HETATM   21  C   UNL     1      -9.981   5.691  70.223  1.00  0.00    -0.269 A  
HETATM   22  C   UNL     1      -9.805   4.308  70.417  1.00  0.00    -0.268 A  
HETATM   23  C   UNL     1      -9.549   3.382  69.255  1.00  0.00    -0.137 C  
HETATM   24  C   UNL     1      -9.858   3.804  71.728  1.00  0.00    -0.174 A  
HETATM   25  C   UNL     1     -10.055   4.639  72.847  1.00  0.00    -0.205 A  
HETATM   26  O   UNL     1      -9.708   2.464  71.974  1.00  0.00    -0.119 OA 
HETATM   27  C   UNL     1     -10.102   4.048  74.232  1.00  0.00    -0.219 C  
HETATM   28  C   UNL     1     -10.194   6.033  72.648  1.00  0.00    -0.205 A  
HETATM   29  H   UNL     1      -9.744   2.123  72.860  1.00  0.00     0.000 HD 
HETATM   30  C   UNL     1     -10.134   6.547  71.335  1.00  0.00    -0.191 A  
HETATM   31  C   UNL     1     -10.381   6.995  73.795  1.00  0.00    -0.408 C  
HETATM   32  O   UNL     1     -10.200   7.923  71.211  1.00  0.00    -0.186 OA 
ENDBRANCH  16  17
ENDBRANCH  15  16
ENDBRANCH  13  15
ENDBRANCH  10  11
ENDBRANCH   9  10
ENDBRANCH   5   6
ENDBRANCH   4   5
TORSDOF 7
ENDMDL
MODEL      127
REMARK 921   NORMALIZED FREE ENERGY PREDICTED BY IDOCK:   -5.26 KCAL/MOL
REMARK 922        TOTAL FREE ENERGY PREDICTED BY IDOCK:   -9.17 KCAL/MOL
REMARK 923 INTER-LIGAND FREE ENERGY PREDICTED BY IDOCK:   -8.18 KCAL/MOL
REMARK 924 INTRA-LIGAND FREE ENERGY PREDICTED BY IDOCK:   -0.99 KCAL/MOL
REMARK 927      BINDING AFFINITY PREDICTED BY RF-SCORE:    0.00 PKD
ROOT
HETATM    1  C   UNL     1     -10.463  20.089  68.280  1.00  0.00    -0.409 C  
HETATM    2  C   UNL     1      -9.222  19.822  67.431  1.00  0.00    -0.433 C  
HETATM    3  C   UNL     1      -9.622  19.681  65.959  1.00  0.00    -0.389 C  
HETATM    4  C   UNL     1      -8.182  20.936  67.664  1.00  0.00    -0.043 C  
ENDROOT
BRANCH   4   5
HETATM    5  C   UNL     1      -6.913  20.714  66.845  1.00  0.00    -0.357 C  
BRANCH   5   6
HETATM    6  C   UNL     1      -5.995  19.654  67.449  1.00  0.00    -0.197 C  
HETATM    7  C   UNL     1      -6.353  18.237  66.954  1.00  0.00    -0.198 C  
HETATM    8  C   UNL     1      -6.243  18.118  65.426  1.00  0.00    -0.205 C  
HETATM    9  C   UNL     1      -5.461  17.205  67.669  1.00  0.00    -0.134 C  
BRANCH   9  10
HETATM   10  C   UNL     1      -5.772  15.780  67.218  1.00  0.00     0.061 C  
BRANCH  10  11
HETATM   11  C   UNL     1      -7.228  15.406  67.448  1.00  0.00    -0.242 C  
HETATM   12  C   UNL     1      -7.369  14.287  68.501  1.00  0.00    -0.117 C  
HETATM   13  C   UNL     1      -8.830  13.833  68.636  1.00  0.00    -0.047 C  
HETATM   14  C   UNL     1      -6.853  14.715  69.880  1.00  0.00    -0.136 C  
BRANCH  13  15
HETATM   15  C   UNL     1      -9.477  13.337  67.344  1.00  0.00    -0.218 C  
BRANCH  15  16
HETATM   16  C   UNL     1      -9.320  11.827  67.084  1.00  0.00    -0.178 C  
BRANCH  16  17
HETATM   17  C   UNL     1     -10.212  10.941  67.999  1.00  0.00    -0.178 C  
HETATM   18  C   UNL     1     -10.653   9.691  67.207  1.00  0.00    -0.315 C  
HETATM   19  C   UNL     1     -11.362  11.792  68.538  1.00  0.00    -0.328 C  
HETATM   20  C   UNL     1     -12.255  10.969  69.435  1.00  0.00    -0.329 C  
HETATM   21  C   UNL     1     -11.469  10.075  70.355  1.00  0.00    -0.389 A  
HETATM   22  C   UNL     1     -12.127   9.358  71.372  1.00  0.00    -0.442 A  
HETATM   23  C   UNL     1     -13.624   9.433  71.539  1.00  0.00    -0.408 C  
HETATM   24  C   UNL     1     -11.358   8.552  72.228  1.00  0.00    -0.371 A  
HETATM   25  C   UNL     1      -9.961   8.420  72.083  1.00  0.00    -0.376 A  
HETATM   26  O   UNL     1     -11.945   7.843  73.244  1.00  0.00    -0.629 OA 
HETATM   27  C   UNL     1      -9.183   7.540  73.027  1.00  0.00    -0.233 C  
HETATM   28  C   UNL     1      -9.311   9.114  71.036  1.00  0.00    -0.333 A  
HETATM   29  H   UNL     1     -11.424   7.298  73.823  1.00  0.00     0.000 HD 
HETATM   30  C   UNL     1     -10.079   9.921  70.168  1.00  0.00    -0.255 A  
HETATM   31  C   UNL     1      -7.825   9.005  70.799  1.00  0.00    -0.156 C  
HETATM   32  O   UNL     1      -9.399  10.512  69.119  1.00  0.00    -0.194 OA 
ENDBRANCH  16  17
ENDBRANCH  15  16
ENDBRANCH  13  15
ENDBRANCH  10  11
ENDBRANCH   9  10
ENDBRANCH   5   6
ENDBRANCH   4   5
TORSDOF 7
ENDMDL
MODEL      128
REMARK 921   NORMALIZED FREE ENERGY PREDICTED BY IDOCK:   -5.24 KCAL/MOL
REMARK 922        TOTAL FREE ENERGY PREDICTED BY IDOCK:   -9.14 KCAL/MOL
REMARK 923 INTER-LIGAND FREE ENERGY PREDICTED BY IDOCK:   -8.12 KCAL/MOL
REMARK 924 INTRA-LIGAND FREE ENERGY PREDICTED BY IDOCK:   -1.02 KCAL/MOL
REMARK 927      BINDING AFFINITY PREDICTED BY RF-SCORE:    0.00 PKD
ROOT
HETATM    1  C   UNL     1      -6.536   1.778  73.037  1.00  0.00    -0.014 C  
HETATM    2  C   UNL     1      -7.296   2.610  72.006  1.00  0.00    -0.043 C  
HETATM    3  C   UNL     1      -6.709   2.367  70.612  1.00  0.00    -0.032 C  
HETATM    4  C   UNL     1      -8.802   2.290  72.085  1.00  0.00    -0.102 C  
ENDROOT
BRANCH   4   5
HETATM    5  C   UNL     1      -9.612   3.103  71.080  1.00  0.00    -0.228 C  
BRANCH   5   6
HETATM    6  C   UNL     1      -9.378   4.606  71.205  1.00  0.00    -0.205 C  
HETATM    7  C   UNL     1     -10.592   5.325  71.829  1.00  0.00    -0.268 C  
HETATM    8  C   UNL     1     -10.913   4.796  73.235  1.00  0.00    -0.390 C  
HETATM    9  C   UNL     1     -10.337   6.844  71.840  1.00  0.00    -0.210 C  
BRANCH   9  10
HETATM   10  C   UNL     1     -11.510   7.610  72.447  1.00  0.00    -0.392 C  
BRANCH  10  11
HETATM   11  C   UNL     1     -11.492   9.084  72.076  1.00  0.00    -0.408 C  
HETATM   12  C   UNL     1     -12.784   9.503  71.345  1.00  0.00    -0.445 C  
HETATM   13  C   UNL     1     -12.704  10.961  70.868  1.00  0.00    -0.464 C  
HETATM   14  C   UNL     1     -14.031   9.337  72.222  1.00  0.00    -0.439 C  
BRANCH  13  15
HETATM   15  C   UNL     1     -11.527  11.277  69.945  1.00  0.00    -0.373 C  
BRANCH  15  16
HETATM   16  C   UNL     1     -11.888  12.122  68.709  1.00  0.00    -0.356 C  
BRANCH  16  17
HETATM   17  C   UNL     1     -10.942  11.889  67.498  1.00  0.00    -0.247 C  
HETATM   18  C   UNL     1      -9.609  12.626  67.756  1.00  0.00    -0.197 C  
HETATM   19  C   UNL     1     -11.666  12.312  66.219  1.00  0.00    -0.431 C  
HETATM   20  C   UNL     1     -10.782  12.100  65.014  1.00  0.00    -0.338 C  
HETATM   21  C   UNL     1     -10.039  10.793  65.075  1.00  0.00    -0.377 A  
HETATM   22  C   UNL     1      -9.294  10.354  63.965  1.00  0.00    -0.321 A  
HETATM   23  C   UNL     1      -9.188  11.189  62.714  1.00  0.00    -0.374 C  
HETATM   24  C   UNL     1      -8.634   9.116  64.050  1.00  0.00    -0.166 A  
HETATM   25  C   UNL     1      -8.673   8.321  65.213  1.00  0.00    -0.121 A  
HETATM   26  O   UNL     1      -7.906   8.632  62.993  1.00  0.00    -0.129 OA 
HETATM   27  C   UNL     1      -7.944   7.003  65.252  1.00  0.00    -0.127 C  
HETATM   28  C   UNL     1      -9.392   8.787  66.339  1.00  0.00    -0.264 A  
HETATM   29  H   UNL     1      -7.460   7.795  63.050  1.00  0.00     0.000 HD 
HETATM   30  C   UNL     1     -10.052  10.032  66.264  1.00  0.00    -0.243 A  
HETATM   31  C   UNL     1      -9.460   8.008  67.629  1.00  0.00    -0.171 C  
HETATM   32  O   UNL     1     -10.674  10.468  67.420  1.00  0.00    -0.244 OA 
ENDBRANCH  16  17
ENDBRANCH  15  16
ENDBRANCH  13  15
ENDBRANCH  10  11
ENDBRANCH   9  10
ENDBRANCH   5   6
ENDBRANCH   4   5
TORSDOF 7
ENDMDL
MODEL      129
REMARK 921   NORMALIZED FREE ENERGY PREDICTED BY IDOCK:   -5.22 KCAL/MOL
REMARK 922        TOTAL FREE ENERGY PREDICTED BY IDOCK:   -9.12 KCAL/MOL
REMARK 923 INTER-LIGAND FREE ENERGY PREDICTED BY IDOCK:   -7.73 KCAL/MOL
REMARK 924 INTRA-LIGAND FREE ENERGY PREDICTED BY IDOCK:   -1.39 KCAL/MOL
REMARK 927      BINDING AFFINITY PREDICTED BY RF-SCORE:    0.00 PKD
ROOT
HETATM    1  C   UNL     1      -7.508  12.709  68.691  1.00  0.00    -0.094 C  
HETATM    2  C   UNL     1      -6.447  13.778  68.948  1.00  0.00    -0.100 C  
HETATM    3  C   UNL     1      -5.186  13.127  69.525  1.00  0.00    -0.077 C  
HETATM    4  C   UNL     1      -6.175  14.565  67.651  1.00  0.00    -0.101 C  
ENDROOT
BRANCH   4   5
HETATM    5  C   UNL     1      -5.127  15.655  67.854  1.00  0.00    -0.135 C  
BRANCH   5   6
HETATM    6  C   UNL     1      -5.256  16.797  66.849  1.00  0.00    -0.118 C  
HETATM    7  C   UNL     1      -6.420  17.746  67.206  1.00  0.00    -0.185 C  
HETATM    8  C   UNL     1      -6.240  18.379  68.594  1.00  0.00    -0.210 C  
HETATM    9  C   UNL     1      -6.562  18.817  66.108  1.00  0.00    -0.256 C  
BRANCH   9  10
HETATM   10  C   UNL     1      -7.703  19.786  66.409  1.00  0.00    -0.318 C  
BRANCH  10  11
HETATM   11  C   UNL     1      -9.069  19.168  66.153  1.00  0.00    -0.239 C  
HETATM   12  C   UNL     1      -9.486  18.215  67.292  1.00  0.00    -0.260 C  
HETATM   13  C   UNL     1     -10.808  17.504  66.965  1.00  0.00    -0.054 C  
HETATM   14  C   UNL     1      -9.632  18.940  68.635  1.00  0.00    -0.443 C  
BRANCH  13  15
HETATM   15  C   UNL     1     -10.807  16.700  65.665  1.00  0.00    -0.142 C  
BRANCH  15  16
HETATM   16  C   UNL     1     -10.090  15.339  65.751  1.00  0.00    -0.384 C  
BRANCH  16  17
HETATM   17  C   UNL     1     -10.830  14.300  66.640  1.00  0.00    -0.301 C  
HETATM   18  C   UNL     1     -12.292  14.181  66.157  1.00  0.00    -0.463 C  
HETATM   19  C   UNL     1     -10.674  14.706  68.105  1.00  0.00    -0.242 C  
HETATM   20  C   UNL     1     -11.378  13.720  69.006  1.00  0.00    -0.333 C  
HETATM   21  C   UNL     1     -11.150  12.296  68.580  1.00  0.00    -0.290 A  
HETATM   22  C   UNL     1     -11.594  11.237  69.394  1.00  0.00    -0.390 A  
HETATM   23  C   UNL     1     -12.337  11.497  70.680  1.00  0.00    -0.457 C  
HETATM   24  C   UNL     1     -11.342   9.919  68.975  1.00  0.00    -0.023 A  
HETATM   25  C   UNL     1     -10.686   9.629  67.761  1.00  0.00    -0.316 A  
HETATM   26  O   UNL     1     -11.738   8.850  69.736  1.00  0.00    -0.407 OA 
HETATM   27  C   UNL     1     -10.443   8.198  67.357  1.00  0.00    -0.356 C  
HETATM   28  C   UNL     1     -10.277  10.697  66.929  1.00  0.00    -0.272 A  
HETATM   29  H   UNL     1     -11.568   7.959  69.452  1.00  0.00     0.000 HD 
HETATM   30  C   UNL     1     -10.533  12.023  67.340  1.00  0.00    -0.216 A  
HETATM   31  C   UNL     1      -9.594  10.469  65.603  1.00  0.00    -0.278 C  
HETATM   32  O   UNL     1     -10.178  13.021  66.450  1.00  0.00    -0.267 OA 
ENDBRANCH  16  17
ENDBRANCH  15  16
ENDBRANCH  13  15
ENDBRANCH  10  11
ENDBRANCH   9  10
ENDBRANCH   5   6
ENDBRANCH   4   5
TORSDOF 7
ENDMDL
MODEL      130
REMARK 921   NORMALIZED FREE ENERGY PREDICTED BY IDOCK:   -5.21 KCAL/MOL
REMARK 922        TOTAL FREE ENERGY PREDICTED BY IDOCK:   -9.10 KCAL/MOL
REMARK 923 INTER-LIGAND FREE ENERGY PREDICTED BY IDOCK:   -6.93 KCAL/MOL
REMARK 924 INTRA-LIGAND FREE ENERGY PREDICTED BY IDOCK:   -2.17 KCAL/MOL
REMARK 927      BINDING AFFINITY PREDICTED BY RF-SCORE:    0.00 PKD
ROOT
HETATM    1  C   UNL     1     -12.210  15.273  69.265  1.00  0.00    -0.218 C  
HETATM    2  C   UNL     1     -11.277  14.403  68.427  1.00  0.00    -0.294 C  
HETATM    3  C   UNL     1     -11.959  14.037  67.104  1.00  0.00    -0.465 C  
HETATM    4  C   UNL     1      -9.930  15.125  68.226  1.00  0.00    -0.223 C  
ENDROOT
BRANCH   4   5
HETATM    5  C   UNL     1      -8.953  14.293  67.401  1.00  0.00    -0.205 C  
BRANCH   5   6
HETATM    6  C   UNL     1      -8.546  12.996  68.094  1.00  0.00    -0.188 C  
HETATM    7  C   UNL     1      -7.179  12.484  67.594  1.00  0.00    -0.136 C  
HETATM    8  C   UNL     1      -6.057  13.504  67.843  1.00  0.00    -0.152 C  
HETATM    9  C   UNL     1      -6.868  11.127  68.254  1.00  0.00    -0.068 C  
BRANCH   9  10
HETATM   10  C   UNL     1      -5.523  10.570  67.794  1.00  0.00    -0.043 C  
BRANCH  10  11
HETATM   11  C   UNL     1      -5.652   9.189  67.171  1.00  0.00    -0.041 C  
HETATM   12  C   UNL     1      -6.456   9.229  65.856  1.00  0.00    -0.071 C  
HETATM   13  C   UNL     1      -6.684   7.815  65.301  1.00  0.00    -0.047 C  
HETATM   14  C   UNL     1      -5.771  10.080  64.779  1.00  0.00    -0.100 C  
BRANCH  13  15
HETATM   15  C   UNL     1      -7.399   6.854  66.250  1.00  0.00    -0.076 C  
BRANCH  15  16
HETATM   16  C   UNL     1      -8.894   7.153  66.463  1.00  0.00    -0.154 C  
BRANCH  16  17
HETATM   17  C   UNL     1      -9.335   7.097  67.952  1.00  0.00    -0.128 C  
HETATM   18  C   UNL     1      -8.088   7.258  68.849  1.00  0.00    -0.128 C  
HETATM   19  C   UNL     1     -10.124   5.808  68.184  1.00  0.00    -0.204 C  
HETATM   20  C   UNL     1     -10.576   5.714  69.621  1.00  0.00    -0.401 C  
HETATM   21  C   UNL     1     -11.088   7.027  70.145  1.00  0.00    -0.323 A  
HETATM   22  C   UNL     1     -11.699   7.091  71.411  1.00  0.00    -0.344 A  
HETATM   23  C   UNL     1     -11.821   5.867  72.283  1.00  0.00    -0.266 C  
HETATM   24  C   UNL     1     -12.188   8.331  71.857  1.00  0.00    -0.337 A  
HETATM   25  C   UNL     1     -12.060   9.508  71.092  1.00  0.00    -0.429 A  
HETATM   26  O   UNL     1     -12.806   8.448  73.075  1.00  0.00    -0.706 OA 
HETATM   27  C   UNL     1     -12.599  10.813  71.618  1.00  0.00    -0.456 C  
HETATM   28  C   UNL     1     -11.410   9.445  69.838  1.00  0.00    -0.121 A  
HETATM   29  H   UNL     1     -13.136   9.286  73.377  1.00  0.00     0.000 HD 
HETATM   30  C   UNL     1     -10.910   8.204  69.386  1.00  0.00    -0.086 A  
HETATM   31  C   UNL     1     -11.210  10.664  68.972  1.00  0.00    -0.324 C  
HETATM   32  O   UNL     1     -10.219   8.220  68.188  1.00  0.00    -0.197 OA 
ENDBRANCH  16  17
ENDBRANCH  15  16
ENDBRANCH  13  15
ENDBRANCH  10  11
ENDBRANCH   9  10
ENDBRANCH   5   6
ENDBRANCH   4   5
TORSDOF 7
ENDMDL
MODEL      131
REMARK 921   NORMALIZED FREE ENERGY PREDICTED BY IDOCK:   -5.21 KCAL/MOL
REMARK 922        TOTAL FREE ENERGY PREDICTED BY IDOCK:   -9.10 KCAL/MOL
REMARK 923 INTER-LIGAND FREE ENERGY PREDICTED BY IDOCK:   -8.10 KCAL/MOL
REMARK 924 INTRA-LIGAND FREE ENERGY PREDICTED BY IDOCK:   -0.99 KCAL/MOL
REMARK 927      BINDING AFFINITY PREDICTED BY RF-SCORE:    0.00 PKD
ROOT
HETATM    1  C   UNL     1      -8.624   8.989  63.881  1.00  0.00    -0.151 C  
HETATM    2  C   UNL     1      -8.709  10.514  63.892  1.00  0.00    -0.176 C  
HETATM    3  C   UNL     1      -8.760  11.039  62.454  1.00  0.00    -0.356 C  
HETATM    4  C   UNL     1      -9.918  10.963  64.736  1.00  0.00    -0.366 C  
ENDROOT
BRANCH   4   5
HETATM    5  C   UNL     1     -10.045  12.483  64.790  1.00  0.00    -0.251 C  
BRANCH   5   6
HETATM    6  C   UNL     1      -9.708  13.059  66.162  1.00  0.00    -0.255 C  
HETATM    7  C   UNL     1     -10.926  13.752  66.807  1.00  0.00    -0.307 C  
HETATM    8  C   UNL     1     -12.105  12.785  66.996  1.00  0.00    -0.252 C  
HETATM    9  C   UNL     1     -10.502  14.396  68.141  1.00  0.00    -0.237 C  
BRANCH   9  10
HETATM   10  C   UNL     1     -11.671  15.101  68.825  1.00  0.00    -0.366 C  
BRANCH  10  11
HETATM   11  C   UNL     1     -12.548  14.137  69.608  1.00  0.00    -0.084 C  
HETATM   12  C   UNL     1     -11.995  13.888  71.027  1.00  0.00    -0.262 C  
HETATM   13  C   UNL     1     -12.818  12.822  71.764  1.00  0.00    -0.342 C  
HETATM   14  C   UNL     1     -11.966  15.166  71.874  1.00  0.00    -0.465 C  
BRANCH  13  15
HETATM   15  C   UNL     1     -12.908  11.469  71.059  1.00  0.00    -0.358 C  
BRANCH  15  16
HETATM   16  C   UNL     1     -11.549  10.851  70.679  1.00  0.00    -0.341 C  
BRANCH  16  17
HETATM   17  C   UNL     1     -11.490   9.310  70.873  1.00  0.00    -0.303 C  
HETATM   18  C   UNL     1     -12.930   8.765  70.996  1.00  0.00    -0.002 C  
HETATM   19  C   UNL     1     -10.587   8.999  72.067  1.00  0.00    -0.321 C  
HETATM   20  C   UNL     1     -10.499   7.508  72.292  1.00  0.00    -0.275 C  
HETATM   21  C   UNL     1     -10.350   6.747  71.003  1.00  0.00    -0.228 A  
HETATM   22  C   UNL     1     -10.091   5.364  71.028  1.00  0.00    -0.281 A  
HETATM   23  C   UNL     1      -9.996   4.609  72.330  1.00  0.00    -0.228 C  
HETATM   24  C   UNL     1      -9.934   4.689  69.805  1.00  0.00    -0.225 A  
HETATM   25  C   UNL     1     -10.055   5.347  68.564  1.00  0.00    -0.242 A  
HETATM   26  O   UNL     1      -9.665   3.346  69.771  1.00  0.00    -0.153 OA 
HETATM   27  C   UNL     1      -9.879   4.576  67.281  1.00  0.00    -0.216 C  
HETATM   28  C   UNL     1     -10.353   6.729  68.545  1.00  0.00    -0.210 A  
HETATM   29  H   UNL     1      -9.559   2.890  68.944  1.00  0.00     0.000 HD 
HETATM   30  C   UNL     1     -10.519   7.412  69.770  1.00  0.00    -0.229 A  
HETATM   31  C   UNL     1     -10.524   7.499  67.258  1.00  0.00    -0.391 C  
HETATM   32  O   UNL     1     -10.884   8.743  69.686  1.00  0.00    -0.231 OA 
ENDBRANCH  16  17
ENDBRANCH  15  16
ENDBRANCH  13  15
ENDBRANCH  10  11
ENDBRANCH   9  10
ENDBRANCH   5   6
ENDBRANCH   4   5
TORSDOF 7
ENDMDL
MODEL      132
REMARK 921   NORMALIZED FREE ENERGY PREDICTED BY IDOCK:   -5.21 KCAL/MOL
REMARK 922        TOTAL FREE ENERGY PREDICTED BY IDOCK:   -9.09 KCAL/MOL
REMARK 923 INTER-LIGAND FREE ENERGY PREDICTED BY IDOCK:   -8.02 KCAL/MOL
REMARK 924 INTRA-LIGAND FREE ENERGY PREDICTED BY IDOCK:   -1.07 KCAL/MOL
REMARK 927      BINDING AFFINITY PREDICTED BY RF-SCORE:    0.00 PKD
ROOT
HETATM    1  C   UNL     1     -11.359  11.733  64.278  1.00  0.00    -0.400 C  
HETATM    2  C   UNL     1     -11.021  13.222  64.279  1.00  0.00    -0.418 C  
HETATM    3  C   UNL     1     -12.311  14.046  64.231  1.00  0.00    -0.393 C  
HETATM    4  C   UNL     1     -10.142  13.556  65.501  1.00  0.00    -0.283 C  
ENDROOT
BRANCH   4   5
HETATM    5  C   UNL     1      -9.765  15.033  65.547  1.00  0.00    -0.294 C  
BRANCH   5   6
HETATM    6  C   UNL     1     -10.658  15.846  66.480  1.00  0.00    -0.297 C  
HETATM    7  C   UNL     1     -10.704  15.240  67.899  1.00  0.00    -0.275 C  
HETATM    8  C   UNL     1      -9.311  15.177  68.543  1.00  0.00    -0.192 C  
HETATM    9  C   UNL     1     -11.694  16.043  68.765  1.00  0.00    -0.302 C  
BRANCH   9  10
HETATM   10  C   UNL     1     -11.782  15.486  70.184  1.00  0.00    -0.367 C  
BRANCH  10  11
HETATM   11  C   UNL     1     -12.456  14.124  70.230  1.00  0.00    -0.416 C  
HETATM   12  C   UNL     1     -12.808  13.709  71.673  1.00  0.00    -0.427 C  
HETATM   13  C   UNL     1     -13.375  12.282  71.719  1.00  0.00    -0.353 C  
HETATM   14  C   UNL     1     -13.815  14.664  72.325  1.00  0.00    -0.583 C  
BRANCH  13  15
HETATM   15  C   UNL     1     -12.462  11.203  71.138  1.00  0.00    -0.498 C  
BRANCH  15  16
HETATM   16  C   UNL     1     -12.131  11.378  69.644  1.00  0.00    -0.373 C  
BRANCH  16  17
HETATM   17  C   UNL     1     -10.877  10.581  69.186  1.00  0.00    -0.237 C  
HETATM   18  C   UNL     1      -9.680  11.552  69.078  1.00  0.00     0.016 C  
HETATM   19  C   UNL     1     -11.211   9.836  67.894  1.00  0.00    -0.036 C  
HETATM   20  C   UNL     1     -10.018   9.045  67.414  1.00  0.00    -0.266 C  
HETATM   21  C   UNL     1      -9.311   8.342  68.540  1.00  0.00    -0.138 A  
HETATM   22  C   UNL     1      -8.276   7.429  68.261  1.00  0.00    -0.125 A  
HETATM   23  C   UNL     1      -7.827   7.165  66.846  1.00  0.00    -0.107 C  
HETATM   24  C   UNL     1      -7.654   6.773  69.337  1.00  0.00    -0.096 A  
HETATM   25  C   UNL     1      -8.015   7.020  70.678  1.00  0.00    -0.109 A  
HETATM   26  O   UNL     1      -6.651   5.864  69.123  1.00  0.00    -0.046 OA 
HETATM   27  C   UNL     1      -7.314   6.291  71.795  1.00  0.00    -0.093 C  
HETATM   28  C   UNL     1      -9.029   7.966  70.953  1.00  0.00    -0.147 A  
HETATM   29  H   UNL     1      -6.231   5.420  69.851  1.00  0.00     0.000 HD 
HETATM   30  C   UNL     1      -9.654   8.635  69.877  1.00  0.00    -0.172 A  
HETATM   31  C   UNL     1      -9.454   8.305  72.361  1.00  0.00    -0.357 C  
HETATM   32  O   UNL     1     -10.583   9.602  70.213  1.00  0.00    -0.236 OA 
ENDBRANCH  16  17
ENDBRANCH  15  16
ENDBRANCH  13  15
ENDBRANCH  10  11
ENDBRANCH   9  10
ENDBRANCH   5   6
ENDBRANCH   4   5
TORSDOF 7
ENDMDL
MODEL      133
REMARK 921   NORMALIZED FREE ENERGY PREDICTED BY IDOCK:   -5.20 KCAL/MOL
REMARK 922        TOTAL FREE ENERGY PREDICTED BY IDOCK:   -9.09 KCAL/MOL
REMARK 923 INTER-LIGAND FREE ENERGY PREDICTED BY IDOCK:   -8.18 KCAL/MOL
REMARK 924 INTRA-LIGAND FREE ENERGY PREDICTED BY IDOCK:   -0.90 KCAL/MOL
REMARK 927      BINDING AFFINITY PREDICTED BY RF-SCORE:    0.00 PKD
ROOT
HETATM    1  C   UNL     1     -12.139  16.391  72.940  1.00  0.00    -0.567 C  
HETATM    2  C   UNL     1     -12.994  15.167  72.621  1.00  0.00    -0.493 C  
HETATM    3  C   UNL     1     -14.382  15.612  72.152  1.00  0.00    -0.497 C  
HETATM    4  C   UNL     1     -12.269  14.280  71.588  1.00  0.00    -0.351 C  
ENDROOT
BRANCH   4   5
HETATM    5  C   UNL     1     -13.076  13.033  71.240  1.00  0.00    -0.263 C  
BRANCH   5   6
HETATM    6  C   UNL     1     -12.548  11.774  71.922  1.00  0.00    -0.063 C  
HETATM    7  C   UNL     1     -13.183  10.496  71.336  1.00  0.00    -0.441 C  
HETATM    8  C   UNL     1     -12.902  10.351  69.833  1.00  0.00     0.136 C  
HETATM    9  C   UNL     1     -12.688   9.270  72.127  1.00  0.00    -0.465 C  
BRANCH   9  10
HETATM   10  C   UNL     1     -13.287   7.972  71.590  1.00  0.00    -0.364 C  
BRANCH  10  11
HETATM   11  C   UNL     1     -12.250   6.868  71.456  1.00  0.00    -0.415 C  
HETATM   12  C   UNL     1     -10.828   7.441  71.287  1.00  0.00    -0.258 C  
HETATM   13  C   UNL     1      -9.806   6.322  71.031  1.00  0.00    -0.206 C  
HETATM   14  C   UNL     1     -10.377   8.254  72.506  1.00  0.00    -0.401 C  
BRANCH  13  15
HETATM   15  C   UNL     1     -10.099   5.443  69.815  1.00  0.00    -0.319 C  
BRANCH  15  16
HETATM   16  C   UNL     1      -9.110   5.612  68.646  1.00  0.00    -0.124 C  
BRANCH  16  17
HETATM   17  C   UNL     1      -9.537   6.700  67.622  1.00  0.00    -0.124 C  
HETATM   18  C   UNL     1     -11.049   6.556  67.341  1.00  0.00    -0.411 C  
HETATM   19  C   UNL     1      -8.646   6.588  66.385  1.00  0.00    -0.136 C  
HETATM   20  C   UNL     1      -9.025   7.632  65.362  1.00  0.00     0.118 C  
HETATM   21  C   UNL     1      -9.297   8.972  65.989  1.00  0.00    -0.305 A  
HETATM   22  C   UNL     1      -9.506  10.101  65.175  1.00  0.00    -0.319 A  
HETATM   23  C   UNL     1      -9.503   9.992  63.671  1.00  0.00    -0.253 C  
HETATM   24  C   UNL     1      -9.734  11.341  65.796  1.00  0.00    -0.227 A  
HETATM   25  C   UNL     1      -9.785  11.481  67.198  1.00  0.00    -0.199 A  
HETATM   26  O   UNL     1      -9.928  12.476  65.052  1.00  0.00    -0.385 OA 
HETATM   27  C   UNL     1     -10.034  12.834  67.813  1.00  0.00    -0.219 C  
HETATM   28  C   UNL     1      -9.612  10.336  68.010  1.00  0.00    -0.159 A  
HETATM   29  H   UNL     1     -10.082  13.314  65.473  1.00  0.00     0.000 HD 
HETATM   30  C   UNL     1      -9.390   9.085  67.392  1.00  0.00    -0.139 A  
HETATM   31  C   UNL     1      -9.678  10.398  69.516  1.00  0.00    -0.196 C  
HETATM   32  O   UNL     1      -9.304   7.992  68.235  1.00  0.00    -0.141 OA 
ENDBRANCH  16  17
ENDBRANCH  15  16
ENDBRANCH  13  15
ENDBRANCH  10  11
ENDBRANCH   9  10
ENDBRANCH   5   6
ENDBRANCH   4   5
TORSDOF 7
ENDMDL
MODEL      134
REMARK 921   NORMALIZED FREE ENERGY PREDICTED BY IDOCK:   -5.20 KCAL/MOL
REMARK 922        TOTAL FREE ENERGY PREDICTED BY IDOCK:   -9.08 KCAL/MOL
REMARK 923 INTER-LIGAND FREE ENERGY PREDICTED BY IDOCK:   -7.22 KCAL/MOL
REMARK 924 INTRA-LIGAND FREE ENERGY PREDICTED BY IDOCK:   -1.86 KCAL/MOL
REMARK 927      BINDING AFFINITY PREDICTED BY RF-SCORE:    0.00 PKD
ROOT
HETATM    1  C   UNL     1     -13.294  12.346  71.973  1.00  0.00    -0.511 C  
HETATM    2  C   UNL     1     -12.544  13.405  71.168  1.00  0.00    -0.430 C  
HETATM    3  C   UNL     1     -12.519  13.009  69.689  1.00  0.00     0.053 C  
HETATM    4  C   UNL     1     -13.180  14.789  71.407  1.00  0.00    -0.442 C  
ENDROOT
BRANCH   4   5
HETATM    5  C   UNL     1     -12.461  15.889  70.632  1.00  0.00    -0.274 C  
BRANCH   5   6
HETATM    6  C   UNL     1     -10.943  15.726  70.640  1.00  0.00    -0.341 C  
HETATM    7  C   UNL     1     -10.348  15.836  69.220  1.00  0.00    -0.245 C  
HETATM    8  C   UNL     1     -10.657  17.193  68.571  1.00  0.00    -0.361 C  
HETATM    9  C   UNL     1      -8.833  15.566  69.278  1.00  0.00    -0.256 C  
BRANCH   9  10
HETATM   10  C   UNL     1      -8.189  15.660  67.897  1.00  0.00    -0.155 C  
BRANCH  10  11
HETATM   11  C   UNL     1      -8.044  14.300  67.233  1.00  0.00    -0.199 C  
HETATM   12  C   UNL     1      -9.402  13.761  66.737  1.00  0.00    -0.276 C  
HETATM   13  C   UNL     1      -9.263  12.337  66.179  1.00  0.00    -0.132 C  
HETATM   14  C   UNL     1     -10.027  14.657  65.660  1.00  0.00    -0.381 C  
BRANCH  13  15
HETATM   15  C   UNL     1      -8.687  11.311  67.155  1.00  0.00    -0.151 C  
BRANCH  15  16
HETATM   16  C   UNL     1      -9.297  11.356  68.568  1.00  0.00    -0.180 C  
BRANCH  16  17
HETATM   17  C   UNL     1      -9.906  10.002  69.027  1.00  0.00    -0.199 C  
HETATM   18  C   UNL     1     -10.873   9.493  67.936  1.00  0.00    -0.240 C  
HETATM   19  C   UNL     1     -10.542  10.189  70.405  1.00  0.00    -0.287 C  
HETATM   20  C   UNL     1     -11.145   8.894  70.891  1.00  0.00    -0.328 C  
HETATM   21  C   UNL     1     -10.256   7.712  70.615  1.00  0.00    -0.199 A  
HETATM   22  C   UNL     1     -10.581   6.448  71.142  1.00  0.00    -0.282 A  
HETATM   23  C   UNL     1     -11.834   6.237  71.953  1.00  0.00    -0.359 C  
HETATM   24  C   UNL     1      -9.714   5.373  70.883  1.00  0.00    -0.180 A  
HETATM   25  C   UNL     1      -8.552   5.516  70.096  1.00  0.00    -0.122 A  
HETATM   26  O   UNL     1      -9.973   4.123  71.384  1.00  0.00    -0.185 OA 
HETATM   27  C   UNL     1      -7.657   4.329  69.848  1.00  0.00    -0.053 C  
HETATM   28  C   UNL     1      -8.252   6.780  69.539  1.00  0.00    -0.131 A  
HETATM   29  H   UNL     1      -9.387   3.396  71.209  1.00  0.00     0.000 HD 
HETATM   30  C   UNL     1      -9.122   7.864  69.788  1.00  0.00    -0.146 A  
HETATM   31  C   UNL     1      -7.043   7.009  68.665  1.00  0.00    -0.092 C  
HETATM   32  O   UNL     1      -8.817   9.055  69.154  1.00  0.00    -0.138 OA 
ENDBRANCH  16  17
ENDBRANCH  15  16
ENDBRANCH  13  15
ENDBRANCH  10  11
ENDBRANCH   9  10
ENDBRANCH   5   6
ENDBRANCH   4   5
TORSDOF 7
ENDMDL
MODEL      135
REMARK 921   NORMALIZED FREE ENERGY PREDICTED BY IDOCK:   -5.19 KCAL/MOL
REMARK 922        TOTAL FREE ENERGY PREDICTED BY IDOCK:   -9.07 KCAL/MOL
REMARK 923 INTER-LIGAND FREE ENERGY PREDICTED BY IDOCK:   -8.14 KCAL/MOL
REMARK 924 INTRA-LIGAND FREE ENERGY PREDICTED BY IDOCK:   -0.94 KCAL/MOL
REMARK 927      BINDING AFFINITY PREDICTED BY RF-SCORE:    0.00 PKD
ROOT
HETATM    1  C   UNL     1      -5.445  16.112  69.298  1.00  0.00    -0.115 C  
HETATM    2  C   UNL     1      -6.588  16.930  68.701  1.00  0.00    -0.173 C  
HETATM    3  C   UNL     1      -6.215  18.416  68.699  1.00  0.00    -0.210 C  
HETATM    4  C   UNL     1      -6.931  16.398  67.295  1.00  0.00    -0.218 C  
ENDROOT
BRANCH   4   5
HETATM    5  C   UNL     1      -8.077  17.174  66.654  1.00  0.00    -0.292 C  
BRANCH   5   6
HETATM    6  C   UNL     1      -9.409  16.433  66.725  1.00  0.00    -0.265 C  
HETATM    7  C   UNL     1      -9.966  16.392  68.163  1.00  0.00    -0.242 C  
HETATM    8  C   UNL     1     -10.198  17.800  68.730  1.00  0.00    -0.373 C  
HETATM    9  C   UNL     1     -11.256  15.550  68.188  1.00  0.00    -0.343 C  
BRANCH   9  10
HETATM   10  C   UNL     1     -11.853  15.473  69.592  1.00  0.00    -0.384 C  
BRANCH  10  11
HETATM   11  C   UNL     1     -12.441  14.105  69.895  1.00  0.00    -0.313 C  
HETATM   12  C   UNL     1     -12.767  13.944  71.394  1.00  0.00    -0.445 C  
HETATM   13  C   UNL     1     -13.245  12.519  71.709  1.00  0.00    -0.444 C  
HETATM   14  C   UNL     1     -13.832  14.940  71.869  1.00  0.00    -0.557 C  
BRANCH  13  15
HETATM   15  C   UNL     1     -12.267  11.408  71.328  1.00  0.00    -0.240 C  
BRANCH  15  16
HETATM   16  C   UNL     1     -12.589  10.030  71.935  1.00  0.00    -0.454 C  
BRANCH  16  17
HETATM   17  C   UNL     1     -11.712   8.879  71.370  1.00  0.00    -0.315 C  
HETATM   18  C   UNL     1     -10.908   9.410  70.162  1.00  0.00    -0.287 C  
HETATM   19  C   UNL     1     -12.610   7.682  71.060  1.00  0.00    -0.177 C  
HETATM   20  C   UNL     1     -11.796   6.536  70.508  1.00  0.00    -0.393 C  
HETATM   21  C   UNL     1     -10.502   6.348  71.252  1.00  0.00    -0.258 A  
HETATM   22  C   UNL     1      -9.691   5.229  70.983  1.00  0.00    -0.242 A  
HETATM   23  C   UNL     1     -10.072   4.223  69.926  1.00  0.00    -0.039 C  
HETATM   24  C   UNL     1      -8.501   5.073  71.714  1.00  0.00    -0.124 A  
HETATM   25  C   UNL     1      -8.085   6.010  72.682  1.00  0.00    -0.104 A  
HETATM   26  O   UNL     1      -7.681   3.995  71.504  1.00  0.00    -0.061 OA 
HETATM   27  C   UNL     1      -6.799   5.797  73.437  1.00  0.00    -0.084 C  
HETATM   28  C   UNL     1      -8.886   7.152  72.921  1.00  0.00    -0.154 A  
HETATM   29  H   UNL     1      -6.876   3.890  71.998  1.00  0.00     0.000 HD 
HETATM   30  C   UNL     1     -10.079   7.319  72.185  1.00  0.00    -0.181 A  
HETATM   31  C   UNL     1      -8.497   8.213  73.920  1.00  0.00    -0.306 C  
HETATM   32  O   UNL     1     -10.779   8.491  72.408  1.00  0.00    -0.341 OA 
ENDBRANCH  16  17
ENDBRANCH  15  16
ENDBRANCH  13  15
ENDBRANCH  10  11
ENDBRANCH   9  10
ENDBRANCH   5   6
ENDBRANCH   4   5
TORSDOF 7
ENDMDL
MODEL      136
REMARK 921   NORMALIZED FREE ENERGY PREDICTED BY IDOCK:   -5.19 KCAL/MOL
REMARK 922        TOTAL FREE ENERGY PREDICTED BY IDOCK:   -9.07 KCAL/MOL
REMARK 923 INTER-LIGAND FREE ENERGY PREDICTED BY IDOCK:   -7.24 KCAL/MOL
REMARK 924 INTRA-LIGAND FREE ENERGY PREDICTED BY IDOCK:   -1.83 KCAL/MOL
REMARK 927      BINDING AFFINITY PREDICTED BY RF-SCORE:    0.00 PKD
ROOT
HETATM    1  C   UNL     1     -10.133   8.625  66.627  1.00  0.00    -0.364 C  
HETATM    2  C   UNL     1      -9.461   9.705  65.782  1.00  0.00    -0.308 C  
HETATM    3  C   UNL     1      -8.593   9.052  64.702  1.00  0.00    -0.190 C  
HETATM    4  C   UNL     1     -10.529  10.652  65.200  1.00  0.00    -0.271 C  
ENDROOT
BRANCH   4   5
HETATM    5  C   UNL     1      -9.909  11.760  64.353  1.00  0.00    -0.227 C  
BRANCH   5   6
HETATM    6  C   UNL     1     -10.456  13.143  64.694  1.00  0.00    -0.411 C  
HETATM    7  C   UNL     1     -10.519  13.375  66.218  1.00  0.00    -0.289 C  
HETATM    8  C   UNL     1      -9.135  13.258  66.875  1.00  0.00    -0.235 C  
HETATM    9  C   UNL     1     -11.168  14.743  66.502  1.00  0.00    -0.342 C  
BRANCH   9  10
HETATM   10  C   UNL     1     -11.258  15.026  68.000  1.00  0.00    -0.324 C  
BRANCH  10  11
HETATM   11  C   UNL     1     -12.040  13.956  68.744  1.00  0.00    -0.344 C  
HETATM   12  C   UNL     1     -11.836  14.059  70.270  1.00  0.00    -0.373 C  
HETATM   13  C   UNL     1     -12.531  12.901  71.002  1.00  0.00    -0.374 C  
HETATM   14  C   UNL     1     -12.353  15.386  70.839  1.00  0.00    -0.452 C  
BRANCH  13  15
HETATM   15  C   UNL     1     -12.089  11.503  70.570  1.00  0.00    -0.472 C  
BRANCH  15  16
HETATM   16  C   UNL     1     -12.234  10.419  71.654  1.00  0.00    -0.340 C  
BRANCH  16  17
HETATM   17  C   UNL     1     -11.378   9.150  71.385  1.00  0.00    -0.344 C  
HETATM   18  C   UNL     1     -12.031   8.339  70.245  1.00  0.00     0.310 C  
HETATM   19  C   UNL     1     -11.208   8.383  72.696  1.00  0.00    -0.339 C  
HETATM   20  C   UNL     1     -10.379   7.140  72.481  1.00  0.00    -0.237 C  
HETATM   21  C   UNL     1      -9.197   7.393  71.586  1.00  0.00    -0.154 A  
HETATM   22  C   UNL     1      -8.224   6.392  71.404  1.00  0.00    -0.121 A  
HETATM   23  C   UNL     1      -8.358   5.042  72.061  1.00  0.00    -0.124 C  
HETATM   24  C   UNL     1      -7.120   6.673  70.580  1.00  0.00    -0.068 A  
HETATM   25  C   UNL     1      -6.974   7.907  69.914  1.00  0.00    -0.050 A  
HETATM   26  O   UNL     1      -6.135   5.741  70.380  1.00  0.00    -0.024 OA 
HETATM   27  C   UNL     1      -5.772   8.156  69.040  1.00  0.00    -0.035 C  
HETATM   28  C   UNL     1      -7.975   8.895  70.070  1.00  0.00    -0.109 A  
HETATM   29  H   UNL     1      -5.389   5.931  69.823  1.00  0.00     0.000 HD 
HETATM   30  C   UNL     1      -9.090   8.617  70.891  1.00  0.00    -0.187 A  
HETATM   31  C   UNL     1      -7.905  10.230  69.371  1.00  0.00    -0.157 C  
HETATM   32  O   UNL     1     -10.070   9.591  70.944  1.00  0.00    -0.286 OA 
ENDBRANCH  16  17
ENDBRANCH  15  16
ENDBRANCH  13  15
ENDBRANCH  10  11
ENDBRANCH   9  10
ENDBRANCH   5   6
ENDBRANCH   4   5
TORSDOF 7
ENDMDL
MODEL      137
REMARK 921   NORMALIZED FREE ENERGY PREDICTED BY IDOCK:   -5.19 KCAL/MOL
REMARK 922        TOTAL FREE ENERGY PREDICTED BY IDOCK:   -9.07 KCAL/MOL
REMARK 923 INTER-LIGAND FREE ENERGY PREDICTED BY IDOCK:   -7.62 KCAL/MOL
REMARK 924 INTRA-LIGAND FREE ENERGY PREDICTED BY IDOCK:   -1.45 KCAL/MOL
REMARK 927      BINDING AFFINITY PREDICTED BY RF-SCORE:    0.00 PKD
ROOT
HETATM    1  C   UNL     1     -12.315  16.480  73.169  1.00  0.00    -0.404 C  
HETATM    2  C   UNL     1     -12.539  15.085  72.589  1.00  0.00    -0.459 C  
HETATM    3  C   UNL     1     -14.036  14.849  72.371  1.00  0.00    -0.554 C  
HETATM    4  C   UNL     1     -11.712  14.919  71.298  1.00  0.00    -0.382 C  
ENDROOT
BRANCH   4   5
HETATM    5  C   UNL     1     -11.890  13.535  70.680  1.00  0.00    -0.200 C  
BRANCH   5   6
HETATM    6  C   UNL     1     -12.387  13.589  69.238  1.00  0.00    -0.125 C  
HETATM    7  C   UNL     1     -11.301  14.117  68.278  1.00  0.00    -0.319 C  
HETATM    8  C   UNL     1     -10.042  13.236  68.293  1.00  0.00    -0.250 C  
HETATM    9  C   UNL     1     -11.888  14.241  66.859  1.00  0.00    -0.458 C  
BRANCH   9  10
HETATM   10  C   UNL     1     -10.855  14.762  65.863  1.00  0.00    -0.331 C  
BRANCH  10  11
HETATM   11  C   UNL     1     -10.108  13.637  65.163  1.00  0.00    -0.298 C  
HETATM   12  C   UNL     1     -11.077  12.627  64.516  1.00  0.00    -0.365 C  
HETATM   13  C   UNL     1     -10.317  11.433  63.919  1.00  0.00    -0.434 C  
HETATM   14  C   UNL     1     -11.939  13.265  63.419  1.00  0.00    -0.491 C  
BRANCH  13  15
HETATM   15  C   UNL     1      -9.438  10.665  64.906  1.00  0.00    -0.293 C  
BRANCH  15  16
HETATM   16  C   UNL     1     -10.147   9.504  65.628  1.00  0.00    -0.157 C  
BRANCH  16  17
HETATM   17  C   UNL     1      -9.738   9.356  67.120  1.00  0.00    -0.173 C  
HETATM   18  C   UNL     1     -10.840   9.979  68.005  1.00  0.00    -0.311 C  
HETATM   19  C   UNL     1      -8.348   9.963  67.312  1.00  0.00    -0.121 C  
HETATM   20  C   UNL     1      -7.909   9.838  68.751  1.00  0.00    -0.082 C  
HETATM   21  C   UNL     1      -8.241   8.492  69.334  1.00  0.00    -0.114 A  
HETATM   22  C   UNL     1      -7.764   8.139  70.610  1.00  0.00    -0.085 A  
HETATM   23  C   UNL     1      -6.950   9.104  71.435  1.00  0.00    -0.031 C  
HETATM   24  C   UNL     1      -8.074   6.863  71.111  1.00  0.00    -0.110 A  
HETATM   25  C   UNL     1      -8.865   5.945  70.391  1.00  0.00    -0.146 A  
HETATM   26  O   UNL     1      -7.622   6.461  72.342  1.00  0.00    -0.095 OA 
HETATM   27  C   UNL     1      -9.170   4.590  70.976  1.00  0.00    -0.200 C  
HETATM   28  C   UNL     1      -9.373   6.320  69.126  1.00  0.00    -0.133 A  
HETATM   29  H   UNL     1      -7.832   5.599  72.681  1.00  0.00     0.000 HD 
HETATM   30  C   UNL     1      -9.072   7.602  68.619  1.00  0.00    -0.135 A  
HETATM   31  C   UNL     1     -10.248   5.404  68.306  1.00  0.00    -0.224 C  
HETATM   32  O   UNL     1      -9.659   7.939  67.413  1.00  0.00    -0.141 OA 
ENDBRANCH  16  17
ENDBRANCH  15  16
ENDBRANCH  13  15
ENDBRANCH  10  11
ENDBRANCH   9  10
ENDBRANCH   5   6
ENDBRANCH   4   5
TORSDOF 7
ENDMDL
MODEL      138
REMARK 921   NORMALIZED FREE ENERGY PREDICTED BY IDOCK:   -5.18 KCAL/MOL
REMARK 922        TOTAL FREE ENERGY PREDICTED BY IDOCK:   -9.05 KCAL/MOL
REMARK 923 INTER-LIGAND FREE ENERGY PREDICTED BY IDOCK:   -7.76 KCAL/MOL
REMARK 924 INTRA-LIGAND FREE ENERGY PREDICTED BY IDOCK:   -1.28 KCAL/MOL
REMARK 927      BINDING AFFINITY PREDICTED BY RF-SCORE:    0.00 PKD
ROOT
HETATM    1  C   UNL     1     -11.626   7.522  72.579  1.00  0.00    -0.352 C  
HETATM    2  C   UNL     1     -10.634   6.364  72.665  1.00  0.00    -0.250 C  
HETATM    3  C   UNL     1     -11.324   5.135  73.264  1.00  0.00    -0.361 C  
HETATM    4  C   UNL     1     -10.029   6.092  71.273  1.00  0.00    -0.215 C  
ENDROOT
BRANCH   4   5
HETATM    5  C   UNL     1      -9.020   4.948  71.302  1.00  0.00    -0.163 C  
BRANCH   5   6
HETATM    6  C   UNL     1      -9.482   3.729  70.509  1.00  0.00    -0.254 C  
HETATM    7  C   UNL     1      -8.835   3.678  69.109  1.00  0.00    -0.157 C  
HETATM    8  C   UNL     1      -7.302   3.618  69.186  1.00  0.00    -0.050 C  
HETATM    9  C   UNL     1      -9.411   2.486  68.322  1.00  0.00    -0.262 C  
BRANCH   9  10
HETATM   10  C   UNL     1      -8.806   2.387  66.923  1.00  0.00    -0.147 C  
BRANCH  10  11
HETATM   11  C   UNL     1      -9.000   3.662  66.118  1.00  0.00    -0.142 C  
HETATM   12  C   UNL     1      -7.670   4.169  65.523  1.00  0.00    -0.086 C  
HETATM   13  C   UNL     1      -7.857   5.520  64.817  1.00  0.00    -0.106 C  
HETATM   14  C   UNL     1      -7.056   3.172  64.533  1.00  0.00    -0.057 C  
BRANCH  13  15
HETATM   15  C   UNL     1      -8.428   6.636  65.691  1.00  0.00    -0.147 C  
BRANCH  15  16
HETATM   16  C   UNL     1      -8.724   7.950  64.944  1.00  0.00     0.123 C  
BRANCH  16  17
HETATM   17  C   UNL     1      -9.151   9.115  65.880  1.00  0.00    -0.205 C  
HETATM   18  C   UNL     1      -7.884   9.771  66.471  1.00  0.00    -0.109 C  
HETATM   19  C   UNL     1     -10.134   8.577  66.920  1.00  0.00    -0.364 C  
HETATM   20  C   UNL     1     -10.577   9.680  67.851  1.00  0.00    -0.308 C  
HETATM   21  C   UNL     1     -10.866  10.962  67.119  1.00  0.00    -0.337 A  
HETATM   22  C   UNL     1     -11.445  12.048  67.801  1.00  0.00    -0.394 A  
HETATM   23  C   UNL     1     -11.750  11.972  69.276  1.00  0.00    -0.389 C  
HETATM   24  C   UNL     1     -11.723  13.221  67.079  1.00  0.00    -0.389 A  
HETATM   25  C   UNL     1     -11.417  13.350  65.709  1.00  0.00    -0.341 A  
HETATM   26  O   UNL     1     -12.300  14.304  67.690  1.00  0.00    -0.598 OA 
HETATM   27  C   UNL     1     -11.734  14.631  64.981  1.00  0.00    -0.385 C  
HETATM   28  C   UNL     1     -10.800  12.269  65.038  1.00  0.00    -0.337 A  
HETATM   29  H   UNL     1     -12.488  15.097  67.201  1.00  0.00     0.000 HD 
HETATM   30  C   UNL     1     -10.512  11.089  65.759  1.00  0.00    -0.228 A  
HETATM   31  C   UNL     1     -10.418  12.338  63.580  1.00  0.00    -0.459 C  
HETATM   32  O   UNL     1      -9.841  10.097  65.068  1.00  0.00    -0.296 OA 
ENDBRANCH  16  17
ENDBRANCH  15  16
ENDBRANCH  13  15
ENDBRANCH  10  11
ENDBRANCH   9  10
ENDBRANCH   5   6
ENDBRANCH   4   5
TORSDOF 7
ENDMDL
MODEL      139
REMARK 921   NORMALIZED FREE ENERGY PREDICTED BY IDOCK:   -5.17 KCAL/MOL
REMARK 922        TOTAL FREE ENERGY PREDICTED BY IDOCK:   -9.04 KCAL/MOL
REMARK 923 INTER-LIGAND FREE ENERGY PREDICTED BY IDOCK:   -6.98 KCAL/MOL
REMARK 924 INTRA-LIGAND FREE ENERGY PREDICTED BY IDOCK:   -2.06 KCAL/MOL
REMARK 927      BINDING AFFINITY PREDICTED BY RF-SCORE:    0.00 PKD
ROOT
HETATM    1  C   UNL     1      -8.592   5.241  65.885  1.00  0.00    -0.128 C  
HETATM    2  C   UNL     1      -9.443   5.751  67.046  1.00  0.00    -0.131 C  
HETATM    3  C   UNL     1     -10.891   5.938  66.583  1.00  0.00    -0.292 C  
HETATM    4  C   UNL     1      -9.317   4.790  68.246  1.00  0.00    -0.177 C  
ENDROOT
BRANCH   4   5
HETATM    5  C   UNL     1     -10.141   5.259  69.441  1.00  0.00    -0.311 C  
BRANCH   5   6
HETATM    6  C   UNL     1      -9.796   6.679  69.880  1.00  0.00    -0.180 C  
HETATM    7  C   UNL     1     -10.994   7.637  69.714  1.00  0.00    -0.178 C  
HETATM    8  C   UNL     1     -12.209   7.188  70.540  1.00  0.00    -0.173 C  
HETATM    9  C   UNL     1     -10.558   9.069  70.078  1.00  0.00    -0.246 C  
BRANCH   9  10
HETATM   10  C   UNL     1     -11.707  10.064  69.930  1.00  0.00    -0.190 C  
BRANCH  10  11
HETATM   11  C   UNL     1     -11.289  11.485  70.272  1.00  0.00    -0.045 C  
HETATM   12  C   UNL     1     -12.510  12.396  70.515  1.00  0.00    -0.270 C  
HETATM   13  C   UNL     1     -12.080  13.854  70.739  1.00  0.00    -0.404 C  
HETATM   14  C   UNL     1     -13.350  11.938  71.714  1.00  0.00    -0.334 C  
BRANCH  13  15
HETATM   15  C   UNL     1     -11.262  14.470  69.604  1.00  0.00    -0.292 C  
BRANCH  15  16
HETATM   16  C   UNL     1     -11.998  14.552  68.253  1.00  0.00    -0.303 C  
BRANCH  16  17
HETATM   17  C   UNL     1     -11.227  13.881  67.082  1.00  0.00    -0.313 C  
HETATM   18  C   UNL     1     -10.660  14.983  66.160  1.00  0.00    -0.314 C  
HETATM   19  C   UNL     1     -12.155  12.885  66.388  1.00  0.00    -0.400 C  
HETATM   20  C   UNL     1     -11.444  12.206  65.242  1.00  0.00    -0.388 C  
HETATM   21  C   UNL     1     -10.035  11.818  65.597  1.00  0.00    -0.271 A  
HETATM   22  C   UNL     1      -9.276  11.032  64.709  1.00  0.00    -0.198 A  
HETATM   23  C   UNL     1      -9.833  10.598  63.377  1.00  0.00    -0.376 C  
HETATM   24  C   UNL     1      -7.971  10.668  65.085  1.00  0.00    -0.036 A  
HETATM   25  C   UNL     1      -7.396  11.085  66.302  1.00  0.00    -0.097 A  
HETATM   26  O   UNL     1      -7.193   9.892  64.265  1.00  0.00    -0.125 OA 
HETATM   27  C   UNL     1      -5.992  10.668  66.656  1.00  0.00    -0.079 C  
HETATM   28  C   UNL     1      -8.150  11.906  67.173  1.00  0.00    -0.172 A  
HETATM   29  H   UNL     1      -6.311   9.646  64.520  1.00  0.00     0.000 HD 
HETATM   30  C   UNL     1      -9.459  12.282  66.799  1.00  0.00    -0.222 A  
HETATM   31  C   UNL     1      -7.597  12.415  68.481  1.00  0.00    -0.122 C  
HETATM   32  O   UNL     1     -10.117  13.146  67.655  1.00  0.00    -0.215 OA 
ENDBRANCH  16  17
ENDBRANCH  15  16
ENDBRANCH  13  15
ENDBRANCH  10  11
ENDBRANCH   9  10
ENDBRANCH   5   6
ENDBRANCH   4   5
TORSDOF 7
ENDMDL
MODEL      140
REMARK 921   NORMALIZED FREE ENERGY PREDICTED BY IDOCK:   -5.16 KCAL/MOL
REMARK 922        TOTAL FREE ENERGY PREDICTED BY IDOCK:   -9.02 KCAL/MOL
REMARK 923 INTER-LIGAND FREE ENERGY PREDICTED BY IDOCK:   -7.38 KCAL/MOL
REMARK 924 INTRA-LIGAND FREE ENERGY PREDICTED BY IDOCK:   -1.65 KCAL/MOL
REMARK 927      BINDING AFFINITY PREDICTED BY RF-SCORE:    0.00 PKD
ROOT
HETATM    1  C   UNL     1     -10.376  10.589  65.285  1.00  0.00    -0.300 C  
HETATM    2  C   UNL     1     -10.978  11.926  64.860  1.00  0.00    -0.367 C  
HETATM    3  C   UNL     1     -11.571  11.803  63.454  1.00  0.00    -0.419 C  
HETATM    4  C   UNL     1     -12.012  12.388  65.907  1.00  0.00    -0.434 C  
ENDROOT
BRANCH   4   5
HETATM    5  C   UNL     1     -12.640  13.729  65.537  1.00  0.00    -0.551 C  
BRANCH   5   6
HETATM    6  C   UNL     1     -11.606  14.778  65.136  1.00  0.00    -0.358 C  
HETATM    7  C   UNL     1     -11.156  15.629  66.342  1.00  0.00    -0.123 C  
HETATM    8  C   UNL     1     -10.527  14.770  67.448  1.00  0.00    -0.256 C  
HETATM    9  C   UNL     1     -10.192  16.729  65.860  1.00  0.00    -0.345 C  
BRANCH   9  10
HETATM   10  C   UNL     1      -9.713  17.606  67.015  1.00  0.00    -0.292 C  
BRANCH  10  11
HETATM   11  C   UNL     1      -8.543  16.988  67.763  1.00  0.00    -0.213 C  
HETATM   12  C   UNL     1      -7.387  16.622  66.810  1.00  0.00    -0.283 C  
HETATM   13  C   UNL     1      -6.263  15.888  67.557  1.00  0.00    -0.188 C  
HETATM   14  C   UNL     1      -6.797  17.851  66.109  1.00  0.00    -0.324 C  
BRANCH  13  15
HETATM   15  C   UNL     1      -6.690  14.611  68.278  1.00  0.00    -0.115 C  
BRANCH  15  16
HETATM   16  C   UNL     1      -7.219  13.497  67.356  1.00  0.00    -0.113 C  
BRANCH  16  17
HETATM   17  C   UNL     1      -7.542  12.171  68.100  1.00  0.00    -0.125 C  
HETATM   18  C   UNL     1      -6.781  12.156  69.445  1.00  0.00    -0.056 C  
HETATM   19  C   UNL     1      -7.225  10.997  67.175  1.00  0.00    -0.112 C  
HETATM   20  C   UNL     1      -7.527   9.686  67.860  1.00  0.00    -0.083 C  
HETATM   21  C   UNL     1      -8.821   9.728  68.624  1.00  0.00    -0.126 A  
HETATM   22  C   UNL     1      -9.343   8.549  69.190  1.00  0.00    -0.153 A  
HETATM   23  C   UNL     1      -8.609   7.237  69.082  1.00  0.00    -0.133 C  
HETATM   24  C   UNL     1     -10.568   8.622  69.877  1.00  0.00    -0.224 A  
HETATM   25  C   UNL     1     -11.269   9.835  70.037  1.00  0.00    -0.297 A  
HETATM   26  O   UNL     1     -11.130   7.503  70.435  1.00  0.00    -0.259 OA 
HETATM   27  C   UNL     1     -12.577   9.858  70.785  1.00  0.00    -0.324 C  
HETATM   28  C   UNL     1     -10.719  11.022  69.499  1.00  0.00    -0.231 A  
HETATM   29  H   UNL     1     -11.957   7.553  70.899  1.00  0.00     0.000 HD 
HETATM   30  C   UNL     1      -9.486  10.958  68.814  1.00  0.00    -0.190 A  
HETATM   31  C   UNL     1     -11.395  12.363  69.650  1.00  0.00    -0.193 C  
HETATM   32  O   UNL     1      -8.964  12.162  68.377  1.00  0.00    -0.186 OA 
ENDBRANCH  16  17
ENDBRANCH  15  16
ENDBRANCH  13  15
ENDBRANCH  10  11
ENDBRANCH   9  10
ENDBRANCH   5   6
ENDBRANCH   4   5
TORSDOF 7
ENDMDL
MODEL      141
REMARK 921   NORMALIZED FREE ENERGY PREDICTED BY IDOCK:   -5.16 KCAL/MOL
REMARK 922        TOTAL FREE ENERGY PREDICTED BY IDOCK:   -9.02 KCAL/MOL
REMARK 923 INTER-LIGAND FREE ENERGY PREDICTED BY IDOCK:   -7.95 KCAL/MOL
REMARK 924 INTRA-LIGAND FREE ENERGY PREDICTED BY IDOCK:   -1.08 KCAL/MOL
REMARK 927      BINDING AFFINITY PREDICTED BY RF-SCORE:    0.00 PKD
ROOT
HETATM    1  C   UNL     1     -11.550  15.248  71.341  1.00  0.00    -0.446 C  
HETATM    2  C   UNL     1     -11.681  15.471  69.836  1.00  0.00    -0.368 C  
HETATM    3  C   UNL     1     -10.423  16.165  69.304  1.00  0.00    -0.267 C  
HETATM    4  C   UNL     1     -11.967  14.129  69.133  1.00  0.00    -0.388 C  
ENDROOT
BRANCH   4   5
HETATM    5  C   UNL     1     -12.118  14.296  67.624  1.00  0.00    -0.332 C  
BRANCH   5   6
HETATM    6  C   UNL     1     -12.065  12.968  66.872  1.00  0.00    -0.349 C  
HETATM    7  C   UNL     1     -10.915  12.939  65.844  1.00  0.00    -0.300 C  
HETATM    8  C   UNL     1      -9.545  13.142  66.508  1.00  0.00    -0.268 C  
HETATM    9  C   UNL     1     -10.971  11.619  65.051  1.00  0.00    -0.334 C  
BRANCH   9  10
HETATM   10  C   UNL     1      -9.853  11.535  64.014  1.00  0.00    -0.306 C  
BRANCH  10  11
HETATM   11  C   UNL     1      -8.683  10.691  64.493  1.00  0.00    -0.154 C  
HETATM   12  C   UNL     1      -8.791   9.234  63.996  1.00  0.00    -0.168 C  
HETATM   13  C   UNL     1      -7.672   8.362  64.585  1.00  0.00    -0.112 C  
HETATM   14  C   UNL     1      -8.744   9.134  62.467  1.00  0.00    -0.213 C  
BRANCH  13  15
HETATM   15  C   UNL     1      -7.613   8.328  66.112  1.00  0.00    -0.085 C  
BRANCH  15  16
HETATM   16  C   UNL     1      -8.293   9.521  66.809  1.00  0.00    -0.116 C  
BRANCH  16  17
HETATM   17  C   UNL     1      -9.481   9.114  67.724  1.00  0.00    -0.140 C  
HETATM   18  C   UNL     1     -10.626   8.565  66.843  1.00  0.00    -0.279 C  
HETATM   19  C   UNL     1      -9.865  10.310  68.595  1.00  0.00    -0.180 C  
HETATM   20  C   UNL     1     -11.018   9.957  69.504  1.00  0.00    -0.274 C  
HETATM   21  C   UNL     1     -10.866   8.588  70.110  1.00  0.00    -0.238 A  
HETATM   22  C   UNL     1     -11.761   8.156  71.107  1.00  0.00    -0.309 A  
HETATM   23  C   UNL     1     -12.906   9.026  71.560  1.00  0.00    -0.394 C  
HETATM   24  C   UNL     1     -11.573   6.881  71.667  1.00  0.00    -0.287 A  
HETATM   25  C   UNL     1     -10.541   6.019  71.245  1.00  0.00    -0.302 A  
HETATM   26  O   UNL     1     -12.406   6.415  72.652  1.00  0.00    -0.506 OA 
HETATM   27  C   UNL     1     -10.385   4.660  71.878  1.00  0.00    -0.220 C  
HETATM   28  C   UNL     1      -9.668   6.444  70.217  1.00  0.00    -0.186 A  
HETATM   29  H   UNL     1     -12.279   5.553  73.031  1.00  0.00     0.000 HD 
HETATM   30  C   UNL     1      -9.855   7.721  69.644  1.00  0.00    -0.182 A  
HETATM   31  C   UNL     1      -8.556   5.570  69.692  1.00  0.00    -0.108 C  
HETATM   32  O   UNL     1      -9.019   8.049  68.592  1.00  0.00    -0.134 OA 
ENDBRANCH  16  17
ENDBRANCH  15  16
ENDBRANCH  13  15
ENDBRANCH  10  11
ENDBRANCH   9  10
ENDBRANCH   5   6
ENDBRANCH   4   5
TORSDOF 7
ENDMDL
MODEL      142
REMARK 921   NORMALIZED FREE ENERGY PREDICTED BY IDOCK:   -5.15 KCAL/MOL
REMARK 922        TOTAL FREE ENERGY PREDICTED BY IDOCK:   -9.01 KCAL/MOL
REMARK 923 INTER-LIGAND FREE ENERGY PREDICTED BY IDOCK:   -7.77 KCAL/MOL
REMARK 924 INTRA-LIGAND FREE ENERGY PREDICTED BY IDOCK:   -1.24 KCAL/MOL
REMARK 927      BINDING AFFINITY PREDICTED BY RF-SCORE:    0.00 PKD
ROOT
HETATM    1  C   UNL     1      -8.518   2.510  63.190  1.00  0.00    -0.085 C  
HETATM    2  C   UNL     1      -9.408   3.629  63.728  1.00  0.00    -0.129 C  
HETATM    3  C   UNL     1     -10.738   3.642  62.970  1.00  0.00    -0.198 C  
HETATM    4  C   UNL     1      -9.588   3.465  65.251  1.00  0.00    -0.116 C  
ENDROOT
BRANCH   4   5
HETATM    5  C   UNL     1     -10.462   4.565  65.844  1.00  0.00    -0.262 C  
BRANCH   5   6
HETATM    6  C   UNL     1      -9.935   5.088  67.178  1.00  0.00    -0.226 C  
HETATM    7  C   UNL     1      -8.511   5.666  67.044  1.00  0.00    -0.110 C  
HETATM    8  C   UNL     1      -8.455   6.831  66.045  1.00  0.00    -0.143 C  
HETATM    9  C   UNL     1      -7.997   6.085  68.435  1.00  0.00    -0.107 C  
BRANCH   9  10
HETATM   10  C   UNL     1      -6.586   6.665  68.364  1.00  0.00    -0.059 C  
BRANCH  10  11
HETATM   11  C   UNL     1      -6.576   8.179  68.500  1.00  0.00    -0.058 C  
HETATM   12  C   UNL     1      -7.211   8.636  69.829  1.00  0.00    -0.051 C  
HETATM   13  C   UNL     1      -7.307  10.167  69.902  1.00  0.00    -0.169 C  
HETATM   14  C   UNL     1      -6.435   8.129  71.051  1.00  0.00    -0.038 C  
BRANCH  13  15
HETATM   15  C   UNL     1      -8.091  10.822  68.766  1.00  0.00    -0.143 C  
BRANCH  15  16
HETATM   16  C   UNL     1      -9.622  10.715  68.896  1.00  0.00    -0.204 C  
BRANCH  16  17
HETATM   17  C   UNL     1     -10.397  11.538  67.828  1.00  0.00    -0.182 C  
HETATM   18  C   UNL     1     -11.878  11.640  68.255  1.00  0.00    -0.335 C  
HETATM   19  C   UNL     1     -10.172  10.901  66.457  1.00  0.00    -0.282 C  
HETATM   20  C   UNL     1     -10.907  11.671  65.387  1.00  0.00    -0.336 C  
HETATM   21  C   UNL     1     -10.781  13.159  65.569  1.00  0.00    -0.297 A  
HETATM   22  C   UNL     1     -11.264  14.033  64.577  1.00  0.00    -0.358 A  
HETATM   23  C   UNL     1     -11.950  13.510  63.340  1.00  0.00    -0.314 C  
HETATM   24  C   UNL     1     -11.107  15.417  64.769  1.00  0.00    -0.403 A  
HETATM   25  C   UNL     1     -10.508  15.951  65.929  1.00  0.00    -0.373 A  
HETATM   26  O   UNL     1     -11.545  16.313  63.829  1.00  0.00    -1.539 OA 
HETATM   27  C   UNL     1     -10.366  17.443  66.086  1.00  0.00    -0.329 C  
HETATM   28  C   UNL     1     -10.059  15.068  66.938  1.00  0.00    -0.249 A  
HETATM   29  H   UNL     1     -11.439  17.248  63.960  1.00  0.00     0.000 HD 
HETATM   30  C   UNL     1     -10.220  13.678  66.755  1.00  0.00    -0.268 A  
HETATM   31  C   UNL     1      -9.432  15.562  68.219  1.00  0.00    -0.200 C  
HETATM   32  O   UNL     1      -9.831  12.871  67.809  1.00  0.00    -0.209 OA 
ENDBRANCH  16  17
ENDBRANCH  15  16
ENDBRANCH  13  15
ENDBRANCH  10  11
ENDBRANCH   9  10
ENDBRANCH   5   6
ENDBRANCH   4   5
TORSDOF 7
ENDMDL
MODEL      143
REMARK 921   NORMALIZED FREE ENERGY PREDICTED BY IDOCK:   -5.10 KCAL/MOL
REMARK 922        TOTAL FREE ENERGY PREDICTED BY IDOCK:   -8.94 KCAL/MOL
REMARK 923 INTER-LIGAND FREE ENERGY PREDICTED BY IDOCK:   -8.45 KCAL/MOL
REMARK 924 INTRA-LIGAND FREE ENERGY PREDICTED BY IDOCK:   -0.49 KCAL/MOL
REMARK 927      BINDING AFFINITY PREDICTED BY RF-SCORE:    0.00 PKD
ROOT
HETATM    1  C   UNL     1     -10.513  20.159  68.195  1.00  0.00    -0.375 C  
HETATM    2  C   UNL     1      -9.220  19.796  67.469  1.00  0.00    -0.428 C  
HETATM    3  C   UNL     1      -9.519  19.500  65.996  1.00  0.00    -0.309 C  
HETATM    4  C   UNL     1      -8.184  20.923  67.654  1.00  0.00    -0.043 C  
ENDROOT
BRANCH   4   5
HETATM    5  C   UNL     1      -6.865  20.608  66.955  1.00  0.00    -0.353 C  
BRANCH   5   6
HETATM    6  C   UNL     1      -6.058  19.527  67.670  1.00  0.00    -0.215 C  
HETATM    7  C   UNL     1      -6.410  18.116  67.156  1.00  0.00    -0.187 C  
HETATM    8  C   UNL     1      -6.137  17.967  65.652  1.00  0.00    -0.244 C  
HETATM    9  C   UNL     1      -5.640  17.065  67.979  1.00  0.00    -0.124 C  
BRANCH   9  10
HETATM   10  C   UNL     1      -5.951  15.644  67.513  1.00  0.00    -0.123 C  
BRANCH  10  11
HETATM   11  C   UNL     1      -7.394  15.488  67.060  1.00  0.00    -0.172 C  
HETATM   12  C   UNL     1      -8.281  14.902  68.178  1.00  0.00    -0.139 C  
HETATM   13  C   UNL     1      -9.707  14.634  67.672  1.00  0.00    -0.214 C  
HETATM   14  C   UNL     1      -8.355  15.818  69.405  1.00  0.00    -0.215 C  
BRANCH  13  15
HETATM   15  C   UNL     1      -9.802  13.698  66.467  1.00  0.00    -0.295 C  
BRANCH  15  16
HETATM   16  C   UNL     1      -9.114  12.333  66.657  1.00  0.00    -0.203 C  
BRANCH  16  17
HETATM   17  C   UNL     1      -9.601  11.560  67.915  1.00  0.00    -0.177 C  
HETATM   18  C   UNL     1      -8.451  11.507  68.945  1.00  0.00     0.011 C  
HETATM   19  C   UNL     1     -10.129  10.194  67.479  1.00  0.00    -0.244 C  
HETATM   20  C   UNL     1     -10.616   9.407  68.672  1.00  0.00    -0.230 C  
HETATM   21  C   UNL     1     -11.400  10.259  69.633  1.00  0.00    -0.315 A  
HETATM   22  C   UNL     1     -12.068   9.662  70.719  1.00  0.00    -0.328 A  
HETATM   23  C   UNL     1     -11.983   8.178  70.969  1.00  0.00    -0.257 C  
HETATM   24  C   UNL     1     -12.811  10.486  71.582  1.00  0.00    -0.475 A  
HETATM   25  C   UNL     1     -12.885  11.883  71.409  1.00  0.00    -0.411 A  
HETATM   26  O   UNL     1     -13.493   9.956  72.647  1.00  0.00    -0.607 OA 
HETATM   27  C   UNL     1     -13.694  12.721  72.365  1.00  0.00    -0.457 C  
HETATM   28  C   UNL     1     -12.180  12.481  70.338  1.00  0.00    -0.368 A  
HETATM   29  H   UNL     1     -13.996  10.514  73.230  1.00  0.00     0.000 HD 
HETATM   30  C   UNL     1     -11.426  11.660  69.471  1.00  0.00    -0.304 A  
HETATM   31  C   UNL     1     -12.187  13.971  70.101  1.00  0.00    -0.425 C  
HETATM   32  O   UNL     1     -10.699  12.310  68.490  1.00  0.00    -0.223 OA 
ENDBRANCH  16  17
ENDBRANCH  15  16
ENDBRANCH  13  15
ENDBRANCH  10  11
ENDBRANCH   9  10
ENDBRANCH   5   6
ENDBRANCH   4   5
TORSDOF 7
ENDMDL
MODEL      144
REMARK 921   NORMALIZED FREE ENERGY PREDICTED BY IDOCK:   -5.10 KCAL/MOL
REMARK 922        TOTAL FREE ENERGY PREDICTED BY IDOCK:   -8.94 KCAL/MOL
REMARK 923 INTER-LIGAND FREE ENERGY PREDICTED BY IDOCK:   -8.07 KCAL/MOL
REMARK 924 INTRA-LIGAND FREE ENERGY PREDICTED BY IDOCK:   -0.87 KCAL/MOL
REMARK 927      BINDING AFFINITY PREDICTED BY RF-SCORE:    0.00 PKD
ROOT
HETATM    1  C   UNL     1      -5.630  15.954  70.262  1.00  0.00    -0.163 C  
HETATM    2  C   UNL     1      -6.246  17.098  69.459  1.00  0.00    -0.242 C  
HETATM    3  C   UNL     1      -5.535  18.411  69.800  1.00  0.00    -0.218 C  
HETATM    4  C   UNL     1      -6.199  16.764  67.955  1.00  0.00    -0.148 C  
ENDROOT
BRANCH   4   5
HETATM    5  C   UNL     1      -6.813  17.872  67.104  1.00  0.00    -0.201 C  
BRANCH   5   6
HETATM    6  C   UNL     1      -7.784  17.343  66.052  1.00  0.00    -0.233 C  
HETATM    7  C   UNL     1      -9.055  16.749  66.694  1.00  0.00    -0.275 C  
HETATM    8  C   UNL     1      -9.814  17.787  67.534  1.00  0.00    -0.304 C  
HETATM    9  C   UNL     1      -9.950  16.146  65.594  1.00  0.00    -0.330 C  
BRANCH   9  10
HETATM   10  C   UNL     1     -11.226  15.540  66.173  1.00  0.00    -0.102 C  
BRANCH  10  11
HETATM   11  C   UNL     1     -11.080  14.054  66.463  1.00  0.00    -0.315 C  
HETATM   12  C   UNL     1     -10.815  13.789  67.959  1.00  0.00    -0.263 C  
HETATM   13  C   UNL     1     -10.548  12.298  68.220  1.00  0.00    -0.243 C  
HETATM   14  C   UNL     1     -11.977  14.247  68.848  1.00  0.00    -0.356 C  
BRANCH  13  15
HETATM   15  C   UNL     1      -9.384  11.700  67.430  1.00  0.00    -0.168 C  
BRANCH  15  16
HETATM   16  C   UNL     1      -8.294  11.039  68.293  1.00  0.00    -0.133 C  
BRANCH  16  17
HETATM   17  C   UNL     1      -8.818   9.866  69.168  1.00  0.00    -0.164 C  
HETATM   18  C   UNL     1      -7.893   9.705  70.394  1.00  0.00    -0.181 C  
HETATM   19  C   UNL     1      -8.943   8.618  68.295  1.00  0.00    -0.142 C  
HETATM   20  C   UNL     1      -9.452   7.451  69.107  1.00  0.00    -0.149 C  
HETATM   21  C   UNL     1     -10.567   7.848  70.036  1.00  0.00    -0.242 A  
HETATM   22  C   UNL     1     -11.273   6.862  70.751  1.00  0.00    -0.338 A  
HETATM   23  C   UNL     1     -10.909   5.403  70.638  1.00  0.00    -0.193 C  
HETATM   24  C   UNL     1     -12.324   7.268  71.590  1.00  0.00    -0.352 A  
HETATM   25  C   UNL     1     -12.673   8.624  71.757  1.00  0.00    -0.401 A  
HETATM   26  O   UNL     1     -13.055   6.349  72.298  1.00  0.00    -0.532 OA 
HETATM   27  C   UNL     1     -13.808   9.005  72.672  1.00  0.00    -0.414 C  
HETATM   28  C   UNL     1     -11.935   9.612  71.065  1.00  0.00    -0.427 A  
HETATM   29  H   UNL     1     -13.766   6.624  72.866  1.00  0.00     0.000 HD 
HETATM   30  C   UNL     1     -10.873   9.213  70.225  1.00  0.00    -0.246 A  
HETATM   31  C   UNL     1     -12.228  11.085  71.210  1.00  0.00    -0.365 C  
HETATM   32  O   UNL     1     -10.141  10.228  69.636  1.00  0.00    -0.230 OA 
ENDBRANCH  16  17
ENDBRANCH  15  16
ENDBRANCH  13  15
ENDBRANCH  10  11
ENDBRANCH   9  10
ENDBRANCH   5   6
ENDBRANCH   4   5
TORSDOF 7
ENDMDL
MODEL      145
REMARK 921   NORMALIZED FREE ENERGY PREDICTED BY IDOCK:   -5.10 KCAL/MOL
REMARK 922        TOTAL FREE ENERGY PREDICTED BY IDOCK:   -8.94 KCAL/MOL
REMARK 923 INTER-LIGAND FREE ENERGY PREDICTED BY IDOCK:   -8.20 KCAL/MOL
REMARK 924 INTRA-LIGAND FREE ENERGY PREDICTED BY IDOCK:   -0.74 KCAL/MOL
REMARK 927      BINDING AFFINITY PREDICTED BY RF-SCORE:    0.00 PKD
ROOT
HETATM    1  C   UNL     1      -9.197   3.777  71.047  1.00  0.00    -0.200 C  
HETATM    2  C   UNL     1     -10.143   4.460  72.032  1.00  0.00    -0.256 C  
HETATM    3  C   UNL     1      -9.337   5.099  73.166  1.00  0.00    -0.138 C  
HETATM    4  C   UNL     1     -11.031   5.474  71.283  1.00  0.00    -0.198 C  
ENDROOT
BRANCH   4   5
HETATM    5  C   UNL     1     -12.006   6.181  72.220  1.00  0.00    -0.285 C  
BRANCH   5   6
HETATM    6  C   UNL     1     -11.677   7.658  72.415  1.00  0.00    -0.366 C  
HETATM    7  C   UNL     1     -12.477   8.555  71.447  1.00  0.00    -0.327 C  
HETATM    8  C   UNL     1     -13.993   8.397  71.637  1.00  0.00    -0.460 C  
HETATM    9  C   UNL     1     -12.033  10.020  71.623  1.00  0.00    -0.369 C  
BRANCH   9  10
HETATM   10  C   UNL     1     -12.793  10.956  70.685  1.00  0.00    -0.340 C  
BRANCH  10  11
HETATM   11  C   UNL     1     -11.876  11.958  70.002  1.00  0.00    -0.407 C  
HETATM   12  C   UNL     1     -12.475  13.380  70.014  1.00  0.00    -0.202 C  
HETATM   13  C   UNL     1     -11.600  14.358  69.216  1.00  0.00    -0.345 C  
HETATM   14  C   UNL     1     -12.657  13.924  71.436  1.00  0.00    -0.444 C  
BRANCH  13  15
HETATM   15  C   UNL     1     -11.359  13.970  67.757  1.00  0.00    -0.328 C  
BRANCH  15  16
HETATM   16  C   UNL     1     -11.779  12.533  67.396  1.00  0.00    -0.432 C  
BRANCH  16  17
HETATM   17  C   UNL     1     -10.671  11.726  66.662  1.00  0.00    -0.263 C  
HETATM   18  C   UNL     1      -9.290  12.245  67.118  1.00  0.00    -0.196 C  
HETATM   19  C   UNL     1     -10.918  11.809  65.156  1.00  0.00    -0.351 C  
HETATM   20  C   UNL     1      -9.864  11.035  64.402  1.00  0.00    -0.351 C  
HETATM   21  C   UNL     1      -9.552   9.716  65.053  1.00  0.00    -0.284 A  
HETATM   22  C   UNL     1      -8.713   8.790  64.404  1.00  0.00    -0.053 A  
HETATM   23  C   UNL     1      -8.080   9.109  63.073  1.00  0.00    -0.162 C  
HETATM   24  C   UNL     1      -8.464   7.558  65.031  1.00  0.00     0.005 A  
HETATM   25  C   UNL     1      -9.003   7.234  66.293  1.00  0.00    -0.185 A  
HETATM   26  O   UNL     1      -7.667   6.613  64.437  1.00  0.00    -0.100 OA 
HETATM   27  C   UNL     1      -8.702   5.898  66.923  1.00  0.00    -0.111 C  
HETATM   28  C   UNL     1      -9.813   8.183  66.958  1.00  0.00    -0.299 A  
HETATM   29  H   UNL     1      -7.499   5.780  64.861  1.00  0.00     0.000 HD 
HETATM   30  C   UNL     1     -10.063   9.427  66.337  1.00  0.00    -0.262 A  
HETATM   31  C   UNL     1     -10.405   7.923  68.321  1.00  0.00    -0.239 C  
HETATM   32  O   UNL     1     -10.799  10.341  67.068  1.00  0.00    -0.248 OA 
ENDBRANCH  16  17
ENDBRANCH  15  16
ENDBRANCH  13  15
ENDBRANCH  10  11
ENDBRANCH   9  10
ENDBRANCH   5   6
ENDBRANCH   4   5
TORSDOF 7
ENDMDL
MODEL      146
REMARK 921   NORMALIZED FREE ENERGY PREDICTED BY IDOCK:   -5.09 KCAL/MOL
REMARK 922        TOTAL FREE ENERGY PREDICTED BY IDOCK:   -8.93 KCAL/MOL
REMARK 923 INTER-LIGAND FREE ENERGY PREDICTED BY IDOCK:   -6.68 KCAL/MOL
REMARK 924 INTRA-LIGAND FREE ENERGY PREDICTED BY IDOCK:   -2.25 KCAL/MOL
REMARK 927      BINDING AFFINITY PREDICTED BY RF-SCORE:    0.00 PKD
ROOT
HETATM    1  C   UNL     1      -9.994   4.427  70.337  1.00  0.00    -0.253 C  
HETATM    2  C   UNL     1     -10.392   5.571  71.266  1.00  0.00    -0.297 C  
HETATM    3  C   UNL     1      -9.141   6.335  71.711  1.00  0.00    -0.144 C  
HETATM    4  C   UNL     1     -11.428   6.474  70.568  1.00  0.00    -0.448 C  
ENDROOT
BRANCH   4   5
HETATM    5  C   UNL     1     -11.869   7.632  71.458  1.00  0.00    -0.323 C  
BRANCH   5   6
HETATM    6  C   UNL     1     -11.050   8.900  71.233  1.00  0.00    -0.367 C  
HETATM    7  C   UNL     1     -11.861   9.981  70.488  1.00  0.00    -0.387 C  
HETATM    8  C   UNL     1     -13.124  10.387  71.261  1.00  0.00    -0.494 C  
HETATM    9  C   UNL     1     -10.955  11.195  70.204  1.00  0.00     0.022 C  
BRANCH   9  10
HETATM   10  C   UNL     1     -11.707  12.299  69.465  1.00  0.00    -0.398 C  
BRANCH  10  11
HETATM   11  C   UNL     1     -10.772  13.360  68.906  1.00  0.00    -0.219 C  
HETATM   12  C   UNL     1     -11.543  14.448  68.131  1.00  0.00    -0.360 C  
HETATM   13  C   UNL     1     -10.581  15.446  67.468  1.00  0.00    -0.283 C  
HETATM   14  C   UNL     1     -12.520  15.221  69.026  1.00  0.00     0.079 C  
BRANCH  13  15
HETATM   15  C   UNL     1      -9.564  14.827  66.509  1.00  0.00    -0.304 C  
BRANCH  15  16
HETATM   16  C   UNL     1     -10.179  13.971  65.386  1.00  0.00    -0.368 C  
BRANCH  16  17
HETATM   17  C   UNL     1      -9.987  12.442  65.592  1.00  0.00    -0.244 C  
HETATM   18  C   UNL     1      -9.465  11.822  64.276  1.00  0.00     0.010 C  
HETATM   19  C   UNL     1     -11.299  11.845  66.100  1.00  0.00    -0.383 C  
HETATM   20  C   UNL     1     -11.157  10.358  66.316  1.00  0.00     0.215 C  
HETATM   21  C   UNL     1      -9.851  10.000  66.971  1.00  0.00    -0.238 A  
HETATM   22  C   UNL     1      -9.615   8.679  67.396  1.00  0.00    -0.204 A  
HETATM   23  C   UNL     1     -10.635   7.592  67.173  1.00  0.00    -0.415 C  
HETATM   24  C   UNL     1      -8.393   8.387  68.025  1.00  0.00    -0.128 A  
HETATM   25  C   UNL     1      -7.394   9.364  68.218  1.00  0.00    -0.078 A  
HETATM   26  O   UNL     1      -8.116   7.121  68.473  1.00  0.00    -0.121 OA 
HETATM   27  C   UNL     1      -6.100   8.997  68.897  1.00  0.00    -0.044 C  
HETATM   28  C   UNL     1      -7.623  10.680  67.754  1.00  0.00    -0.095 A  
HETATM   29  H   UNL     1      -7.289   6.924  68.898  1.00  0.00     0.000 HD 
HETATM   30  C   UNL     1      -8.845  10.979  67.114  1.00  0.00    -0.140 A  
HETATM   31  C   UNL     1      -6.594  11.775  67.899  1.00  0.00    -0.068 C  
HETATM   32  O   UNL     1      -8.979  12.263  66.616  1.00  0.00    -0.204 OA 
ENDBRANCH  16  17
ENDBRANCH  15  16
ENDBRANCH  13  15
ENDBRANCH  10  11
ENDBRANCH   9  10
ENDBRANCH   5   6
ENDBRANCH   4   5
TORSDOF 7
ENDMDL
MODEL      147
REMARK 921   NORMALIZED FREE ENERGY PREDICTED BY IDOCK:   -5.08 KCAL/MOL
REMARK 922        TOTAL FREE ENERGY PREDICTED BY IDOCK:   -8.92 KCAL/MOL
REMARK 923 INTER-LIGAND FREE ENERGY PREDICTED BY IDOCK:   -8.36 KCAL/MOL
REMARK 924 INTRA-LIGAND FREE ENERGY PREDICTED BY IDOCK:   -0.55 KCAL/MOL
REMARK 927      BINDING AFFINITY PREDICTED BY RF-SCORE:    0.00 PKD
ROOT
HETATM    1  C   UNL     1     -11.614   1.982  73.513  1.00  0.00    -0.294 C  
HETATM    2  C   UNL     1     -10.318   2.784  73.405  1.00  0.00    -0.219 C  
HETATM    3  C   UNL     1      -9.216   1.906  72.805  1.00  0.00    -0.103 C  
HETATM    4  C   UNL     1     -10.568   4.070  72.592  1.00  0.00    -0.186 C  
ENDROOT
BRANCH   4   5
HETATM    5  C   UNL     1      -9.305   4.917  72.461  1.00  0.00    -0.155 C  
BRANCH   5   6
HETATM    6  C   UNL     1      -8.845   5.077  71.014  1.00  0.00    -0.153 C  
HETATM    7  C   UNL     1     -10.036   5.099  70.034  1.00  0.00    -0.345 C  
HETATM    8  C   UNL     1     -11.005   6.253  70.334  1.00  0.00    -0.385 C  
HETATM    9  C   UNL     1      -9.508   5.163  68.588  1.00  0.00    -0.178 C  
BRANCH   9  10
HETATM   10  C   UNL     1     -10.647   5.187  67.571  1.00  0.00    -0.085 C  
BRANCH  10  11
HETATM   11  C   UNL     1     -10.855   6.567  66.969  1.00  0.00    -0.465 C  
HETATM   12  C   UNL     1      -9.518   7.314  66.779  1.00  0.00    -0.218 C  
HETATM   13  C   UNL     1      -9.750   8.750  66.285  1.00  0.00    -0.342 C  
HETATM   14  C   UNL     1      -8.584   6.596  65.797  1.00  0.00    -0.147 C  
BRANCH  13  15
HETATM   15  C   UNL     1     -10.636   9.610  67.186  1.00  0.00    -0.298 C  
BRANCH  15  16
HETATM   16  C   UNL     1     -11.006  10.985  66.600  1.00  0.00    -0.253 C  
BRANCH  16  17
HETATM   17  C   UNL     1     -10.731  12.169  67.568  1.00  0.00    -0.232 C  
HETATM   18  C   UNL     1      -9.275  12.073  68.075  1.00  0.00    -0.192 C  
HETATM   19  C   UNL     1     -11.791  12.160  68.670  1.00  0.00    -0.358 C  
HETATM   20  C   UNL     1     -11.563  13.299  69.635  1.00  0.00    -0.329 C  
HETATM   21  C   UNL     1     -11.204  14.579  68.931  1.00  0.00    -0.283 A  
HETATM   22  C   UNL     1     -11.115  15.781  69.657  1.00  0.00    -0.307 A  
HETATM   23  C   UNL     1     -11.334  15.812  71.148  1.00  0.00    -0.442 C  
HETATM   24  C   UNL     1     -10.801  16.961  68.961  1.00  0.00    -0.255 A  
HETATM   25  C   UNL     1     -10.549  16.972  67.574  1.00  0.00    -0.310 A  
HETATM   26  O   UNL     1     -10.716  18.163  69.616  1.00  0.00    -0.133 OA 
HETATM   27  C   UNL     1     -10.215  18.265  66.877  1.00  0.00    -0.390 C  
HETATM   28  C   UNL     1     -10.603  15.754  66.857  1.00  0.00    -0.317 A  
HETATM   29  H   UNL     1     -10.504  18.961  69.145  1.00  0.00     0.000 HD 
HETATM   30  C   UNL     1     -10.911  14.563  67.550  1.00  0.00    -0.289 A  
HETATM   31  C   UNL     1     -10.321  15.678  65.377  1.00  0.00    -0.421 C  
HETATM   32  O   UNL     1     -10.874  13.396  66.810  1.00  0.00    -0.279 OA 
ENDBRANCH  16  17
ENDBRANCH  15  16
ENDBRANCH  13  15
ENDBRANCH  10  11
ENDBRANCH   9  10
ENDBRANCH   5   6
ENDBRANCH   4   5
TORSDOF 7
ENDMDL
MODEL      148
REMARK 921   NORMALIZED FREE ENERGY PREDICTED BY IDOCK:   -5.07 KCAL/MOL
REMARK 922        TOTAL FREE ENERGY PREDICTED BY IDOCK:   -8.91 KCAL/MOL
REMARK 923 INTER-LIGAND FREE ENERGY PREDICTED BY IDOCK:   -8.60 KCAL/MOL
REMARK 924 INTRA-LIGAND FREE ENERGY PREDICTED BY IDOCK:   -0.31 KCAL/MOL
REMARK 927      BINDING AFFINITY PREDICTED BY RF-SCORE:    0.00 PKD
ROOT
HETATM    1  C   UNL     1     -11.665  12.263  63.779  1.00  0.00    -0.566 C  
HETATM    2  C   UNL     1     -11.462  13.723  64.177  1.00  0.00    -0.318 C  
HETATM    3  C   UNL     1     -12.755  14.281  64.779  1.00  0.00    -0.191 C  
HETATM    4  C   UNL     1     -10.258  13.841  65.133  1.00  0.00    -0.367 C  
ENDROOT
BRANCH   4   5
HETATM    5  C   UNL     1     -10.002  15.284  65.556  1.00  0.00    -0.383 C  
BRANCH   5   6
HETATM    6  C   UNL     1     -10.881  15.726  66.723  1.00  0.00    -0.254 C  
HETATM    7  C   UNL     1     -10.999  14.626  67.799  1.00  0.00    -0.291 C  
HETATM    8  C   UNL     1      -9.631  14.241  68.380  1.00  0.00    -0.221 C  
HETATM    9  C   UNL     1     -11.972  15.090  68.899  1.00  0.00    -0.287 C  
BRANCH   9  10
HETATM   10  C   UNL     1     -12.130  14.037  69.994  1.00  0.00    -0.412 C  
BRANCH  10  11
HETATM   11  C   UNL     1     -12.112  12.621  69.441  1.00  0.00    -0.236 C  
HETATM   12  C   UNL     1     -11.838  11.581  70.546  1.00  0.00    -0.363 C  
HETATM   13  C   UNL     1     -11.700  10.168  69.958  1.00  0.00    -0.294 C  
HETATM   14  C   UNL     1     -12.934  11.566  71.619  1.00  0.00    -0.499 C  
BRANCH  13  15
HETATM   15  C   UNL     1     -10.612  10.012  68.896  1.00  0.00    -0.239 C  
BRANCH  15  16
HETATM   16  C   UNL     1     -10.742   8.749  68.024  1.00  0.00    -0.151 C  
BRANCH  16  17
HETATM   17  C   UNL     1     -10.125   7.478  68.672  1.00  0.00    -0.184 C  
HETATM   18  C   UNL     1      -8.621   7.725  68.923  1.00  0.00    -0.132 C  
HETATM   19  C   UNL     1     -10.432   6.273  67.784  1.00  0.00    -0.289 C  
HETATM   20  C   UNL     1      -9.851   5.013  68.379  1.00  0.00    -0.209 C  
HETATM   21  C   UNL     1     -10.059   4.938  69.867  1.00  0.00    -0.332 A  
HETATM   22  C   UNL     1      -9.728   3.762  70.566  1.00  0.00    -0.230 A  
HETATM   23  C   UNL     1      -9.126   2.575  69.858  1.00  0.00    -0.179 C  
HETATM   24  C   UNL     1      -9.958   3.720  71.952  1.00  0.00    -0.160 A  
HETATM   25  C   UNL     1     -10.482   4.821  72.661  1.00  0.00    -0.260 A  
HETATM   26  O   UNL     1      -9.668   2.595  72.680  1.00  0.00    -0.110 OA 
HETATM   27  C   UNL     1     -10.708   4.723  74.148  1.00  0.00    -0.329 C  
HETATM   28  C   UNL     1     -10.777   6.012  71.959  1.00  0.00    -0.281 A  
HETATM   29  H   UNL     1      -9.824   2.567  73.617  1.00  0.00     0.000 HD 
HETATM   30  C   UNL     1     -10.541   6.065  70.567  1.00  0.00    -0.266 A  
HETATM   31  C   UNL     1     -11.314   7.242  72.649  1.00  0.00    -0.333 C  
HETATM   32  O   UNL     1     -10.777   7.280  69.951  1.00  0.00    -0.233 OA 
ENDBRANCH  16  17
ENDBRANCH  15  16
ENDBRANCH  13  15
ENDBRANCH  10  11
ENDBRANCH   9  10
ENDBRANCH   5   6
ENDBRANCH   4   5
TORSDOF 7
ENDMDL
MODEL      149
REMARK 921   NORMALIZED FREE ENERGY PREDICTED BY IDOCK:   -5.07 KCAL/MOL
REMARK 922        TOTAL FREE ENERGY PREDICTED BY IDOCK:   -8.90 KCAL/MOL
REMARK 923 INTER-LIGAND FREE ENERGY PREDICTED BY IDOCK:   -8.71 KCAL/MOL
REMARK 924 INTRA-LIGAND FREE ENERGY PREDICTED BY IDOCK:   -0.19 KCAL/MOL
REMARK 927      BINDING AFFINITY PREDICTED BY RF-SCORE:    0.00 PKD
ROOT
HETATM    1  C   UNL     1     -10.735  19.658  65.856  1.00  0.00    -0.515 C  
HETATM    2  C   UNL     1      -9.540  19.025  66.566  1.00  0.00    -0.386 C  
HETATM    3  C   UNL     1      -9.273  19.761  67.883  1.00  0.00    -0.427 C  
HETATM    4  C   UNL     1      -9.790  17.517  66.764  1.00  0.00    -0.306 C  
ENDROOT
BRANCH   4   5
HETATM    5  C   UNL     1      -8.620  16.831  67.463  1.00  0.00    -0.203 C  
BRANCH   5   6
HETATM    6  C   UNL     1      -9.012  16.201  68.797  1.00  0.00    -0.236 C  
HETATM    7  C   UNL     1     -10.521  15.888  68.861  1.00  0.00    -0.233 C  
HETATM    8  C   UNL     1     -10.955  14.916  67.754  1.00  0.00    -0.294 C  
HETATM    9  C   UNL     1     -10.873  15.348  70.260  1.00  0.00    -0.332 C  
BRANCH   9  10
HETATM   10  C   UNL     1     -12.359  15.021  70.383  1.00  0.00    -0.401 C  
BRANCH  10  11
HETATM   11  C   UNL     1     -12.627  13.525  70.349  1.00  0.00    -0.267 C  
HETATM   12  C   UNL     1     -13.000  12.981  71.743  1.00  0.00    -0.420 C  
HETATM   13  C   UNL     1     -13.148  11.452  71.721  1.00  0.00    -0.523 C  
HETATM   14  C   UNL     1     -14.296  13.597  72.283  1.00  0.00    -0.411 C  
BRANCH  13  15
HETATM   15  C   UNL     1     -11.914  10.688  71.240  1.00  0.00    -0.344 C  
BRANCH  15  16
HETATM   16  C   UNL     1     -11.764  10.607  69.710  1.00  0.00    -0.385 C  
BRANCH  16  17
HETATM   17  C   UNL     1     -10.714   9.562  69.241  1.00  0.00    -0.222 C  
HETATM   18  C   UNL     1      -9.322   9.984  69.761  1.00  0.00    -0.233 C  
HETATM   19  C   UNL     1     -10.808   9.415  67.722  1.00  0.00    -0.223 C  
HETATM   20  C   UNL     1      -9.803   8.405  67.223  1.00  0.00    -0.264 C  
HETATM   21  C   UNL     1      -9.733   7.188  68.105  1.00  0.00    -0.147 A  
HETATM   22  C   UNL     1      -8.971   6.073  67.708  1.00  0.00    -0.111 A  
HETATM   23  C   UNL     1      -8.182   6.083  66.423  1.00  0.00    -0.112 C  
HETATM   24  C   UNL     1      -8.949   4.945  68.546  1.00  0.00    -0.109 A  
HETATM   25  C   UNL     1      -9.639   4.908  69.774  1.00  0.00    -0.243 A  
HETATM   26  O   UNL     1      -8.236   3.826  68.201  1.00  0.00    -0.082 OA 
HETATM   27  C   UNL     1      -9.580   3.673  70.637  1.00  0.00    -0.254 C  
HETATM   28  C   UNL     1     -10.372   6.045  70.186  1.00  0.00    -0.284 A  
HETATM   29  H   UNL     1      -8.221   3.064  68.768  1.00  0.00     0.000 HD 
HETATM   30  C   UNL     1     -10.393   7.185  69.352  1.00  0.00    -0.198 A  
HETATM   31  C   UNL     1     -11.116   6.093  71.498  1.00  0.00    -0.342 C  
HETATM   32  O   UNL     1     -11.063   8.291  69.843  1.00  0.00    -0.210 OA 
ENDBRANCH  16  17
ENDBRANCH  15  16
ENDBRANCH  13  15
ENDBRANCH  10  11
ENDBRANCH   9  10
ENDBRANCH   5   6
ENDBRANCH   4   5
TORSDOF 7
ENDMDL
MODEL      150
REMARK 921   NORMALIZED FREE ENERGY PREDICTED BY IDOCK:   -5.04 KCAL/MOL
REMARK 922        TOTAL FREE ENERGY PREDICTED BY IDOCK:   -8.85 KCAL/MOL
REMARK 923 INTER-LIGAND FREE ENERGY PREDICTED BY IDOCK:   -7.17 KCAL/MOL
REMARK 924 INTRA-LIGAND FREE ENERGY PREDICTED BY IDOCK:   -1.68 KCAL/MOL
REMARK 927      BINDING AFFINITY PREDICTED BY RF-SCORE:    0.00 PKD
ROOT
HETATM    1  C   UNL     1      -7.612   3.245  64.917  1.00  0.00    -0.077 C  
HETATM    2  C   UNL     1      -7.937   3.638  66.356  1.00  0.00    -0.089 C  
HETATM    3  C   UNL     1      -6.726   3.366  67.254  1.00  0.00    -0.045 C  
HETATM    4  C   UNL     1      -8.398   5.109  66.403  1.00  0.00    -0.108 C  
ENDROOT
BRANCH   4   5
HETATM    5  C   UNL     1      -8.747   5.553  67.820  1.00  0.00    -0.106 C  
BRANCH   5   6
HETATM    6  C   UNL     1      -7.939   6.764  68.279  1.00  0.00    -0.111 C  
HETATM    7  C   UNL     1      -7.958   6.918  69.814  1.00  0.00    -0.124 C  
HETATM    8  C   UNL     1      -7.375   5.686  70.522  1.00  0.00    -0.079 C  
HETATM    9  C   UNL     1      -7.211   8.206  70.209  1.00  0.00    -0.052 C  
BRANCH   9  10
HETATM   10  C   UNL     1      -7.200   8.411  71.722  1.00  0.00    -0.105 C  
BRANCH  10  11
HETATM   11  C   UNL     1      -8.602   8.521  72.300  1.00  0.00    -0.235 C  
HETATM   12  C   UNL     1      -8.932   7.330  73.223  1.00  0.00    -0.192 C  
HETATM   13  C   UNL     1     -10.390   7.388  73.704  1.00  0.00    -0.367 C  
HETATM   14  C   UNL     1      -8.009   7.266  74.446  1.00  0.00    -0.184 C  
BRANCH  13  15
HETATM   15  C   UNL     1     -11.439   7.416  72.592  1.00  0.00    -0.337 C  
BRANCH  15  16
HETATM   16  C   UNL     1     -12.484   8.539  72.722  1.00  0.00    -0.126 C  
BRANCH  16  17
HETATM   17  C   UNL     1     -12.573   9.456  71.470  1.00  0.00    -0.362 C  
HETATM   18  C   UNL     1     -13.938   9.231  70.783  1.00  0.00     0.280 C  
HETATM   19  C   UNL     1     -11.360   9.191  70.579  1.00  0.00    -0.300 C  
HETATM   20  C   UNL     1     -11.405  10.064  69.348  1.00  0.00    -0.192 C  
HETATM   21  C   UNL     1     -11.827  11.473  69.665  1.00  0.00    -0.421 A  
HETATM   22  C   UNL     1     -11.770  12.466  68.669  1.00  0.00    -0.372 A  
HETATM   23  C   UNL     1     -11.327  12.141  67.265  1.00  0.00    -0.398 C  
HETATM   24  C   UNL     1     -12.149  13.776  69.008  1.00  0.00    -0.322 A  
HETATM   25  C   UNL     1     -12.607  14.116  70.298  1.00  0.00    -0.367 A  
HETATM   26  O   UNL     1     -12.098  14.786  68.083  1.00  0.00    -0.540 OA 
HETATM   27  C   UNL     1     -13.004  15.537  70.608  1.00  0.00    -0.425 C  
HETATM   28  C   UNL     1     -12.699  13.106  71.283  1.00  0.00    -0.396 A  
HETATM   29  H   UNL     1     -12.355  15.672  68.312  1.00  0.00     0.000 HD 
HETATM   30  C   UNL     1     -12.326  11.786  70.947  1.00  0.00    -0.320 A  
HETATM   31  C   UNL     1     -13.204  13.383  72.677  1.00  0.00    -0.436 C  
HETATM   32  O   UNL     1     -12.510  10.828  71.929  1.00  0.00    -0.262 OA 
ENDBRANCH  16  17
ENDBRANCH  15  16
ENDBRANCH  13  15
ENDBRANCH  10  11
ENDBRANCH   9  10
ENDBRANCH   5   6
ENDBRANCH   4   5
TORSDOF 7
ENDMDL
MODEL      151
REMARK 921   NORMALIZED FREE ENERGY PREDICTED BY IDOCK:   -5.03 KCAL/MOL
REMARK 922        TOTAL FREE ENERGY PREDICTED BY IDOCK:   -8.84 KCAL/MOL
REMARK 923 INTER-LIGAND FREE ENERGY PREDICTED BY IDOCK:   -7.38 KCAL/MOL
REMARK 924 INTRA-LIGAND FREE ENERGY PREDICTED BY IDOCK:   -1.47 KCAL/MOL
REMARK 927      BINDING AFFINITY PREDICTED BY RF-SCORE:    0.00 PKD
ROOT
HETATM    1  C   UNL     1     -12.619  10.278  72.049  1.00  0.00    -0.315 C  
HETATM    2  C   UNL     1     -12.275  11.495  71.193  1.00  0.00    -0.287 C  
HETATM    3  C   UNL     1     -12.481  11.162  69.712  1.00  0.00    -0.230 C  
HETATM    4  C   UNL     1     -13.107  12.709  71.654  1.00  0.00    -0.421 C  
ENDROOT
BRANCH   4   5
HETATM    5  C   UNL     1     -12.794  13.959  70.837  1.00  0.00    -0.370 C  
BRANCH   5   6
HETATM    6  C   UNL     1     -11.302  14.139  70.574  1.00  0.00    -0.002 C  
HETATM    7  C   UNL     1     -10.998  14.269  69.067  1.00  0.00    -0.282 C  
HETATM    8  C   UNL     1     -11.719  15.470  68.437  1.00  0.00    -0.323 C  
HETATM    9  C   UNL     1      -9.474  14.348  68.857  1.00  0.00    -0.107 C  
BRANCH   9  10
HETATM   10  C   UNL     1      -9.113  14.477  67.379  1.00  0.00    -0.201 C  
BRANCH  10  11
HETATM   11  C   UNL     1      -8.913  13.125  66.713  1.00  0.00    -0.183 C  
HETATM   12  C   UNL     1     -10.215  12.612  66.063  1.00  0.00    -0.287 C  
HETATM   13  C   UNL     1     -10.033  11.194  65.501  1.00  0.00    -0.298 C  
HETATM   14  C   UNL     1     -10.707  13.532  64.939  1.00  0.00    -0.391 C  
BRANCH  13  15
HETATM   15  C   UNL     1      -9.580  10.147  66.518  1.00  0.00    -0.236 C  
BRANCH  15  16
HETATM   16  C   UNL     1     -10.535   8.948  66.674  1.00  0.00    -0.231 C  
BRANCH  16  17
HETATM   17  C   UNL     1      -9.959   7.805  67.556  1.00  0.00    -0.185 C  
HETATM   18  C   UNL     1      -8.443   7.683  67.290  1.00  0.00    -0.121 C  
HETATM   19  C   UNL     1     -10.757   6.528  67.290  1.00  0.00    -0.427 C  
HETATM   20  C   UNL     1     -10.231   5.389  68.130  1.00  0.00    -0.226 C  
HETATM   21  C   UNL     1      -9.922   5.817  69.539  1.00  0.00    -0.250 A  
HETATM   22  C   UNL     1      -9.576   4.855  70.507  1.00  0.00    -0.253 A  
HETATM   23  C   UNL     1      -9.470   3.393  70.153  1.00  0.00    -0.244 C  
HETATM   24  C   UNL     1      -9.317   5.288  71.818  1.00  0.00    -0.146 A  
HETATM   25  C   UNL     1      -9.366   6.649  72.184  1.00  0.00    -0.142 A  
HETATM   26  O   UNL     1      -8.991   4.393  72.804  1.00  0.00    -0.113 OA 
HETATM   27  C   UNL     1      -9.078   7.061  73.604  1.00  0.00    -0.198 C  
HETATM   28  C   UNL     1      -9.676   7.614  71.197  1.00  0.00    -0.172 A  
HETATM   29  H   UNL     1      -8.816   4.687  73.691  1.00  0.00     0.000 HD 
HETATM   30  C   UNL     1      -9.931   7.187  69.876  1.00  0.00    -0.182 A  
HETATM   31  C   UNL     1      -9.723   9.091  71.502  1.00  0.00    -0.365 C  
HETATM   32  O   UNL     1     -10.154   8.182  68.941  1.00  0.00    -0.191 OA 
ENDBRANCH  16  17
ENDBRANCH  15  16
ENDBRANCH  13  15
ENDBRANCH  10  11
ENDBRANCH   9  10
ENDBRANCH   5   6
ENDBRANCH   4   5
TORSDOF 7
ENDMDL
MODEL      152
REMARK 921   NORMALIZED FREE ENERGY PREDICTED BY IDOCK:   -5.02 KCAL/MOL
REMARK 922        TOTAL FREE ENERGY PREDICTED BY IDOCK:   -8.83 KCAL/MOL
REMARK 923 INTER-LIGAND FREE ENERGY PREDICTED BY IDOCK:   -7.43 KCAL/MOL
REMARK 924 INTRA-LIGAND FREE ENERGY PREDICTED BY IDOCK:   -1.40 KCAL/MOL
REMARK 927      BINDING AFFINITY PREDICTED BY RF-SCORE:    0.00 PKD
ROOT
HETATM    1  C   UNL     1      -9.961  17.588  67.075  1.00  0.00    -0.311 C  
HETATM    2  C   UNL     1     -10.287  16.150  66.677  1.00  0.00    -0.297 C  
HETATM    3  C   UNL     1     -10.902  15.410  67.868  1.00  0.00    -0.300 C  
HETATM    4  C   UNL     1     -11.200  16.147  65.434  1.00  0.00    -0.006 C  
ENDROOT
BRANCH   4   5
HETATM    5  C   UNL     1     -11.550  14.732  64.986  1.00  0.00    -0.378 C  
BRANCH   5   6
HETATM    6  C   UNL     1     -10.328  13.823  64.881  1.00  0.00    -0.420 C  
HETATM    7  C   UNL     1     -10.725  12.332  64.837  1.00  0.00    -0.335 C  
HETATM    8  C   UNL     1     -11.632  12.015  63.639  1.00  0.00    -0.578 C  
HETATM    9  C   UNL     1      -9.452  11.464  64.830  1.00  0.00    -0.194 C  
BRANCH   9  10
HETATM   10  C   UNL     1      -9.785   9.975  64.788  1.00  0.00    -0.363 C  
BRANCH  10  11
HETATM   11  C   UNL     1      -8.748   9.130  65.510  1.00  0.00    -0.210 C  
HETATM   12  C   UNL     1      -8.453   7.819  64.753  1.00  0.00     0.015 C  
HETATM   13  C   UNL     1      -7.497   6.919  65.552  1.00  0.00    -0.086 C  
HETATM   14  C   UNL     1      -7.853   8.069  63.364  1.00  0.00    -0.147 C  
BRANCH  13  15
HETATM   15  C   UNL     1      -7.978   6.546  66.953  1.00  0.00    -0.112 C  
BRANCH  15  16
HETATM   16  C   UNL     1      -7.085   7.062  68.098  1.00  0.00    -0.085 C  
BRANCH  16  17
HETATM   17  C   UNL     1      -7.863   7.353  69.412  1.00  0.00    -0.122 C  
HETATM   18  C   UNL     1      -6.954   8.163  70.362  1.00  0.00    -0.037 C  
HETATM   19  C   UNL     1      -8.369   6.030  69.988  1.00  0.00    -0.123 C  
HETATM   20  C   UNL     1      -9.134   6.266  71.267  1.00  0.00    -0.148 C  
HETATM   21  C   UNL     1     -10.048   7.457  71.172  1.00  0.00    -0.189 A  
HETATM   22  C   UNL     1     -10.958   7.731  72.211  1.00  0.00    -0.345 A  
HETATM   23  C   UNL     1     -11.012   6.874  73.450  1.00  0.00    -0.221 C  
HETATM   24  C   UNL     1     -11.814   8.838  72.076  1.00  0.00    -0.372 A  
HETATM   25  C   UNL     1     -11.770   9.690  70.953  1.00  0.00    -0.412 A  
HETATM   26  O   UNL     1     -12.729   9.143  73.050  1.00  0.00    -0.353 OA 
HETATM   27  C   UNL     1     -12.709  10.865  70.859  1.00  0.00    -0.464 C  
HETATM   28  C   UNL     1     -10.828   9.430  69.931  1.00  0.00    -0.259 A  
HETATM   29  H   UNL     1     -13.307   9.891  72.958  1.00  0.00     0.000 HD 
HETATM   30  C   UNL     1      -9.960   8.324  70.063  1.00  0.00    -0.188 A  
HETATM   31  C   UNL     1     -10.700  10.309  68.711  1.00  0.00    -0.247 C  
HETATM   32  O   UNL     1      -9.011   8.167  69.068  1.00  0.00    -0.143 OA 
ENDBRANCH  16  17
ENDBRANCH  15  16
ENDBRANCH  13  15
ENDBRANCH  10  11
ENDBRANCH   9  10
ENDBRANCH   5   6
ENDBRANCH   4   5
TORSDOF 7
ENDMDL
MODEL      153
REMARK 921   NORMALIZED FREE ENERGY PREDICTED BY IDOCK:   -5.01 KCAL/MOL
REMARK 922        TOTAL FREE ENERGY PREDICTED BY IDOCK:   -8.81 KCAL/MOL
REMARK 923 INTER-LIGAND FREE ENERGY PREDICTED BY IDOCK:   -7.51 KCAL/MOL
REMARK 924 INTRA-LIGAND FREE ENERGY PREDICTED BY IDOCK:   -1.30 KCAL/MOL
REMARK 927      BINDING AFFINITY PREDICTED BY RF-SCORE:    0.00 PKD
ROOT
HETATM    1  C   UNL     1     -12.406   1.589  73.795  1.00  0.00    -0.140 C  
HETATM    2  C   UNL     1     -11.407   2.738  73.920  1.00  0.00    -0.124 C  
HETATM    3  C   UNL     1     -10.089   2.353  73.242  1.00  0.00    -0.188 C  
HETATM    4  C   UNL     1     -12.022   4.028  73.343  1.00  0.00     0.172 C  
ENDROOT
BRANCH   4   5
HETATM    5  C   UNL     1     -11.068   5.214  73.452  1.00  0.00    -0.385 C  
BRANCH   5   6
HETATM    6  C   UNL     1     -11.291   6.257  72.361  1.00  0.00    -0.333 C  
HETATM    7  C   UNL     1     -10.163   6.234  71.308  1.00  0.00    -0.238 C  
HETATM    8  C   UNL     1     -10.051   4.868  70.615  1.00  0.00    -0.306 C  
HETATM    9  C   UNL     1     -10.390   7.369  70.290  1.00  0.00    -0.217 C  
BRANCH   9  10
HETATM   10  C   UNL     1      -9.299   7.395  69.222  1.00  0.00    -0.154 C  
BRANCH  10  11
HETATM   11  C   UNL     1      -9.836   7.800  67.858  1.00  0.00    -0.194 C  
HETATM   12  C   UNL     1      -8.697   8.131  66.873  1.00  0.00    -0.136 C  
HETATM   13  C   UNL     1      -9.251   8.656  65.539  1.00  0.00    -0.158 C  
HETATM   14  C   UNL     1      -7.796   6.922  66.594  1.00  0.00    -0.107 C  
BRANCH  13  15
HETATM   15  C   UNL     1     -10.142   9.892  65.649  1.00  0.00    -0.307 C  
BRANCH  15  16
HETATM   16  C   UNL     1      -9.395  11.195  65.990  1.00  0.00    -0.228 C  
BRANCH  16  17
HETATM   17  C   UNL     1     -10.263  12.227  66.762  1.00  0.00    -0.211 C  
HETATM   18  C   UNL     1     -11.538  12.522  65.942  1.00  0.00    -0.454 C  
HETATM   19  C   UNL     1      -9.407  13.455  67.074  1.00  0.00    -0.243 C  
HETATM   20  C   UNL     1     -10.213  14.486  67.828  1.00  0.00    -0.226 C  
HETATM   21  C   UNL     1     -11.075  13.866  68.893  1.00  0.00    -0.296 A  
HETATM   22  C   UNL     1     -11.771  14.686  69.801  1.00  0.00    -0.361 A  
HETATM   23  C   UNL     1     -11.703  16.189  69.708  1.00  0.00    -0.193 C  
HETATM   24  C   UNL     1     -12.548  14.071  70.798  1.00  0.00    -0.360 A  
HETATM   25  C   UNL     1     -12.671  12.670  70.898  1.00  0.00    -0.274 A  
HETATM   26  O   UNL     1     -13.234  14.821  71.719  1.00  0.00    -0.311 OA 
HETATM   27  C   UNL     1     -13.519  12.062  71.985  1.00  0.00    -0.364 C  
HETATM   28  C   UNL     1     -12.001  11.853  69.958  1.00  0.00    -0.409 A  
HETATM   29  H   UNL     1     -13.759  14.405  72.393  1.00  0.00     0.000 HD 
HETATM   30  C   UNL     1     -11.224  12.464  68.950  1.00  0.00    -0.280 A  
HETATM   31  C   UNL     1     -12.104  10.348  69.981  1.00  0.00    -0.297 C  
HETATM   32  O   UNL     1     -10.655  11.616  68.016  1.00  0.00    -0.189 OA 
ENDBRANCH  16  17
ENDBRANCH  15  16
ENDBRANCH  13  15
ENDBRANCH  10  11
ENDBRANCH   9  10
ENDBRANCH   5   6
ENDBRANCH   4   5
TORSDOF 7
ENDMDL
MODEL      154
REMARK 921   NORMALIZED FREE ENERGY PREDICTED BY IDOCK:   -5.00 KCAL/MOL
REMARK 922        TOTAL FREE ENERGY PREDICTED BY IDOCK:   -8.81 KCAL/MOL
REMARK 923 INTER-LIGAND FREE ENERGY PREDICTED BY IDOCK:   -7.53 KCAL/MOL
REMARK 924 INTRA-LIGAND FREE ENERGY PREDICTED BY IDOCK:   -1.28 KCAL/MOL
REMARK 927      BINDING AFFINITY PREDICTED BY RF-SCORE:    0.00 PKD
ROOT
HETATM    1  C   UNL     1     -11.940  16.375  72.766  1.00  0.00    -0.585 C  
HETATM    2  C   UNL     1     -12.656  15.124  72.260  1.00  0.00    -0.422 C  
HETATM    3  C   UNL     1     -14.127  15.448  71.979  1.00  0.00    -0.647 C  
HETATM    4  C   UNL     1     -11.920  14.564  71.027  1.00  0.00    -0.394 C  
ENDROOT
BRANCH   4   5
HETATM    5  C   UNL     1     -12.588  13.305  70.485  1.00  0.00    -0.259 C  
BRANCH   5   6
HETATM    6  C   UNL     1     -12.716  12.203  71.534  1.00  0.00    -0.348 C  
HETATM    7  C   UNL     1     -12.477  10.804  70.927  1.00  0.00    -0.500 C  
HETATM    8  C   UNL     1     -11.079  10.680  70.304  1.00  0.00    -0.310 C  
HETATM    9  C   UNL     1     -12.715   9.731  72.006  1.00  0.00    -0.463 C  
BRANCH   9  10
HETATM   10  C   UNL     1     -12.493   8.322  71.460  1.00  0.00    -0.340 C  
BRANCH  10  11
HETATM   11  C   UNL     1     -12.094   7.337  72.547  1.00  0.00    -0.078 C  
HETATM   12  C   UNL     1     -10.581   7.038  72.518  1.00  0.00    -0.255 C  
HETATM   13  C   UNL     1     -10.210   5.952  73.539  1.00  0.00    -0.226 C  
HETATM   14  C   UNL     1      -9.735   8.287  72.793  1.00  0.00    -0.336 C  
BRANCH  13  15
HETATM   15  C   UNL     1     -10.947   4.624  73.369  1.00  0.00    -0.395 C  
BRANCH  15  16
HETATM   16  C   UNL     1     -10.037   3.382  73.345  1.00  0.00    -0.192 C  
BRANCH  16  17
HETATM   17  C   UNL     1      -9.319   3.162  71.983  1.00  0.00    -0.123 C  
HETATM   18  C   UNL     1      -9.837   1.851  71.352  1.00  0.00    -0.188 C  
HETATM   19  C   UNL     1      -7.809   3.207  72.210  1.00  0.00    -0.058 C  
HETATM   20  C   UNL     1      -7.070   2.999  70.910  1.00  0.00    -0.033 C  
HETATM   21  C   UNL     1      -7.695   3.761  69.773  1.00  0.00    -0.051 A  
HETATM   22  C   UNL     1      -7.049   3.816  68.523  1.00  0.00    -0.051 A  
HETATM   23  C   UNL     1      -5.751   3.089  68.281  1.00  0.00    -0.022 C  
HETATM   24  C   UNL     1      -7.650   4.557  67.492  1.00  0.00    -0.078 A  
HETATM   25  C   UNL     1      -8.884   5.219  67.662  1.00  0.00    -0.105 A  
HETATM   26  O   UNL     1      -7.058   4.658  66.259  1.00  0.00    -0.071 OA 
HETATM   27  C   UNL     1      -9.486   5.999  66.522  1.00  0.00    -0.177 C  
HETATM   28  C   UNL     1      -9.546   5.128  68.908  1.00  0.00    -0.201 A  
HETATM   29  H   UNL     1      -7.465   5.159  65.562  1.00  0.00     0.000 HD 
HETATM   30  C   UNL     1      -8.951   4.379  69.947  1.00  0.00    -0.093 A  
HETATM   31  C   UNL     1     -10.880   5.785  69.161  1.00  0.00    -0.355 C  
HETATM   32  O   UNL     1      -9.682   4.264  71.116  1.00  0.00    -0.166 OA 
ENDBRANCH  16  17
ENDBRANCH  15  16
ENDBRANCH  13  15
ENDBRANCH  10  11
ENDBRANCH   9  10
ENDBRANCH   5   6
ENDBRANCH   4   5
TORSDOF 7
ENDMDL
MODEL      155
REMARK 921   NORMALIZED FREE ENERGY PREDICTED BY IDOCK:   -4.99 KCAL/MOL
REMARK 922        TOTAL FREE ENERGY PREDICTED BY IDOCK:   -8.79 KCAL/MOL
REMARK 923 INTER-LIGAND FREE ENERGY PREDICTED BY IDOCK:   -7.57 KCAL/MOL
REMARK 924 INTRA-LIGAND FREE ENERGY PREDICTED BY IDOCK:   -1.22 KCAL/MOL
REMARK 927      BINDING AFFINITY PREDICTED BY RF-SCORE:    0.00 PKD
ROOT
HETATM    1  C   UNL     1     -12.724  12.158  63.535  1.00  0.00    -0.553 C  
HETATM    2  C   UNL     1     -11.200  12.143  63.454  1.00  0.00    -0.494 C  
HETATM    3  C   UNL     1     -10.634  13.409  64.106  1.00  0.00    -0.257 C  
HETATM    4  C   UNL     1     -10.656  10.848  64.091  1.00  0.00    -0.327 C  
ENDROOT
BRANCH   4   5
HETATM    5  C   UNL     1      -9.134  10.776  64.028  1.00  0.00    -0.215 C  
BRANCH   5   6
HETATM    6  C   UNL     1      -8.478  10.861  65.404  1.00  0.00    -0.088 C  
HETATM    7  C   UNL     1      -9.448  10.439  66.528  1.00  0.00    -0.204 C  
HETATM    8  C   UNL     1      -9.943   8.997  66.348  1.00  0.00    -0.370 C  
HETATM    9  C   UNL     1      -8.765  10.639  67.894  1.00  0.00    -0.127 C  
BRANCH   9  10
HETATM   10  C   UNL     1      -9.681  10.238  69.048  1.00  0.00    -0.213 C  
BRANCH  10  11
HETATM   11  C   UNL     1     -10.221  11.442  69.803  1.00  0.00     0.561 C  
HETATM   12  C   UNL     1     -11.739  11.614  69.591  1.00  0.00    -0.418 C  
HETATM   13  C   UNL     1     -12.250  12.901  70.258  1.00  0.00    -0.362 C  
HETATM   14  C   UNL     1     -12.542  10.424  70.131  1.00  0.00    -0.197 C  
BRANCH  13  15
HETATM   15  C   UNL     1     -11.569  14.187  69.791  1.00  0.00    -0.351 C  
BRANCH  15  16
HETATM   16  C   UNL     1     -10.917  14.100  68.398  1.00  0.00    -0.270 C  
BRANCH  16  17
HETATM   17  C   UNL     1      -9.682  15.029  68.229  1.00  0.00    -0.215 C  
HETATM   18  C   UNL     1      -9.019  14.735  66.866  1.00  0.00    -0.276 C  
HETATM   19  C   UNL     1      -8.763  14.849  69.437  1.00  0.00    -0.048 C  
HETATM   20  C   UNL     1      -7.547  15.737  69.315  1.00  0.00    -0.224 C  
HETATM   21  C   UNL     1      -7.896  17.113  68.818  1.00  0.00    -0.258 A  
HETATM   22  C   UNL     1      -6.915  18.123  68.797  1.00  0.00    -0.276 A  
HETATM   23  C   UNL     1      -5.497  17.846  69.228  1.00  0.00    -0.196 C  
HETATM   24  C   UNL     1      -7.283  19.404  68.349  1.00  0.00    -0.310 A  
HETATM   25  C   UNL     1      -8.587  19.697  67.899  1.00  0.00    -0.360 A  
HETATM   26  O   UNL     1      -6.373  20.429  68.321  1.00  0.00    -0.278 OA 
HETATM   27  C   UNL     1      -8.928  21.087  67.426  1.00  0.00    -0.076 C  
HETATM   28  C   UNL     1      -9.557  18.668  67.887  1.00  0.00    -0.340 A  
HETATM   29  H   UNL     1      -6.622  21.294  68.018  1.00  0.00     0.000 HD 
HETATM   30  C   UNL     1      -9.193  17.377  68.329  1.00  0.00    -0.271 A  
HETATM   31  C   UNL     1     -10.966  18.894  67.396  1.00  0.00    -0.319 C  
HETATM   32  O   UNL     1     -10.162  16.396  68.222  1.00  0.00    -0.238 OA 
ENDBRANCH  16  17
ENDBRANCH  15  16
ENDBRANCH  13  15
ENDBRANCH  10  11
ENDBRANCH   9  10
ENDBRANCH   5   6
ENDBRANCH   4   5
TORSDOF 7
ENDMDL
MODEL      156
REMARK 921   NORMALIZED FREE ENERGY PREDICTED BY IDOCK:   -4.98 KCAL/MOL
REMARK 922        TOTAL FREE ENERGY PREDICTED BY IDOCK:   -8.77 KCAL/MOL
REMARK 923 INTER-LIGAND FREE ENERGY PREDICTED BY IDOCK:   -7.15 KCAL/MOL
REMARK 924 INTRA-LIGAND FREE ENERGY PREDICTED BY IDOCK:   -1.62 KCAL/MOL
REMARK 927      BINDING AFFINITY PREDICTED BY RF-SCORE:    0.00 PKD
ROOT
HETATM    1  C   UNL     1      -5.968  12.803  69.341  1.00  0.00    -0.104 C  
HETATM    2  C   UNL     1      -6.696  11.633  68.682  1.00  0.00    -0.074 C  
HETATM    3  C   UNL     1      -7.489  12.134  67.471  1.00  0.00    -0.148 C  
HETATM    4  C   UNL     1      -5.685  10.527  68.320  1.00  0.00    -0.040 C  
ENDROOT
BRANCH   4   5
HETATM    5  C   UNL     1      -6.362   9.326  67.667  1.00  0.00    -0.059 C  
BRANCH   5   6
HETATM    6  C   UNL     1      -5.637   8.012  67.944  1.00  0.00    -0.034 C  
HETATM    7  C   UNL     1      -6.625   6.861  68.225  1.00  0.00    -0.058 C  
HETATM    8  C   UNL     1      -7.574   6.616  67.043  1.00  0.00    -0.095 C  
HETATM    9  C   UNL     1      -5.837   5.589  68.593  1.00  0.00    -0.016 C  
BRANCH   9  10
HETATM   10  C   UNL     1      -6.767   4.413  68.884  1.00  0.00    -0.046 C  
BRANCH  10  11
HETATM   11  C   UNL     1      -7.764   4.725  69.989  1.00  0.00    -0.055 C  
HETATM   12  C   UNL     1      -9.180   4.226  69.636  1.00  0.00    -0.204 C  
HETATM   13  C   UNL     1     -10.201   4.654  70.701  1.00  0.00    -0.211 C  
HETATM   14  C   UNL     1      -9.239   2.703  69.476  1.00  0.00    -0.197 C  
BRANCH  13  15
HETATM   15  C   UNL     1     -10.289   6.160  70.948  1.00  0.00    -0.267 C  
BRANCH  15  16
HETATM   16  C   UNL     1     -11.713   6.741  70.875  1.00  0.00    -0.424 C  
BRANCH  16  17
HETATM   17  C   UNL     1     -11.794   8.243  71.266  1.00  0.00    -0.288 C  
HETATM   18  C   UNL     1     -10.588   8.590  72.168  1.00  0.00    -0.419 C  
HETATM   19  C   UNL     1     -13.159   8.516  71.896  1.00  0.00    -0.391 C  
HETATM   20  C   UNL     1     -13.282   9.968  72.290  1.00  0.00    -0.401 C  
HETATM   21  C   UNL     1     -12.727  10.891  71.240  1.00  0.00    -0.542 A  
HETATM   22  C   UNL     1     -12.901  12.283  71.363  1.00  0.00    -0.373 A  
HETATM   23  C   UNL     1     -13.605  12.881  72.554  1.00  0.00    -0.460 C  
HETATM   24  C   UNL     1     -12.391  13.113  70.350  1.00  0.00    -0.279 A  
HETATM   25  C   UNL     1     -11.691  12.600  69.239  1.00  0.00    -0.379 A  
HETATM   26  O   UNL     1     -12.545  14.474  70.410  1.00  0.00    -0.339 OA 
HETATM   27  C   UNL     1     -11.162  13.534  68.182  1.00  0.00    -0.302 C  
HETATM   28  C   UNL     1     -11.486  11.204  69.141  1.00  0.00    -0.366 A  
HETATM   29  H   UNL     1     -12.200  15.035  69.726  1.00  0.00     0.000 HD 
HETATM   30  C   UNL     1     -11.990  10.364  70.158  1.00  0.00    -0.276 A  
HETATM   31  C   UNL     1     -10.726  10.579  67.998  1.00  0.00    -0.287 C  
HETATM   32  O   UNL     1     -11.693   9.018  70.046  1.00  0.00    -0.017 OA 
ENDBRANCH  16  17
ENDBRANCH  15  16
ENDBRANCH  13  15
ENDBRANCH  10  11
ENDBRANCH   9  10
ENDBRANCH   5   6
ENDBRANCH   4   5
TORSDOF 7
ENDMDL
MODEL      157
REMARK 921   NORMALIZED FREE ENERGY PREDICTED BY IDOCK:   -4.96 KCAL/MOL
REMARK 922        TOTAL FREE ENERGY PREDICTED BY IDOCK:   -8.75 KCAL/MOL
REMARK 923 INTER-LIGAND FREE ENERGY PREDICTED BY IDOCK:   -6.35 KCAL/MOL
REMARK 924 INTRA-LIGAND FREE ENERGY PREDICTED BY IDOCK:   -2.40 KCAL/MOL
REMARK 927      BINDING AFFINITY PREDICTED BY RF-SCORE:    0.00 PKD
ROOT
HETATM    1  C   UNL     1     -11.957  13.964  64.499  1.00  0.00    -0.464 C  
HETATM    2  C   UNL     1     -11.304  13.152  65.615  1.00  0.00    -0.328 C  
HETATM    3  C   UNL     1     -12.155  13.243  66.886  1.00  0.00    -0.389 C  
HETATM    4  C   UNL     1     -11.086  11.700  65.144  1.00  0.00    -0.300 C  
ENDROOT
BRANCH   4   5
HETATM    5  C   UNL     1     -10.425  10.844  66.221  1.00  0.00    -0.304 C  
BRANCH   5   6
HETATM    6  C   UNL     1      -9.551   9.734  65.643  1.00  0.00    -0.329 C  
HETATM    7  C   UNL     1      -9.427   8.540  66.613  1.00  0.00    -0.268 C  
HETATM    8  C   UNL     1     -10.793   7.920  66.940  1.00  0.00    -0.050 C  
HETATM    9  C   UNL     1      -8.459   7.499  66.020  1.00  0.00    -0.152 C  
BRANCH   9  10
HETATM   10  C   UNL     1      -8.295   6.292  66.941  1.00  0.00    -0.109 C  
BRANCH  10  11
HETATM   11  C   UNL     1      -7.433   6.603  68.154  1.00  0.00    -0.095 C  
HETATM   12  C   UNL     1      -6.105   5.819  68.126  1.00  0.00    -0.018 C  
HETATM   13  C   UNL     1      -5.298   6.047  69.413  1.00  0.00    -0.005 C  
HETATM   14  C   UNL     1      -5.232   6.192  66.921  1.00  0.00    -0.005 C  
BRANCH  13  15
HETATM   15  C   UNL     1      -6.024   5.681  70.707  1.00  0.00    -0.029 C  
BRANCH  15  16
HETATM   16  C   UNL     1      -6.175   6.839  71.710  1.00  0.00    -0.038 C  
BRANCH  16  17
HETATM   17  C   UNL     1      -7.649   7.270  71.949  1.00  0.00    -0.085 C  
HETATM   18  C   UNL     1      -7.748   7.978  73.318  1.00  0.00    -0.205 C  
HETATM   19  C   UNL     1      -8.550   6.045  71.798  1.00  0.00    -0.134 C  
HETATM   20  C   UNL     1      -9.996   6.420  72.020  1.00  0.00    -0.183 C  
HETATM   21  C   UNL     1     -10.356   7.719  71.353  1.00  0.00    -0.226 A  
HETATM   22  C   UNL     1     -11.697   8.144  71.316  1.00  0.00    -0.310 A  
HETATM   23  C   UNL     1     -12.791   7.338  71.970  1.00  0.00    -0.212 C  
HETATM   24  C   UNL     1     -11.999   9.351  70.664  1.00  0.00    -0.170 A  
HETATM   25  C   UNL     1     -11.004  10.156  70.073  1.00  0.00    -0.364 A  
HETATM   26  O   UNL     1     -13.291   9.805  70.584  1.00  0.00    -0.609 OA 
HETATM   27  C   UNL     1     -11.381  11.444  69.388  1.00  0.00    -0.365 C  
HETATM   28  C   UNL     1      -9.653   9.743  70.148  1.00  0.00    -0.287 A  
HETATM   29  H   UNL     1     -13.494  10.622  70.143  1.00  0.00     0.000 HD 
HETATM   30  C   UNL     1      -9.341   8.534  70.808  1.00  0.00    -0.172 A  
HETATM   31  C   UNL     1      -8.527  10.560  69.564  1.00  0.00    -0.060 C  
HETATM   32  O   UNL     1      -7.998   8.222  70.913  1.00  0.00    -0.088 OA 
ENDBRANCH  16  17
ENDBRANCH  15  16
ENDBRANCH  13  15
ENDBRANCH  10  11
ENDBRANCH   9  10
ENDBRANCH   5   6
ENDBRANCH   4   5
TORSDOF 7
ENDMDL
MODEL      158
REMARK 921   NORMALIZED FREE ENERGY PREDICTED BY IDOCK:   -4.96 KCAL/MOL
REMARK 922        TOTAL FREE ENERGY PREDICTED BY IDOCK:   -8.74 KCAL/MOL
REMARK 923 INTER-LIGAND FREE ENERGY PREDICTED BY IDOCK:   -7.92 KCAL/MOL
REMARK 924 INTRA-LIGAND FREE ENERGY PREDICTED BY IDOCK:   -0.83 KCAL/MOL
REMARK 927      BINDING AFFINITY PREDICTED BY RF-SCORE:    0.00 PKD
ROOT
HETATM    1  C   UNL     1      -7.210  20.466  65.994  1.00  0.00    -0.225 C  
HETATM    2  C   UNL     1      -8.019  19.616  66.972  1.00  0.00    -0.311 C  
HETATM    3  C   UNL     1      -9.462  20.126  67.028  1.00  0.00    -0.541 C  
HETATM    4  C   UNL     1      -7.924  18.130  66.573  1.00  0.00    -0.290 C  
ENDROOT
BRANCH   4   5
HETATM    5  C   UNL     1      -8.708  17.232  67.525  1.00  0.00    -0.212 C  
BRANCH   5   6
HETATM    6  C   UNL     1      -9.822  16.456  66.827  1.00  0.00    -0.265 C  
HETATM    7  C   UNL     1     -10.511  15.459  67.782  1.00  0.00    -0.266 C  
HETATM    8  C   UNL     1     -11.137  16.164  68.995  1.00  0.00    -0.336 C  
HETATM    9  C   UNL     1     -11.555  14.640  67.000  1.00  0.00    -0.385 C  
BRANCH   9  10
HETATM   10  C   UNL     1     -12.270  13.632  67.898  1.00  0.00    -0.185 C  
BRANCH  10  11
HETATM   11  C   UNL     1     -11.308  12.641  68.534  1.00  0.00    -0.333 C  
HETATM   12  C   UNL     1     -11.440  11.237  67.909  1.00  0.00    -0.360 C  
HETATM   13  C   UNL     1     -10.554  10.218  68.640  1.00  0.00    -0.232 C  
HETATM   14  C   UNL     1     -11.082  11.226  66.418  1.00  0.00    -0.257 C  
BRANCH  13  15
HETATM   15  C   UNL     1     -10.820  10.084  70.139  1.00  0.00    -0.365 C  
BRANCH  15  16
HETATM   16  C   UNL     1      -9.755   9.285  70.913  1.00  0.00    -0.346 C  
BRANCH  16  17
HETATM   17  C   UNL     1     -10.261   7.909  71.430  1.00  0.00    -0.190 C  
HETATM   18  C   UNL     1     -11.769   7.783  71.120  1.00  0.00    -0.304 C  
HETATM   19  C   UNL     1      -9.902   7.777  72.910  1.00  0.00    -0.326 C  
HETATM   20  C   UNL     1     -10.375   6.451  73.454  1.00  0.00    -0.267 C  
HETATM   21  C   UNL     1     -10.112   5.318  72.500  1.00  0.00    -0.224 A  
HETATM   22  C   UNL     1     -10.338   3.989  72.906  1.00  0.00    -0.238 A  
HETATM   23  C   UNL     1     -10.881   3.671  74.276  1.00  0.00    -0.147 C  
HETATM   24  C   UNL     1     -10.058   2.955  71.996  1.00  0.00    -0.114 A  
HETATM   25  C   UNL     1      -9.587   3.209  70.692  1.00  0.00    -0.212 A  
HETATM   26  O   UNL     1     -10.245   1.642  72.343  1.00  0.00    -0.132 OA 
HETATM   27  C   UNL     1      -9.304   2.063  69.755  1.00  0.00    -0.158 C  
HETATM   28  C   UNL     1      -9.398   4.548  70.278  1.00  0.00    -0.218 A  
HETATM   29  H   UNL     1     -10.055   0.943  71.728  1.00  0.00     0.000 HD 
HETATM   30  C   UNL     1      -9.685   5.592  71.184  1.00  0.00    -0.172 A  
HETATM   31  C   UNL     1      -8.923   4.903  68.891  1.00  0.00    -0.136 C  
HETATM   32  O   UNL     1      -9.553   6.880  70.697  1.00  0.00    -0.169 OA 
ENDBRANCH  16  17
ENDBRANCH  15  16
ENDBRANCH  13  15
ENDBRANCH  10  11
ENDBRANCH   9  10
ENDBRANCH   5   6
ENDBRANCH   4   5
TORSDOF 7
ENDMDL
MODEL      159
REMARK 921   NORMALIZED FREE ENERGY PREDICTED BY IDOCK:   -4.95 KCAL/MOL
REMARK 922        TOTAL FREE ENERGY PREDICTED BY IDOCK:   -8.74 KCAL/MOL
REMARK 923 INTER-LIGAND FREE ENERGY PREDICTED BY IDOCK:   -7.90 KCAL/MOL
REMARK 924 INTRA-LIGAND FREE ENERGY PREDICTED BY IDOCK:   -0.84 KCAL/MOL
REMARK 927      BINDING AFFINITY PREDICTED BY RF-SCORE:    0.00 PKD
ROOT
HETATM    1  C   UNL     1      -5.225  20.546  65.625  1.00  0.00    -0.209 C  
HETATM    2  C   UNL     1      -5.801  19.507  66.585  1.00  0.00    -0.165 C  
HETATM    3  C   UNL     1      -6.692  20.198  67.622  1.00  0.00    -0.284 C  
HETATM    4  C   UNL     1      -6.545  18.417  65.788  1.00  0.00    -0.313 C  
ENDROOT
BRANCH   4   5
HETATM    5  C   UNL     1      -7.133  17.344  66.699  1.00  0.00    -0.275 C  
BRANCH   5   6
HETATM    6  C   UNL     1      -8.572  16.983  66.339  1.00  0.00    -0.311 C  
HETATM    7  C   UNL     1      -9.228  16.098  67.420  1.00  0.00    -0.213 C  
HETATM    8  C   UNL     1      -9.262  16.794  68.789  1.00  0.00    -0.260 C  
HETATM    9  C   UNL     1     -10.638  15.687  66.957  1.00  0.00    -0.311 C  
BRANCH   9  10
HETATM   10  C   UNL     1     -11.337  14.806  67.991  1.00  0.00    -0.332 C  
BRANCH  10  11
HETATM   11  C   UNL     1     -10.804  13.383  67.992  1.00  0.00    -0.264 C  
HETATM   12  C   UNL     1     -11.750  12.418  67.247  1.00  0.00    -0.419 C  
HETATM   13  C   UNL     1     -11.263  10.966  67.360  1.00  0.00    -0.345 C  
HETATM   14  C   UNL     1     -11.899  12.777  65.764  1.00  0.00    -0.484 C  
BRANCH  13  15
HETATM   15  C   UNL     1     -11.103  10.445  68.788  1.00  0.00    -0.298 C  
BRANCH  15  16
HETATM   16  C   UNL     1      -9.649  10.156  69.207  1.00  0.00    -0.239 C  
BRANCH  16  17
HETATM   17  C   UNL     1      -9.351   8.645  69.420  1.00  0.00    -0.150 C  
HETATM   18  C   UNL     1      -7.834   8.462  69.647  1.00  0.00    -0.100 C  
HETATM   19  C   UNL     1      -9.917   7.860  68.237  1.00  0.00    -0.204 C  
HETATM   20  C   UNL     1      -9.651   6.383  68.404  1.00  0.00    -0.125 C  
HETATM   21  C   UNL     1      -9.890   5.918  69.814  1.00  0.00    -0.217 A  
HETATM   22  C   UNL     1      -9.849   4.544  70.119  1.00  0.00    -0.296 A  
HETATM   23  C   UNL     1      -9.529   3.518  69.062  1.00  0.00    -0.213 C  
HETATM   24  C   UNL     1     -10.101   4.144  71.443  1.00  0.00    -0.097 A  
HETATM   25  C   UNL     1     -10.365   5.073  72.471  1.00  0.00    -0.255 A  
HETATM   26  O   UNL     1     -10.089   2.819  71.793  1.00  0.00    -0.149 OA 
HETATM   27  C   UNL     1     -10.627   4.591  73.874  1.00  0.00    -0.335 C  
HETATM   28  C   UNL     1     -10.367   6.453  72.165  1.00  0.00    -0.213 A  
HETATM   29  H   UNL     1     -10.259   2.549  72.688  1.00  0.00     0.000 HD 
HETATM   30  C   UNL     1     -10.108   6.863  70.839  1.00  0.00    -0.194 A  
HETATM   31  C   UNL     1     -10.615   7.510  73.214  1.00  0.00    -0.438 C  
HETATM   32  O   UNL     1     -10.048   8.227  70.619  1.00  0.00    -0.189 OA 
ENDBRANCH  16  17
ENDBRANCH  15  16
ENDBRANCH  13  15
ENDBRANCH  10  11
ENDBRANCH   9  10
ENDBRANCH   5   6
ENDBRANCH   4   5
TORSDOF 7
ENDMDL
MODEL      160
REMARK 921   NORMALIZED FREE ENERGY PREDICTED BY IDOCK:   -4.92 KCAL/MOL
REMARK 922        TOTAL FREE ENERGY PREDICTED BY IDOCK:   -8.69 KCAL/MOL
REMARK 923 INTER-LIGAND FREE ENERGY PREDICTED BY IDOCK:   -7.57 KCAL/MOL
REMARK 924 INTRA-LIGAND FREE ENERGY PREDICTED BY IDOCK:   -1.12 KCAL/MOL
REMARK 927      BINDING AFFINITY PREDICTED BY RF-SCORE:    0.00 PKD
ROOT
HETATM    1  C   UNL     1     -12.413  15.394  74.308  1.00  0.00    -0.761 C  
HETATM    2  C   UNL     1     -13.042  14.687  73.110  1.00  0.00    -0.580 C  
HETATM    3  C   UNL     1     -14.143  15.566  72.510  1.00  0.00    -0.595 C  
HETATM    4  C   UNL     1     -11.947  14.318  72.088  1.00  0.00     0.083 C  
ENDROOT
BRANCH   4   5
HETATM    5  C   UNL     1     -12.520  13.598  70.872  1.00  0.00    -0.448 C  
BRANCH   5   6
HETATM    6  C   UNL     1     -12.504  14.457  69.611  1.00  0.00    -0.207 C  
HETATM    7  C   UNL     1     -11.068  14.694  69.098  1.00  0.00    -0.285 C  
HETATM    8  C   UNL     1     -10.354  13.376  68.760  1.00  0.00    -0.164 C  
HETATM    9  C   UNL     1     -11.108  15.644  67.886  1.00  0.00    -0.324 C  
BRANCH   9  10
HETATM   10  C   UNL     1      -9.710  15.916  67.335  1.00  0.00    -0.227 C  
BRANCH  10  11
HETATM   11  C   UNL     1      -9.312  14.925  66.253  1.00  0.00    -0.329 C  
HETATM   12  C   UNL     1     -10.510  14.551  65.355  1.00  0.00    -0.399 C  
HETATM   13  C   UNL     1     -10.126  13.459  64.344  1.00  0.00    -0.128 C  
HETATM   14  C   UNL     1     -11.067  15.759  64.592  1.00  0.00    -0.376 C  
BRANCH  13  15
HETATM   15  C   UNL     1      -9.587  12.168  64.959  1.00  0.00    -0.027 C  
BRANCH  15  16
HETATM   16  C   UNL     1     -10.664  11.238  65.549  1.00  0.00    -0.283 C  
BRANCH  16  17
HETATM   17  C   UNL     1     -10.144  10.338  66.705  1.00  0.00    -0.216 C  
HETATM   18  C   UNL     1      -9.551   9.045  66.104  1.00  0.00    -0.341 C  
HETATM   19  C   UNL     1     -11.280  10.114  67.703  1.00  0.00    -0.169 C  
HETATM   20  C   UNL     1     -10.817   9.244  68.847  1.00  0.00    -0.128 C  
HETATM   21  C   UNL     1      -9.442   9.618  69.327  1.00  0.00    -0.184 A  
HETATM   22  C   UNL     1      -8.915   9.024  70.488  1.00  0.00    -0.249 A  
HETATM   23  C   UNL     1      -9.688   7.978  71.252  1.00  0.00    -0.199 C  
HETATM   24  C   UNL     1      -7.636   9.417  70.921  1.00  0.00    -0.067 A  
HETATM   25  C   UNL     1      -6.862  10.361  70.216  1.00  0.00    -0.132 A  
HETATM   26  O   UNL     1      -7.080   8.882  72.054  1.00  0.00    -0.270 OA 
HETATM   27  C   UNL     1      -5.495  10.746  70.721  1.00  0.00    -0.112 C  
HETATM   28  C   UNL     1      -7.382  10.926  69.028  1.00  0.00    -0.113 A  
HETATM   29  H   UNL     1      -6.216   9.147  72.346  1.00  0.00     0.000 HD 
HETATM   30  C   UNL     1      -8.662  10.531  68.584  1.00  0.00    -0.143 A  
HETATM   31  C   UNL     1      -6.605  11.923  68.203  1.00  0.00    -0.057 C  
HETATM   32  O   UNL     1      -9.084  11.061  67.378  1.00  0.00    -0.141 OA 
ENDBRANCH  16  17
ENDBRANCH  15  16
ENDBRANCH  13  15
ENDBRANCH  10  11
ENDBRANCH   9  10
ENDBRANCH   5   6
ENDBRANCH   4   5
TORSDOF 7
ENDMDL
MODEL      161
REMARK 921   NORMALIZED FREE ENERGY PREDICTED BY IDOCK:   -4.91 KCAL/MOL
REMARK 922        TOTAL FREE ENERGY PREDICTED BY IDOCK:   -8.68 KCAL/MOL
REMARK 923 INTER-LIGAND FREE ENERGY PREDICTED BY IDOCK:   -6.55 KCAL/MOL
REMARK 924 INTRA-LIGAND FREE ENERGY PREDICTED BY IDOCK:   -2.13 KCAL/MOL
REMARK 927      BINDING AFFINITY PREDICTED BY RF-SCORE:    0.00 PKD
ROOT
HETATM    1  C   UNL     1      -9.504   5.621  68.864  1.00  0.00    -0.157 C  
HETATM    2  C   UNL     1      -9.354   6.887  68.023  1.00  0.00    -0.123 C  
HETATM    3  C   UNL     1      -9.992   8.072  68.754  1.00  0.00    -0.196 C  
HETATM    4  C   UNL     1      -7.866   7.119  67.692  1.00  0.00    -0.113 C  
ENDROOT
BRANCH   4   5
HETATM    5  C   UNL     1      -7.658   8.369  66.842  1.00  0.00    -0.091 C  
BRANCH   5   6
HETATM    6  C   UNL     1      -8.721   8.534  65.759  1.00  0.00    -0.210 C  
HETATM    7  C   UNL     1      -8.619   9.906  65.061  1.00  0.00    -0.174 C  
HETATM    8  C   UNL     1      -7.252  10.110  64.391  1.00  0.00    -0.115 C  
HETATM    9  C   UNL     1      -9.773  10.053  64.051  1.00  0.00    -0.157 C  
BRANCH   9  10
HETATM   10  C   UNL     1      -9.724  11.397  63.329  1.00  0.00    -0.413 C  
BRANCH  10  11
HETATM   11  C   UNL     1     -10.244  12.536  64.191  1.00  0.00    -0.376 C  
HETATM   12  C   UNL     1     -11.598  13.067  63.678  1.00  0.00    -0.507 C  
HETATM   13  C   UNL     1     -12.054  14.295  64.481  1.00  0.00    -0.499 C  
HETATM   14  C   UNL     1     -12.700  12.002  63.732  1.00  0.00    -0.516 C  
BRANCH  13  15
HETATM   15  C   UNL     1     -11.071  15.466  64.489  1.00  0.00    -0.272 C  
BRANCH  15  16
HETATM   16  C   UNL     1     -11.151  16.364  65.738  1.00  0.00     0.102 C  
BRANCH  16  17
HETATM   17  C   UNL     1      -9.993  16.131  66.748  1.00  0.00    -0.258 C  
HETATM   18  C   UNL     1     -10.448  16.602  68.147  1.00  0.00    -0.321 C  
HETATM   19  C   UNL     1      -8.735  16.821  66.222  1.00  0.00    -0.342 C  
HETATM   20  C   UNL     1      -7.580  16.618  67.174  1.00  0.00    -0.218 C  
HETATM   21  C   UNL     1      -7.517  15.210  67.699  1.00  0.00    -0.202 A  
HETATM   22  C   UNL     1      -6.415  14.795  68.470  1.00  0.00    -0.092 A  
HETATM   23  C   UNL     1      -5.302  15.750  68.821  1.00  0.00    -0.104 C  
HETATM   24  C   UNL     1      -6.377  13.465  68.923  1.00  0.00    -0.099 A  
HETATM   25  C   UNL     1      -7.415  12.550  68.652  1.00  0.00    -0.090 A  
HETATM   26  O   UNL     1      -5.321  13.003  69.665  1.00  0.00    -0.080 OA 
HETATM   27  C   UNL     1      -7.326  11.135  69.164  1.00  0.00    -0.115 C  
HETATM   28  C   UNL     1      -8.537  12.984  67.909  1.00  0.00    -0.189 A  
HETATM   29  H   UNL     1      -5.296  12.104  69.971  1.00  0.00     0.000 HD 
HETATM   30  C   UNL     1      -8.585  14.320  67.457  1.00  0.00    -0.196 A  
HETATM   31  C   UNL     1      -9.700  12.073  67.601  1.00  0.00    -0.187 C  
HETATM   32  O   UNL     1      -9.741  14.705  66.802  1.00  0.00    -0.239 OA 
ENDBRANCH  16  17
ENDBRANCH  15  16
ENDBRANCH  13  15
ENDBRANCH  10  11
ENDBRANCH   9  10
ENDBRANCH   5   6
ENDBRANCH   4   5
TORSDOF 7
ENDMDL
MODEL      162
REMARK 921   NORMALIZED FREE ENERGY PREDICTED BY IDOCK:   -4.91 KCAL/MOL
REMARK 922        TOTAL FREE ENERGY PREDICTED BY IDOCK:   -8.67 KCAL/MOL
REMARK 923 INTER-LIGAND FREE ENERGY PREDICTED BY IDOCK:   -6.67 KCAL/MOL
REMARK 924 INTRA-LIGAND FREE ENERGY PREDICTED BY IDOCK:   -2.00 KCAL/MOL
REMARK 927      BINDING AFFINITY PREDICTED BY RF-SCORE:    0.00 PKD
ROOT
HETATM    1  C   UNL     1      -8.786   5.699  69.600  1.00  0.00    -0.110 C  
HETATM    2  C   UNL     1      -9.998   6.478  70.107  1.00  0.00    -0.190 C  
HETATM    3  C   UNL     1     -11.245   6.066  69.318  1.00  0.00    -0.367 C  
HETATM    4  C   UNL     1     -10.155   6.269  71.626  1.00  0.00    -0.214 C  
ENDROOT
BRANCH   4   5
HETATM    5  C   UNL     1     -11.348   7.035  72.189  1.00  0.00    -0.302 C  
BRANCH   5   6
HETATM    6  C   UNL     1     -11.087   8.534  72.309  1.00  0.00    -0.430 C  
HETATM    7  C   UNL     1     -11.976   9.349  71.346  1.00  0.00    -0.446 C  
HETATM    8  C   UNL     1     -13.471   9.124  71.614  1.00  0.00    -0.452 C  
HETATM    9  C   UNL     1     -11.600  10.840  71.442  1.00  0.00     0.339 C  
BRANCH   9  10
HETATM   10  C   UNL     1     -12.449  11.698  70.506  1.00  0.00    -0.344 C  
BRANCH  10  11
HETATM   11  C   UNL     1     -11.629  12.317  69.386  1.00  0.00    -0.378 C  
HETATM   12  C   UNL     1     -12.242  13.646  68.898  1.00  0.00    -0.221 C  
HETATM   13  C   UNL     1     -11.476  14.200  67.687  1.00  0.00    -0.364 C  
HETATM   14  C   UNL     1     -12.272  14.714  69.997  1.00  0.00    -0.385 C  
BRANCH  13  15
HETATM   15  C   UNL     1     -11.393  13.258  66.486  1.00  0.00    -0.353 C  
BRANCH  15  16
HETATM   16  C   UNL     1      -9.974  12.762  66.154  1.00  0.00    -0.272 C  
BRANCH  16  17
HETATM   17  C   UNL     1      -9.910  11.251  65.794  1.00  0.00    -0.232 C  
HETATM   18  C   UNL     1     -10.495  11.049  64.379  1.00  0.00    -0.422 C  
HETATM   19  C   UNL     1     -10.611  10.453  66.893  1.00  0.00    -0.293 C  
HETATM   20  C   UNL     1     -10.570   8.976  66.585  1.00  0.00    -0.158 C  
HETATM   21  C   UNL     1      -9.229   8.541  66.062  1.00  0.00    -0.262 A  
HETATM   22  C   UNL     1      -8.956   7.173  65.874  1.00  0.00    -0.098 A  
HETATM   23  C   UNL     1     -10.002   6.122  66.150  1.00  0.00     0.032 C  
HETATM   24  C   UNL     1      -7.684   6.801  65.407  1.00  0.00    -0.100 A  
HETATM   25  C   UNL     1      -6.690   7.752  65.098  1.00  0.00    -0.051 A  
HETATM   26  O   UNL     1      -7.359   5.482  65.221  1.00  0.00    -0.069 OA 
HETATM   27  C   UNL     1      -5.341   7.301  64.599  1.00  0.00    -0.029 C  
HETATM   28  C   UNL     1      -6.983   9.127  65.253  1.00  0.00    -0.084 A  
HETATM   29  H   UNL     1      -6.498   5.232  64.905  1.00  0.00     0.000 HD 
HETATM   30  C   UNL     1      -8.261   9.508  65.715  1.00  0.00    -0.116 A  
HETATM   31  C   UNL     1      -5.982  10.206  64.919  1.00  0.00    -0.124 C  
HETATM   32  O   UNL     1      -8.513  10.867  65.773  1.00  0.00    -0.172 OA 
ENDBRANCH  16  17
ENDBRANCH  15  16
ENDBRANCH  13  15
ENDBRANCH  10  11
ENDBRANCH   9  10
ENDBRANCH   5   6
ENDBRANCH   4   5
TORSDOF 7
ENDMDL
MODEL      163
REMARK 921   NORMALIZED FREE ENERGY PREDICTED BY IDOCK:   -4.90 KCAL/MOL
REMARK 922        TOTAL FREE ENERGY PREDICTED BY IDOCK:   -8.66 KCAL/MOL
REMARK 923 INTER-LIGAND FREE ENERGY PREDICTED BY IDOCK:   -7.84 KCAL/MOL
REMARK 924 INTRA-LIGAND FREE ENERGY PREDICTED BY IDOCK:   -0.82 KCAL/MOL
REMARK 927      BINDING AFFINITY PREDICTED BY RF-SCORE:    0.00 PKD
ROOT
HETATM    1  C   UNL     1      -5.511  21.279  67.587  1.00  0.00    -0.383 C  
HETATM    2  C   UNL     1      -6.702  20.324  67.588  1.00  0.00    -0.300 C  
HETATM    3  C   UNL     1      -6.933  19.787  69.004  1.00  0.00    -0.372 C  
HETATM    4  C   UNL     1      -7.942  21.034  67.008  1.00  0.00    -0.024 C  
ENDROOT
BRANCH   4   5
HETATM    5  C   UNL     1      -9.162  20.119  66.977  1.00  0.00    -0.503 C  
BRANCH   5   6
HETATM    6  C   UNL     1      -8.797  18.649  66.793  1.00  0.00    -0.297 C  
HETATM    7  C   UNL     1     -10.051  17.753  66.714  1.00  0.00    -0.349 C  
HETATM    8  C   UNL     1     -10.964  18.144  65.543  1.00  0.00     0.324 C  
HETATM    9  C   UNL     1      -9.620  16.276  66.629  1.00  0.00    -0.264 C  
BRANCH   9  10
HETATM   10  C   UNL     1     -10.824  15.340  66.549  1.00  0.00    -0.311 C  
BRANCH  10  11
HETATM   11  C   UNL     1     -10.669  14.291  65.460  1.00  0.00    -0.339 C  
HETATM   12  C   UNL     1     -11.906  14.239  64.539  1.00  0.00    -0.456 C  
HETATM   13  C   UNL     1     -11.792  13.095  63.520  1.00  0.00    -0.539 C  
HETATM   14  C   UNL     1     -12.127  15.556  63.784  1.00  0.00     0.421 C  
BRANCH  13  15
HETATM   15  C   UNL     1     -11.607  11.704  64.125  1.00  0.00    -0.342 C  
BRANCH  15  16
HETATM   16  C   UNL     1     -10.145  11.325  64.430  1.00  0.00    -0.357 C  
BRANCH  16  17
HETATM   17  C   UNL     1      -9.941  10.725  65.850  1.00  0.00    -0.250 C  
HETATM   18  C   UNL     1      -8.559  11.163  66.383  1.00  0.00    -0.172 C  
HETATM   19  C   UNL     1     -10.146   9.212  65.778  1.00  0.00    -0.005 C  
HETATM   20  C   UNL     1      -9.959   8.587  67.140  1.00  0.00    -0.304 C  
HETATM   21  C   UNL     1     -10.606   9.395  68.231  1.00  0.00    -0.256 A  
HETATM   22  C   UNL     1     -10.673   8.884  69.541  1.00  0.00    -0.206 A  
HETATM   23  C   UNL     1     -10.070   7.546  69.890  1.00  0.00    -0.193 C  
HETATM   24  C   UNL     1     -11.306   9.656  70.530  1.00  0.00    -0.296 A  
HETATM   25  C   UNL     1     -11.847  10.929  70.257  1.00  0.00    -0.450 A  
HETATM   26  O   UNL     1     -11.413   9.201  71.818  1.00  0.00    -0.347 OA 
HETATM   27  C   UNL     1     -12.514  11.718  71.354  1.00  0.00    -0.281 C  
HETATM   28  C   UNL     1     -11.743  11.453  68.947  1.00  0.00    -0.409 A  
HETATM   29  H   UNL     1     -11.841   9.723  72.487  1.00  0.00     0.000 HD 
HETATM   30  C   UNL     1     -11.102  10.686  67.950  1.00  0.00    -0.308 A  
HETATM   31  C   UNL     1     -12.274  12.818  68.581  1.00  0.00     0.011 C  
HETATM   32  O   UNL     1     -10.964  11.283  66.711  1.00  0.00    -0.282 OA 
ENDBRANCH  16  17
ENDBRANCH  15  16
ENDBRANCH  13  15
ENDBRANCH  10  11
ENDBRANCH   9  10
ENDBRANCH   5   6
ENDBRANCH   4   5
TORSDOF 7
ENDMDL
MODEL      164
REMARK 921   NORMALIZED FREE ENERGY PREDICTED BY IDOCK:   -4.87 KCAL/MOL
REMARK 922        TOTAL FREE ENERGY PREDICTED BY IDOCK:   -8.62 KCAL/MOL
REMARK 923 INTER-LIGAND FREE ENERGY PREDICTED BY IDOCK:   -6.61 KCAL/MOL
REMARK 924 INTRA-LIGAND FREE ENERGY PREDICTED BY IDOCK:   -2.02 KCAL/MOL
REMARK 927      BINDING AFFINITY PREDICTED BY RF-SCORE:    0.00 PKD
ROOT
HETATM    1  C   UNL     1      -8.521   8.391  72.938  1.00  0.00    -0.221 C  
HETATM    2  C   UNL     1      -9.531   7.282  72.653  1.00  0.00    -0.186 C  
HETATM    3  C   UNL     1     -10.127   6.775  73.970  1.00  0.00    -0.389 C  
HETATM    4  C   UNL     1     -10.602   7.792  71.669  1.00  0.00    -0.252 C  
ENDROOT
BRANCH   4   5
HETATM    5  C   UNL     1     -11.634   6.718  71.340  1.00  0.00    -0.350 C  
BRANCH   5   6
HETATM    6  C   UNL     1     -11.651   6.343  69.861  1.00  0.00    -0.422 C  
HETATM    7  C   UNL     1     -10.306   5.738  69.408  1.00  0.00    -0.332 C  
HETATM    8  C   UNL     1      -9.953   4.468  70.196  1.00  0.00    -0.278 C  
HETATM    9  C   UNL     1     -10.349   5.472  67.892  1.00  0.00    -0.240 C  
BRANCH   9  10
HETATM   10  C   UNL     1      -9.039   4.872  67.386  1.00  0.00    -0.124 C  
BRANCH  10  11
HETATM   11  C   UNL     1      -8.199   5.882  66.620  1.00  0.00    -0.106 C  
HETATM   12  C   UNL     1      -7.707   7.023  67.533  1.00  0.00    -0.111 C  
HETATM   13  C   UNL     1      -6.964   8.099  66.726  1.00  0.00    -0.073 C  
HETATM   14  C   UNL     1      -6.787   6.519  68.652  1.00  0.00    -0.070 C  
BRANCH  13  15
HETATM   15  C   UNL     1      -7.770   8.729  65.591  1.00  0.00    -0.091 C  
BRANCH  15  16
HETATM   16  C   UNL     1      -9.288   8.798  65.841  1.00  0.00    -0.284 C  
BRANCH  16  17
HETATM   17  C   UNL     1      -9.744  10.105  66.549  1.00  0.00    -0.200 C  
HETATM   18  C   UNL     1     -10.253   9.755  67.965  1.00  0.00    -0.229 C  
HETATM   19  C   UNL     1     -10.767  10.814  65.662  1.00  0.00    -0.142 C  
HETATM   20  C   UNL     1     -11.237  12.093  66.312  1.00  0.00    -0.382 C  
HETATM   21  C   UNL     1     -10.106  12.862  66.939  1.00  0.00    -0.241 A  
HETATM   22  C   UNL     1     -10.330  14.155  67.448  1.00  0.00    -0.256 A  
HETATM   23  C   UNL     1     -11.701  14.781  67.417  1.00  0.00    -0.371 C  
HETATM   24  C   UNL     1      -9.244  14.852  68.004  1.00  0.00    -0.185 A  
HETATM   25  C   UNL     1      -7.954  14.290  68.090  1.00  0.00    -0.140 A  
HETATM   26  O   UNL     1      -9.402  16.120  68.501  1.00  0.00    -0.196 OA 
HETATM   27  C   UNL     1      -6.825  15.081  68.698  1.00  0.00    -0.109 C  
HETATM   28  C   UNL     1      -7.744  12.976  67.611  1.00  0.00    -0.161 A  
HETATM   29  H   UNL     1      -8.668  16.592  68.877  1.00  0.00     0.000 HD 
HETATM   30  C   UNL     1      -8.832  12.266  67.058  1.00  0.00    -0.205 A  
HETATM   31  C   UNL     1      -6.401  12.295  67.692  1.00  0.00    -0.122 C  
HETATM   32  O   UNL     1      -8.582  10.960  66.677  1.00  0.00    -0.139 OA 
ENDBRANCH  16  17
ENDBRANCH  15  16
ENDBRANCH  13  15
ENDBRANCH  10  11
ENDBRANCH   9  10
ENDBRANCH   5   6
ENDBRANCH   4   5
TORSDOF 7
ENDMDL
MODEL      165
REMARK 921   NORMALIZED FREE ENERGY PREDICTED BY IDOCK:   -4.85 KCAL/MOL
REMARK 922        TOTAL FREE ENERGY PREDICTED BY IDOCK:   -8.60 KCAL/MOL
REMARK 923 INTER-LIGAND FREE ENERGY PREDICTED BY IDOCK:   -5.47 KCAL/MOL
REMARK 924 INTRA-LIGAND FREE ENERGY PREDICTED BY IDOCK:   -3.12 KCAL/MOL
REMARK 927      BINDING AFFINITY PREDICTED BY RF-SCORE:    0.00 PKD
ROOT
HETATM    1  C   UNL     1     -11.667   7.981  72.698  1.00  0.00    -0.418 C  
HETATM    2  C   UNL     1     -11.502   8.683  71.352  1.00  0.00    -0.352 C  
HETATM    3  C   UNL     1     -11.601   7.657  70.218  1.00  0.00    -0.079 C  
HETATM    4  C   UNL     1     -12.538   9.818  71.225  1.00  0.00    -0.460 C  
ENDROOT
BRANCH   4   5
HETATM    5  C   UNL     1     -12.411  10.561  69.900  1.00  0.00    -0.247 C  
BRANCH   5   6
HETATM    6  C   UNL     1     -11.092  11.319  69.768  1.00  0.00    -0.238 C  
HETATM    7  C   UNL     1     -10.372  10.989  68.444  1.00  0.00    -0.200 C  
HETATM    8  C   UNL     1     -11.228  11.348  67.219  1.00  0.00    -0.370 C  
HETATM    9  C   UNL     1      -9.008  11.704  68.412  1.00  0.00    -0.176 C  
BRANCH   9  10
HETATM   10  C   UNL     1      -8.247  11.412  67.120  1.00  0.00    -0.157 C  
BRANCH  10  11
HETATM   11  C   UNL     1      -7.954   9.931  66.945  1.00  0.00    -0.109 C  
HETATM   12  C   UNL     1      -8.333   9.437  65.533  1.00  0.00    -0.139 C  
HETATM   13  C   UNL     1      -8.147   7.918  65.407  1.00  0.00    -0.130 C  
HETATM   14  C   UNL     1      -7.516  10.129  64.435  1.00  0.00    -0.123 C  
BRANCH  13  15
HETATM   15  C   UNL     1      -8.935   7.083  66.416  1.00  0.00    -0.175 C  
BRANCH  15  16
HETATM   16  C   UNL     1      -8.373   5.669  66.658  1.00  0.00    -0.112 C  
BRANCH  16  17
HETATM   17  C   UNL     1      -8.311   5.272  68.160  1.00  0.00    -0.097 C  
HETATM   18  C   UNL     1      -7.081   4.367  68.387  1.00  0.00    -0.056 C  
HETATM   19  C   UNL     1      -9.646   4.643  68.558  1.00  0.00    -0.220 C  
HETATM   20  C   UNL     1      -9.631   4.244  70.014  1.00  0.00    -0.274 C  
HETATM   21  C   UNL     1      -8.988   5.288  70.885  1.00  0.00    -0.160 A  
HETATM   22  C   UNL     1      -9.030   5.161  72.286  1.00  0.00    -0.137 A  
HETATM   23  C   UNL     1      -9.676   3.968  72.944  1.00  0.00    -0.179 C  
HETATM   24  C   UNL     1      -8.440   6.169  73.068  1.00  0.00    -0.118 A  
HETATM   25  C   UNL     1      -7.790   7.281  72.494  1.00  0.00    -0.104 A  
HETATM   26  O   UNL     1      -8.464   6.103  74.437  1.00  0.00    -0.118 OA 
HETATM   27  C   UNL     1      -7.172   8.333  73.379  1.00  0.00    -0.157 C  
HETATM   28  C   UNL     1      -7.718   7.384  71.086  1.00  0.00    -0.090 A  
HETATM   29  H   UNL     1      -8.065   6.785  74.965  1.00  0.00     0.000 HD 
HETATM   30  C   UNL     1      -8.303   6.371  70.294  1.00  0.00    -0.126 A  
HETATM   31  C   UNL     1      -7.018   8.529  70.396  1.00  0.00    -0.038 C  
HETATM   32  O   UNL     1      -8.134   6.489  68.926  1.00  0.00    -0.113 OA 
ENDBRANCH  16  17
ENDBRANCH  15  16
ENDBRANCH  13  15
ENDBRANCH  10  11
ENDBRANCH   9  10
ENDBRANCH   5   6
ENDBRANCH   4   5
TORSDOF 7
ENDMDL
MODEL      166
REMARK 921   NORMALIZED FREE ENERGY PREDICTED BY IDOCK:   -4.82 KCAL/MOL
REMARK 922        TOTAL FREE ENERGY PREDICTED BY IDOCK:   -8.55 KCAL/MOL
REMARK 923 INTER-LIGAND FREE ENERGY PREDICTED BY IDOCK:   -6.99 KCAL/MOL
REMARK 924 INTRA-LIGAND FREE ENERGY PREDICTED BY IDOCK:   -1.56 KCAL/MOL
REMARK 927      BINDING AFFINITY PREDICTED BY RF-SCORE:    0.00 PKD
ROOT
HETATM    1  C   UNL     1      -7.928  10.281  65.965  1.00  0.00    -0.138 C  
HETATM    2  C   UNL     1      -6.788  10.355  66.978  1.00  0.00    -0.085 C  
HETATM    3  C   UNL     1      -7.231  11.170  68.197  1.00  0.00    -0.080 C  
HETATM    4  C   UNL     1      -6.323   8.932  67.346  1.00  0.00    -0.056 C  
ENDROOT
BRANCH   4   5
HETATM    5  C   UNL     1      -5.175   8.948  68.350  1.00  0.00    -0.034 C  
BRANCH   5   6
HETATM    6  C   UNL     1      -5.613   9.378  69.747  1.00  0.00    -0.033 C  
HETATM    7  C   UNL     1      -6.663   8.415  70.340  1.00  0.00    -0.036 C  
HETATM    8  C   UNL     1      -6.127   6.980  70.453  1.00  0.00    -0.027 C  
HETATM    9  C   UNL     1      -7.138   8.952  71.703  1.00  0.00    -0.056 C  
BRANCH   9  10
HETATM   10  C   UNL     1      -8.182   8.036  72.338  1.00  0.00    -0.193 C  
BRANCH  10  11
HETATM   11  C   UNL     1      -9.593   8.588  72.204  1.00  0.00    -0.382 C  
HETATM   12  C   UNL     1     -10.260   8.132  70.890  1.00  0.00    -0.216 C  
HETATM   13  C   UNL     1     -11.635   8.792  70.708  1.00  0.00    -0.288 C  
HETATM   14  C   UNL     1     -10.429   6.609  70.820  1.00  0.00    -0.251 C  
BRANCH  13  15
HETATM   15  C   UNL     1     -11.626  10.321  70.715  1.00  0.00    -0.446 C  
BRANCH  15  16
HETATM   16  C   UNL     1     -10.525  10.961  69.848  1.00  0.00     0.043 C  
BRANCH  16  17
HETATM   17  C   UNL     1     -11.067  11.976  68.803  1.00  0.00    -0.249 C  
HETATM   18  C   UNL     1     -12.383  12.586  69.334  1.00  0.00     0.043 C  
HETATM   19  C   UNL     1     -11.191  11.271  67.452  1.00  0.00    -0.370 C  
HETATM   20  C   UNL     1     -11.713  12.224  66.403  1.00  0.00    -0.431 C  
HETATM   21  C   UNL     1     -11.076  13.583  66.500  1.00  0.00    -0.310 A  
HETATM   22  C   UNL     1     -11.320  14.548  65.505  1.00  0.00    -0.335 A  
HETATM   23  C   UNL     1     -12.248  14.264  64.351  1.00  0.00    -0.471 C  
HETATM   24  C   UNL     1     -10.688  15.798  65.616  1.00  0.00    -0.348 A  
HETATM   25  C   UNL     1      -9.845  16.121  66.700  1.00  0.00    -0.262 A  
HETATM   26  O   UNL     1     -10.879  16.770  64.668  1.00  0.00    -0.835 OA 
HETATM   27  C   UNL     1      -9.194  17.478  66.772  1.00  0.00    -0.277 C  
HETATM   28  C   UNL     1      -9.634  15.160  67.715  1.00  0.00    -0.203 A  
HETATM   29  H   UNL     1     -10.451  17.616  64.744  1.00  0.00     0.000 HD 
HETATM   30  C   UNL     1     -10.272  13.904  67.614  1.00  0.00    -0.242 A  
HETATM   31  C   UNL     1      -8.768  15.437  68.919  1.00  0.00    -0.208 C  
HETATM   32  O   UNL     1     -10.087  13.035  68.675  1.00  0.00    -0.218 OA 
ENDBRANCH  16  17
ENDBRANCH  15  16
ENDBRANCH  13  15
ENDBRANCH  10  11
ENDBRANCH   9  10
ENDBRANCH   5   6
ENDBRANCH   4   5
TORSDOF 7
ENDMDL
MODEL      167
REMARK 921   NORMALIZED FREE ENERGY PREDICTED BY IDOCK:   -4.80 KCAL/MOL
REMARK 922        TOTAL FREE ENERGY PREDICTED BY IDOCK:   -8.52 KCAL/MOL
REMARK 923 INTER-LIGAND FREE ENERGY PREDICTED BY IDOCK:   -7.68 KCAL/MOL
REMARK 924 INTRA-LIGAND FREE ENERGY PREDICTED BY IDOCK:   -0.84 KCAL/MOL
REMARK 927      BINDING AFFINITY PREDICTED BY RF-SCORE:    0.00 PKD
ROOT
HETATM    1  C   UNL     1     -12.608   6.827  71.307  1.00  0.00    -0.328 C  
HETATM    2  C   UNL     1     -11.395   6.915  72.231  1.00  0.00    -0.306 C  
HETATM    3  C   UNL     1     -10.589   5.615  72.151  1.00  0.00    -0.274 C  
HETATM    4  C   UNL     1     -10.559   8.161  71.876  1.00  0.00    -0.324 C  
ENDROOT
BRANCH   4   5
HETATM    5  C   UNL     1      -9.336   8.304  72.777  1.00  0.00    -0.338 C  
BRANCH   5   6
HETATM    6  C   UNL     1      -8.058   7.776  72.132  1.00  0.00    -0.136 C  
HETATM    7  C   UNL     1      -8.016   8.072  70.618  1.00  0.00    -0.096 C  
HETATM    8  C   UNL     1      -8.086   9.578  70.325  1.00  0.00    -0.200 C  
HETATM    9  C   UNL     1      -6.755   7.433  70.007  1.00  0.00    -0.047 C  
BRANCH   9  10
HETATM   10  C   UNL     1      -6.661   7.693  68.505  1.00  0.00    -0.054 C  
BRANCH  10  11
HETATM   11  C   UNL     1      -8.029   7.817  67.854  1.00  0.00    -0.125 C  
HETATM   12  C   UNL     1      -7.987   8.727  66.608  1.00  0.00    -0.100 C  
HETATM   13  C   UNL     1      -9.394   8.944  66.032  1.00  0.00    -0.306 C  
HETATM   14  C   UNL     1      -7.081   8.165  65.507  1.00  0.00    -0.067 C  
BRANCH  13  15
HETATM   15  C   UNL     1     -10.409   9.541  67.006  1.00  0.00    -0.319 C  
BRANCH  15  16
HETATM   16  C   UNL     1     -11.105  10.821  66.506  1.00  0.00    -0.061 C  
BRANCH  16  17
HETATM   17  C   UNL     1     -10.835  12.065  67.397  1.00  0.00    -0.242 C  
HETATM   18  C   UNL     1      -9.377  12.011  67.903  1.00  0.00    -0.190 C  
HETATM   19  C   UNL     1     -11.891  12.119  68.500  1.00  0.00    -0.365 C  
HETATM   20  C   UNL     1     -11.667  13.318  69.391  1.00  0.00    -0.383 C  
HETATM   21  C   UNL     1     -11.319  14.553  68.606  1.00  0.00    -0.300 A  
HETATM   22  C   UNL     1     -11.235  15.799  69.255  1.00  0.00    -0.324 A  
HETATM   23  C   UNL     1     -11.449  15.923  70.742  1.00  0.00    -0.437 C  
HETATM   24  C   UNL     1     -10.931  16.935  68.485  1.00  0.00    -0.290 A  
HETATM   25  C   UNL     1     -10.684  16.860  67.099  1.00  0.00    -0.180 A  
HETATM   26  O   UNL     1     -10.852  18.176  69.062  1.00  0.00    -0.197 OA 
HETATM   27  C   UNL     1     -10.360  18.109  66.320  1.00  0.00    -0.407 C  
HETATM   28  C   UNL     1     -10.732  15.599  66.460  1.00  0.00    -0.293 A  
HETATM   29  H   UNL     1     -10.647  18.944  68.541  1.00  0.00     0.000 HD 
HETATM   30  C   UNL     1     -11.030  14.452  67.228  1.00  0.00    -0.297 A  
HETATM   31  C   UNL     1     -10.454  15.431  64.987  1.00  0.00    -0.411 C  
HETATM   32  O   UNL     1     -10.988  13.240  66.563  1.00  0.00    -0.282 OA 
ENDBRANCH  16  17
ENDBRANCH  15  16
ENDBRANCH  13  15
ENDBRANCH  10  11
ENDBRANCH   9  10
ENDBRANCH   5   6
ENDBRANCH   4   5
TORSDOF 7
ENDMDL
MODEL      168
REMARK 921   NORMALIZED FREE ENERGY PREDICTED BY IDOCK:   -4.79 KCAL/MOL
REMARK 922        TOTAL FREE ENERGY PREDICTED BY IDOCK:   -8.50 KCAL/MOL
REMARK 923 INTER-LIGAND FREE ENERGY PREDICTED BY IDOCK:   -7.15 KCAL/MOL
REMARK 924 INTRA-LIGAND FREE ENERGY PREDICTED BY IDOCK:   -1.35 KCAL/MOL
REMARK 927      BINDING AFFINITY PREDICTED BY RF-SCORE:    0.00 PKD
ROOT
HETATM    1  C   UNL     1     -12.486  15.412  73.825  1.00  0.00    -0.751 C  
HETATM    2  C   UNL     1     -12.938  14.602  72.612  1.00  0.00    -0.534 C  
HETATM    3  C   UNL     1     -14.237  15.190  72.052  1.00  0.00    -0.673 C  
HETATM    4  C   UNL     1     -11.805  14.552  71.568  1.00  0.00    -0.283 C  
ENDROOT
BRANCH   4   5
HETATM    5  C   UNL     1     -12.200  13.744  70.335  1.00  0.00    -0.433 C  
BRANCH   5   6
HETATM    6  C   UNL     1     -12.134  12.237  70.567  1.00  0.00    -0.371 C  
HETATM    7  C   UNL     1     -11.298  11.526  69.483  1.00  0.00    -0.342 C  
HETATM    8  C   UNL     1      -9.852  12.043  69.441  1.00  0.00     0.685 C  
HETATM    9  C   UNL     1     -11.350  10.004  69.713  1.00  0.00    -0.281 C  
BRANCH   9  10
HETATM   10  C   UNL     1     -10.538   9.246  68.665  1.00  0.00    -0.219 C  
BRANCH  10  11
HETATM   11  C   UNL     1     -10.963   9.589  67.246  1.00  0.00    -0.062 C  
HETATM   12  C   UNL     1      -9.766  10.055  66.390  1.00  0.00    -0.266 C  
HETATM   13  C   UNL     1     -10.226  10.515  64.998  1.00  0.00    -0.365 C  
HETATM   14  C   UNL     1      -8.706   8.959  66.225  1.00  0.00    -0.162 C  
BRANCH  13  15
HETATM   15  C   UNL     1     -11.261  11.639  64.996  1.00  0.00    -0.275 C  
BRANCH  15  16
HETATM   16  C   UNL     1     -11.293  12.486  66.281  1.00  0.00    -0.386 C  
BRANCH  16  17
HETATM   17  C   UNL     1     -10.292  13.676  66.268  1.00  0.00    -0.293 C  
HETATM   18  C   UNL     1     -10.322  14.338  64.873  1.00  0.00    -0.429 C  
HETATM   19  C   UNL     1      -8.918  13.168  66.703  1.00  0.00    -0.135 C  
HETATM   20  C   UNL     1      -7.913  14.295  66.707  1.00  0.00     0.309 C  
HETATM   21  C   UNL     1      -8.479  15.561  67.289  1.00  0.00    -0.216 A  
HETATM   22  C   UNL     1      -7.639  16.666  67.521  1.00  0.00    -0.177 A  
HETATM   23  C   UNL     1      -6.176  16.626  67.161  1.00  0.00    -0.212 C  
HETATM   24  C   UNL     1      -8.198  17.824  68.089  1.00  0.00    -0.260 A  
HETATM   25  C   UNL     1      -9.569  17.919  68.405  1.00  0.00    -0.320 A  
HETATM   26  O   UNL     1      -7.424  18.924  68.351  1.00  0.00    -0.277 OA 
HETATM   27  C   UNL     1     -10.118  19.185  69.011  1.00  0.00    -0.365 C  
HETATM   28  C   UNL     1     -10.415  16.819  68.133  1.00  0.00    -0.332 A  
HETATM   29  H   UNL     1      -7.802  19.707  68.735  1.00  0.00     0.000 HD 
HETATM   30  C   UNL     1      -9.861  15.655  67.556  1.00  0.00    -0.228 A  
HETATM   31  C   UNL     1     -11.896  16.852  68.418  1.00  0.00     0.781 C  
HETATM   32  O   UNL     1     -10.751  14.642  67.245  1.00  0.00    -0.281 OA 
ENDBRANCH  16  17
ENDBRANCH  15  16
ENDBRANCH  13  15
ENDBRANCH  10  11
ENDBRANCH   9  10
ENDBRANCH   5   6
ENDBRANCH   4   5
TORSDOF 7
ENDMDL
MODEL      169
REMARK 921   NORMALIZED FREE ENERGY PREDICTED BY IDOCK:   -4.78 KCAL/MOL
REMARK 922        TOTAL FREE ENERGY PREDICTED BY IDOCK:   -8.49 KCAL/MOL
REMARK 923 INTER-LIGAND FREE ENERGY PREDICTED BY IDOCK:   -8.26 KCAL/MOL
REMARK 924 INTRA-LIGAND FREE ENERGY PREDICTED BY IDOCK:   -0.24 KCAL/MOL
REMARK 927      BINDING AFFINITY PREDICTED BY RF-SCORE:    0.00 PKD
ROOT
HETATM    1  C   UNL     1      -9.730  20.054  66.373  1.00  0.00    -0.557 C  
HETATM    2  C   UNL     1      -9.567  18.643  66.933  1.00  0.00    -0.324 C  
HETATM    3  C   UNL     1      -8.086  18.362  67.205  1.00  0.00    -0.243 C  
HETATM    4  C   UNL     1     -10.449  18.474  68.186  1.00  0.00    -0.361 C  
ENDROOT
BRANCH   4   5
HETATM    5  C   UNL     1     -10.332  17.074  68.782  1.00  0.00    -0.336 C  
BRANCH   5   6
HETATM    6  C   UNL     1     -10.984  16.003  67.912  1.00  0.00    -0.327 C  
HETATM    7  C   UNL     1     -11.196  14.686  68.688  1.00  0.00    -0.293 C  
HETATM    8  C   UNL     1     -12.093  14.882  69.919  1.00  0.00    -0.379 C  
HETATM    9  C   UNL     1     -11.763  13.616  67.736  1.00  0.00    -0.397 C  
BRANCH   9  10
HETATM   10  C   UNL     1     -11.992  12.287  68.452  1.00  0.00    -0.266 C  
BRANCH  10  11
HETATM   11  C   UNL     1     -10.986  11.226  68.036  1.00  0.00    -0.302 C  
HETATM   12  C   UNL     1     -11.016  10.977  66.514  1.00  0.00    -0.228 C  
HETATM   13  C   UNL     1     -10.085   9.820  66.121  1.00  0.00    -0.315 C  
HETATM   14  C   UNL     1     -10.624  12.224  65.711  1.00  0.00    -0.289 C  
BRANCH  13  15
HETATM   15  C   UNL     1     -10.377   8.489  66.814  1.00  0.00    -0.346 C  
BRANCH  15  16
HETATM   16  C   UNL     1      -9.297   7.410  66.614  1.00  0.00    -0.215 C  
BRANCH  16  17
HETATM   17  C   UNL     1      -9.106   6.484  67.848  1.00  0.00    -0.113 C  
HETATM   18  C   UNL     1      -7.599   6.389  68.173  1.00  0.00    -0.103 C  
HETATM   19  C   UNL     1      -9.783   5.143  67.566  1.00  0.00    -0.177 C  
HETATM   20  C   UNL     1      -9.623   4.211  68.743  1.00  0.00    -0.210 C  
HETATM   21  C   UNL     1      -9.835   4.911  70.057  1.00  0.00    -0.304 A  
HETATM   22  C   UNL     1      -9.885   4.169  71.251  1.00  0.00    -0.249 A  
HETATM   23  C   UNL     1      -9.692   2.673  71.251  1.00  0.00    -0.202 C  
HETATM   24  C   UNL     1     -10.109   4.855  72.458  1.00  0.00    -0.182 A  
HETATM   25  C   UNL     1     -10.255   6.256  72.509  1.00  0.00    -0.203 A  
HETATM   26  O   UNL     1     -10.183   4.180  73.649  1.00  0.00    -0.135 OA 
HETATM   27  C   UNL     1     -10.491   6.943  73.830  1.00  0.00    -0.390 C  
HETATM   28  C   UNL     1     -10.165   7.000  71.310  1.00  0.00    -0.203 A  
HETATM   29  H   UNL     1     -10.333   4.644  74.464  1.00  0.00     0.000 HD 
HETATM   30  C   UNL     1      -9.934   6.319  70.095  1.00  0.00    -0.172 A  
HETATM   31  C   UNL     1     -10.285   8.504  71.285  1.00  0.00    -0.287 C  
HETATM   32  O   UNL     1      -9.780   7.107  68.969  1.00  0.00    -0.149 OA 
ENDBRANCH  16  17
ENDBRANCH  15  16
ENDBRANCH  13  15
ENDBRANCH  10  11
ENDBRANCH   9  10
ENDBRANCH   5   6
ENDBRANCH   4   5
TORSDOF 7
ENDMDL
MODEL      170
REMARK 921   NORMALIZED FREE ENERGY PREDICTED BY IDOCK:   -4.78 KCAL/MOL
REMARK 922        TOTAL FREE ENERGY PREDICTED BY IDOCK:   -8.49 KCAL/MOL
REMARK 923 INTER-LIGAND FREE ENERGY PREDICTED BY IDOCK:   -7.34 KCAL/MOL
REMARK 924 INTRA-LIGAND FREE ENERGY PREDICTED BY IDOCK:   -1.15 KCAL/MOL
REMARK 927      BINDING AFFINITY PREDICTED BY RF-SCORE:    0.00 PKD
ROOT
HETATM    1  C   UNL     1      -7.384  10.151  64.858  1.00  0.00    -0.136 C  
HETATM    2  C   UNL     1      -6.590   9.905  66.139  1.00  0.00    -0.084 C  
HETATM    3  C   UNL     1      -6.314  11.239  66.840  1.00  0.00    -0.125 C  
HETATM    4  C   UNL     1      -7.343   8.902  67.035  1.00  0.00    -0.083 C  
ENDROOT
BRANCH   4   5
HETATM    5  C   UNL     1      -6.587   8.611  68.328  1.00  0.00    -0.061 C  
BRANCH   5   6
HETATM    6  C   UNL     1      -7.290   9.164  69.564  1.00  0.00    -0.068 C  
HETATM    7  C   UNL     1      -8.822   9.011  69.469  1.00  0.00    -0.146 C  
HETATM    8  C   UNL     1      -9.244   7.541  69.324  1.00  0.00    -0.144 C  
HETATM    9  C   UNL     1      -9.480   9.672  70.694  1.00  0.00    -0.190 C  
BRANCH   9  10
HETATM   10  C   UNL     1     -11.002   9.552  70.652  1.00  0.00    -0.370 C  
BRANCH  10  11
HETATM   11  C   UNL     1     -11.671  10.841  70.205  1.00  0.00    -0.442 C  
HETATM   12  C   UNL     1     -11.219  11.257  68.790  1.00  0.00    -0.311 C  
HETATM   13  C   UNL     1     -11.806  12.622  68.398  1.00  0.00    -0.347 C  
HETATM   14  C   UNL     1     -11.610  10.225  67.726  1.00  0.00     0.292 C  
BRANCH  13  15
HETATM   15  C   UNL     1     -11.468  13.770  69.348  1.00  0.00    -0.341 C  
BRANCH  15  16
HETATM   16  C   UNL     1     -10.051  14.350  69.177  1.00  0.00    -0.108 C  
BRANCH  16  17
HETATM   17  C   UNL     1     -10.037  15.839  68.733  1.00  0.00    -0.215 C  
HETATM   18  C   UNL     1     -10.859  16.670  69.742  1.00  0.00    -0.238 C  
HETATM   19  C   UNL     1     -10.527  15.926  67.287  1.00  0.00    -0.310 C  
HETATM   20  C   UNL     1     -10.527  17.359  66.813  1.00  0.00    -0.257 C  
HETATM   21  C   UNL     1      -9.294  18.103  67.248  1.00  0.00    -0.252 A  
HETATM   22  C   UNL     1      -9.045  19.400  66.761  1.00  0.00    -0.382 A  
HETATM   23  C   UNL     1     -10.016  20.087  65.834  1.00  0.00    -0.471 C  
HETATM   24  C   UNL     1      -7.871  20.055  67.170  1.00  0.00    -0.304 A  
HETATM   25  C   UNL     1      -6.955  19.466  68.067  1.00  0.00    -0.289 A  
HETATM   26  O   UNL     1      -7.571  21.313  66.716  1.00  0.00    -0.687 OA 
HETATM   27  C   UNL     1      -5.712  20.213  68.475  1.00  0.00    -0.276 C  
HETATM   28  C   UNL     1      -7.230  18.178  68.581  1.00  0.00    -0.288 A  
HETATM   29  H   UNL     1      -6.777  21.756  66.993  1.00  0.00     0.000 HD 
HETATM   30  C   UNL     1      -8.411  17.517  68.180  1.00  0.00    -0.254 A  
HETATM   31  C   UNL     1      -6.314  17.492  69.564  1.00  0.00    -0.230 C  
HETATM   32  O   UNL     1      -8.662  16.294  68.775  1.00  0.00    -0.219 OA 
ENDBRANCH  16  17
ENDBRANCH  15  16
ENDBRANCH  13  15
ENDBRANCH  10  11
ENDBRANCH   9  10
ENDBRANCH   5   6
ENDBRANCH   4   5
TORSDOF 7
ENDMDL
MODEL      171
REMARK 921   NORMALIZED FREE ENERGY PREDICTED BY IDOCK:   -4.77 KCAL/MOL
REMARK 922        TOTAL FREE ENERGY PREDICTED BY IDOCK:   -8.48 KCAL/MOL
REMARK 923 INTER-LIGAND FREE ENERGY PREDICTED BY IDOCK:   -6.42 KCAL/MOL
REMARK 924 INTRA-LIGAND FREE ENERGY PREDICTED BY IDOCK:   -2.06 KCAL/MOL
REMARK 927      BINDING AFFINITY PREDICTED BY RF-SCORE:    0.00 PKD
ROOT
HETATM    1  C   UNL     1     -10.545  10.622  64.460  1.00  0.00    -0.145 C  
HETATM    2  C   UNL     1      -9.362  10.046  65.236  1.00  0.00    -0.294 C  
HETATM    3  C   UNL     1      -8.846  11.083  66.239  1.00  0.00    -0.187 C  
HETATM    4  C   UNL     1      -9.773   8.719  65.904  1.00  0.00    -0.211 C  
ENDROOT
BRANCH   4   5
HETATM    5  C   UNL     1      -8.623   8.093  66.687  1.00  0.00    -0.140 C  
BRANCH   5   6
HETATM    6  C   UNL     1      -8.638   6.567  66.645  1.00  0.00    -0.118 C  
HETATM    7  C   UNL     1      -9.119   5.963  67.981  1.00  0.00    -0.117 C  
HETATM    8  C   UNL     1     -10.540   6.423  68.341  1.00  0.00    -0.311 C  
HETATM    9  C   UNL     1      -9.021   4.428  67.913  1.00  0.00    -0.138 C  
BRANCH   9  10
HETATM   10  C   UNL     1      -9.484   3.774  69.213  1.00  0.00    -0.252 C  
BRANCH  10  11
HETATM   11  C   UNL     1      -8.563   4.091  70.380  1.00  0.00    -0.109 C  
HETATM   12  C   UNL     1      -8.458   2.905  71.362  1.00  0.00    -0.092 C  
HETATM   13  C   UNL     1      -7.624   3.279  72.597  1.00  0.00    -0.051 C  
HETATM   14  C   UNL     1      -7.847   1.660  70.709  1.00  0.00    -0.036 C  
BRANCH  13  15
HETATM   15  C   UNL     1      -8.135   4.487  73.382  1.00  0.00    -0.095 C  
BRANCH  15  16
HETATM   16  C   UNL     1      -7.814   5.851  72.743  1.00  0.00    -0.104 C  
BRANCH  16  17
HETATM   17  C   UNL     1      -9.007   6.847  72.771  1.00  0.00    -0.130 C  
HETATM   18  C   UNL     1      -8.842   7.791  73.983  1.00  0.00    -0.304 C  
HETATM   19  C   UNL     1     -10.313   6.053  72.756  1.00  0.00    -0.223 C  
HETATM   20  C   UNL     1     -11.501   6.984  72.780  1.00  0.00    -0.207 C  
HETATM   21  C   UNL     1     -11.316   8.167  71.869  1.00  0.00    -0.356 A  
HETATM   22  C   UNL     1     -12.384   9.054  71.640  1.00  0.00    -0.416 A  
HETATM   23  C   UNL     1     -13.715   8.868  72.324  1.00  0.00    -0.527 C  
HETATM   24  C   UNL     1     -12.182  10.134  70.764  1.00  0.00    -0.338 A  
HETATM   25  C   UNL     1     -10.943  10.368  70.134  1.00  0.00    -0.365 A  
HETATM   26  O   UNL     1     -13.192  11.020  70.492  1.00  0.00    -0.079 OA 
HETATM   27  C   UNL     1     -10.778  11.543  69.204  1.00  0.00    -0.210 C  
HETATM   28  C   UNL     1      -9.862   9.495  70.398  1.00  0.00    -0.329 A  
HETATM   29  H   UNL     1     -13.055  11.750  69.900  1.00  0.00     0.000 HD 
HETATM   30  C   UNL     1     -10.056   8.412  71.283  1.00  0.00    -0.202 A  
HETATM   31  C   UNL     1      -8.498   9.694  69.784  1.00  0.00    -0.200 C  
HETATM   32  O   UNL     1      -8.942   7.640  71.560  1.00  0.00    -0.129 OA 
ENDBRANCH  16  17
ENDBRANCH  15  16
ENDBRANCH  13  15
ENDBRANCH  10  11
ENDBRANCH   9  10
ENDBRANCH   5   6
ENDBRANCH   4   5
TORSDOF 7
ENDMDL
MODEL      172
REMARK 921   NORMALIZED FREE ENERGY PREDICTED BY IDOCK:   -4.77 KCAL/MOL
REMARK 922        TOTAL FREE ENERGY PREDICTED BY IDOCK:   -8.47 KCAL/MOL
REMARK 923 INTER-LIGAND FREE ENERGY PREDICTED BY IDOCK:   -7.43 KCAL/MOL
REMARK 924 INTRA-LIGAND FREE ENERGY PREDICTED BY IDOCK:   -1.05 KCAL/MOL
REMARK 927      BINDING AFFINITY PREDICTED BY RF-SCORE:    0.00 PKD
ROOT
HETATM    1  C   UNL     1     -12.620  14.254  72.869  1.00  0.00    -0.309 C  
HETATM    2  C   UNL     1     -12.564  14.755  71.428  1.00  0.00    -0.394 C  
HETATM    3  C   UNL     1     -13.900  15.402  71.052  1.00  0.00    -0.361 C  
HETATM    4  C   UNL     1     -11.366  15.710  71.254  1.00  0.00    -0.451 C  
ENDROOT
BRANCH   4   5
HETATM    5  C   UNL     1     -11.256  16.233  69.825  1.00  0.00    -0.314 C  
BRANCH   5   6
HETATM    6  C   UNL     1     -10.512  15.276  68.898  1.00  0.00    -0.241 C  
HETATM    7  C   UNL     1     -10.845  15.541  67.415  1.00  0.00    -0.312 C  
HETATM    8  C   UNL     1     -10.473  16.969  66.988  1.00  0.00    -0.279 C  
HETATM    9  C   UNL     1     -10.144  14.486  66.537  1.00  0.00    -0.280 C  
BRANCH   9  10
HETATM   10  C   UNL     1     -10.440  14.698  65.054  1.00  0.00    -0.447 C  
BRANCH  10  11
HETATM   11  C   UNL     1     -10.346  13.408  64.256  1.00  0.00    -0.249 C  
HETATM   12  C   UNL     1     -11.239  12.301  64.854  1.00  0.00    -0.365 C  
HETATM   13  C   UNL     1     -11.043  10.969  64.114  1.00  0.00     0.002 C  
HETATM   14  C   UNL     1     -12.726  12.671  64.824  1.00  0.00    -0.460 C  
BRANCH  13  15
HETATM   15  C   UNL     1      -9.607  10.445  64.093  1.00  0.00    -0.381 C  
BRANCH  15  16
HETATM   16  C   UNL     1      -8.845  10.603  65.421  1.00  0.00    -0.204 C  
BRANCH  16  17
HETATM   17  C   UNL     1      -8.873   9.329  66.312  1.00  0.00    -0.146 C  
HETATM   18  C   UNL     1      -7.876   8.298  65.740  1.00  0.00    -0.098 C  
HETATM   19  C   UNL     1     -10.315   8.832  66.415  1.00  0.00    -0.169 C  
HETATM   20  C   UNL     1     -10.389   7.594  67.275  1.00  0.00    -0.367 C  
HETATM   21  C   UNL     1      -9.529   7.702  68.504  1.00  0.00    -0.147 A  
HETATM   22  C   UNL     1      -9.598   6.712  69.502  1.00  0.00    -0.150 A  
HETATM   23  C   UNL     1     -10.494   5.509  69.349  1.00  0.00    -0.360 C  
HETATM   24  C   UNL     1      -8.797   6.859  70.648  1.00  0.00    -0.150 A  
HETATM   25  C   UNL     1      -7.915   7.947  70.814  1.00  0.00    -0.100 A  
HETATM   26  O   UNL     1      -8.835   5.933  71.658  1.00  0.00    -0.138 OA 
HETATM   27  C   UNL     1      -7.077   8.056  72.061  1.00  0.00    -0.085 C  
HETATM   28  C   UNL     1      -7.823   8.918  69.790  1.00  0.00    -0.090 A  
HETATM   29  H   UNL     1      -8.294   6.033  72.432  1.00  0.00     0.000 HD 
HETATM   30  C   UNL     1      -8.618   8.773  68.633  1.00  0.00    -0.134 A  
HETATM   31  C   UNL     1      -6.884  10.096  69.881  1.00  0.00    -0.124 C  
HETATM   32  O   UNL     1      -8.428   9.713  67.636  1.00  0.00    -0.124 OA 
ENDBRANCH  16  17
ENDBRANCH  15  16
ENDBRANCH  13  15
ENDBRANCH  10  11
ENDBRANCH   9  10
ENDBRANCH   5   6
ENDBRANCH   4   5
TORSDOF 7
ENDMDL
MODEL      173
REMARK 921   NORMALIZED FREE ENERGY PREDICTED BY IDOCK:   -4.76 KCAL/MOL
REMARK 922        TOTAL FREE ENERGY PREDICTED BY IDOCK:   -8.47 KCAL/MOL
REMARK 923 INTER-LIGAND FREE ENERGY PREDICTED BY IDOCK:   -7.43 KCAL/MOL
REMARK 924 INTRA-LIGAND FREE ENERGY PREDICTED BY IDOCK:   -1.04 KCAL/MOL
REMARK 927      BINDING AFFINITY PREDICTED BY RF-SCORE:    0.00 PKD
ROOT
HETATM    1  C   UNL     1     -12.551  14.736  73.800  1.00  0.00    -0.465 C  
HETATM    2  C   UNL     1     -12.561  15.020  72.299  1.00  0.00    -0.418 C  
HETATM    3  C   UNL     1     -13.943  15.530  71.879  1.00  0.00    -0.583 C  
HETATM    4  C   UNL     1     -11.428  16.003  71.946  1.00  0.00    -0.409 C  
ENDROOT
BRANCH   4   5
HETATM    5  C   UNL     1     -11.385  16.314  70.453  1.00  0.00    -0.313 C  
BRANCH   5   6
HETATM    6  C   UNL     1     -10.640  15.254  69.646  1.00  0.00    -0.285 C  
HETATM    7  C   UNL     1     -10.814  15.463  68.128  1.00  0.00    -0.285 C  
HETATM    8  C   UNL     1     -10.292  16.833  67.672  1.00  0.00    -0.309 C  
HETATM    9  C   UNL     1     -10.124  14.312  67.371  1.00  0.00    -0.247 C  
BRANCH   9  10
HETATM   10  C   UNL     1     -10.266  14.466  65.858  1.00  0.00    -0.341 C  
BRANCH  10  11
HETATM   11  C   UNL     1      -9.839  13.214  65.108  1.00  0.00    -0.076 C  
HETATM   12  C   UNL     1     -10.838  12.057  65.314  1.00  0.00    -0.340 C  
HETATM   13  C   UNL     1     -10.334  10.765  64.653  1.00  0.00    -0.394 C  
HETATM   14  C   UNL     1     -12.231  12.385  64.764  1.00  0.00    -0.493 C  
BRANCH  13  15
HETATM   15  C   UNL     1      -8.965  10.284  65.130  1.00  0.00    -0.220 C  
BRANCH  15  16
HETATM   16  C   UNL     1      -8.769  10.313  66.658  1.00  0.00    -0.134 C  
BRANCH  16  17
HETATM   17  C   UNL     1      -9.203   8.999  67.366  1.00  0.00    -0.138 C  
HETATM   18  C   UNL     1     -10.745   8.924  67.381  1.00  0.00    -0.225 C  
HETATM   19  C   UNL     1      -8.550   8.946  68.747  1.00  0.00    -0.136 C  
HETATM   20  C   UNL     1      -8.943   7.681  69.472  1.00  0.00    -0.139 C  
HETATM   21  C   UNL     1      -8.921   6.478  68.569  1.00  0.00    -0.126 A  
HETATM   22  C   UNL     1      -9.101   5.190  69.108  1.00  0.00    -0.135 A  
HETATM   23  C   UNL     1      -9.359   4.987  70.580  1.00  0.00    -0.213 C  
HETATM   24  C   UNL     1      -9.050   4.087  68.238  1.00  0.00    -0.137 A  
HETATM   25  C   UNL     1      -8.851   4.234  66.850  1.00  0.00    -0.118 A  
HETATM   26  O   UNL     1      -9.204   2.809  68.710  1.00  0.00    -0.140 OA 
HETATM   27  C   UNL     1      -8.807   3.018  65.961  1.00  0.00    -0.142 C  
HETATM   28  C   UNL     1      -8.709   5.533  66.310  1.00  0.00    -0.128 A  
HETATM   29  H   UNL     1      -9.170   2.064  68.122  1.00  0.00     0.000 HD 
HETATM   30  C   UNL     1      -8.766   6.646  67.177  1.00  0.00    -0.111 A  
HETATM   31  C   UNL     1      -8.519   5.775  64.832  1.00  0.00    -0.103 C  
HETATM   32  O   UNL     1      -8.696   7.892  66.580  1.00  0.00    -0.130 OA 
ENDBRANCH  16  17
ENDBRANCH  15  16
ENDBRANCH  13  15
ENDBRANCH  10  11
ENDBRANCH   9  10
ENDBRANCH   5   6
ENDBRANCH   4   5
TORSDOF 7
ENDMDL
MODEL      174
REMARK 921   NORMALIZED FREE ENERGY PREDICTED BY IDOCK:   -4.76 KCAL/MOL
REMARK 922        TOTAL FREE ENERGY PREDICTED BY IDOCK:   -8.46 KCAL/MOL
REMARK 923 INTER-LIGAND FREE ENERGY PREDICTED BY IDOCK:   -6.60 KCAL/MOL
REMARK 924 INTRA-LIGAND FREE ENERGY PREDICTED BY IDOCK:   -1.86 KCAL/MOL
REMARK 927      BINDING AFFINITY PREDICTED BY RF-SCORE:    0.00 PKD
ROOT
HETATM    1  C   UNL     1      -9.915   2.851  71.668  1.00  0.00    -0.151 C  
HETATM    2  C   UNL     1     -10.198   3.961  72.678  1.00  0.00    -0.235 C  
HETATM    3  C   UNL     1      -8.958   4.200  73.545  1.00  0.00    -0.095 C  
HETATM    4  C   UNL     1     -10.666   5.231  71.939  1.00  0.00    -0.252 C  
ENDROOT
BRANCH   4   5
HETATM    5  C   UNL     1     -10.974   6.372  72.904  1.00  0.00    -0.281 C  
BRANCH   5   6
HETATM    6  C   UNL     1     -10.374   7.703  72.460  1.00  0.00    -0.310 C  
HETATM    7  C   UNL     1     -11.217   8.369  71.351  1.00  0.00    -0.316 C  
HETATM    8  C   UNL     1     -12.655   8.648  71.812  1.00  0.00    -0.396 C  
HETATM    9  C   UNL     1     -10.513   9.654  70.876  1.00  0.00    -0.359 C  
BRANCH   9  10
HETATM   10  C   UNL     1     -11.304  10.357  69.775  1.00  0.00    -0.353 C  
BRANCH  10  11
HETATM   11  C   UNL     1     -10.424  11.240  68.906  1.00  0.00    -0.232 C  
HETATM   12  C   UNL     1     -11.262  12.167  68.002  1.00  0.00    -0.319 C  
HETATM   13  C   UNL     1     -10.367  12.966  67.043  1.00  0.00    -0.245 C  
HETATM   14  C   UNL     1     -12.122  13.147  68.809  1.00  0.00    -0.226 C  
BRANCH  13  15
HETATM   15  C   UNL     1      -9.473  12.121  66.136  1.00  0.00    -0.231 C  
BRANCH  15  16
HETATM   16  C   UNL     1     -10.109  10.806  65.651  1.00  0.00    -0.327 C  
BRANCH  16  17
HETATM   17  C   UNL     1      -9.149   9.585  65.722  1.00  0.00    -0.196 C  
HETATM   18  C   UNL     1      -7.955   9.941  66.636  1.00  0.00    -0.113 C  
HETATM   19  C   UNL     1      -8.763   9.178  64.300  1.00  0.00    -0.180 C  
HETATM   20  C   UNL     1      -7.830   7.992  64.323  1.00  0.00    -0.137 C  
HETATM   21  C   UNL     1      -8.252   6.954  65.326  1.00  0.00    -0.129 A  
HETATM   22  C   UNL     1      -7.596   5.710  65.372  1.00  0.00    -0.083 A  
HETATM   23  C   UNL     1      -6.439   5.402  64.456  1.00  0.00    -0.038 C  
HETATM   24  C   UNL     1      -8.034   4.756  66.306  1.00  0.00    -0.103 A  
HETATM   25  C   UNL     1      -9.086   5.016  67.209  1.00  0.00    -0.117 A  
HETATM   26  O   UNL     1      -7.441   3.522  66.385  1.00  0.00    -0.074 OA 
HETATM   27  C   UNL     1      -9.515   3.958  68.193  1.00  0.00    -0.219 C  
HETATM   28  C   UNL     1      -9.716   6.281  67.183  1.00  0.00    -0.164 A  
HETATM   29  H   UNL     1      -7.737   2.877  67.016  1.00  0.00     0.000 HD 
HETATM   30  C   UNL     1      -9.276   7.248  66.252  1.00  0.00    -0.130 A  
HETATM   31  C   UNL     1     -10.830   6.646  68.133  1.00  0.00    -0.334 C  
HETATM   32  O   UNL     1      -9.879   8.490  66.326  1.00  0.00    -0.254 OA 
ENDBRANCH  16  17
ENDBRANCH  15  16
ENDBRANCH  13  15
ENDBRANCH  10  11
ENDBRANCH   9  10
ENDBRANCH   5   6
ENDBRANCH   4   5
TORSDOF 7
ENDMDL
MODEL      175
REMARK 921   NORMALIZED FREE ENERGY PREDICTED BY IDOCK:   -4.76 KCAL/MOL
REMARK 922        TOTAL FREE ENERGY PREDICTED BY IDOCK:   -8.46 KCAL/MOL
REMARK 923 INTER-LIGAND FREE ENERGY PREDICTED BY IDOCK:   -6.79 KCAL/MOL
REMARK 924 INTRA-LIGAND FREE ENERGY PREDICTED BY IDOCK:   -1.67 KCAL/MOL
REMARK 927      BINDING AFFINITY PREDICTED BY RF-SCORE:    0.00 PKD
ROOT
HETATM    1  C   UNL     1     -10.076   7.324  74.079  1.00  0.00    -0.224 C  
HETATM    2  C   UNL     1     -10.113   7.465  72.559  1.00  0.00    -0.237 C  
HETATM    3  C   UNL     1     -11.289   8.357  72.150  1.00  0.00    -0.437 C  
HETATM    4  C   UNL     1      -8.757   7.993  72.051  1.00  0.00    -0.197 C  
ENDROOT
BRANCH   4   5
HETATM    5  C   UNL     1      -8.734   8.144  70.533  1.00  0.00    -0.135 C  
BRANCH   5   6
HETATM    6  C   UNL     1      -9.286   6.920  69.807  1.00  0.00    -0.146 C  
HETATM    7  C   UNL     1      -8.467   6.586  68.542  1.00  0.00    -0.124 C  
HETATM    8  C   UNL     1      -6.995   6.295  68.872  1.00  0.00    -0.076 C  
HETATM    9  C   UNL     1      -9.126   5.408  67.801  1.00  0.00    -0.111 C  
BRANCH   9  10
HETATM   10  C   UNL     1      -8.356   5.034  66.537  1.00  0.00    -0.107 C  
BRANCH  10  11
HETATM   11  C   UNL     1      -8.507   6.075  65.439  1.00  0.00    -0.145 C  
HETATM   12  C   UNL     1      -7.290   7.022  65.381  1.00  0.00    -0.080 C  
HETATM   13  C   UNL     1      -7.507   8.142  64.353  1.00  0.00    -0.103 C  
HETATM   14  C   UNL     1      -5.991   6.281  65.041  1.00  0.00    -0.026 C  
BRANCH  13  15
HETATM   15  C   UNL     1      -8.751   9.001  64.582  1.00  0.00    -0.169 C  
BRANCH  15  16
HETATM   16  C   UNL     1      -9.541   8.659  65.859  1.00  0.00    -0.210 C  
BRANCH  16  17
HETATM   17  C   UNL     1      -9.804   9.886  66.777  1.00  0.00    -0.201 C  
HETATM   18  C   UNL     1      -8.467  10.332  67.409  1.00  0.00    -0.125 C  
HETATM   19  C   UNL     1     -10.895   9.523  67.784  1.00  0.00    -0.258 C  
HETATM   20  C   UNL     1     -11.184  10.690  68.697  1.00  0.00    -0.337 C  
HETATM   21  C   UNL     1     -11.236  11.996  67.952  1.00  0.00    -0.323 A  
HETATM   22  C   UNL     1     -11.653  13.167  68.612  1.00  0.00    -0.356 A  
HETATM   23  C   UNL     1     -12.015  13.153  70.075  1.00  0.00    -0.391 C  
HETATM   24  C   UNL     1     -11.712  14.364  67.877  1.00  0.00    -0.356 A  
HETATM   25  C   UNL     1     -11.344  14.431  66.518  1.00  0.00    -0.353 A  
HETATM   26  O   UNL     1     -12.125  15.531  68.465  1.00  0.00    -0.546 OA 
HETATM   27  C   UNL     1     -11.424  15.741  65.777  1.00  0.00     0.222 C  
HETATM   28  C   UNL     1     -10.890  13.258  65.871  1.00  0.00    -0.289 A  
HETATM   29  H   UNL     1     -12.166  16.340  67.969  1.00  0.00     0.000 HD 
HETATM   30  C   UNL     1     -10.820  12.053  66.604  1.00  0.00    -0.272 A  
HETATM   31  C   UNL     1     -10.453  13.253  64.427  1.00  0.00    -0.424 C  
HETATM   32  O   UNL     1     -10.297  10.959  65.939  1.00  0.00    -0.251 OA 
ENDBRANCH  16  17
ENDBRANCH  15  16
ENDBRANCH  13  15
ENDBRANCH  10  11
ENDBRANCH   9  10
ENDBRANCH   5   6
ENDBRANCH   4   5
TORSDOF 7
ENDMDL
MODEL      176
REMARK 921   NORMALIZED FREE ENERGY PREDICTED BY IDOCK:   -4.74 KCAL/MOL
REMARK 922        TOTAL FREE ENERGY PREDICTED BY IDOCK:   -8.44 KCAL/MOL
REMARK 923 INTER-LIGAND FREE ENERGY PREDICTED BY IDOCK:   -7.69 KCAL/MOL
REMARK 924 INTRA-LIGAND FREE ENERGY PREDICTED BY IDOCK:   -0.74 KCAL/MOL
REMARK 927      BINDING AFFINITY PREDICTED BY RF-SCORE:    0.00 PKD
ROOT
HETATM    1  C   UNL     1      -8.915  20.186  66.312  1.00  0.00    -0.327 C  
HETATM    2  C   UNL     1      -9.122  19.015  67.271  1.00  0.00    -0.313 C  
HETATM    3  C   UNL     1      -8.793  19.454  68.701  1.00  0.00    -0.417 C  
HETATM    4  C   UNL     1     -10.557  18.470  67.127  1.00  0.00    -0.439 C  
ENDROOT
BRANCH   4   5
HETATM    5  C   UNL     1     -10.816  17.290  68.058  1.00  0.00    -0.297 C  
BRANCH   5   6
HETATM    6  C   UNL     1      -9.640  16.319  68.126  1.00  0.00    -0.219 C  
HETATM    7  C   UNL     1      -9.839  15.111  67.188  1.00  0.00    -0.228 C  
HETATM    8  C   UNL     1      -9.989  15.541  65.721  1.00  0.00    -0.391 C  
HETATM    9  C   UNL     1      -8.673  14.121  67.372  1.00  0.00    -0.217 C  
BRANCH   9  10
HETATM   10  C   UNL     1      -8.818  12.901  66.466  1.00  0.00    -0.026 C  
BRANCH  10  11
HETATM   11  C   UNL     1      -9.480  11.730  67.176  1.00  0.00    -0.180 C  
HETATM   12  C   UNL     1     -10.982  11.987  67.419  1.00  0.00    -0.311 C  
HETATM   13  C   UNL     1     -11.612  10.854  68.243  1.00  0.00    -0.335 C  
HETATM   14  C   UNL     1     -11.766  12.144  66.111  1.00  0.00    -0.384 C  
BRANCH  13  15
HETATM   15  C   UNL     1     -10.960  10.600  69.601  1.00  0.00    -0.331 C  
BRANCH  15  16
HETATM   16  C   UNL     1     -11.889   9.963  70.651  1.00  0.00    -0.386 C  
BRANCH  16  17
HETATM   17  C   UNL     1     -11.476   8.520  71.055  1.00  0.00    -0.273 C  
HETATM   18  C   UNL     1     -10.970   7.775  69.801  1.00  0.00    -0.162 C  
HETATM   19  C   UNL     1     -12.655   7.850  71.762  1.00  0.00    -0.353 C  
HETATM   20  C   UNL     1     -12.295   6.443  72.175  1.00  0.00    -0.231 C  
HETATM   21  C   UNL     1     -10.909   6.355  72.752  1.00  0.00    -0.278 A  
HETATM   22  C   UNL     1     -10.464   5.156  73.338  1.00  0.00    -0.275 A  
HETATM   23  C   UNL     1     -11.340   3.928  73.368  1.00  0.00    -0.248 C  
HETATM   24  C   UNL     1      -9.172   5.119  73.889  1.00  0.00    -0.124 A  
HETATM   25  C   UNL     1      -8.305   6.230  73.848  1.00  0.00    -0.116 A  
HETATM   26  O   UNL     1      -8.693   3.981  74.486  1.00  0.00    -0.094 OA 
HETATM   27  C   UNL     1      -6.928   6.136  74.452  1.00  0.00    -0.086 C  
HETATM   28  C   UNL     1      -8.744   7.420  73.223  1.00  0.00    -0.193 A  
HETATM   29  H   UNL     1      -7.819   3.956  74.859  1.00  0.00     0.000 HD 
HETATM   30  C   UNL     1     -10.039   7.463  72.661  1.00  0.00    -0.208 A  
HETATM   31  C   UNL     1      -7.868   8.644  73.115  1.00  0.00     0.048 C  
HETATM   32  O   UNL     1     -10.382   8.627  71.999  1.00  0.00    -0.301 OA 
ENDBRANCH  16  17
ENDBRANCH  15  16
ENDBRANCH  13  15
ENDBRANCH  10  11
ENDBRANCH   9  10
ENDBRANCH   5   6
ENDBRANCH   4   5
TORSDOF 7
ENDMDL
MODEL      177
REMARK 921   NORMALIZED FREE ENERGY PREDICTED BY IDOCK:   -4.72 KCAL/MOL
REMARK 922        TOTAL FREE ENERGY PREDICTED BY IDOCK:   -8.41 KCAL/MOL
REMARK 923 INTER-LIGAND FREE ENERGY PREDICTED BY IDOCK:   -7.28 KCAL/MOL
REMARK 924 INTRA-LIGAND FREE ENERGY PREDICTED BY IDOCK:   -1.12 KCAL/MOL
REMARK 927      BINDING AFFINITY PREDICTED BY RF-SCORE:    0.00 PKD
ROOT
HETATM    1  C   UNL     1      -9.797   2.783  73.255  1.00  0.00    -0.162 C  
HETATM    2  C   UNL     1      -9.322   3.728  72.154  1.00  0.00    -0.182 C  
HETATM    3  C   UNL     1      -7.827   4.013  72.327  1.00  0.00    -0.080 C  
HETATM    4  C   UNL     1      -9.662   3.133  70.773  1.00  0.00    -0.157 C  
ENDROOT
BRANCH   4   5
HETATM    5  C   UNL     1      -9.218   4.044  69.633  1.00  0.00    -0.217 C  
BRANCH   5   6
HETATM    6  C   UNL     1     -10.222   5.153  69.333  1.00  0.00    -0.293 C  
HETATM    7  C   UNL     1      -9.547   6.540  69.286  1.00  0.00    -0.143 C  
HETATM    8  C   UNL     1      -8.455   6.610  68.207  1.00  0.00    -0.120 C  
HETATM    9  C   UNL     1     -10.620   7.625  69.078  1.00  0.00    -0.186 C  
BRANCH   9  10
HETATM   10  C   UNL     1     -10.007   9.023  69.025  1.00  0.00    -0.191 C  
BRANCH  10  11
HETATM   11  C   UNL     1     -10.887  10.011  68.276  1.00  0.00    -0.286 C  
HETATM   12  C   UNL     1     -10.247  10.445  66.941  1.00  0.00    -0.281 C  
HETATM   13  C   UNL     1     -11.085  11.533  66.252  1.00  0.00    -0.321 C  
HETATM   14  C   UNL     1     -10.067   9.271  65.971  1.00  0.00    -0.262 C  
BRANCH  13  15
HETATM   15  C   UNL     1     -11.320  12.794  67.084  1.00  0.00    -0.365 C  
BRANCH  15  16
HETATM   16  C   UNL     1     -10.047  13.407  67.696  1.00  0.00    -0.229 C  
BRANCH  16  17
HETATM   17  C   UNL     1     -10.005  14.959  67.622  1.00  0.00    -0.226 C  
HETATM   18  C   UNL     1     -10.562  15.537  68.941  1.00  0.00    -0.240 C  
HETATM   19  C   UNL     1     -10.746  15.412  66.364  1.00  0.00    -0.311 C  
HETATM   20  C   UNL     1     -10.728  16.918  66.251  1.00  0.00    -0.096 C  
HETATM   21  C   UNL     1      -9.384  17.498  66.597  1.00  0.00    -0.275 A  
HETATM   22  C   UNL     1      -9.135  18.868  66.391  1.00  0.00    -0.317 A  
HETATM   23  C   UNL     1     -10.207  19.788  65.864  1.00  0.00    -0.556 C  
HETATM   24  C   UNL     1      -7.860  19.371  66.703  1.00  0.00    -0.277 A  
HETATM   25  C   UNL     1      -6.840  18.555  67.235  1.00  0.00    -0.209 A  
HETATM   26  O   UNL     1      -7.557  20.694  66.508  1.00  0.00    -0.484 OA 
HETATM   27  C   UNL     1      -5.490  19.145  67.554  1.00  0.00    -0.170 C  
HETATM   28  C   UNL     1      -7.109  17.188  67.475  1.00  0.00    -0.175 A  
HETATM   29  H   UNL     1      -6.695  21.033  66.719  1.00  0.00     0.000 HD 
HETATM   30  C   UNL     1      -8.390  16.677  67.171  1.00  0.00    -0.177 A  
HETATM   31  C   UNL     1      -6.080  16.256  68.067  1.00  0.00    -0.133 C  
HETATM   32  O   UNL     1      -8.616  15.352  67.498  1.00  0.00    -0.161 OA 
ENDBRANCH  16  17
ENDBRANCH  15  16
ENDBRANCH  13  15
ENDBRANCH  10  11
ENDBRANCH   9  10
ENDBRANCH   5   6
ENDBRANCH   4   5
TORSDOF 7
ENDMDL
MODEL      178
REMARK 921   NORMALIZED FREE ENERGY PREDICTED BY IDOCK:   -4.70 KCAL/MOL
REMARK 922        TOTAL FREE ENERGY PREDICTED BY IDOCK:   -8.38 KCAL/MOL
REMARK 923 INTER-LIGAND FREE ENERGY PREDICTED BY IDOCK:   -7.53 KCAL/MOL
REMARK 924 INTRA-LIGAND FREE ENERGY PREDICTED BY IDOCK:   -0.85 KCAL/MOL
REMARK 927      BINDING AFFINITY PREDICTED BY RF-SCORE:    0.00 PKD
ROOT
HETATM    1  C   UNL     1      -8.815  18.729  68.361  1.00  0.00    -0.375 C  
HETATM    2  C   UNL     1      -9.975  18.247  67.492  1.00  0.00    -0.345 C  
HETATM    3  C   UNL     1     -10.456  19.389  66.592  1.00  0.00    -0.568 C  
HETATM    4  C   UNL     1      -9.546  16.998  66.697  1.00  0.00    -0.279 C  
ENDROOT
BRANCH   4   5
HETATM    5  C   UNL     1     -10.673  16.466  65.817  1.00  0.00    -0.245 C  
BRANCH   5   6
HETATM    6  C   UNL     1     -10.229  15.321  64.911  1.00  0.00    -0.209 C  
HETATM    7  C   UNL     1     -10.905  13.989  65.298  1.00  0.00    -0.352 C  
HETATM    8  C   UNL     1     -12.436  14.074  65.208  1.00  0.00    -0.495 C  
HETATM    9  C   UNL     1     -10.346  12.856  64.416  1.00  0.00    -0.393 C  
BRANCH   9  10
HETATM   10  C   UNL     1     -10.980  11.510  64.758  1.00  0.00    -0.338 C  
BRANCH  10  11
HETATM   11  C   UNL     1     -10.650  11.057  66.171  1.00  0.00    -0.288 C  
HETATM   12  C   UNL     1      -9.731   9.818  66.173  1.00  0.00    -0.309 C  
HETATM   13  C   UNL     1      -9.504   9.298  67.600  1.00  0.00    -0.156 C  
HETATM   14  C   UNL     1      -8.370  10.101  65.525  1.00  0.00    -0.160 C  
BRANCH  13  15
HETATM   15  C   UNL     1     -10.774   8.932  68.367  1.00  0.00    -0.126 C  
BRANCH  15  16
HETATM   16  C   UNL     1     -10.586   8.783  69.888  1.00  0.00    -0.230 C  
BRANCH  16  17
HETATM   17  C   UNL     1     -10.557   7.305  70.370  1.00  0.00    -0.226 C  
HETATM   18  C   UNL     1     -11.126   6.403  69.252  1.00  0.00    -0.437 C  
HETATM   19  C   UNL     1     -11.296   7.208  71.705  1.00  0.00    -0.282 C  
HETATM   20  C   UNL     1     -11.290   5.786  72.212  1.00  0.00    -0.334 C  
HETATM   21  C   UNL     1      -9.953   5.122  72.029  1.00  0.00    -0.240 A  
HETATM   22  C   UNL     1      -9.714   3.853  72.589  1.00  0.00    -0.198 A  
HETATM   23  C   UNL     1     -10.791   3.116  73.344  1.00  0.00    -0.307 C  
HETATM   24  C   UNL     1      -8.444   3.274  72.418  1.00  0.00    -0.083 A  
HETATM   25  C   UNL     1      -7.421   3.910  71.686  1.00  0.00    -0.056 A  
HETATM   26  O   UNL     1      -8.152   2.047  72.955  1.00  0.00    -0.051 OA 
HETATM   27  C   UNL     1      -6.078   3.244  71.531  1.00  0.00    -0.014 C  
HETATM   28  C   UNL     1      -7.680   5.167  71.094  1.00  0.00    -0.096 A  
HETATM   29  H   UNL     1      -7.294   1.656  72.839  1.00  0.00     0.000 HD 
HETATM   30  C   UNL     1      -8.955   5.752  71.255  1.00  0.00    -0.140 A  
HETATM   31  C   UNL     1      -6.646   5.899  70.274  1.00  0.00    -0.044 C  
HETATM   32  O   UNL     1      -9.171   6.945  70.590  1.00  0.00    -0.158 OA 
ENDBRANCH  16  17
ENDBRANCH  15  16
ENDBRANCH  13  15
ENDBRANCH  10  11
ENDBRANCH   9  10
ENDBRANCH   5   6
ENDBRANCH   4   5
TORSDOF 7
ENDMDL
MODEL      179
REMARK 921   NORMALIZED FREE ENERGY PREDICTED BY IDOCK:   -4.69 KCAL/MOL
REMARK 922        TOTAL FREE ENERGY PREDICTED BY IDOCK:   -8.36 KCAL/MOL
REMARK 923 INTER-LIGAND FREE ENERGY PREDICTED BY IDOCK:   -7.27 KCAL/MOL
REMARK 924 INTRA-LIGAND FREE ENERGY PREDICTED BY IDOCK:   -1.09 KCAL/MOL
REMARK 927      BINDING AFFINITY PREDICTED BY RF-SCORE:    0.00 PKD
ROOT
HETATM    1  C   UNL     1     -10.559  19.702  66.023  1.00  0.00    -0.584 C  
HETATM    2  C   UNL     1      -9.500  19.042  66.903  1.00  0.00    -0.355 C  
HETATM    3  C   UNL     1      -9.652  19.528  68.348  1.00  0.00    -0.473 C  
HETATM    4  C   UNL     1      -9.597  17.509  66.774  1.00  0.00    -0.286 C  
ENDROOT
BRANCH   4   5
HETATM    5  C   UNL     1      -8.551  16.797  67.627  1.00  0.00    -0.211 C  
BRANCH   5   6
HETATM    6  C   UNL     1      -9.165  15.821  68.627  1.00  0.00    -0.207 C  
HETATM    7  C   UNL     1     -10.257  14.946  67.976  1.00  0.00    -0.228 C  
HETATM    8  C   UNL     1      -9.706  14.115  66.808  1.00  0.00    -0.283 C  
HETATM    9  C   UNL     1     -10.906  14.053  69.051  1.00  0.00    -0.268 C  
BRANCH   9  10
HETATM   10  C   UNL     1     -11.998  13.163  68.462  1.00  0.00    -0.324 C  
BRANCH  10  11
HETATM   11  C   UNL     1     -11.939  11.743  69.001  1.00  0.00    -0.341 C  
HETATM   12  C   UNL     1     -11.828  11.722  70.540  1.00  0.00    -0.288 C  
HETATM   13  C   UNL     1     -11.647  10.289  71.064  1.00  0.00    -0.430 C  
HETATM   14  C   UNL     1     -13.051  12.347  71.222  1.00  0.00    -0.218 C  
BRANCH  13  15
HETATM   15  C   UNL     1     -10.438   9.542  70.502  1.00  0.00    -0.358 C  
BRANCH  15  16
HETATM   16  C   UNL     1     -10.779   8.253  69.731  1.00  0.00    -0.221 C  
BRANCH  16  17
HETATM   17  C   UNL     1      -9.770   7.919  68.597  1.00  0.00    -0.158 C  
HETATM   18  C   UNL     1      -8.341   8.243  69.088  1.00  0.00    -0.123 C  
HETATM   19  C   UNL     1     -10.190   8.662  67.329  1.00  0.00    -0.337 C  
HETATM   20  C   UNL     1      -9.235   8.364  66.198  1.00  0.00    -0.263 C  
HETATM   21  C   UNL     1      -8.857   6.909  66.141  1.00  0.00    -0.163 A  
HETATM   22  C   UNL     1      -8.105   6.419  65.057  1.00  0.00    -0.135 A  
HETATM   23  C   UNL     1      -7.630   7.334  63.957  1.00  0.00    -0.110 C  
HETATM   24  C   UNL     1      -7.790   5.049  65.026  1.00  0.00    -0.090 A  
HETATM   25  C   UNL     1      -8.180   4.165  66.053  1.00  0.00    -0.105 A  
HETATM   26  O   UNL     1      -7.074   4.515  63.987  1.00  0.00    -0.048 OA 
HETATM   27  C   UNL     1      -7.814   2.705  65.971  1.00  0.00    -0.081 C  
HETATM   28  C   UNL     1      -8.902   4.671  67.158  1.00  0.00    -0.109 A  
HETATM   29  H   UNL     1      -6.861   3.589  63.966  1.00  0.00     0.000 HD 
HETATM   30  C   UNL     1      -9.215   6.047  67.200  1.00  0.00    -0.117 A  
HETATM   31  C   UNL     1      -9.332   3.795  68.309  1.00  0.00    -0.225 C  
HETATM   32  O   UNL     1      -9.856   6.496  68.341  1.00  0.00    -0.134 OA 
ENDBRANCH  16  17
ENDBRANCH  15  16
ENDBRANCH  13  15
ENDBRANCH  10  11
ENDBRANCH   9  10
ENDBRANCH   5   6
ENDBRANCH   4   5
TORSDOF 7
ENDMDL
MODEL      180
REMARK 921   NORMALIZED FREE ENERGY PREDICTED BY IDOCK:   -4.68 KCAL/MOL
REMARK 922        TOTAL FREE ENERGY PREDICTED BY IDOCK:   -8.35 KCAL/MOL
REMARK 923 INTER-LIGAND FREE ENERGY PREDICTED BY IDOCK:   -6.23 KCAL/MOL
REMARK 924 INTRA-LIGAND FREE ENERGY PREDICTED BY IDOCK:   -2.12 KCAL/MOL
REMARK 927      BINDING AFFINITY PREDICTED BY RF-SCORE:    0.00 PKD
ROOT
HETATM    1  C   UNL     1     -10.160  10.238  65.021  1.00  0.00    -0.353 C  
HETATM    2  C   UNL     1     -10.330  11.684  64.561  1.00  0.00    -0.349 C  
HETATM    3  C   UNL     1      -9.902  11.815  63.096  1.00  0.00    -0.363 C  
HETATM    4  C   UNL     1     -11.783  12.141  64.802  1.00  0.00    -0.390 C  
ENDROOT
BRANCH   4   5
HETATM    5  C   UNL     1     -12.007  13.586  64.368  1.00  0.00    -0.466 C  
BRANCH   5   6
HETATM    6  C   UNL     1     -10.787  14.472  64.601  1.00  0.00    -0.351 C  
HETATM    7  C   UNL     1     -10.940  15.336  65.870  1.00  0.00    -0.325 C  
HETATM    8  C   UNL     1     -11.126  14.478  67.130  1.00  0.00    -0.325 C  
HETATM    9  C   UNL     1      -9.726  16.277  65.998  1.00  0.00    -0.370 C  
BRANCH   9  10
HETATM   10  C   UNL     1      -9.825  17.160  67.240  1.00  0.00    -0.265 C  
BRANCH  10  11
HETATM   11  C   UNL     1      -8.777  16.807  68.284  1.00  0.00    -0.227 C  
HETATM   12  C   UNL     1      -7.355  17.173  67.811  1.00  0.00    -0.179 C  
HETATM   13  C   UNL     1      -6.296  16.702  68.819  1.00  0.00    -0.152 C  
HETATM   14  C   UNL     1      -7.186  18.679  67.581  1.00  0.00    -0.225 C  
BRANCH  13  15
HETATM   15  C   UNL     1      -6.312  15.204  69.123  1.00  0.00    -0.109 C  
BRANCH  15  16
HETATM   16  C   UNL     1      -5.833  14.308  67.966  1.00  0.00    -0.138 C  
BRANCH  16  17
HETATM   17  C   UNL     1      -6.661  13.003  67.804  1.00  0.00    -0.143 C  
HETATM   18  C   UNL     1      -8.043  13.358  67.212  1.00  0.00    -0.147 C  
HETATM   19  C   UNL     1      -6.712  12.281  69.151  1.00  0.00    -0.095 C  
HETATM   20  C   UNL     1      -7.508  11.003  69.038  1.00  0.00    -0.129 C  
HETATM   21  C   UNL     1      -7.194  10.246  67.778  1.00  0.00    -0.086 A  
HETATM   22  C   UNL     1      -7.719   8.955  67.582  1.00  0.00    -0.101 A  
HETATM   23  C   UNL     1      -8.633   8.320  68.599  1.00  0.00    -0.133 C  
HETATM   24  C   UNL     1      -7.384   8.268  66.402  1.00  0.00    -0.080 A  
HETATM   25  C   UNL     1      -6.565   8.839  65.406  1.00  0.00    -0.067 A  
HETATM   26  O   UNL     1      -7.855   7.002  66.167  1.00  0.00    -0.095 OA 
HETATM   27  C   UNL     1      -6.238   8.059  64.159  1.00  0.00    -0.061 C  
HETATM   28  C   UNL     1      -6.072  10.151  65.592  1.00  0.00    -0.095 A  
HETATM   29  H   UNL     1      -7.628   6.538  65.369  1.00  0.00     0.000 HD 
HETATM   30  C   UNL     1      -6.410  10.851  66.771  1.00  0.00    -0.097 A  
HETATM   31  C   UNL     1      -5.213  10.842  64.562  1.00  0.00    -0.100 C  
HETATM   32  O   UNL     1      -5.961  12.156  66.860  1.00  0.00    -0.211 OA 
ENDBRANCH  16  17
ENDBRANCH  15  16
ENDBRANCH  13  15
ENDBRANCH  10  11
ENDBRANCH   9  10
ENDBRANCH   5   6
ENDBRANCH   4   5
TORSDOF 7
ENDMDL
MODEL      181
REMARK 921   NORMALIZED FREE ENERGY PREDICTED BY IDOCK:   -4.64 KCAL/MOL
REMARK 922        TOTAL FREE ENERGY PREDICTED BY IDOCK:   -8.29 KCAL/MOL
REMARK 923 INTER-LIGAND FREE ENERGY PREDICTED BY IDOCK:   -7.12 KCAL/MOL
REMARK 924 INTRA-LIGAND FREE ENERGY PREDICTED BY IDOCK:   -1.17 KCAL/MOL
REMARK 927      BINDING AFFINITY PREDICTED BY RF-SCORE:    0.00 PKD
ROOT
HETATM    1  C   UNL     1      -8.056  17.728  66.424  1.00  0.00    -0.296 C  
HETATM    2  C   UNL     1      -9.107  17.159  67.374  1.00  0.00    -0.226 C  
HETATM    3  C   UNL     1      -9.690  18.284  68.234  1.00  0.00    -0.350 C  
HETATM    4  C   UNL     1     -10.182  16.401  66.570  1.00  0.00    -0.310 C  
ENDROOT
BRANCH   4   5
HETATM    5  C   UNL     1     -11.255  15.801  67.473  1.00  0.00    -0.218 C  
BRANCH   5   6
HETATM    6  C   UNL     1     -10.740  14.636  68.314  1.00  0.00    -0.240 C  
HETATM    7  C   UNL     1     -11.717  13.443  68.298  1.00  0.00    -0.391 C  
HETATM    8  C   UNL     1     -11.952  12.910  66.877  1.00  0.00    -0.402 C  
HETATM    9  C   UNL     1     -11.194  12.340  69.238  1.00  0.00    -0.275 C  
BRANCH   9  10
HETATM   10  C   UNL     1     -12.125  11.130  69.264  1.00  0.00    -0.377 C  
BRANCH  10  11
HETATM   11  C   UNL     1     -11.463   9.904  69.872  1.00  0.00    -0.234 C  
HETATM   12  C   UNL     1     -11.850   9.724  71.355  1.00  0.00    -0.488 C  
HETATM   13  C   UNL     1     -11.082   8.556  71.991  1.00  0.00    -0.412 C  
HETATM   14  C   UNL     1     -13.354   9.489  71.541  1.00  0.00    -0.470 C  
BRANCH  13  15
HETATM   15  C   UNL     1      -9.559   8.667  71.921  1.00  0.00    -0.377 C  
BRANCH  15  16
HETATM   16  C   UNL     1      -8.837   7.364  71.530  1.00  0.00    -0.131 C  
BRANCH  16  17
HETATM   17  C   UNL     1      -8.299   7.364  70.071  1.00  0.00    -0.137 C  
HETATM   18  C   UNL     1      -6.812   6.944  70.088  1.00  0.00    -0.057 C  
HETATM   19  C   UNL     1      -8.568   8.733  69.447  1.00  0.00    -0.133 C  
HETATM   20  C   UNL     1      -8.061   8.776  68.025  1.00  0.00    -0.107 C  
HETATM   21  C   UNL     1      -8.380   7.515  67.269  1.00  0.00    -0.118 A  
HETATM   22  C   UNL     1      -8.128   7.441  65.886  1.00  0.00    -0.128 A  
HETATM   23  C   UNL     1      -7.503   8.594  65.142  1.00  0.00    -0.090 C  
HETATM   24  C   UNL     1      -8.462   6.256  65.208  1.00  0.00    -0.111 A  
HETATM   25  C   UNL     1      -9.011   5.140  65.871  1.00  0.00    -0.145 A  
HETATM   26  O   UNL     1      -8.252   6.134  63.858  1.00  0.00    -0.235 OA 
HETATM   27  C   UNL     1      -9.348   3.892  65.096  1.00  0.00    -0.158 C  
HETATM   28  C   UNL     1      -9.225   5.207  67.267  1.00  0.00    -0.119 A  
HETATM   29  H   UNL     1      -8.478   5.333  63.400  1.00  0.00     0.000 HD 
HETATM   30  C   UNL     1      -8.886   6.392  67.956  1.00  0.00    -0.113 A  
HETATM   31  C   UNL     1      -9.784   4.047  68.053  1.00  0.00    -0.142 C  
HETATM   32  O   UNL     1      -9.048   6.370  69.330  1.00  0.00    -0.135 OA 
ENDBRANCH  16  17
ENDBRANCH  15  16
ENDBRANCH  13  15
ENDBRANCH  10  11
ENDBRANCH   9  10
ENDBRANCH   5   6
ENDBRANCH   4   5
TORSDOF 7
ENDMDL
MODEL      182
REMARK 921   NORMALIZED FREE ENERGY PREDICTED BY IDOCK:   -4.63 KCAL/MOL
REMARK 922        TOTAL FREE ENERGY PREDICTED BY IDOCK:   -8.28 KCAL/MOL
REMARK 923 INTER-LIGAND FREE ENERGY PREDICTED BY IDOCK:   -7.23 KCAL/MOL
REMARK 924 INTRA-LIGAND FREE ENERGY PREDICTED BY IDOCK:   -1.05 KCAL/MOL
REMARK 927      BINDING AFFINITY PREDICTED BY RF-SCORE:    0.00 PKD
ROOT
HETATM    1  C   UNL     1      -5.358  15.722  67.638  1.00  0.00    -0.118 C  
HETATM    2  C   UNL     1      -6.589  16.625  67.659  1.00  0.00    -0.171 C  
HETATM    3  C   UNL     1      -6.641  17.459  66.376  1.00  0.00    -0.292 C  
HETATM    4  C   UNL     1      -7.857  15.774  67.872  1.00  0.00    -0.149 C  
ENDROOT
BRANCH   4   5
HETATM    5  C   UNL     1      -9.119  16.629  67.912  1.00  0.00    -0.218 C  
BRANCH   5   6
HETATM    6  C   UNL     1     -10.152  16.213  66.868  1.00  0.00    -0.273 C  
HETATM    7  C   UNL     1     -10.486  14.709  66.961  1.00  0.00    -0.269 C  
HETATM    8  C   UNL     1     -11.051  14.329  68.338  1.00  0.00    -0.274 C  
HETATM    9  C   UNL     1     -11.455  14.329  65.825  1.00  0.00    -0.335 C  
BRANCH   9  10
HETATM   10  C   UNL     1     -11.820  12.847  65.866  1.00  0.00    -0.476 C  
BRANCH  10  11
HETATM   11  C   UNL     1     -10.593  11.950  65.886  1.00  0.00    -0.306 C  
HETATM   12  C   UNL     1     -10.500  11.083  64.613  1.00  0.00    -0.398 C  
HETATM   13  C   UNL     1      -9.327  10.095  64.699  1.00  0.00    -0.334 C  
HETATM   14  C   UNL     1     -10.346  11.927  63.342  1.00  0.00    -0.481 C  
BRANCH  13  15
HETATM   15  C   UNL     1      -9.360   9.151  65.900  1.00  0.00    -0.306 C  
BRANCH  15  16
HETATM   16  C   UNL     1      -8.250   8.084  65.910  1.00  0.00    -0.127 C  
BRANCH  16  17
HETATM   17  C   UNL     1      -8.299   7.145  67.149  1.00  0.00    -0.118 C  
HETATM   18  C   UNL     1      -6.855   6.761  67.542  1.00  0.00    -0.077 C  
HETATM   19  C   UNL     1      -9.210   5.959  66.832  1.00  0.00    -0.128 C  
HETATM   20  C   UNL     1      -9.288   5.021  68.012  1.00  0.00    -0.152 C  
HETATM   21  C   UNL     1      -9.418   5.757  69.317  1.00  0.00    -0.159 A  
HETATM   22  C   UNL     1      -9.667   5.045  70.505  1.00  0.00    -0.273 A  
HETATM   23  C   UNL     1      -9.768   3.540  70.509  1.00  0.00    -0.187 C  
HETATM   24  C   UNL     1      -9.807   5.768  71.702  1.00  0.00    -0.167 A  
HETATM   25  C   UNL     1      -9.680   7.171  71.752  1.00  0.00    -0.168 A  
HETATM   26  O   UNL     1     -10.064   5.127  72.887  1.00  0.00    -0.162 OA 
HETATM   27  C   UNL     1      -9.837   7.898  73.062  1.00  0.00    -0.355 C  
HETATM   28  C   UNL     1      -9.393   7.877  70.560  1.00  0.00    -0.162 A  
HETATM   29  H   UNL     1     -10.159   5.616  73.696  1.00  0.00     0.000 HD 
HETATM   30  C   UNL     1      -9.244   7.157  69.355  1.00  0.00    -0.148 A  
HETATM   31  C   UNL     1      -9.217   9.375  70.535  1.00  0.00    -0.314 C  
HETATM   32  O   UNL     1      -8.889   7.893  68.240  1.00  0.00    -0.130 OA 
ENDBRANCH  16  17
ENDBRANCH  15  16
ENDBRANCH  13  15
ENDBRANCH  10  11
ENDBRANCH   9  10
ENDBRANCH   5   6
ENDBRANCH   4   5
TORSDOF 7
ENDMDL
MODEL      183
REMARK 921   NORMALIZED FREE ENERGY PREDICTED BY IDOCK:   -4.61 KCAL/MOL
REMARK 922        TOTAL FREE ENERGY PREDICTED BY IDOCK:   -8.25 KCAL/MOL
REMARK 923 INTER-LIGAND FREE ENERGY PREDICTED BY IDOCK:   -8.34 KCAL/MOL
REMARK 924 INTRA-LIGAND FREE ENERGY PREDICTED BY IDOCK:    0.09 KCAL/MOL
REMARK 927      BINDING AFFINITY PREDICTED BY RF-SCORE:    0.00 PKD
ROOT
HETATM    1  C   UNL     1      -7.282  20.058  66.019  1.00  0.00    -0.320 C  
HETATM    2  C   UNL     1      -8.257  19.047  66.619  1.00  0.00    -0.301 C  
HETATM    3  C   UNL     1      -9.693  19.433  66.251  1.00  0.00    -0.455 C  
HETATM    4  C   UNL     1      -7.883  17.624  66.158  1.00  0.00    -0.269 C  
ENDROOT
BRANCH   4   5
HETATM    5  C   UNL     1      -8.821  16.570  66.737  1.00  0.00    -0.255 C  
BRANCH   5   6
HETATM    6  C   UNL     1      -9.987  16.238  65.810  1.00  0.00    -0.353 C  
HETATM    7  C   UNL     1     -10.543  14.823  66.073  1.00  0.00    -0.318 C  
HETATM    8  C   UNL     1     -11.049  14.664  67.514  1.00  0.00    -0.319 C  
HETATM    9  C   UNL     1     -11.647  14.508  65.046  1.00  0.00    -0.382 C  
BRANCH   9  10
HETATM   10  C   UNL     1     -12.235  13.115  65.259  1.00  0.00    -0.502 C  
BRANCH  10  11
HETATM   11  C   UNL     1     -11.220  12.141  65.836  1.00  0.00    -0.384 C  
HETATM   12  C   UNL     1     -10.774  11.097  64.792  1.00  0.00    -0.334 C  
HETATM   13  C   UNL     1      -9.844  10.047  65.419  1.00  0.00    -0.384 C  
HETATM   14  C   UNL     1     -10.063  11.737  63.594  1.00  0.00    -0.445 C  
BRANCH  13  15
HETATM   15  C   UNL     1     -10.431   9.289  66.609  1.00  0.00    -0.237 C  
BRANCH  15  16
HETATM   16  C   UNL     1     -10.436  10.076  67.933  1.00  0.00    -0.276 C  
BRANCH  16  17
HETATM   17  C   UNL     1     -10.146   9.197  69.182  1.00  0.00    -0.194 C  
HETATM   18  C   UNL     1     -10.088   7.716  68.747  1.00  0.00    -0.202 C  
HETATM   19  C   UNL     1     -11.189   9.506  70.255  1.00  0.00    -0.307 C  
HETATM   20  C   UNL     1     -10.943   8.673  71.490  1.00  0.00    -0.360 C  
HETATM   21  C   UNL     1      -9.483   8.597  71.843  1.00  0.00    -0.369 A  
HETATM   22  C   UNL     1      -9.081   8.000  73.053  1.00  0.00    -0.331 A  
HETATM   23  C   UNL     1     -10.087   7.391  73.996  1.00  0.00    -0.128 C  
HETATM   24  C   UNL     1      -7.710   7.969  73.361  1.00  0.00    -0.161 A  
HETATM   25  C   UNL     1      -6.732   8.490  72.490  1.00  0.00    -0.084 A  
HETATM   26  O   UNL     1      -7.264   7.413  74.532  1.00  0.00    -0.112 OA 
HETATM   27  C   UNL     1      -5.274   8.430  72.868  1.00  0.00    -0.042 C  
HETATM   28  C   UNL     1      -7.139   9.055  71.259  1.00  0.00    -0.093 A  
HETATM   29  H   UNL     1      -6.337   7.393  74.741  1.00  0.00     0.000 HD 
HETATM   30  C   UNL     1      -8.514   9.083  70.939  1.00  0.00    -0.208 A  
HETATM   31  C   UNL     1      -6.152   9.609  70.261  1.00  0.00    -0.062 C  
HETATM   32  O   UNL     1      -8.844   9.578  69.690  1.00  0.00    -0.156 OA 
ENDBRANCH  16  17
ENDBRANCH  15  16
ENDBRANCH  13  15
ENDBRANCH  10  11
ENDBRANCH   9  10
ENDBRANCH   5   6
ENDBRANCH   4   5
TORSDOF 7
ENDMDL
MODEL      184
REMARK 921   NORMALIZED FREE ENERGY PREDICTED BY IDOCK:   -4.61 KCAL/MOL
REMARK 922        TOTAL FREE ENERGY PREDICTED BY IDOCK:   -8.25 KCAL/MOL
REMARK 923 INTER-LIGAND FREE ENERGY PREDICTED BY IDOCK:   -6.12 KCAL/MOL
REMARK 924 INTRA-LIGAND FREE ENERGY PREDICTED BY IDOCK:   -2.13 KCAL/MOL
REMARK 927      BINDING AFFINITY PREDICTED BY RF-SCORE:    0.00 PKD
ROOT
HETATM    1  C   UNL     1      -9.660  14.689  67.691  1.00  0.00    -0.212 C  
HETATM    2  C   UNL     1     -10.980  14.165  68.251  1.00  0.00    -0.266 C  
HETATM    3  C   UNL     1     -12.020  14.076  67.130  1.00  0.00    -0.465 C  
HETATM    4  C   UNL     1     -10.747  12.815  68.959  1.00  0.00    -0.136 C  
ENDROOT
BRANCH   4   5
HETATM    5  C   UNL     1     -12.035  12.249  69.549  1.00  0.00    -0.333 C  
BRANCH   5   6
HETATM    6  C   UNL     1     -12.168  10.742  69.348  1.00  0.00    -0.242 C  
HETATM    7  C   UNL     1     -11.815   9.960  70.631  1.00  0.00    -0.386 C  
HETATM    8  C   UNL     1     -12.725  10.344  71.807  1.00  0.00    -0.525 C  
HETATM    9  C   UNL     1     -11.872   8.448  70.340  1.00  0.00     0.093 C  
BRANCH   9  10
HETATM   10  C   UNL     1     -11.529   7.622  71.578  1.00  0.00    -0.295 C  
BRANCH  10  11
HETATM   11  C   UNL     1     -10.629   6.440  71.253  1.00  0.00    -0.275 C  
HETATM   12  C   UNL     1     -10.201   5.683  72.527  1.00  0.00    -0.225 C  
HETATM   13  C   UNL     1      -9.196   4.568  72.198  1.00  0.00    -0.165 C  
HETATM   14  C   UNL     1     -11.395   5.070  73.270  1.00  0.00    -0.393 C  
BRANCH  13  15
HETATM   15  C   UNL     1      -7.925   5.031  71.487  1.00  0.00    -0.112 C  
BRANCH  15  16
HETATM   16  C   UNL     1      -7.505   4.159  70.289  1.00  0.00    -0.045 C  
BRANCH  16  17
HETATM   17  C   UNL     1      -8.003   4.700  68.919  1.00  0.00    -0.075 C  
HETATM   18  C   UNL     1      -9.469   4.261  68.711  1.00  0.00    -0.230 C  
HETATM   19  C   UNL     1      -7.038   4.238  67.827  1.00  0.00    -0.064 C  
HETATM   20  C   UNL     1      -7.483   4.745  66.477  1.00  0.00    -0.086 C  
HETATM   21  C   UNL     1      -7.948   6.174  66.530  1.00  0.00    -0.105 A  
HETATM   22  C   UNL     1      -8.246   6.863  65.339  1.00  0.00    -0.134 A  
HETATM   23  C   UNL     1      -8.147   6.183  63.997  1.00  0.00    -0.074 C  
HETATM   24  C   UNL     1      -8.654   8.205  65.426  1.00  0.00    -0.129 A  
HETATM   25  C   UNL     1      -8.798   8.868  66.662  1.00  0.00    -0.150 A  
HETATM   26  O   UNL     1      -8.942   8.928  64.298  1.00  0.00    -0.422 OA 
HETATM   27  C   UNL     1      -9.241  10.308  66.700  1.00  0.00    -0.179 C  
HETATM   28  C   UNL     1      -8.534   8.159  67.857  1.00  0.00    -0.132 A  
HETATM   29  H   UNL     1      -9.218   9.836  64.357  1.00  0.00     0.000 HD 
HETATM   30  C   UNL     1      -8.130   6.808  67.778  1.00  0.00    -0.113 A  
HETATM   31  C   UNL     1      -8.690   8.789  69.219  1.00  0.00    -0.135 C  
HETATM   32  O   UNL     1      -7.961   6.147  68.981  1.00  0.00    -0.105 OA 
ENDBRANCH  16  17
ENDBRANCH  15  16
ENDBRANCH  13  15
ENDBRANCH  10  11
ENDBRANCH   9  10
ENDBRANCH   5   6
ENDBRANCH   4   5
TORSDOF 7
ENDMDL
MODEL      185
REMARK 921   NORMALIZED FREE ENERGY PREDICTED BY IDOCK:   -4.59 KCAL/MOL
REMARK 922        TOTAL FREE ENERGY PREDICTED BY IDOCK:   -8.23 KCAL/MOL
REMARK 923 INTER-LIGAND FREE ENERGY PREDICTED BY IDOCK:   -6.99 KCAL/MOL
REMARK 924 INTRA-LIGAND FREE ENERGY PREDICTED BY IDOCK:   -1.24 KCAL/MOL
REMARK 927      BINDING AFFINITY PREDICTED BY RF-SCORE:    0.00 PKD
ROOT
HETATM    1  C   UNL     1     -12.429  12.129  63.464  1.00  0.00    -0.666 C  
HETATM    2  C   UNL     1     -12.463  13.494  64.148  1.00  0.00    -0.301 C  
HETATM    3  C   UNL     1     -12.996  13.344  65.576  1.00  0.00    -0.199 C  
HETATM    4  C   UNL     1     -11.063  14.137  64.096  1.00  0.00     0.002 C  
ENDROOT
BRANCH   4   5
HETATM    5  C   UNL     1     -11.041  15.512  64.758  1.00  0.00    -0.421 C  
BRANCH   5   6
HETATM    6  C   UNL     1     -10.874  15.438  66.274  1.00  0.00    -0.301 C  
HETATM    7  C   UNL     1      -9.463  14.956  66.672  1.00  0.00    -0.286 C  
HETATM    8  C   UNL     1      -8.365  15.889  66.138  1.00  0.00    -0.085 C  
HETATM    9  C   UNL     1      -9.386  14.808  68.203  1.00  0.00    -0.197 C  
BRANCH   9  10
HETATM   10  C   UNL     1      -8.007  14.331  68.656  1.00  0.00    -0.139 C  
BRANCH  10  11
HETATM   11  C   UNL     1      -7.802  12.844  68.412  1.00  0.00    -0.133 C  
HETATM   12  C   UNL     1      -6.749  12.587  67.315  1.00  0.00    -0.122 C  
HETATM   13  C   UNL     1      -6.639  11.089  66.992  1.00  0.00    -0.100 C  
HETATM   14  C   UNL     1      -5.362  13.114  67.701  1.00  0.00    -0.061 C  
BRANCH  13  15
HETATM   15  C   UNL     1      -7.941  10.423  66.549  1.00  0.00    -0.123 C  
BRANCH  15  16
HETATM   16  C   UNL     1      -8.044   8.924  66.884  1.00  0.00    -0.109 C  
BRANCH  16  17
HETATM   17  C   UNL     1      -9.237   8.574  67.817  1.00  0.00    -0.135 C  
HETATM   18  C   UNL     1     -10.403   8.039  66.958  1.00  0.00    -0.414 C  
HETATM   19  C   UNL     1      -9.578   9.801  68.661  1.00  0.00    -0.155 C  
HETATM   20  C   UNL     1     -10.734   9.504  69.587  1.00  0.00    -0.257 C  
HETATM   21  C   UNL     1     -10.618   8.147  70.224  1.00  0.00    -0.228 A  
HETATM   22  C   UNL     1     -11.517   7.765  71.237  1.00  0.00    -0.294 A  
HETATM   23  C   UNL     1     -12.633   8.680  71.678  1.00  0.00    -0.381 C  
HETATM   24  C   UNL     1     -11.363   6.499  71.827  1.00  0.00    -0.281 A  
HETATM   25  C   UNL     1     -10.360   5.597  71.419  1.00  0.00    -0.287 A  
HETATM   26  O   UNL     1     -12.202   6.082  72.829  1.00  0.00    -0.527 OA 
HETATM   27  C   UNL     1     -10.240   4.250  72.084  1.00  0.00    -0.234 C  
HETATM   28  C   UNL     1      -9.483   5.971  70.374  1.00  0.00    -0.187 A  
HETATM   29  H   UNL     1     -12.097   5.226  73.227  1.00  0.00     0.000 HD 
HETATM   30  C   UNL     1      -9.636   7.239  69.772  1.00  0.00    -0.162 A  
HETATM   31  C   UNL     1      -8.401   5.053  69.863  1.00  0.00    -0.081 C  
HETATM   32  O   UNL     1      -8.799   7.517  68.707  1.00  0.00    -0.131 OA 
ENDBRANCH  16  17
ENDBRANCH  15  16
ENDBRANCH  13  15
ENDBRANCH  10  11
ENDBRANCH   9  10
ENDBRANCH   5   6
ENDBRANCH   4   5
TORSDOF 7
ENDMDL
MODEL      186
REMARK 921   NORMALIZED FREE ENERGY PREDICTED BY IDOCK:   -4.58 KCAL/MOL
REMARK 922        TOTAL FREE ENERGY PREDICTED BY IDOCK:   -8.21 KCAL/MOL
REMARK 923 INTER-LIGAND FREE ENERGY PREDICTED BY IDOCK:   -6.00 KCAL/MOL
REMARK 924 INTRA-LIGAND FREE ENERGY PREDICTED BY IDOCK:   -2.21 KCAL/MOL
REMARK 927      BINDING AFFINITY PREDICTED BY RF-SCORE:    0.00 PKD
ROOT
HETATM    1  C   UNL     1     -11.111   7.014  72.751  1.00  0.00    -0.320 C  
HETATM    2  C   UNL     1      -9.604   7.014  72.501  1.00  0.00    -0.166 C  
HETATM    3  C   UNL     1      -9.082   8.454  72.492  1.00  0.00    -0.326 C  
HETATM    4  C   UNL     1      -8.901   6.129  73.549  1.00  0.00    -0.124 C  
ENDROOT
BRANCH   4   5
HETATM    5  C   UNL     1      -7.391   6.085  73.340  1.00  0.00    -0.089 C  
BRANCH   5   6
HETATM    6  C   UNL     1      -6.960   5.010  72.345  1.00  0.00    -0.071 C  
HETATM    7  C   UNL     1      -6.522   5.619  70.997  1.00  0.00    -0.036 C  
HETATM    8  C   UNL     1      -5.341   6.587  71.161  1.00  0.00    -0.023 C  
HETATM    9  C   UNL     1      -6.194   4.486  70.006  1.00  0.00    -0.026 C  
BRANCH   9  10
HETATM   10  C   UNL     1      -5.754   5.032  68.650  1.00  0.00    -0.016 C  
BRANCH  10  11
HETATM   11  C   UNL     1      -6.871   5.777  67.937  1.00  0.00    -0.060 C  
HETATM   12  C   UNL     1      -7.195   5.146  66.567  1.00  0.00    -0.077 C  
HETATM   13  C   UNL     1      -8.237   5.977  65.804  1.00  0.00    -0.136 C  
HETATM   14  C   UNL     1      -7.706   3.706  66.695  1.00  0.00    -0.081 C  
BRANCH  13  15
HETATM   15  C   UNL     1      -7.851   7.436  65.562  1.00  0.00    -0.115 C  
BRANCH  15  16
HETATM   16  C   UNL     1      -9.042   8.407  65.459  1.00  0.00    -0.108 C  
BRANCH  16  17
HETATM   17  C   UNL     1      -9.414   9.083  66.809  1.00  0.00    -0.182 C  
HETATM   18  C   UNL     1      -8.116   9.385  67.591  1.00  0.00    -0.106 C  
HETATM   19  C   UNL     1     -10.409   8.189  67.548  1.00  0.00    -0.330 C  
HETATM   20  C   UNL     1     -10.801   8.810  68.868  1.00  0.00    -0.040 C  
HETATM   21  C   UNL     1     -11.042  10.290  68.751  1.00  0.00    -0.276 A  
HETATM   22  C   UNL     1     -11.571  11.006  69.842  1.00  0.00    -0.416 A  
HETATM   23  C   UNL     1     -11.868  10.324  71.154  1.00  0.00    -0.455 C  
HETATM   24  C   UNL     1     -11.806  12.383  69.689  1.00  0.00    -0.311 A  
HETATM   25  C   UNL     1     -11.505  13.068  68.494  1.00  0.00    -0.340 A  
HETATM   26  O   UNL     1     -12.334  13.126  70.713  1.00  0.00    -0.357 OA 
HETATM   27  C   UNL     1     -11.775  14.546  68.382  1.00  0.00    -0.367 C  
HETATM   28  C   UNL     1     -10.939  12.351  67.415  1.00  0.00    -0.296 A  
HETATM   29  H   UNL     1     -12.493  14.057  70.609  1.00  0.00     0.000 HD 
HETATM   30  C   UNL     1     -10.693  10.968  67.564  1.00  0.00    -0.244 A  
HETATM   31  C   UNL     1     -10.565  13.016  66.113  1.00  0.00    -0.289 C  
HETATM   32  O   UNL     1     -10.068  10.338  66.503  1.00  0.00    -0.213 OA 
ENDBRANCH  16  17
ENDBRANCH  15  16
ENDBRANCH  13  15
ENDBRANCH  10  11
ENDBRANCH   9  10
ENDBRANCH   5   6
ENDBRANCH   4   5
TORSDOF 7
ENDMDL
MODEL      187
REMARK 921   NORMALIZED FREE ENERGY PREDICTED BY IDOCK:   -4.58 KCAL/MOL
REMARK 922        TOTAL FREE ENERGY PREDICTED BY IDOCK:   -8.20 KCAL/MOL
REMARK 923 INTER-LIGAND FREE ENERGY PREDICTED BY IDOCK:   -6.98 KCAL/MOL
REMARK 924 INTRA-LIGAND FREE ENERGY PREDICTED BY IDOCK:   -1.23 KCAL/MOL
REMARK 927      BINDING AFFINITY PREDICTED BY RF-SCORE:    0.00 PKD
ROOT
HETATM    1  C   UNL     1      -8.467   8.149  73.734  1.00  0.00    -0.309 C  
HETATM    2  C   UNL     1      -9.447   7.049  73.331  1.00  0.00    -0.210 C  
HETATM    3  C   UNL     1      -9.580   6.032  74.468  1.00  0.00    -0.232 C  
HETATM    4  C   UNL     1     -10.796   7.675  72.926  1.00  0.00    -0.446 C  
ENDROOT
BRANCH   4   5
HETATM    5  C   UNL     1     -11.812   6.618  72.503  1.00  0.00    -0.149 C  
BRANCH   5   6
HETATM    6  C   UNL     1     -11.933   6.485  70.987  1.00  0.00    -0.358 C  
HETATM    7  C   UNL     1     -10.642   5.923  70.357  1.00  0.00    -0.353 C  
HETATM    8  C   UNL     1     -10.290   4.534  70.909  1.00  0.00    -0.074 C  
HETATM    9  C   UNL     1     -10.788   5.904  68.823  1.00  0.00    -0.353 C  
BRANCH   9  10
HETATM   10  C   UNL     1      -9.534   5.357  68.144  1.00  0.00    -0.142 C  
BRANCH  10  11
HETATM   11  C   UNL     1      -8.822   6.410  67.310  1.00  0.00    -0.108 C  
HETATM   12  C   UNL     1      -8.139   7.472  68.196  1.00  0.00    -0.124 C  
HETATM   13  C   UNL     1      -7.529   8.596  67.345  1.00  0.00    -0.089 C  
HETATM   14  C   UNL     1      -7.043   6.872  69.085  1.00  0.00    -0.084 C  
BRANCH  13  15
HETATM   15  C   UNL     1      -8.512   9.322  66.428  1.00  0.00    -0.128 C  
BRANCH  15  16
HETATM   16  C   UNL     1      -9.850   9.700  67.091  1.00  0.00    -0.238 C  
BRANCH  16  17
HETATM   17  C   UNL     1      -9.847  11.111  67.742  1.00  0.00    -0.171 C  
HETATM   18  C   UNL     1      -8.407  11.453  68.185  1.00  0.00    -0.149 C  
HETATM   19  C   UNL     1     -10.882  11.138  68.866  1.00  0.00    -0.261 C  
HETATM   20  C   UNL     1     -10.914  12.495  69.527  1.00  0.00     0.029 C  
HETATM   21  C   UNL     1     -10.843  13.616  68.527  1.00  0.00    -0.275 A  
HETATM   22  C   UNL     1     -11.023  14.947  68.947  1.00  0.00    -0.257 A  
HETATM   23  C   UNL     1     -11.249  15.285  70.399  1.00  0.00    -0.325 C  
HETATM   24  C   UNL     1     -10.974  15.967  67.981  1.00  0.00    -0.336 A  
HETATM   25  C   UNL     1     -10.726  15.700  66.619  1.00  0.00    -0.296 A  
HETATM   26  O   UNL     1     -11.158  17.279  68.332  1.00  0.00    -0.254 OA 
HETATM   27  C   UNL     1     -10.682  16.831  65.624  1.00  0.00    -0.199 C  
HETATM   28  C   UNL     1     -10.508  14.364  66.209  1.00  0.00    -0.292 A  
HETATM   29  H   UNL     1     -11.125  17.968  67.678  1.00  0.00     0.000 HD 
HETATM   30  C   UNL     1     -10.548  13.336  67.175  1.00  0.00    -0.258 A  
HETATM   31  C   UNL     1     -10.210  14.000  64.775  1.00  0.00    -0.332 C  
HETATM   32  O   UNL     1     -10.253  12.061  66.727  1.00  0.00    -0.200 OA 
ENDBRANCH  16  17
ENDBRANCH  15  16
ENDBRANCH  13  15
ENDBRANCH  10  11
ENDBRANCH   9  10
ENDBRANCH   5   6
ENDBRANCH   4   5
TORSDOF 7
ENDMDL
MODEL      188
REMARK 921   NORMALIZED FREE ENERGY PREDICTED BY IDOCK:   -4.57 KCAL/MOL
REMARK 922        TOTAL FREE ENERGY PREDICTED BY IDOCK:   -8.19 KCAL/MOL
REMARK 923 INTER-LIGAND FREE ENERGY PREDICTED BY IDOCK:   -7.83 KCAL/MOL
REMARK 924 INTRA-LIGAND FREE ENERGY PREDICTED BY IDOCK:   -0.36 KCAL/MOL
REMARK 927      BINDING AFFINITY PREDICTED BY RF-SCORE:    0.00 PKD
ROOT
HETATM    1  C   UNL     1     -10.538  10.677  65.077  1.00  0.00    -0.187 C  
HETATM    2  C   UNL     1     -10.848  12.164  64.923  1.00  0.00    -0.352 C  
HETATM    3  C   UNL     1     -10.892  12.533  63.437  1.00  0.00    -0.351 C  
HETATM    4  C   UNL     1     -12.158  12.503  65.663  1.00  0.00    -0.464 C  
ENDROOT
BRANCH   4   5
HETATM    5  C   UNL     1     -12.511  13.983  65.550  1.00  0.00    -0.533 C  
BRANCH   5   6
HETATM    6  C   UNL     1     -11.297  14.896  65.698  1.00  0.00    -0.325 C  
HETATM    7  C   UNL     1     -10.912  15.101  67.178  1.00  0.00    -0.326 C  
HETATM    8  C   UNL     1     -10.571  13.774  67.872  1.00  0.00    -0.257 C  
HETATM    9  C   UNL     1      -9.747  16.105  67.270  1.00  0.00    -0.233 C  
BRANCH   9  10
HETATM   10  C   UNL     1      -9.323  16.348  68.716  1.00  0.00    -0.245 C  
BRANCH  10  11
HETATM   11  C   UNL     1      -8.257  15.367  69.179  1.00  0.00    -0.243 C  
HETATM   12  C   UNL     1      -7.416  14.841  67.997  1.00  0.00    -0.135 C  
HETATM   13  C   UNL     1      -6.425  13.762  68.458  1.00  0.00    -0.093 C  
HETATM   14  C   UNL     1      -6.639  15.959  67.291  1.00  0.00    -0.200 C  
BRANCH  13  15
HETATM   15  C   UNL     1      -7.057  12.555  69.150  1.00  0.00     0.020 C  
BRANCH  15  16
HETATM   16  C   UNL     1      -7.927  11.672  68.236  1.00  0.00    -0.143 C  
BRANCH  16  17
HETATM   17  C   UNL     1      -8.552  10.448  68.962  1.00  0.00    -0.157 C  
HETATM   18  C   UNL     1      -7.669  10.083  70.176  1.00  0.00    -0.158 C  
HETATM   19  C   UNL     1      -8.741   9.319  67.949  1.00  0.00    -0.124 C  
HETATM   20  C   UNL     1      -9.350   8.107  68.614  1.00  0.00    -0.143 C  
HETATM   21  C   UNL     1     -10.456   8.475  69.564  1.00  0.00    -0.222 A  
HETATM   22  C   UNL     1     -11.245   7.467  70.150  1.00  0.00    -0.239 A  
HETATM   23  C   UNL     1     -10.980   6.008  69.876  1.00  0.00    -0.458 C  
HETATM   24  C   UNL     1     -12.286   7.849  71.014  1.00  0.00    -0.198 A  
HETATM   25  C   UNL     1     -12.543   9.198  71.329  1.00  0.00    -0.351 A  
HETATM   26  O   UNL     1     -13.095   6.910  71.600  1.00  0.00    -0.365 OA 
HETATM   27  C   UNL     1     -13.671   9.554  72.264  1.00  0.00    -0.444 C  
HETATM   28  C   UNL     1     -11.723  10.204  70.767  1.00  0.00    -0.446 A  
HETATM   29  H   UNL     1     -13.798   7.168  72.184  1.00  0.00     0.000 HD 
HETATM   30  C   UNL     1     -10.671   9.827  69.904  1.00  0.00    -0.268 A  
HETATM   31  C   UNL     1     -11.917  11.668  71.076  1.00  0.00    -0.038 C  
HETATM   32  O   UNL     1      -9.857  10.848  69.447  1.00  0.00    -0.154 OA 
ENDBRANCH  16  17
ENDBRANCH  15  16
ENDBRANCH  13  15
ENDBRANCH  10  11
ENDBRANCH   9  10
ENDBRANCH   5   6
ENDBRANCH   4   5
TORSDOF 7
ENDMDL
MODEL      189
REMARK 921   NORMALIZED FREE ENERGY PREDICTED BY IDOCK:   -4.57 KCAL/MOL
REMARK 922        TOTAL FREE ENERGY PREDICTED BY IDOCK:   -8.19 KCAL/MOL
REMARK 923 INTER-LIGAND FREE ENERGY PREDICTED BY IDOCK:   -7.18 KCAL/MOL
REMARK 924 INTRA-LIGAND FREE ENERGY PREDICTED BY IDOCK:   -1.01 KCAL/MOL
REMARK 927      BINDING AFFINITY PREDICTED BY RF-SCORE:    0.00 PKD
ROOT
HETATM    1  C   UNL     1     -11.945  12.658  63.210  1.00  0.00    -0.526 C  
HETATM    2  C   UNL     1     -11.113  12.297  64.439  1.00  0.00    -0.381 C  
HETATM    3  C   UNL     1     -11.949  12.496  65.707  1.00  0.00    -0.482 C  
HETATM    4  C   UNL     1     -10.571  10.861  64.298  1.00  0.00    -0.336 C  
ENDROOT
BRANCH   4   5
HETATM    5  C   UNL     1      -9.721  10.451  65.497  1.00  0.00    -0.307 C  
BRANCH   5   6
HETATM    6  C   UNL     1     -10.512   9.676  66.548  1.00  0.00    -0.213 C  
HETATM    7  C   UNL     1      -9.871   9.790  67.947  1.00  0.00    -0.176 C  
HETATM    8  C   UNL     1      -9.788  11.248  68.423  1.00  0.00    -0.200 C  
HETATM    9  C   UNL     1     -10.654   8.912  68.941  1.00  0.00    -0.188 C  
BRANCH   9  10
HETATM   10  C   UNL     1     -10.061   8.985  70.347  1.00  0.00    -0.248 C  
BRANCH  10  11
HETATM   11  C   UNL     1     -10.737  10.042  71.205  1.00  0.00     0.020 C  
HETATM   12  C   UNL     1     -12.216  10.235  70.810  1.00  0.00    -0.447 C  
HETATM   13  C   UNL     1     -12.855  11.388  71.599  1.00  0.00    -0.497 C  
HETATM   14  C   UNL     1     -13.048   8.966  71.027  1.00  0.00    -0.019 C  
BRANCH  13  15
HETATM   15  C   UNL     1     -12.156  12.740  71.451  1.00  0.00     0.412 C  
BRANCH  15  16
HETATM   16  C   UNL     1     -11.948  13.200  69.997  1.00  0.00    -0.391 C  
BRANCH  16  17
HETATM   17  C   UNL     1     -11.479  14.677  69.872  1.00  0.00    -0.274 C  
HETATM   18  C   UNL     1     -11.682  15.382  71.231  1.00  0.00    -0.433 C  
HETATM   19  C   UNL     1     -12.213  15.329  68.700  1.00  0.00    -0.030 C  
HETATM   20  C   UNL     1     -11.784  16.768  68.540  1.00  0.00     0.406 C  
HETATM   21  C   UNL     1     -10.299  16.941  68.703  1.00  0.00    -0.332 A  
HETATM   22  C   UNL     1      -9.701  18.185  68.428  1.00  0.00    -0.363 A  
HETATM   23  C   UNL     1     -10.527  19.374  68.007  1.00  0.00    -0.512 C  
HETATM   24  C   UNL     1      -8.307  18.303  68.568  1.00  0.00    -0.310 A  
HETATM   25  C   UNL     1      -7.501  17.229  68.998  1.00  0.00    -0.196 A  
HETATM   26  O   UNL     1      -7.670  19.487  68.299  1.00  0.00    -0.301 OA 
HETATM   27  C   UNL     1      -6.011  17.409  69.133  1.00  0.00    -0.208 C  
HETATM   28  C   UNL     1      -8.114  15.993  69.309  1.00  0.00    -0.212 A  
HETATM   29  H   UNL     1      -6.728  19.566  68.394  1.00  0.00     0.000 HD 
HETATM   30  C   UNL     1      -9.514  15.869  69.178  1.00  0.00    -0.260 A  
HETATM   31  C   UNL     1      -7.325  14.804  69.800  1.00  0.00    -0.063 C  
HETATM   32  O   UNL     1     -10.062  14.661  69.569  1.00  0.00    -0.116 OA 
ENDBRANCH  16  17
ENDBRANCH  15  16
ENDBRANCH  13  15
ENDBRANCH  10  11
ENDBRANCH   9  10
ENDBRANCH   5   6
ENDBRANCH   4   5
TORSDOF 7
ENDMDL
MODEL      190
REMARK 921   NORMALIZED FREE ENERGY PREDICTED BY IDOCK:   -4.56 KCAL/MOL
REMARK 922        TOTAL FREE ENERGY PREDICTED BY IDOCK:   -8.18 KCAL/MOL
REMARK 923 INTER-LIGAND FREE ENERGY PREDICTED BY IDOCK:   -7.32 KCAL/MOL
REMARK 924 INTRA-LIGAND FREE ENERGY PREDICTED BY IDOCK:   -0.86 KCAL/MOL
REMARK 927      BINDING AFFINITY PREDICTED BY RF-SCORE:    0.00 PKD
ROOT
HETATM    1  C   UNL     1      -7.756  20.588  67.822  1.00  0.00    -0.229 C  
HETATM    2  C   UNL     1      -8.662  19.370  67.659  1.00  0.00    -0.350 C  
HETATM    3  C   UNL     1      -9.634  19.287  68.840  1.00  0.00    -0.466 C  
HETATM    4  C   UNL     1      -9.381  19.434  66.296  1.00  0.00    -0.402 C  
ENDROOT
BRANCH   4   5
HETATM    5  C   UNL     1     -10.295  18.232  66.076  1.00  0.00    -0.377 C  
BRANCH   5   6
HETATM    6  C   UNL     1      -9.700  16.929  66.603  1.00  0.00    -0.283 C  
HETATM    7  C   UNL     1     -10.650  15.734  66.381  1.00  0.00    -0.307 C  
HETATM    8  C   UNL     1     -10.968  15.521  64.893  1.00  0.00    -0.452 C  
HETATM    9  C   UNL     1     -10.042  14.471  67.018  1.00  0.00    -0.254 C  
BRANCH   9  10
HETATM   10  C   UNL     1     -10.944  13.253  66.829  1.00  0.00    -0.302 C  
BRANCH  10  11
HETATM   11  C   UNL     1     -10.154  11.956  66.747  1.00  0.00    -0.225 C  
HETATM   12  C   UNL     1     -10.395  11.226  65.410  1.00  0.00    -0.328 C  
HETATM   13  C   UNL     1      -9.690   9.861  65.388  1.00  0.00    -0.375 C  
HETATM   14  C   UNL     1      -9.924  12.047  64.204  1.00  0.00    -0.289 C  
BRANCH  13  15
HETATM   15  C   UNL     1     -10.088   8.908  66.515  1.00  0.00    -0.356 C  
BRANCH  15  16
HETATM   16  C   UNL     1      -8.955   8.569  67.501  1.00  0.00    -0.142 C  
BRANCH  16  17
HETATM   17  C   UNL     1      -9.449   7.886  68.807  1.00  0.00    -0.147 C  
HETATM   18  C   UNL     1     -10.788   7.172  68.522  1.00  0.00    -0.141 C  
HETATM   19  C   UNL     1      -9.510   8.935  69.917  1.00  0.00    -0.177 C  
HETATM   20  C   UNL     1      -9.984   8.313  71.209  1.00  0.00    -0.243 C  
HETATM   21  C   UNL     1      -9.353   6.971  71.460  1.00  0.00    -0.154 A  
HETATM   22  C   UNL     1      -9.552   6.318  72.691  1.00  0.00    -0.154 A  
HETATM   23  C   UNL     1     -10.425   6.920  73.763  1.00  0.00    -0.390 C  
HETATM   24  C   UNL     1      -8.927   5.077  72.899  1.00  0.00    -0.116 A  
HETATM   25  C   UNL     1      -8.135   4.459  71.909  1.00  0.00    -0.098 A  
HETATM   26  O   UNL     1      -9.074   4.404  74.084  1.00  0.00    -0.107 OA 
HETATM   27  C   UNL     1      -7.489   3.125  72.183  1.00  0.00    -0.052 C  
HETATM   28  C   UNL     1      -7.970   5.102  70.661  1.00  0.00    -0.088 A  
HETATM   29  H   UNL     1      -8.652   3.565  74.224  1.00  0.00     0.000 HD 
HETATM   30  C   UNL     1      -8.601   6.346  70.442  1.00  0.00    -0.142 A  
HETATM   31  C   UNL     1      -7.160   4.495  69.542  1.00  0.00    -0.050 C  
HETATM   32  O   UNL     1      -8.465   6.889  69.177  1.00  0.00    -0.127 OA 
ENDBRANCH  16  17
ENDBRANCH  15  16
ENDBRANCH  13  15
ENDBRANCH  10  11
ENDBRANCH   9  10
ENDBRANCH   5   6
ENDBRANCH   4   5
TORSDOF 7
ENDMDL
MODEL      191
REMARK 921   NORMALIZED FREE ENERGY PREDICTED BY IDOCK:   -4.56 KCAL/MOL
REMARK 922        TOTAL FREE ENERGY PREDICTED BY IDOCK:   -8.18 KCAL/MOL
REMARK 923 INTER-LIGAND FREE ENERGY PREDICTED BY IDOCK:   -6.85 KCAL/MOL
REMARK 924 INTRA-LIGAND FREE ENERGY PREDICTED BY IDOCK:   -1.32 KCAL/MOL
REMARK 927      BINDING AFFINITY PREDICTED BY RF-SCORE:    0.00 PKD
ROOT
HETATM    1  C   UNL     1     -12.896  11.051  71.334  1.00  0.00    -0.548 C  
HETATM    2  C   UNL     1     -12.244   9.677  71.193  1.00  0.00    -0.437 C  
HETATM    3  C   UNL     1     -10.765   9.841  70.830  1.00  0.00    -0.393 C  
HETATM    4  C   UNL     1     -12.456   8.864  72.486  1.00  0.00    -0.344 C  
ENDROOT
BRANCH   4   5
HETATM    5  C   UNL     1     -11.832   7.475  72.396  1.00  0.00    -0.305 C  
BRANCH   5   6
HETATM    6  C   UNL     1     -12.110   6.784  71.064  1.00  0.00    -0.426 C  
HETATM    7  C   UNL     1     -10.808   6.338  70.367  1.00  0.00    -0.360 C  
HETATM    8  C   UNL     1     -10.002   5.355  71.230  1.00  0.00    -0.253 C  
HETATM    9  C   UNL     1     -11.145   5.738  68.989  1.00  0.00    -0.174 C  
BRANCH   9  10
HETATM   10  C   UNL     1      -9.890   5.279  68.250  1.00  0.00    -0.206 C  
BRANCH  10  11
HETATM   11  C   UNL     1      -9.736   5.954  66.897  1.00  0.00    -0.168 C  
HETATM   12  C   UNL     1      -8.834   5.136  65.951  1.00  0.00    -0.142 C  
HETATM   13  C   UNL     1      -8.586   5.885  64.633  1.00  0.00     0.036 C  
HETATM   14  C   UNL     1      -9.421   3.755  65.633  1.00  0.00    -0.170 C  
BRANCH  13  15
HETATM   15  C   UNL     1      -7.962   7.272  64.783  1.00  0.00    -0.122 C  
BRANCH  15  16
HETATM   16  C   UNL     1      -8.942   8.444  64.588  1.00  0.00     0.271 C  
BRANCH  16  17
HETATM   17  C   UNL     1      -8.482   9.762  65.270  1.00  0.00    -0.145 C  
HETATM   18  C   UNL     1      -7.176  10.242  64.599  1.00  0.00    -0.082 C  
HETATM   19  C   UNL     1      -8.375   9.526  66.776  1.00  0.00    -0.116 C  
HETATM   20  C   UNL     1      -7.931  10.785  67.481  1.00  0.00    -0.110 C  
HETATM   21  C   UNL     1      -8.623  12.009  66.947  1.00  0.00    -0.189 A  
HETATM   22  C   UNL     1      -8.456  13.250  67.591  1.00  0.00    -0.191 A  
HETATM   23  C   UNL     1      -7.558  13.392  68.794  1.00  0.00    -0.047 C  
HETATM   24  C   UNL     1      -9.137  14.367  67.079  1.00  0.00    -0.236 A  
HETATM   25  C   UNL     1      -9.955  14.289  65.933  1.00  0.00    -0.340 A  
HETATM   26  O   UNL     1      -9.022  15.597  67.675  1.00  0.00    -0.178 OA 
HETATM   27  C   UNL     1     -10.661  15.518  65.424  1.00  0.00    -0.422 C  
HETATM   28  C   UNL     1     -10.088  13.047  65.269  1.00  0.00    -0.247 A  
HETATM   29  H   UNL     1      -9.483  16.352  67.328  1.00  0.00     0.000 HD 
HETATM   30  C   UNL     1      -9.401  11.922  65.773  1.00  0.00    -0.155 A  
HETATM   31  C   UNL     1     -10.923  12.887  64.022  1.00  0.00    -0.447 C  
HETATM   32  O   UNL     1      -9.510  10.756  65.038  1.00  0.00    -0.210 OA 
ENDBRANCH  16  17
ENDBRANCH  15  16
ENDBRANCH  13  15
ENDBRANCH  10  11
ENDBRANCH   9  10
ENDBRANCH   5   6
ENDBRANCH   4   5
TORSDOF 7
ENDMDL
MODEL      192
REMARK 921   NORMALIZED FREE ENERGY PREDICTED BY IDOCK:   -4.54 KCAL/MOL
REMARK 922        TOTAL FREE ENERGY PREDICTED BY IDOCK:   -8.15 KCAL/MOL
REMARK 923 INTER-LIGAND FREE ENERGY PREDICTED BY IDOCK:   -8.31 KCAL/MOL
REMARK 924 INTRA-LIGAND FREE ENERGY PREDICTED BY IDOCK:    0.16 KCAL/MOL
REMARK 927      BINDING AFFINITY PREDICTED BY RF-SCORE:    0.00 PKD
ROOT
HETATM    1  C   UNL     1     -12.589  16.099  73.754  1.00  0.00    -0.698 C  
HETATM    2  C   UNL     1     -12.945  14.987  72.770  1.00  0.00    -0.528 C  
HETATM    3  C   UNL     1     -14.319  15.264  72.151  1.00  0.00    -0.651 C  
HETATM    4  C   UNL     1     -11.830  14.849  71.714  1.00  0.00    -0.424 C  
ENDROOT
BRANCH   4   5
HETATM    5  C   UNL     1     -12.131  13.741  70.708  1.00  0.00    -0.395 C  
BRANCH   5   6
HETATM    6  C   UNL     1     -12.113  14.231  69.263  1.00  0.00    -0.351 C  
HETATM    7  C   UNL     1     -11.221  13.346  68.368  1.00  0.00    -0.311 C  
HETATM    8  C   UNL     1     -11.696  11.886  68.348  1.00  0.00    -0.387 C  
HETATM    9  C   UNL     1     -11.165  13.944  66.950  1.00  0.00    -0.324 C  
BRANCH   9  10
HETATM   10  C   UNL     1     -10.291  13.107  66.018  1.00  0.00    -0.292 C  
BRANCH  10  11
HETATM   11  C   UNL     1      -9.999  11.727  66.585  1.00  0.00    -0.224 C  
HETATM   12  C   UNL     1      -8.502  11.370  66.474  1.00  0.00    -0.170 C  
HETATM   13  C   UNL     1      -8.239   9.929  66.936  1.00  0.00    -0.120 C  
HETATM   14  C   UNL     1      -7.615  12.321  67.287  1.00  0.00    -0.152 C  
BRANCH  13  15
HETATM   15  C   UNL     1      -9.027   8.854  66.188  1.00  0.00    -0.218 C  
BRANCH  15  16
HETATM   16  C   UNL     1     -10.238   8.292  66.956  1.00  0.00    -0.380 C  
BRANCH  16  17
HETATM   17  C   UNL     1      -9.850   7.328  68.112  1.00  0.00    -0.149 C  
HETATM   18  C   UNL     1      -8.668   6.447  67.652  1.00  0.00    -0.114 C  
HETATM   19  C   UNL     1     -11.093   6.552  68.544  1.00  0.00    -0.347 C  
HETATM   20  C   UNL     1     -10.761   5.602  69.670  1.00  0.00    -0.398 C  
HETATM   21  C   UNL     1      -9.858   6.230  70.696  1.00  0.00    -0.213 A  
HETATM   22  C   UNL     1      -9.574   5.549  71.895  1.00  0.00    -0.185 A  
HETATM   23  C   UNL     1     -10.129   4.173  72.164  1.00  0.00    -0.248 C  
HETATM   24  C   UNL     1      -8.746   6.177  72.841  1.00  0.00    -0.122 A  
HETATM   25  C   UNL     1      -8.173   7.445  72.615  1.00  0.00    -0.128 A  
HETATM   26  O   UNL     1      -8.449   5.567  74.033  1.00  0.00    -0.115 OA 
HETATM   27  C   UNL     1      -7.290   8.073  73.662  1.00  0.00    -0.185 C  
HETATM   28  C   UNL     1      -8.431   8.107  71.392  1.00  0.00    -0.154 A  
HETATM   29  H   UNL     1      -7.889   5.992  74.672  1.00  0.00     0.000 HD 
HETATM   30  C   UNL     1      -9.257   7.479  70.434  1.00  0.00    -0.157 A  
HETATM   31  C   UNL     1      -7.835   9.454  71.063  1.00  0.00    -0.020 C  
HETATM   32  O   UNL     1      -9.410   8.141  69.228  1.00  0.00    -0.151 OA 
ENDBRANCH  16  17
ENDBRANCH  15  16
ENDBRANCH  13  15
ENDBRANCH  10  11
ENDBRANCH   9  10
ENDBRANCH   5   6
ENDBRANCH   4   5
TORSDOF 7
ENDMDL
MODEL      193
REMARK 921   NORMALIZED FREE ENERGY PREDICTED BY IDOCK:   -4.52 KCAL/MOL
REMARK 922        TOTAL FREE ENERGY PREDICTED BY IDOCK:   -8.12 KCAL/MOL
REMARK 923 INTER-LIGAND FREE ENERGY PREDICTED BY IDOCK:   -6.94 KCAL/MOL
REMARK 924 INTRA-LIGAND FREE ENERGY PREDICTED BY IDOCK:   -1.19 KCAL/MOL
REMARK 927      BINDING AFFINITY PREDICTED BY RF-SCORE:    0.00 PKD
ROOT
HETATM    1  C   UNL     1      -8.386  18.127  66.269  1.00  0.00    -0.228 C  
HETATM    2  C   UNL     1      -9.072  17.593  67.524  1.00  0.00    -0.239 C  
HETATM    3  C   UNL     1      -9.208  18.716  68.557  1.00  0.00    -0.377 C  
HETATM    4  C   UNL     1     -10.425  16.957  67.149  1.00  0.00    -0.296 C  
ENDROOT
BRANCH   4   5
HETATM    5  C   UNL     1     -11.150  16.396  68.369  1.00  0.00    -0.351 C  
BRANCH   5   6
HETATM    6  C   UNL     1     -10.593  15.050  68.824  1.00  0.00    -0.240 C  
HETATM    7  C   UNL     1     -11.557  13.891  68.498  1.00  0.00    -0.367 C  
HETATM    8  C   UNL     1     -11.837  13.782  66.992  1.00  0.00    -0.445 C  
HETATM    9  C   UNL     1     -10.988  12.577  69.067  1.00  0.00    -0.237 C  
BRANCH   9  10
HETATM   10  C   UNL     1     -11.905  11.391  68.775  1.00  0.00    -0.388 C  
BRANCH  10  11
HETATM   11  C   UNL     1     -11.529  10.158  69.580  1.00  0.00    -0.256 C  
HETATM   12  C   UNL     1     -11.648  10.410  71.097  1.00  0.00    -0.315 C  
HETATM   13  C   UNL     1     -11.149   9.200  71.902  1.00  0.00    -0.385 C  
HETATM   14  C   UNL     1     -13.085  10.731  71.524  1.00  0.00    -0.517 C  
BRANCH  13  15
HETATM   15  C   UNL     1      -9.708   8.780  71.615  1.00  0.00    -0.366 C  
BRANCH  15  16
HETATM   16  C   UNL     1      -9.294   7.435  72.240  1.00  0.00    -0.174 C  
BRANCH  16  17
HETATM   17  C   UNL     1      -9.281   6.255  71.228  1.00  0.00    -0.152 C  
HETATM   18  C   UNL     1     -10.692   5.630  71.172  1.00  0.00    -0.310 C  
HETATM   19  C   UNL     1      -8.169   5.282  71.620  1.00  0.00    -0.118 C  
HETATM   20  C   UNL     1      -8.119   4.118  70.659  1.00  0.00    -0.059 C  
HETATM   21  C   UNL     1      -8.285   4.553  69.229  1.00  0.00    -0.071 A  
HETATM   22  C   UNL     1      -8.104   3.626  68.186  1.00  0.00    -0.086 A  
HETATM   23  C   UNL     1      -7.782   2.181  68.470  1.00  0.00    -0.053 C  
HETATM   24  C   UNL     1      -8.243   4.074  66.861  1.00  0.00    -0.100 A  
HETATM   25  C   UNL     1      -8.582   5.407  66.550  1.00  0.00    -0.116 A  
HETATM   26  O   UNL     1      -8.062   3.218  65.805  1.00  0.00    -0.091 OA 
HETATM   27  C   UNL     1      -8.720   5.835  65.111  1.00  0.00    -0.070 C  
HETATM   28  C   UNL     1      -8.800   6.324  67.604  1.00  0.00    -0.111 A  
HETATM   29  H   UNL     1      -8.156   3.522  64.909  1.00  0.00     0.000 HD 
HETATM   30  C   UNL     1      -8.669   5.880  68.937  1.00  0.00    -0.116 A  
HETATM   31  C   UNL     1      -9.191   7.760  67.354  1.00  0.00    -0.156 C  
HETATM   32  O   UNL     1      -8.969   6.802  69.924  1.00  0.00    -0.144 OA 
ENDBRANCH  16  17
ENDBRANCH  15  16
ENDBRANCH  13  15
ENDBRANCH  10  11
ENDBRANCH   9  10
ENDBRANCH   5   6
ENDBRANCH   4   5
TORSDOF 7
ENDMDL
MODEL      194
REMARK 921   NORMALIZED FREE ENERGY PREDICTED BY IDOCK:   -4.52 KCAL/MOL
REMARK 922        TOTAL FREE ENERGY PREDICTED BY IDOCK:   -8.12 KCAL/MOL
REMARK 923 INTER-LIGAND FREE ENERGY PREDICTED BY IDOCK:   -7.26 KCAL/MOL
REMARK 924 INTRA-LIGAND FREE ENERGY PREDICTED BY IDOCK:   -0.86 KCAL/MOL
REMARK 927      BINDING AFFINITY PREDICTED BY RF-SCORE:    0.00 PKD
ROOT
HETATM    1  C   UNL     1      -7.718   3.127  62.794  1.00  0.00    -0.066 C  
HETATM    2  C   UNL     1      -8.875   3.956  63.348  1.00  0.00    -0.105 C  
HETATM    3  C   UNL     1     -10.077   3.862  62.404  1.00  0.00    -0.159 C  
HETATM    4  C   UNL     1      -9.203   3.499  64.783  1.00  0.00    -0.142 C  
ENDROOT
BRANCH   4   5
HETATM    5  C   UNL     1     -10.348   4.303  65.391  1.00  0.00    -0.217 C  
BRANCH   5   6
HETATM    6  C   UNL     1     -10.054   4.776  66.812  1.00  0.00    -0.261 C  
HETATM    7  C   UNL     1      -8.623   5.339  66.943  1.00  0.00    -0.105 C  
HETATM    8  C   UNL     1      -8.389   6.535  66.008  1.00  0.00    -0.133 C  
HETATM    9  C   UNL     1      -8.351   5.708  68.414  1.00  0.00    -0.106 C  
BRANCH   9  10
HETATM   10  C   UNL     1      -6.945   6.271  68.604  1.00  0.00    -0.080 C  
BRANCH  10  11
HETATM   11  C   UNL     1      -6.883   7.768  68.345  1.00  0.00    -0.067 C  
HETATM   12  C   UNL     1      -7.999   8.524  69.095  1.00  0.00    -0.112 C  
HETATM   13  C   UNL     1      -8.002  10.016  68.729  1.00  0.00    -0.096 C  
HETATM   14  C   UNL     1      -7.875   8.386  70.617  1.00  0.00    -0.092 C  
BRANCH  13  15
HETATM   15  C   UNL     1      -8.159  10.318  67.239  1.00  0.00    -0.120 C  
BRANCH  15  16
HETATM   16  C   UNL     1      -9.617  10.439  66.758  1.00  0.00    -0.209 C  
BRANCH  16  17
HETATM   17  C   UNL     1     -10.314  11.755  67.204  1.00  0.00    -0.215 C  
HETATM   18  C   UNL     1     -11.530  12.012  66.288  1.00  0.00    -0.408 C  
HETATM   19  C   UNL     1      -9.278  12.879  67.217  1.00  0.00    -0.208 C  
HETATM   20  C   UNL     1      -9.913  14.180  67.648  1.00  0.00    -0.233 C  
HETATM   21  C   UNL     1     -10.857  13.997  68.804  1.00  0.00    -0.279 A  
HETATM   22  C   UNL     1     -11.415  15.121  69.443  1.00  0.00    -0.322 A  
HETATM   23  C   UNL     1     -11.117  16.519  68.965  1.00  0.00    -0.284 C  
HETATM   24  C   UNL     1     -12.274  14.912  70.535  1.00  0.00    -0.329 A  
HETATM   25  C   UNL     1     -12.612  13.621  70.990  1.00  0.00    -0.441 A  
HETATM   26  O   UNL     1     -12.833  15.970  71.204  1.00  0.00    -0.561 OA 
HETATM   27  C   UNL     1     -13.540  13.453  72.165  1.00  0.00    -0.660 C  
HETATM   28  C   UNL     1     -12.078  12.495  70.320  1.00  0.00    -0.373 A  
HETATM   29  H   UNL     1     -13.414  15.829  71.942  1.00  0.00     0.000 HD 
HETATM   30  C   UNL     1     -11.220  12.697  69.217  1.00  0.00    -0.193 A  
HETATM   31  C   UNL     1     -12.411  11.082  70.729  1.00  0.00    -0.491 C  
HETATM   32  O   UNL     1     -10.791  11.560  68.558  1.00  0.00    -0.191 OA 
ENDBRANCH  16  17
ENDBRANCH  15  16
ENDBRANCH  13  15
ENDBRANCH  10  11
ENDBRANCH   9  10
ENDBRANCH   5   6
ENDBRANCH   4   5
TORSDOF 7
ENDMDL
MODEL      195
REMARK 921   NORMALIZED FREE ENERGY PREDICTED BY IDOCK:   -4.49 KCAL/MOL
REMARK 922        TOTAL FREE ENERGY PREDICTED BY IDOCK:   -8.08 KCAL/MOL
REMARK 923 INTER-LIGAND FREE ENERGY PREDICTED BY IDOCK:   -5.79 KCAL/MOL
REMARK 924 INTRA-LIGAND FREE ENERGY PREDICTED BY IDOCK:   -2.29 KCAL/MOL
REMARK 927      BINDING AFFINITY PREDICTED BY RF-SCORE:    0.00 PKD
ROOT
HETATM    1  C   UNL     1     -10.237  11.088  62.786  1.00  0.00    -0.021 C  
HETATM    2  C   UNL     1      -9.329   9.891  63.056  1.00  0.00    -0.226 C  
HETATM    3  C   UNL     1      -7.903  10.209  62.596  1.00  0.00    -0.148 C  
HETATM    4  C   UNL     1      -9.404   9.505  64.547  1.00  0.00    -0.164 C  
ENDROOT
BRANCH   4   5
HETATM    5  C   UNL     1      -8.520   8.304  64.872  1.00  0.00    -0.115 C  
BRANCH   5   6
HETATM    6  C   UNL     1      -7.814   8.434  66.219  1.00  0.00    -0.098 C  
HETATM    7  C   UNL     1      -8.713   7.970  67.384  1.00  0.00    -0.124 C  
HETATM    8  C   UNL     1      -9.137   6.501  67.232  1.00  0.00    -0.117 C  
HETATM    9  C   UNL     1      -7.986   8.215  68.720  1.00  0.00    -0.115 C  
BRANCH   9  10
HETATM   10  C   UNL     1      -8.832   7.773  69.912  1.00  0.00    -0.142 C  
BRANCH  10  11
HETATM   11  C   UNL     1      -9.760   8.874  70.402  1.00  0.00    -0.226 C  
HETATM   12  C   UNL     1     -11.234   8.567  70.069  1.00  0.00    -0.086 C  
HETATM   13  C   UNL     1     -12.147   9.740  70.458  1.00  0.00    -0.244 C  
HETATM   14  C   UNL     1     -11.736   7.296  70.764  1.00  0.00    -0.333 C  
BRANCH  13  15
HETATM   15  C   UNL     1     -11.796  11.078  69.809  1.00  0.00    -0.421 C  
BRANCH  15  16
HETATM   16  C   UNL     1     -11.463  10.996  68.307  1.00  0.00    -0.374 C  
BRANCH  16  17
HETATM   17  C   UNL     1     -10.619  12.195  67.790  1.00  0.00    -0.204 C  
HETATM   18  C   UNL     1     -11.049  12.522  66.343  1.00  0.00    -0.332 C  
HETATM   19  C   UNL     1      -9.136  11.860  67.954  1.00  0.00    -0.183 C  
HETATM   20  C   UNL     1      -8.278  13.002  67.464  1.00  0.00    -0.181 C  
HETATM   21  C   UNL     1      -8.811  14.341  67.896  1.00  0.00    -0.179 A  
HETATM   22  C   UNL     1      -8.055  15.506  67.669  1.00  0.00    -0.162 A  
HETATM   23  C   UNL     1      -6.725  15.450  66.961  1.00  0.00     0.216 C  
HETATM   24  C   UNL     1      -8.574  16.736  68.108  1.00  0.00    -0.218 A  
HETATM   25  C   UNL     1      -9.831  16.840  68.738  1.00  0.00    -0.264 A  
HETATM   26  O   UNL     1      -7.873  17.901  67.927  1.00  0.00    -0.220 OA 
HETATM   27  C   UNL     1     -10.342  18.185  69.188  1.00  0.00    -0.026 C  
HETATM   28  C   UNL     1     -10.602  15.670  68.928  1.00  0.00    -0.228 A  
HETATM   29  H   UNL     1      -8.224  18.733  68.224  1.00  0.00     0.000 HD 
HETATM   30  C   UNL     1     -10.091  14.432  68.484  1.00  0.00    -0.244 A  
HETATM   31  C   UNL     1     -11.967  15.701  69.571  1.00  0.00    -0.363 C  
HETATM   32  O   UNL     1     -10.923  13.336  68.629  1.00  0.00    -0.248 OA 
ENDBRANCH  16  17
ENDBRANCH  15  16
ENDBRANCH  13  15
ENDBRANCH  10  11
ENDBRANCH   9  10
ENDBRANCH   5   6
ENDBRANCH   4   5
TORSDOF 7
ENDMDL
MODEL      196
REMARK 921   NORMALIZED FREE ENERGY PREDICTED BY IDOCK:   -4.47 KCAL/MOL
REMARK 922        TOTAL FREE ENERGY PREDICTED BY IDOCK:   -8.05 KCAL/MOL
REMARK 923 INTER-LIGAND FREE ENERGY PREDICTED BY IDOCK:   -6.47 KCAL/MOL
REMARK 924 INTRA-LIGAND FREE ENERGY PREDICTED BY IDOCK:   -1.58 KCAL/MOL
REMARK 927      BINDING AFFINITY PREDICTED BY RF-SCORE:    0.00 PKD
ROOT
HETATM    1  C   UNL     1     -13.031  10.952  71.334  1.00  0.00    -0.527 C  
HETATM    2  C   UNL     1     -13.033   9.630  72.099  1.00  0.00    -0.493 C  
HETATM    3  C   UNL     1     -14.235   8.785  71.668  1.00  0.00    -0.414 C  
HETATM    4  C   UNL     1     -11.687   8.907  71.893  1.00  0.00    -0.439 C  
ENDROOT
BRANCH   4   5
HETATM    5  C   UNL     1     -11.630   7.581  72.646  1.00  0.00    -0.331 C  
BRANCH   5   6
HETATM    6  C   UNL     1     -11.632   6.370  71.718  1.00  0.00    -0.367 C  
HETATM    7  C   UNL     1     -10.210   6.011  71.240  1.00  0.00    -0.253 C  
HETATM    8  C   UNL     1      -9.275   5.683  72.414  1.00  0.00    -0.151 C  
HETATM    9  C   UNL     1     -10.286   4.848  70.233  1.00  0.00    -0.299 C  
BRANCH   9  10
HETATM   10  C   UNL     1      -8.902   4.450  69.724  1.00  0.00    -0.129 C  
BRANCH  10  11
HETATM   11  C   UNL     1      -8.907   4.115  68.241  1.00  0.00    -0.133 C  
HETATM   12  C   UNL     1      -8.515   2.645  67.988  1.00  0.00    -0.104 C  
HETATM   13  C   UNL     1      -8.404   2.351  66.484  1.00  0.00    -0.093 C  
HETATM   14  C   UNL     1      -9.510   1.660  68.613  1.00  0.00    -0.222 C  
BRANCH  13  15
HETATM   15  C   UNL     1      -7.413   3.231  65.723  1.00  0.00    -0.073 C  
BRANCH  15  16
HETATM   16  C   UNL     1      -7.923   3.747  64.364  1.00  0.00    -0.086 C  
BRANCH  16  17
HETATM   17  C   UNL     1      -7.807   5.288  64.200  1.00  0.00    -0.101 C  
HETATM   18  C   UNL     1      -8.507   5.704  62.887  1.00  0.00    -0.027 C  
HETATM   19  C   UNL     1      -6.334   5.684  64.289  1.00  0.00    -0.029 C  
HETATM   20  C   UNL     1      -6.175   7.177  64.136  1.00  0.00    -0.040 C  
HETATM   21  C   UNL     1      -7.219   7.942  64.903  1.00  0.00    -0.066 A  
HETATM   22  C   UNL     1      -7.130   9.343  65.008  1.00  0.00    -0.101 A  
HETATM   23  C   UNL     1      -6.023  10.109  64.330  1.00  0.00    -0.138 C  
HETATM   24  C   UNL     1      -8.110  10.021  65.753  1.00  0.00    -0.128 A  
HETATM   25  C   UNL     1      -9.185   9.349  66.370  1.00  0.00    -0.215 A  
HETATM   26  O   UNL     1      -8.064  11.383  65.901  1.00  0.00    -0.359 OA 
HETATM   27  C   UNL     1     -10.210  10.125  67.156  1.00  0.00    -0.278 C  
HETATM   28  C   UNL     1      -9.289   7.946  66.228  1.00  0.00    -0.225 A  
HETATM   29  H   UNL     1      -8.727  11.842  66.405  1.00  0.00     0.000 HD 
HETATM   30  C   UNL     1      -8.313   7.258  65.475  1.00  0.00    -0.133 A  
HETATM   31  C   UNL     1     -10.423   7.157  66.835  1.00  0.00    -0.364 C  
HETATM   32  O   UNL     1      -8.510   5.899  65.309  1.00  0.00    -0.150 OA 
ENDBRANCH  16  17
ENDBRANCH  15  16
ENDBRANCH  13  15
ENDBRANCH  10  11
ENDBRANCH   9  10
ENDBRANCH   5   6
ENDBRANCH   4   5
TORSDOF 7
ENDMDL
MODEL      197
REMARK 921   NORMALIZED FREE ENERGY PREDICTED BY IDOCK:   -4.45 KCAL/MOL
REMARK 922        TOTAL FREE ENERGY PREDICTED BY IDOCK:   -8.03 KCAL/MOL
REMARK 923 INTER-LIGAND FREE ENERGY PREDICTED BY IDOCK:   -5.34 KCAL/MOL
REMARK 924 INTRA-LIGAND FREE ENERGY PREDICTED BY IDOCK:   -2.69 KCAL/MOL
REMARK 927      BINDING AFFINITY PREDICTED BY RF-SCORE:    0.00 PKD
ROOT
HETATM    1  C   UNL     1      -7.118   7.072  63.070  1.00  0.00    -0.061 C  
HETATM    2  C   UNL     1      -7.916   6.879  64.357  1.00  0.00    -0.093 C  
HETATM    3  C   UNL     1      -8.978   7.976  64.477  1.00  0.00     0.599 C  
HETATM    4  C   UNL     1      -8.516   5.459  64.390  1.00  0.00    -0.106 C  
ENDROOT
BRANCH   4   5
HETATM    5  C   UNL     1      -9.318   5.208  65.664  1.00  0.00    -0.149 C  
BRANCH   5   6
HETATM    6  C   UNL     1      -8.510   5.461  66.934  1.00  0.00    -0.107 C  
HETATM    7  C   UNL     1      -9.092   4.700  68.144  1.00  0.00    -0.148 C  
HETATM    8  C   UNL     1      -9.112   3.182  67.912  1.00  0.00    -0.221 C  
HETATM    9  C   UNL     1      -8.297   5.070  69.411  1.00  0.00    -0.085 C  
BRANCH   9  10
HETATM   10  C   UNL     1      -8.831   4.345  70.644  1.00  0.00    -0.139 C  
BRANCH  10  11
HETATM   11  C   UNL     1      -8.947   5.265  71.850  1.00  0.00    -0.146 C  
HETATM   12  C   UNL     1     -10.396   5.335  72.376  1.00  0.00    -0.259 C  
HETATM   13  C   UNL     1     -10.524   6.358  73.514  1.00  0.00    -0.300 C  
HETATM   14  C   UNL     1     -10.903   3.975  72.872  1.00  0.00    -0.189 C  
BRANCH  13  15
HETATM   15  C   UNL     1     -10.092   7.780  73.159  1.00  0.00    -0.390 C  
BRANCH  15  16
HETATM   16  C   UNL     1     -11.011   8.500  72.155  1.00  0.00    -0.427 C  
BRANCH  16  17
HETATM   17  C   UNL     1     -10.375   8.682  70.748  1.00  0.00    -0.204 C  
HETATM   18  C   UNL     1     -10.990   7.643  69.784  1.00  0.00    -0.178 C  
HETATM   19  C   UNL     1      -8.855   8.605  70.881  1.00  0.00    -0.221 C  
HETATM   20  C   UNL     1      -8.195   8.780  69.534  1.00  0.00    -0.111 C  
HETATM   21  C   UNL     1      -8.837   9.872  68.723  1.00  0.00    -0.136 A  
HETATM   22  C   UNL     1      -8.253  10.284  67.510  1.00  0.00    -0.114 A  
HETATM   23  C   UNL     1      -7.007   9.623  66.978  1.00  0.00    -0.085 C  
HETATM   24  C   UNL     1      -8.867  11.324  66.791  1.00  0.00    -0.170 A  
HETATM   25  C   UNL     1     -10.055  11.943  67.232  1.00  0.00    -0.213 A  
HETATM   26  O   UNL     1      -8.334  11.775  65.612  1.00  0.00    -0.354 OA 
HETATM   27  C   UNL     1     -10.674  13.052  66.422  1.00  0.00    -0.295 C  
HETATM   28  C   UNL     1     -10.657  11.498  68.432  1.00  0.00    -0.227 A  
HETATM   29  H   UNL     1      -8.749  12.478  65.126  1.00  0.00     0.000 HD 
HETATM   30  C   UNL     1     -10.050  10.449  69.156  1.00  0.00    -0.222 A  
HETATM   31  C   UNL     1     -11.942  12.090  68.956  1.00  0.00    -0.321 C  
HETATM   32  O   UNL     1     -10.725  10.007  70.279  1.00  0.00    -0.276 OA 
ENDBRANCH  16  17
ENDBRANCH  15  16
ENDBRANCH  13  15
ENDBRANCH  10  11
ENDBRANCH   9  10
ENDBRANCH   5   6
ENDBRANCH   4   5
TORSDOF 7
ENDMDL
MODEL      198
REMARK 921   NORMALIZED FREE ENERGY PREDICTED BY IDOCK:   -4.41 KCAL/MOL
REMARK 922        TOTAL FREE ENERGY PREDICTED BY IDOCK:   -7.98 KCAL/MOL
REMARK 923 INTER-LIGAND FREE ENERGY PREDICTED BY IDOCK:   -6.94 KCAL/MOL
REMARK 924 INTRA-LIGAND FREE ENERGY PREDICTED BY IDOCK:   -1.03 KCAL/MOL
REMARK 927      BINDING AFFINITY PREDICTED BY RF-SCORE:    0.00 PKD
ROOT
HETATM    1  C   UNL     1     -13.270  14.210  72.446  1.00  0.00    -0.566 C  
HETATM    2  C   UNL     1     -12.342  14.250  71.234  1.00  0.00    -0.439 C  
HETATM    3  C   UNL     1     -12.490  12.957  70.426  1.00  0.00    -0.247 C  
HETATM    4  C   UNL     1     -12.628  15.513  70.398  1.00  0.00    -0.421 C  
ENDROOT
BRANCH   4   5
HETATM    5  C   UNL     1     -11.719  15.609  69.177  1.00  0.00    -0.402 C  
BRANCH   5   6
HETATM    6  C   UNL     1     -10.238  15.497  69.529  1.00  0.00    -0.279 C  
HETATM    7  C   UNL     1      -9.495  14.536  68.578  1.00  0.00    -0.211 C  
HETATM    8  C   UNL     1      -9.582  14.994  67.114  1.00  0.00    -0.222 C  
HETATM    9  C   UNL     1      -8.033  14.388  69.040  1.00  0.00    -0.057 C  
BRANCH   9  10
HETATM   10  C   UNL     1      -7.247  13.443  68.134  1.00  0.00    -0.113 C  
BRANCH  10  11
HETATM   11  C   UNL     1      -7.308  12.001  68.610  1.00  0.00    -0.111 C  
HETATM   12  C   UNL     1      -8.606  11.304  68.153  1.00  0.00    -0.150 C  
HETATM   13  C   UNL     1      -8.714   9.889  68.742  1.00  0.00    -0.132 C  
HETATM   14  C   UNL     1      -8.714  11.215  66.626  1.00  0.00    -0.166 C  
BRANCH  13  15
HETATM   15  C   UNL     1      -8.662   9.816  70.268  1.00  0.00    -0.172 C  
BRANCH  15  16
HETATM   16  C   UNL     1      -9.892   9.160  70.922  1.00  0.00    -0.359 C  
BRANCH  16  17
HETATM   17  C   UNL     1     -10.038   7.647  70.597  1.00  0.00    -0.187 C  
HETATM   18  C   UNL     1     -11.514   7.235  70.793  1.00  0.00    -0.328 C  
HETATM   19  C   UNL     1      -9.039   6.862  71.446  1.00  0.00    -0.148 C  
HETATM   20  C   UNL     1      -9.146   5.384  71.159  1.00  0.00    -0.163 C  
HETATM   21  C   UNL     1      -9.290   5.098  69.690  1.00  0.00    -0.182 A  
HETATM   22  C   UNL     1      -9.240   3.771  69.222  1.00  0.00    -0.228 A  
HETATM   23  C   UNL     1      -9.084   2.612  70.173  1.00  0.00    -0.186 C  
HETATM   24  C   UNL     1      -9.354   3.544  67.840  1.00  0.00    -0.187 A  
HETATM   25  C   UNL     1      -9.542   4.595  66.918  1.00  0.00    -0.197 A  
HETATM   26  O   UNL     1      -9.297   2.274  67.328  1.00  0.00    -0.314 OA 
HETATM   27  C   UNL     1      -9.660   4.296  65.446  1.00  0.00    -0.187 C  
HETATM   28  C   UNL     1      -9.629   5.922  67.399  1.00  0.00    -0.117 A  
HETATM   29  H   UNL     1      -9.374   2.120  66.393  1.00  0.00     0.000 HD 
HETATM   30  C   UNL     1      -9.523   6.157  68.787  1.00  0.00    -0.121 A  
HETATM   31  C   UNL     1      -9.855   7.098  66.480  1.00  0.00    -0.189 C  
HETATM   32  O   UNL     1      -9.692   7.466  69.202  1.00  0.00    -0.162 OA 
ENDBRANCH  16  17
ENDBRANCH  15  16
ENDBRANCH  13  15
ENDBRANCH  10  11
ENDBRANCH   9  10
ENDBRANCH   5   6
ENDBRANCH   4   5
TORSDOF 7
ENDMDL
MODEL      199
REMARK 921   NORMALIZED FREE ENERGY PREDICTED BY IDOCK:   -4.40 KCAL/MOL
REMARK 922        TOTAL FREE ENERGY PREDICTED BY IDOCK:   -7.96 KCAL/MOL
REMARK 923 INTER-LIGAND FREE ENERGY PREDICTED BY IDOCK:   -6.88 KCAL/MOL
REMARK 924 INTRA-LIGAND FREE ENERGY PREDICTED BY IDOCK:   -1.08 KCAL/MOL
REMARK 927      BINDING AFFINITY PREDICTED BY RF-SCORE:    0.00 PKD
ROOT
HETATM    1  C   UNL     1      -5.861  20.939  68.383  1.00  0.00    -0.391 C  
HETATM    2  C   UNL     1      -6.992  19.946  68.122  1.00  0.00    -0.331 C  
HETATM    3  C   UNL     1      -7.773  19.701  69.417  1.00  0.00    -0.067 C  
HETATM    4  C   UNL     1      -7.883  20.461  66.974  1.00  0.00    -0.365 C  
ENDROOT
BRANCH   4   5
HETATM    5  C   UNL     1      -9.027  19.500  66.664  1.00  0.00    -0.399 C  
BRANCH   5   6
HETATM    6  C   UNL     1      -8.568  18.048  66.548  1.00  0.00    -0.280 C  
HETATM    7  C   UNL     1      -9.760  17.068  66.561  1.00  0.00    -0.296 C  
HETATM    8  C   UNL     1     -10.734  17.332  65.404  1.00  0.00    -0.074 C  
HETATM    9  C   UNL     1      -9.232  15.621  66.541  1.00  0.00    -0.325 C  
BRANCH   9  10
HETATM   10  C   UNL     1     -10.371  14.604  66.555  1.00  0.00    -0.283 C  
BRANCH  10  11
HETATM   11  C   UNL     1     -10.101  13.421  65.639  1.00  0.00    -0.285 C  
HETATM   12  C   UNL     1     -11.373  12.984  64.883  1.00  0.00    -0.332 C  
HETATM   13  C   UNL     1     -11.118  11.715  64.056  1.00  0.00    -0.458 C  
HETATM   14  C   UNL     1     -11.907  14.081  63.955  1.00  0.00    -0.339 C  
BRANCH  13  15
HETATM   15  C   UNL     1     -10.616  10.511  64.853  1.00  0.00    -0.099 C  
BRANCH  15  16
HETATM   16  C   UNL     1      -9.105  10.242  64.728  1.00  0.00    -0.256 C  
BRANCH  16  17
HETATM   17  C   UNL     1      -8.529   9.374  65.881  1.00  0.00    -0.126 C  
HETATM   18  C   UNL     1      -7.089   9.840  66.187  1.00  0.00    -0.099 C  
HETATM   19  C   UNL     1      -8.653   7.900  65.496  1.00  0.00    -0.139 C  
HETATM   20  C   UNL     1      -8.106   7.017  66.592  1.00  0.00    -0.110 C  
HETATM   21  C   UNL     1      -8.519   7.487  67.960  1.00  0.00    -0.123 A  
HETATM   22  C   UNL     1      -8.237   6.697  69.091  1.00  0.00    -0.120 A  
HETATM   23  C   UNL     1      -7.488   5.394  68.968  1.00  0.00    -0.074 C  
HETATM   24  C   UNL     1      -8.660   7.156  70.350  1.00  0.00    -0.142 A  
HETATM   25  C   UNL     1      -9.328   8.386  70.516  1.00  0.00    -0.177 A  
HETATM   26  O   UNL     1      -8.426   6.420  71.483  1.00  0.00    -0.128 OA 
HETATM   27  C   UNL     1      -9.758   8.833  71.890  1.00  0.00    -0.386 C  
HETATM   28  C   UNL     1      -9.574   9.193  69.381  1.00  0.00    -0.165 A  
HETATM   29  H   UNL     1      -8.712   6.731  72.334  1.00  0.00     0.000 HD 
HETATM   30  C   UNL     1      -9.146   8.742  68.113  1.00  0.00    -0.140 A  
HETATM   31  C   UNL     1     -10.259  10.534  69.479  1.00  0.00    -0.230 C  
HETATM   32  O   UNL     1      -9.347   9.608  67.054  1.00  0.00    -0.142 OA 
ENDBRANCH  16  17
ENDBRANCH  15  16
ENDBRANCH  13  15
ENDBRANCH  10  11
ENDBRANCH   9  10
ENDBRANCH   5   6
ENDBRANCH   4   5
TORSDOF 7
ENDMDL
MODEL      200
REMARK 921   NORMALIZED FREE ENERGY PREDICTED BY IDOCK:   -4.38 KCAL/MOL
REMARK 922        TOTAL FREE ENERGY PREDICTED BY IDOCK:   -7.93 KCAL/MOL
REMARK 923 INTER-LIGAND FREE ENERGY PREDICTED BY IDOCK:   -7.10 KCAL/MOL
REMARK 924 INTRA-LIGAND FREE ENERGY PREDICTED BY IDOCK:   -0.83 KCAL/MOL
REMARK 927      BINDING AFFINITY PREDICTED BY RF-SCORE:    0.00 PKD
ROOT
HETATM    1  C   UNL     1     -12.231  15.934  71.911  1.00  0.00    -0.558 C  
HETATM    2  C   UNL     1     -11.557  15.328  70.682  1.00  0.00    -0.355 C  
HETATM    3  C   UNL     1     -12.430  14.203  70.116  1.00  0.00    -0.391 C  
HETATM    4  C   UNL     1     -11.263  16.434  69.650  1.00  0.00    -0.257 C  
ENDROOT
BRANCH   4   5
HETATM    5  C   UNL     1     -10.578  15.884  68.402  1.00  0.00    -0.266 C  
BRANCH   5   6
HETATM    6  C   UNL     1      -9.083  16.190  68.361  1.00  0.00    -0.199 C  
HETATM    7  C   UNL     1      -8.242  14.910  68.175  1.00  0.00    -0.139 C  
HETATM    8  C   UNL     1      -8.592  14.176  66.872  1.00  0.00    -0.157 C  
HETATM    9  C   UNL     1      -6.745  15.268  68.240  1.00  0.00    -0.124 C  
BRANCH   9  10
HETATM   10  C   UNL     1      -5.861  14.035  68.063  1.00  0.00    -0.138 C  
BRANCH  10  11
HETATM   11  C   UNL     1      -6.566  12.754  68.479  1.00  0.00    -0.086 C  
HETATM   12  C   UNL     1      -5.648  11.847  69.323  1.00  0.00    -0.059 C  
HETATM   13  C   UNL     1      -6.327  10.504  69.633  1.00  0.00    -0.074 C  
HETATM   14  C   UNL     1      -5.227  12.507  70.641  1.00  0.00    -0.138 C  
BRANCH  13  15
HETATM   15  C   UNL     1      -6.771   9.704  68.409  1.00  0.00    -0.057 C  
BRANCH  15  16
HETATM   16  C   UNL     1      -8.082  10.190  67.764  1.00  0.00    -0.109 C  
BRANCH  16  17
HETATM   17  C   UNL     1      -9.359   9.626  68.447  1.00  0.00    -0.133 C  
HETATM   18  C   UNL     1     -10.345   9.157  67.354  1.00  0.00    -0.330 C  
HETATM   19  C   UNL     1      -9.918  10.686  69.396  1.00  0.00    -0.183 C  
HETATM   20  C   UNL     1     -11.162  10.178  70.085  1.00  0.00    -0.377 C  
HETATM   21  C   UNL     1     -11.022   8.750  70.533  1.00  0.00    -0.272 A  
HETATM   22  C   UNL     1     -12.018   8.162  71.335  1.00  0.00    -0.330 A  
HETATM   23  C   UNL     1     -13.257   8.925  71.727  1.00  0.00    -0.427 C  
HETATM   24  C   UNL     1     -11.841   6.832  71.755  1.00  0.00    -0.330 A  
HETATM   25  C   UNL     1     -10.717   6.068  71.378  1.00  0.00    -0.314 A  
HETATM   26  O   UNL     1     -12.772   6.214  72.549  1.00  0.00    -0.540 OA 
HETATM   27  C   UNL     1     -10.577   4.645  71.855  1.00  0.00    -0.108 C  
HETATM   28  C   UNL     1      -9.738   6.653  70.542  1.00  0.00    -0.187 A  
HETATM   29  H   UNL     1     -12.652   5.316  72.833  1.00  0.00     0.000 HD 
HETATM   30  C   UNL     1      -9.913   7.986  70.110  1.00  0.00    -0.191 A  
HETATM   31  C   UNL     1      -8.521   5.894  70.074  1.00  0.00    -0.126 C  
HETATM   32  O   UNL     1      -8.962   8.476  69.233  1.00  0.00    -0.144 OA 
ENDBRANCH  16  17
ENDBRANCH  15  16
ENDBRANCH  13  15
ENDBRANCH  10  11
ENDBRANCH   9  10
ENDBRANCH   5   6
ENDBRANCH   4   5
TORSDOF 7
ENDMDL
MODEL      201
REMARK 921   NORMALIZED FREE ENERGY PREDICTED BY IDOCK:   -4.38 KCAL/MOL
REMARK 922        TOTAL FREE ENERGY PREDICTED BY IDOCK:   -7.92 KCAL/MOL
REMARK 923 INTER-LIGAND FREE ENERGY PREDICTED BY IDOCK:   -7.03 KCAL/MOL
REMARK 924 INTRA-LIGAND FREE ENERGY PREDICTED BY IDOCK:   -0.89 KCAL/MOL
REMARK 927      BINDING AFFINITY PREDICTED BY RF-SCORE:    0.00 PKD
ROOT
HETATM    1  C   UNL     1     -11.369  12.035  64.250  1.00  0.00    -0.433 C  
HETATM    2  C   UNL     1     -11.043  13.512  64.457  1.00  0.00    -0.394 C  
HETATM    3  C   UNL     1     -12.338  14.306  64.652  1.00  0.00    -0.433 C  
HETATM    4  C   UNL     1     -10.061  13.669  65.636  1.00  0.00    -0.299 C  
ENDROOT
BRANCH   4   5
HETATM    5  C   UNL     1      -9.691  15.128  65.881  1.00  0.00    -0.385 C  
BRANCH   5   6
HETATM    6  C   UNL     1     -10.571  15.795  66.935  1.00  0.00    -0.317 C  
HETATM    7  C   UNL     1     -10.710  14.922  68.200  1.00  0.00    -0.251 C  
HETATM    8  C   UNL     1      -9.350  14.638  68.855  1.00  0.00    -0.160 C  
HETATM    9  C   UNL     1     -11.683  15.598  69.184  1.00  0.00    -0.402 C  
BRANCH   9  10
HETATM   10  C   UNL     1     -11.861  14.775  70.458  1.00  0.00    -0.362 C  
BRANCH  10  11
HETATM   11  C   UNL     1     -12.164  13.314  70.165  1.00  0.00    -0.376 C  
HETATM   12  C   UNL     1     -12.499  12.532  71.452  1.00  0.00    -0.205 C  
HETATM   13  C   UNL     1     -12.683  11.035  71.159  1.00  0.00    -0.521 C  
HETATM   14  C   UNL     1     -13.761  13.061  72.144  1.00  0.00    -0.547 C  
BRANCH  13  15
HETATM   15  C   UNL     1     -11.486  10.351  70.501  1.00  0.00    -0.431 C  
BRANCH  15  16
HETATM   16  C   UNL     1     -11.851   9.259  69.478  1.00  0.00     0.598 C  
BRANCH  16  17
HETATM   17  C   UNL     1     -10.857   8.065  69.459  1.00  0.00    -0.129 C  
HETATM   18  C   UNL     1     -10.209   7.976  68.059  1.00  0.00    -0.260 C  
HETATM   19  C   UNL     1     -11.596   6.802  69.900  1.00  0.00    -0.326 C  
HETATM   20  C   UNL     1     -10.664   5.614  69.898  1.00  0.00    -0.399 C  
HETATM   21  C   UNL     1      -9.314   5.949  70.471  1.00  0.00    -0.185 A  
HETATM   22  C   UNL     1      -8.372   4.927  70.698  1.00  0.00    -0.102 A  
HETATM   23  C   UNL     1      -8.672   3.494  70.340  1.00  0.00    -0.127 C  
HETATM   24  C   UNL     1      -7.130   5.274  71.258  1.00  0.00    -0.064 A  
HETATM   25  C   UNL     1      -6.793   6.607  71.570  1.00  0.00    -0.066 A  
HETATM   26  O   UNL     1      -6.182   4.318  71.514  1.00  0.00    -0.017 OA 
HETATM   27  C   UNL     1      -5.446   6.925  72.167  1.00  0.00    -0.037 C  
HETATM   28  C   UNL     1      -7.729   7.633  71.304  1.00  0.00    -0.085 A  
HETATM   29  H   UNL     1      -5.342   4.553  71.892  1.00  0.00     0.000 HD 
HETATM   30  C   UNL     1      -8.976   7.293  70.736  1.00  0.00    -0.152 A  
HETATM   31  C   UNL     1      -7.434   9.086  71.586  1.00  0.00     0.011 C  
HETATM   32  O   UNL     1      -9.818   8.347  70.429  1.00  0.00    -0.178 OA 
ENDBRANCH  16  17
ENDBRANCH  15  16
ENDBRANCH  13  15
ENDBRANCH  10  11
ENDBRANCH   9  10
ENDBRANCH   5   6
ENDBRANCH   4   5
TORSDOF 7
ENDMDL
MODEL      202
REMARK 921   NORMALIZED FREE ENERGY PREDICTED BY IDOCK:   -4.37 KCAL/MOL
REMARK 922        TOTAL FREE ENERGY PREDICTED BY IDOCK:   -7.92 KCAL/MOL
REMARK 923 INTER-LIGAND FREE ENERGY PREDICTED BY IDOCK:   -6.81 KCAL/MOL
REMARK 924 INTRA-LIGAND FREE ENERGY PREDICTED BY IDOCK:   -1.11 KCAL/MOL
REMARK 927      BINDING AFFINITY PREDICTED BY RF-SCORE:    0.00 PKD
ROOT
HETATM    1  C   UNL     1     -12.232  16.245  73.324  1.00  0.00    -0.616 C  
HETATM    2  C   UNL     1     -12.769  14.991  72.636  1.00  0.00    -0.466 C  
HETATM    3  C   UNL     1     -14.274  15.140  72.390  1.00  0.00    -0.540 C  
HETATM    4  C   UNL     1     -11.974  14.727  71.342  1.00  0.00    -0.403 C  
ENDROOT
BRANCH   4   5
HETATM    5  C   UNL     1     -12.464  13.477  70.617  1.00  0.00    -0.405 C  
BRANCH   5   6
HETATM    6  C   UNL     1     -12.547  12.256  71.529  1.00  0.00    -0.258 C  
HETATM    7  C   UNL     1     -12.497  10.938  70.727  1.00  0.00    -0.489 C  
HETATM    8  C   UNL     1     -11.201  10.810  69.912  1.00  0.00    -0.371 C  
HETATM    9  C   UNL     1     -12.683   9.748  71.688  1.00  0.00    -0.517 C  
BRANCH   9  10
HETATM   10  C   UNL     1     -12.643   8.413  70.947  1.00  0.00     0.060 C  
BRANCH  10  11
HETATM   11  C   UNL     1     -12.013   7.308  71.781  1.00  0.00    -0.342 C  
HETATM   12  C   UNL     1     -10.479   7.455  71.855  1.00  0.00    -0.229 C  
HETATM   13  C   UNL     1      -9.843   6.268  72.595  1.00  0.00    -0.175 C  
HETATM   14  C   UNL     1     -10.050   8.756  72.543  1.00  0.00    -0.117 C  
BRANCH  13  15
HETATM   15  C   UNL     1     -10.148   4.894  71.999  1.00  0.00    -0.256 C  
BRANCH  15  16
HETATM   16  C   UNL     1      -9.034   4.319  71.105  1.00  0.00    -0.166 C  
BRANCH  16  17
HETATM   17  C   UNL     1      -9.077   4.842  69.642  1.00  0.00    -0.113 C  
HETATM   18  C   UNL     1     -10.547   5.098  69.246  1.00  0.00    -0.089 C  
HETATM   19  C   UNL     1      -8.338   3.850  68.743  1.00  0.00    -0.087 C  
HETATM   20  C   UNL     1      -8.353   4.321  67.309  1.00  0.00    -0.100 C  
HETATM   21  C   UNL     1      -8.093   5.798  67.192  1.00  0.00    -0.102 A  
HETATM   22  C   UNL     1      -7.910   6.383  65.925  1.00  0.00    -0.102 A  
HETATM   23  C   UNL     1      -8.008   5.563  64.664  1.00  0.00    -0.115 C  
HETATM   24  C   UNL     1      -7.645   7.762  65.856  1.00  0.00    -0.090 A  
HETATM   25  C   UNL     1      -7.584   8.574  67.007  1.00  0.00    -0.092 A  
HETATM   26  O   UNL     1      -7.443   8.381  64.650  1.00  0.00    -0.089 OA 
HETATM   27  C   UNL     1      -7.299  10.048  66.878  1.00  0.00    -0.092 C  
HETATM   28  C   UNL     1      -7.807   7.987  68.275  1.00  0.00    -0.123 A  
HETATM   29  H   UNL     1      -7.264   9.313  64.604  1.00  0.00     0.000 HD 
HETATM   30  C   UNL     1      -8.081   6.604  68.351  1.00  0.00    -0.115 A  
HETATM   31  C   UNL     1      -7.785   8.792  69.550  1.00  0.00    -0.089 C  
HETATM   32  O   UNL     1      -8.365   6.103  69.609  1.00  0.00    -0.120 OA 
ENDBRANCH  16  17
ENDBRANCH  15  16
ENDBRANCH  13  15
ENDBRANCH  10  11
ENDBRANCH   9  10
ENDBRANCH   5   6
ENDBRANCH   4   5
TORSDOF 7
ENDMDL
MODEL      203
REMARK 921   NORMALIZED FREE ENERGY PREDICTED BY IDOCK:   -4.37 KCAL/MOL
REMARK 922        TOTAL FREE ENERGY PREDICTED BY IDOCK:   -7.91 KCAL/MOL
REMARK 923 INTER-LIGAND FREE ENERGY PREDICTED BY IDOCK:   -6.89 KCAL/MOL
REMARK 924 INTRA-LIGAND FREE ENERGY PREDICTED BY IDOCK:   -1.01 KCAL/MOL
REMARK 927      BINDING AFFINITY PREDICTED BY RF-SCORE:    0.00 PKD
ROOT
HETATM    1  C   UNL     1      -7.374  19.995  65.774  1.00  0.00    -0.321 C  
HETATM    2  C   UNL     1      -7.616  18.537  66.157  1.00  0.00    -0.273 C  
HETATM    3  C   UNL     1      -6.365  17.963  66.829  1.00  0.00    -0.210 C  
HETATM    4  C   UNL     1      -8.873  18.432  67.044  1.00  0.00    -0.271 C  
ENDROOT
BRANCH   4   5
HETATM    5  C   UNL     1      -9.169  16.991  67.448  1.00  0.00    -0.234 C  
BRANCH   5   6
HETATM    6  C   UNL     1      -9.613  16.124  66.273  1.00  0.00    -0.334 C  
HETATM    7  C   UNL     1     -10.138  14.751  66.741  1.00  0.00    -0.258 C  
HETATM    8  C   UNL     1     -11.340  14.886  67.687  1.00  0.00    -0.348 C  
HETATM    9  C   UNL     1     -10.477  13.887  65.512  1.00  0.00    -0.333 C  
BRANCH   9  10
HETATM   10  C   UNL     1     -11.001  12.511  65.916  1.00  0.00    -0.314 C  
BRANCH  10  11
HETATM   11  C   UNL     1      -9.895  11.471  65.995  1.00  0.00    -0.255 C  
HETATM   12  C   UNL     1     -10.074  10.365  64.935  1.00  0.00    -0.382 C  
HETATM   13  C   UNL     1      -9.022   9.259  65.104  1.00  0.00    -0.257 C  
HETATM   14  C   UNL     1      -9.994  10.911  63.504  1.00  0.00    -0.419 C  
BRANCH  13  15
HETATM   15  C   UNL     1      -9.004   8.585  66.476  1.00  0.00    -0.194 C  
BRANCH  15  16
HETATM   16  C   UNL     1     -10.346   7.964  66.905  1.00  0.00    -0.400 C  
BRANCH  16  17
HETATM   17  C   UNL     1     -10.191   6.712  67.812  1.00  0.00    -0.170 C  
HETATM   18  C   UNL     1     -10.757   5.482  67.068  1.00  0.00    -0.286 C  
HETATM   19  C   UNL     1     -10.849   6.997  69.162  1.00  0.00    -0.223 C  
HETATM   20  C   UNL     1     -10.720   5.804  70.078  1.00  0.00    -0.400 C  
HETATM   21  C   UNL     1      -9.353   5.181  70.012  1.00  0.00    -0.201 A  
HETATM   22  C   UNL     1      -8.999   4.161  70.915  1.00  0.00    -0.150 A  
HETATM   23  C   UNL     1      -9.982   3.643  71.934  1.00  0.00    -0.223 C  
HETATM   24  C   UNL     1      -7.705   3.619  70.839  1.00  0.00    -0.047 A  
HETATM   25  C   UNL     1      -6.767   4.045  69.876  1.00  0.00    -0.034 A  
HETATM   26  O   UNL     1      -7.302   2.634  71.703  1.00  0.00    -0.038 OA 
HETATM   27  C   UNL     1      -5.392   3.428  69.836  1.00  0.00    -0.008 C  
HETATM   28  C   UNL     1      -7.142   5.043  68.947  1.00  0.00    -0.053 A  
HETATM   29  H   UNL     1      -6.427   2.267  71.651  1.00  0.00     0.000 HD 
HETATM   30  C   UNL     1      -8.443   5.587  69.013  1.00  0.00    -0.101 A  
HETATM   31  C   UNL     1      -6.205   5.534  67.870  1.00  0.00    -0.037 C  
HETATM   32  O   UNL     1      -8.774   6.504  68.032  1.00  0.00    -0.118 OA 
ENDBRANCH  16  17
ENDBRANCH  15  16
ENDBRANCH  13  15
ENDBRANCH  10  11
ENDBRANCH   9  10
ENDBRANCH   5   6
ENDBRANCH   4   5
TORSDOF 7
ENDMDL
MODEL      204
REMARK 921   NORMALIZED FREE ENERGY PREDICTED BY IDOCK:   -4.36 KCAL/MOL
REMARK 922        TOTAL FREE ENERGY PREDICTED BY IDOCK:   -7.90 KCAL/MOL
REMARK 923 INTER-LIGAND FREE ENERGY PREDICTED BY IDOCK:   -7.40 KCAL/MOL
REMARK 924 INTRA-LIGAND FREE ENERGY PREDICTED BY IDOCK:   -0.50 KCAL/MOL
REMARK 927      BINDING AFFINITY PREDICTED BY RF-SCORE:    0.00 PKD
ROOT
HETATM    1  C   UNL     1     -11.361   2.791  73.458  1.00  0.00    -0.272 C  
HETATM    2  C   UNL     1     -10.675   3.987  72.801  1.00  0.00    -0.179 C  
HETATM    3  C   UNL     1      -9.971   4.830  73.869  1.00  0.00    -0.191 C  
HETATM    4  C   UNL     1      -9.716   3.497  71.698  1.00  0.00    -0.234 C  
ENDROOT
BRANCH   4   5
HETATM    5  C   UNL     1      -9.010   4.655  70.999  1.00  0.00    -0.166 C  
BRANCH   5   6
HETATM    6  C   UNL     1      -9.943   5.470  70.108  1.00  0.00    -0.287 C  
HETATM    7  C   UNL     1      -9.316   6.820  69.705  1.00  0.00    -0.145 C  
HETATM    8  C   UNL     1      -7.999   6.636  68.936  1.00  0.00    -0.112 C  
HETATM    9  C   UNL     1     -10.338   7.637  68.892  1.00  0.00    -0.222 C  
BRANCH   9  10
HETATM   10  C   UNL     1      -9.771   8.989  68.465  1.00  0.00    -0.171 C  
BRANCH  10  11
HETATM   11  C   UNL     1     -10.398   9.499  67.178  1.00  0.00    -0.320 C  
HETATM   12  C   UNL     1      -9.333   9.777  66.096  1.00  0.00    -0.243 C  
HETATM   13  C   UNL     1      -9.964  10.406  64.845  1.00  0.00    -0.409 C  
HETATM   14  C   UNL     1      -8.575   8.509  65.685  1.00  0.00    -0.200 C  
BRANCH  13  15
HETATM   15  C   UNL     1     -10.728  11.707  65.088  1.00  0.00    -0.351 C  
BRANCH  15  16
HETATM   16  C   UNL     1     -11.378  11.821  66.479  1.00  0.00    -0.370 C  
BRANCH  16  17
HETATM   17  C   UNL     1     -10.961  13.098  67.260  1.00  0.00    -0.268 C  
HETATM   18  C   UNL     1     -11.308  12.907  68.753  1.00  0.00    -0.333 C  
HETATM   19  C   UNL     1     -11.617  14.313  66.604  1.00  0.00    -0.397 C  
HETATM   20  C   UNL     1     -11.236  15.579  67.332  1.00  0.00    -0.248 C  
HETATM   21  C   UNL     1      -9.778  15.606  67.703  1.00  0.00    -0.225 A  
HETATM   22  C   UNL     1      -9.210  16.776  68.241  1.00  0.00    -0.227 A  
HETATM   23  C   UNL     1     -10.044  18.005  68.495  1.00  0.00    -0.399 C  
HETATM   24  C   UNL     1      -7.839  16.771  68.553  1.00  0.00    -0.229 A  
HETATM   25  C   UNL     1      -7.030  15.631  68.369  1.00  0.00    -0.115 A  
HETATM   26  O   UNL     1      -7.230  17.888  69.065  1.00  0.00    -0.261 OA 
HETATM   27  C   UNL     1      -5.566  15.680  68.722  1.00  0.00    -0.096 C  
HETATM   28  C   UNL     1      -7.616  14.448  67.863  1.00  0.00    -0.158 A  
HETATM   29  H   UNL     1      -6.303  17.884  69.276  1.00  0.00     0.000 HD 
HETATM   30  C   UNL     1      -8.994  14.442  67.555  1.00  0.00    -0.190 A  
HETATM   31  C   UNL     1      -6.824  13.179  67.663  1.00  0.00    -0.160 C  
HETATM   32  O   UNL     1      -9.524  13.235  67.136  1.00  0.00    -0.223 OA 
ENDBRANCH  16  17
ENDBRANCH  15  16
ENDBRANCH  13  15
ENDBRANCH  10  11
ENDBRANCH   9  10
ENDBRANCH   5   6
ENDBRANCH   4   5
TORSDOF 7
ENDMDL
MODEL      205
REMARK 921   NORMALIZED FREE ENERGY PREDICTED BY IDOCK:   -4.36 KCAL/MOL
REMARK 922        TOTAL FREE ENERGY PREDICTED BY IDOCK:   -7.89 KCAL/MOL
REMARK 923 INTER-LIGAND FREE ENERGY PREDICTED BY IDOCK:   -6.78 KCAL/MOL
REMARK 924 INTRA-LIGAND FREE ENERGY PREDICTED BY IDOCK:   -1.11 KCAL/MOL
REMARK 927      BINDING AFFINITY PREDICTED BY RF-SCORE:    0.00 PKD
ROOT
HETATM    1  C   UNL     1      -5.446  16.457  67.739  1.00  0.00    -0.147 C  
HETATM    2  C   UNL     1      -6.608  17.440  67.609  1.00  0.00    -0.168 C  
HETATM    3  C   UNL     1      -6.956  17.637  66.130  1.00  0.00    -0.338 C  
HETATM    4  C   UNL     1      -7.806  16.945  68.444  1.00  0.00    -0.229 C  
ENDROOT
BRANCH   4   5
HETATM    5  C   UNL     1      -8.995  17.897  68.358  1.00  0.00    -0.285 C  
BRANCH   5   6
HETATM    6  C   UNL     1     -10.128  17.355  67.491  1.00  0.00    -0.322 C  
HETATM    7  C   UNL     1     -10.542  15.930  67.915  1.00  0.00    -0.300 C  
HETATM    8  C   UNL     1     -11.022  15.881  69.373  1.00  0.00    -0.309 C  
HETATM    9  C   UNL     1     -11.617  15.400  66.946  1.00  0.00     0.019 C  
BRANCH   9  10
HETATM   10  C   UNL     1     -12.065  13.989  67.318  1.00  0.00    -0.405 C  
BRANCH  10  11
HETATM   11  C   UNL     1     -11.058  12.932  66.893  1.00  0.00    -0.312 C  
HETATM   12  C   UNL     1     -11.558  12.125  65.677  1.00  0.00    -0.409 C  
HETATM   13  C   UNL     1     -10.590  10.982  65.333  1.00  0.00    -0.270 C  
HETATM   14  C   UNL     1     -11.751  13.002  64.434  1.00  0.00    -0.426 C  
BRANCH  13  15
HETATM   15  C   UNL     1     -10.325   9.993  66.468  1.00  0.00    -0.268 C  
BRANCH  15  16
HETATM   16  C   UNL     1      -8.894  10.033  67.035  1.00  0.00    -0.147 C  
BRANCH  16  17
HETATM   17  C   UNL     1      -8.817   9.726  68.557  1.00  0.00    -0.121 C  
HETATM   18  C   UNL     1      -9.762  10.688  69.309  1.00  0.00    -0.181 C  
HETATM   19  C   UNL     1      -7.356   9.792  69.000  1.00  0.00    -0.078 C  
HETATM   20  C   UNL     1      -7.235   9.496  70.475  1.00  0.00    -0.141 C  
HETATM   21  C   UNL     1      -8.110   8.349  70.900  1.00  0.00    -0.118 A  
HETATM   22  C   UNL     1      -8.007   7.829  72.203  1.00  0.00    -0.130 A  
HETATM   23  C   UNL     1      -7.056   8.426  73.210  1.00  0.00    -0.115 C  
HETATM   24  C   UNL     1      -8.824   6.741  72.557  1.00  0.00    -0.126 A  
HETATM   25  C   UNL     1      -9.755   6.178  71.661  1.00  0.00    -0.177 A  
HETATM   26  O   UNL     1      -8.754   6.185  73.808  1.00  0.00    -0.123 OA 
HETATM   27  C   UNL     1     -10.609   5.013  72.091  1.00  0.00    -0.259 C  
HETATM   28  C   UNL     1      -9.881   6.730  70.365  1.00  0.00    -0.186 A  
HETATM   29  H   UNL     1      -9.306   5.450  74.047  1.00  0.00     0.000 HD 
HETATM   30  C   UNL     1      -9.069   7.827  70.005  1.00  0.00    -0.150 A  
HETATM   31  C   UNL     1     -10.872   6.201  69.357  1.00  0.00    -0.420 C  
HETATM   32  O   UNL     1      -9.291   8.371  68.752  1.00  0.00    -0.143 OA 
ENDBRANCH  16  17
ENDBRANCH  15  16
ENDBRANCH  13  15
ENDBRANCH  10  11
ENDBRANCH   9  10
ENDBRANCH   5   6
ENDBRANCH   4   5
TORSDOF 7
ENDMDL
MODEL      206
REMARK 921   NORMALIZED FREE ENERGY PREDICTED BY IDOCK:   -4.34 KCAL/MOL
REMARK 922        TOTAL FREE ENERGY PREDICTED BY IDOCK:   -7.87 KCAL/MOL
REMARK 923 INTER-LIGAND FREE ENERGY PREDICTED BY IDOCK:   -6.96 KCAL/MOL
REMARK 924 INTRA-LIGAND FREE ENERGY PREDICTED BY IDOCK:   -0.91 KCAL/MOL
REMARK 927      BINDING AFFINITY PREDICTED BY RF-SCORE:    0.00 PKD
ROOT
HETATM    1  C   UNL     1     -11.556  16.590  71.823  1.00  0.00    -0.207 C  
HETATM    2  C   UNL     1     -12.317  15.346  72.275  1.00  0.00    -0.465 C  
HETATM    3  C   UNL     1     -13.217  15.694  73.465  1.00  0.00    -0.561 C  
HETATM    4  C   UNL     1     -13.100  14.752  71.087  1.00  0.00    -0.443 C  
ENDROOT
BRANCH   4   5
HETATM    5  C   UNL     1     -13.873  13.497  71.482  1.00  0.00    -0.067 C  
BRANCH   5   6
HETATM    6  C   UNL     1     -12.963  12.353  71.922  1.00  0.00    -0.407 C  
HETATM    7  C   UNL     1     -12.626  11.406  70.751  1.00  0.00    -0.409 C  
HETATM    8  C   UNL     1     -11.913  12.140  69.606  1.00  0.00    -0.351 C  
HETATM    9  C   UNL     1     -11.790  10.223  71.275  1.00  0.00    -0.425 C  
BRANCH   9  10
HETATM   10  C   UNL     1     -11.427   9.249  70.156  1.00  0.00    -0.138 C  
BRANCH  10  11
HETATM   11  C   UNL     1     -11.251   7.827  70.663  1.00  0.00    -0.278 C  
HETATM   12  C   UNL     1      -9.952   7.670  71.481  1.00  0.00    -0.200 C  
HETATM   13  C   UNL     1      -9.723   6.205  71.883  1.00  0.00    -0.169 C  
HETATM   14  C   UNL     1      -9.950   8.538  72.745  1.00  0.00    -0.193 C  
BRANCH  13  15
HETATM   15  C   UNL     1      -9.660   5.215  70.720  1.00  0.00    -0.241 C  
BRANCH  15  16
HETATM   16  C   UNL     1      -8.237   4.881  70.237  1.00  0.00    -0.081 C  
BRANCH  16  17
HETATM   17  C   UNL     1      -7.623   5.967  69.309  1.00  0.00    -0.094 C  
HETATM   18  C   UNL     1      -6.841   5.271  68.174  1.00  0.00    -0.060 C  
HETATM   19  C   UNL     1      -6.791   6.928  70.159  1.00  0.00    -0.057 C  
HETATM   20  C   UNL     1      -6.177   8.003  69.296  1.00  0.00    -0.035 C  
HETATM   21  C   UNL     1      -7.142   8.531  68.270  1.00  0.00    -0.085 A  
HETATM   22  C   UNL     1      -6.796   9.648  67.486  1.00  0.00    -0.082 A  
HETATM   23  C   UNL     1      -5.449  10.313  67.624  1.00  0.00    -0.044 C  
HETATM   24  C   UNL     1      -7.732  10.128  66.555  1.00  0.00    -0.108 A  
HETATM   25  C   UNL     1      -8.987   9.513  66.365  1.00  0.00    -0.182 A  
HETATM   26  O   UNL     1      -7.454  11.221  65.776  1.00  0.00    -0.368 OA 
HETATM   27  C   UNL     1      -9.954  10.066  65.351  1.00  0.00    -0.364 C  
HETATM   28  C   UNL     1      -9.313   8.368  67.129  1.00  0.00    -0.192 A  
HETATM   29  H   UNL     1      -8.088  11.545  65.147  1.00  0.00     0.000 HD 
HETATM   30  C   UNL     1      -8.374   7.875  68.062  1.00  0.00    -0.123 A  
HETATM   31  C   UNL     1     -10.623   7.638  66.966  1.00  0.00    -0.406 C  
HETATM   32  O   UNL     1      -8.719   6.711  68.723  1.00  0.00    -0.127 OA 
ENDBRANCH  16  17
ENDBRANCH  15  16
ENDBRANCH  13  15
ENDBRANCH  10  11
ENDBRANCH   9  10
ENDBRANCH   5   6
ENDBRANCH   4   5
TORSDOF 7
ENDMDL
MODEL      207
REMARK 921   NORMALIZED FREE ENERGY PREDICTED BY IDOCK:   -4.29 KCAL/MOL
REMARK 922        TOTAL FREE ENERGY PREDICTED BY IDOCK:   -7.80 KCAL/MOL
REMARK 923 INTER-LIGAND FREE ENERGY PREDICTED BY IDOCK:   -6.52 KCAL/MOL
REMARK 924 INTRA-LIGAND FREE ENERGY PREDICTED BY IDOCK:   -1.28 KCAL/MOL
REMARK 927      BINDING AFFINITY PREDICTED BY RF-SCORE:    0.00 PKD
ROOT
HETATM    1  C   UNL     1     -11.686  11.996  64.397  1.00  0.00    -0.399 C  
HETATM    2  C   UNL     1     -11.978  13.450  64.760  1.00  0.00    -0.429 C  
HETATM    3  C   UNL     1     -12.622  13.517  66.149  1.00  0.00    -0.355 C  
HETATM    4  C   UNL     1     -10.684  14.282  64.660  1.00  0.00    -0.384 C  
ENDROOT
BRANCH   4   5
HETATM    5  C   UNL     1     -10.921  15.750  65.003  1.00  0.00    -0.431 C  
BRANCH   5   6
HETATM    6  C   UNL     1     -10.781  16.040  66.495  1.00  0.00    -0.238 C  
HETATM    7  C   UNL     1      -9.358  15.733  67.007  1.00  0.00    -0.235 C  
HETATM    8  C   UNL     1      -8.293  16.566  66.279  1.00  0.00    -0.364 C  
HETATM    9  C   UNL     1      -9.305  15.951  68.531  1.00  0.00    -0.206 C  
BRANCH   9  10
HETATM   10  C   UNL     1      -7.916  15.659  69.095  1.00  0.00    -0.227 C  
BRANCH  10  11
HETATM   11  C   UNL     1      -7.536  14.193  68.965  1.00  0.00    -0.082 C  
HETATM   12  C   UNL     1      -6.009  14.009  68.842  1.00  0.00    -0.084 C  
HETATM   13  C   UNL     1      -5.646  12.538  68.588  1.00  0.00    -0.054 C  
HETATM   14  C   UNL     1      -5.260  14.497  70.088  1.00  0.00    -0.093 C  
BRANCH  13  15
HETATM   15  C   UNL     1      -6.288  11.916  67.349  1.00  0.00    -0.128 C  
BRANCH  15  16
HETATM   16  C   UNL     1      -5.753  10.520  66.980  1.00  0.00    -0.047 C  
BRANCH  16  17
HETATM   17  C   UNL     1      -6.801   9.385  67.155  1.00  0.00    -0.084 C  
HETATM   18  C   UNL     1      -6.079   8.022  67.075  1.00  0.00    -0.054 C  
HETATM   19  C   UNL     1      -7.913   9.578  66.124  1.00  0.00    -0.107 C  
HETATM   20  C   UNL     1      -8.957   8.495  66.261  1.00  0.00    -0.207 C  
HETATM   21  C   UNL     1      -9.289   8.203  67.698  1.00  0.00    -0.160 A  
HETATM   22  C   UNL     1     -10.355   7.340  68.013  1.00  0.00    -0.243 A  
HETATM   23  C   UNL     1     -11.157   6.661  66.932  1.00  0.00    -0.319 C  
HETATM   24  C   UNL     1     -10.652   7.109  69.367  1.00  0.00    -0.233 A  
HETATM   25  C   UNL     1      -9.904   7.692  70.411  1.00  0.00    -0.183 A  
HETATM   26  O   UNL     1     -11.689   6.289  69.731  1.00  0.00    -0.495 OA 
HETATM   27  C   UNL     1     -10.264   7.410  71.847  1.00  0.00    -0.213 C  
HETATM   28  C   UNL     1      -8.810   8.528  70.088  1.00  0.00    -0.138 A  
HETATM   29  H   UNL     1     -11.890   6.134  70.647  1.00  0.00     0.000 HD 
HETATM   30  C   UNL     1      -8.501   8.759  68.729  1.00  0.00    -0.129 A  
HETATM   31  C   UNL     1      -7.945   9.167  71.145  1.00  0.00    -0.122 C  
HETATM   32  O   UNL     1      -7.376   9.523  68.477  1.00  0.00    -0.077 OA 
ENDBRANCH  16  17
ENDBRANCH  15  16
ENDBRANCH  13  15
ENDBRANCH  10  11
ENDBRANCH   9  10
ENDBRANCH   5   6
ENDBRANCH   4   5
TORSDOF 7
ENDMDL
MODEL      208
REMARK 921   NORMALIZED FREE ENERGY PREDICTED BY IDOCK:   -4.26 KCAL/MOL
REMARK 922        TOTAL FREE ENERGY PREDICTED BY IDOCK:   -7.76 KCAL/MOL
REMARK 923 INTER-LIGAND FREE ENERGY PREDICTED BY IDOCK:   -6.21 KCAL/MOL
REMARK 924 INTRA-LIGAND FREE ENERGY PREDICTED BY IDOCK:   -1.56 KCAL/MOL
REMARK 927      BINDING AFFINITY PREDICTED BY RF-SCORE:    0.00 PKD
ROOT
HETATM    1  C   UNL     1      -5.849  14.662  68.503  1.00  0.00    -0.098 C  
HETATM    2  C   UNL     1      -6.903  13.654  68.051  1.00  0.00    -0.138 C  
HETATM    3  C   UNL     1      -8.039  14.383  67.327  1.00  0.00    -0.209 C  
HETATM    4  C   UNL     1      -6.243  12.564  67.183  1.00  0.00    -0.042 C  
ENDROOT
BRANCH   4   5
HETATM    5  C   UNL     1      -7.252  11.521  66.711  1.00  0.00    -0.111 C  
BRANCH   5   6
HETATM    6  C   UNL     1      -6.683  10.581  65.651  1.00  0.00    -0.110 C  
HETATM    7  C   UNL     1      -7.415   9.223  65.637  1.00  0.00    -0.094 C  
HETATM    8  C   UNL     1      -8.915   9.382  65.347  1.00  0.00    -0.251 C  
HETATM    9  C   UNL     1      -6.736   8.286  64.621  1.00  0.00    -0.068 C  
BRANCH   9  10
HETATM   10  C   UNL     1      -7.420   6.922  64.565  1.00  0.00    -0.099 C  
BRANCH  10  11
HETATM   11  C   UNL     1      -7.596   6.307  65.945  1.00  0.00    -0.084 C  
HETATM   12  C   UNL     1      -9.008   5.714  66.128  1.00  0.00    -0.153 C  
HETATM   13  C   UNL     1      -9.214   5.206  67.563  1.00  0.00    -0.124 C  
HETATM   14  C   UNL     1      -9.289   4.566  65.151  1.00  0.00    -0.160 C  
BRANCH  13  15
HETATM   15  C   UNL     1      -9.007   6.253  68.657  1.00  0.00    -0.127 C  
BRANCH  15  16
HETATM   16  C   UNL     1      -9.280   5.751  70.087  1.00  0.00    -0.173 C  
BRANCH  16  17
HETATM   17  C   UNL     1     -10.149   6.723  70.934  1.00  0.00    -0.190 C  
HETATM   18  C   UNL     1      -9.411   7.033  72.254  1.00  0.00    -0.154 C  
HETATM   19  C   UNL     1     -11.540   6.113  71.109  1.00  0.00    -0.269 C  
HETATM   20  C   UNL     1     -12.421   7.027  71.926  1.00  0.00    -0.346 C  
HETATM   21  C   UNL     1     -12.264   8.470  71.532  1.00  0.00    -0.355 A  
HETATM   22  C   UNL     1     -13.123   9.445  72.072  1.00  0.00    -0.516 A  
HETATM   23  C   UNL     1     -14.184   9.081  73.079  1.00  0.00     0.262 C  
HETATM   24  C   UNL     1     -12.963  10.780  71.662  1.00  0.00    -0.476 A  
HETATM   25  C   UNL     1     -11.958  11.171  70.753  1.00  0.00    -0.415 A  
HETATM   26  O   UNL     1     -13.781  11.768  72.145  1.00  0.00    -0.390 OA 
HETATM   27  C   UNL     1     -11.828  12.617  70.348  1.00  0.00    -0.238 C  
HETATM   28  C   UNL     1     -11.074  10.193  70.243  1.00  0.00    -0.384 A  
HETATM   29  H   UNL     1     -13.672  12.671  71.868  1.00  0.00     0.000 HD 
HETATM   30  C   UNL     1     -11.225   8.851  70.656  1.00  0.00    -0.266 A  
HETATM   31  C   UNL     1      -9.958  10.535  69.288  1.00  0.00    -0.233 C  
HETATM   32  O   UNL     1     -10.284   7.954  70.182  1.00  0.00    -0.196 OA 
ENDBRANCH  16  17
ENDBRANCH  15  16
ENDBRANCH  13  15
ENDBRANCH  10  11
ENDBRANCH   9  10
ENDBRANCH   5   6
ENDBRANCH   4   5
TORSDOF 7
ENDMDL
MODEL      209
REMARK 921   NORMALIZED FREE ENERGY PREDICTED BY IDOCK:   -4.26 KCAL/MOL
REMARK 922        TOTAL FREE ENERGY PREDICTED BY IDOCK:   -7.76 KCAL/MOL
REMARK 923 INTER-LIGAND FREE ENERGY PREDICTED BY IDOCK:   -7.51 KCAL/MOL
REMARK 924 INTRA-LIGAND FREE ENERGY PREDICTED BY IDOCK:   -0.25 KCAL/MOL
REMARK 927      BINDING AFFINITY PREDICTED BY RF-SCORE:    0.00 PKD
ROOT
HETATM    1  C   UNL     1     -10.254  19.908  66.524  1.00  0.00    -0.611 C  
HETATM    2  C   UNL     1      -9.872  18.915  67.620  1.00  0.00    -0.383 C  
HETATM    3  C   UNL     1     -10.145  19.531  68.995  1.00  0.00    -0.444 C  
HETATM    4  C   UNL     1     -10.621  17.585  67.401  1.00  0.00    -0.311 C  
ENDROOT
BRANCH   4   5
HETATM    5  C   UNL     1     -10.268  16.549  68.464  1.00  0.00    -0.266 C  
BRANCH   5   6
HETATM    6  C   UNL     1      -8.811  16.629  68.910  1.00  0.00    -0.238 C  
HETATM    7  C   UNL     1      -7.976  15.458  68.349  1.00  0.00    -0.131 C  
HETATM    8  C   UNL     1      -7.981  15.432  66.814  1.00  0.00    -0.165 C  
HETATM    9  C   UNL     1      -6.543  15.537  68.910  1.00  0.00    -0.113 C  
BRANCH   9  10
HETATM   10  C   UNL     1      -5.669  14.399  68.389  1.00  0.00    -0.106 C  
BRANCH  10  11
HETATM   11  C   UNL     1      -6.471  13.139  68.103  1.00  0.00    -0.105 C  
HETATM   12  C   UNL     1      -5.790  11.885  68.690  1.00  0.00    -0.049 C  
HETATM   13  C   UNL     1      -6.543  10.607  68.292  1.00  0.00    -0.062 C  
HETATM   14  C   UNL     1      -5.683  11.941  70.219  1.00  0.00    -0.157 C  
BRANCH  13  15
HETATM   15  C   UNL     1      -6.698  10.388  66.787  1.00  0.00    -0.086 C  
BRANCH  15  16
HETATM   16  C   UNL     1      -8.039   9.760  66.363  1.00  0.00    -0.116 C  
BRANCH  16  17
HETATM   17  C   UNL     1      -9.279  10.463  66.984  1.00  0.00    -0.147 C  
HETATM   18  C   UNL     1     -10.506  10.196  66.085  1.00  0.00    -0.173 C  
HETATM   19  C   UNL     1      -8.953  11.941  67.195  1.00  0.00    -0.178 C  
HETATM   20  C   UNL     1     -10.133  12.663  67.800  1.00  0.00    -0.220 C  
HETATM   21  C   UNL     1     -10.792  11.863  68.890  1.00  0.00    -0.261 A  
HETATM   22  C   UNL     1     -11.806  12.444  69.675  1.00  0.00    -0.380 A  
HETATM   23  C   UNL     1     -12.280  13.853  69.423  1.00  0.00    -0.338 C  
HETATM   24  C   UNL     1     -12.382  11.674  70.700  1.00  0.00    -0.344 A  
HETATM   25  C   UNL     1     -11.997  10.340  70.945  1.00  0.00    -0.473 A  
HETATM   26  O   UNL     1     -13.362  12.194  71.505  1.00  0.00    -0.262 OA 
HETATM   27  C   UNL     1     -12.649   9.558  72.056  1.00  0.00    -0.456 C  
HETATM   28  C   UNL     1     -11.005   9.750  70.128  1.00  0.00    -0.339 A  
HETATM   29  H   UNL     1     -13.752  11.674  72.198  1.00  0.00     0.000 HD 
HETATM   30  C   UNL     1     -10.427  10.515  69.092  1.00  0.00    -0.228 A  
HETATM   31  C   UNL     1     -10.558   8.321  70.309  1.00  0.00    -0.230 C  
HETATM   32  O   UNL     1      -9.519   9.860  68.279  1.00  0.00    -0.138 OA 
ENDBRANCH  16  17
ENDBRANCH  15  16
ENDBRANCH  13  15
ENDBRANCH  10  11
ENDBRANCH   9  10
ENDBRANCH   5   6
ENDBRANCH   4   5
TORSDOF 7
ENDMDL
MODEL      210
REMARK 921   NORMALIZED FREE ENERGY PREDICTED BY IDOCK:   -4.25 KCAL/MOL
REMARK 922        TOTAL FREE ENERGY PREDICTED BY IDOCK:   -7.74 KCAL/MOL
REMARK 923 INTER-LIGAND FREE ENERGY PREDICTED BY IDOCK:   -7.32 KCAL/MOL
REMARK 924 INTRA-LIGAND FREE ENERGY PREDICTED BY IDOCK:   -0.42 KCAL/MOL
REMARK 927      BINDING AFFINITY PREDICTED BY RF-SCORE:    0.00 PKD
ROOT
HETATM    1  C   UNL     1     -12.495  12.433  63.636  1.00  0.00    -0.610 C  
HETATM    2  C   UNL     1     -10.983  12.551  63.455  1.00  0.00    -0.472 C  
HETATM    3  C   UNL     1     -10.371  13.262  64.666  1.00  0.00    -0.394 C  
HETATM    4  C   UNL     1     -10.377  11.154  63.212  1.00  0.00    -0.368 C  
ENDROOT
BRANCH   4   5
HETATM    5  C   UNL     1      -8.865  11.215  63.014  1.00  0.00    -0.171 C  
BRANCH   5   6
HETATM    6  C   UNL     1      -8.131  10.064  63.697  1.00  0.00    -0.157 C  
HETATM    7  C   UNL     1      -8.485   9.969  65.196  1.00  0.00    -0.160 C  
HETATM    8  C   UNL     1      -9.988   9.745  65.418  1.00  0.00    -0.302 C  
HETATM    9  C   UNL     1      -7.643   8.857  65.851  1.00  0.00    -0.093 C  
BRANCH   9  10
HETATM   10  C   UNL     1      -7.952   8.718  67.340  1.00  0.00    -0.098 C  
BRANCH  10  11
HETATM   11  C   UNL     1      -7.827  10.039  68.082  1.00  0.00    -0.089 C  
HETATM   12  C   UNL     1      -9.208  10.629  68.433  1.00  0.00    -0.159 C  
HETATM   13  C   UNL     1      -9.072  12.019  69.072  1.00  0.00     0.334 C  
HETATM   14  C   UNL     1     -10.006   9.724  69.379  1.00  0.00    -0.217 C  
BRANCH  13  15
HETATM   15  C   UNL     1      -8.330  13.052  68.225  1.00  0.00    -0.158 C  
BRANCH  15  16
HETATM   16  C   UNL     1      -7.124  13.708  68.923  1.00  0.00    -0.102 C  
BRANCH  16  17
HETATM   17  C   UNL     1      -6.926  15.204  68.549  1.00  0.00    -0.105 C  
HETATM   18  C   UNL     1      -5.928  15.298  67.374  1.00  0.00     0.075 C  
HETATM   19  C   UNL     1      -6.509  15.974  69.803  1.00  0.00    -0.164 C  
HETATM   20  C   UNL     1      -6.307  17.436  69.485  1.00  0.00    -0.233 C  
HETATM   21  C   UNL     1      -7.381  17.975  68.580  1.00  0.00    -0.276 A  
HETATM   22  C   UNL     1      -7.447  19.354  68.309  1.00  0.00    -0.341 A  
HETATM   23  C   UNL     1      -6.431  20.313  68.879  1.00  0.00    -0.326 C  
HETATM   24  C   UNL     1      -8.478  19.825  67.478  1.00  0.00    -0.322 A  
HETATM   25  C   UNL     1      -9.425  18.960  66.892  1.00  0.00    -0.345 A  
HETATM   26  O   UNL     1      -8.599  21.161  67.193  1.00  0.00    -0.543 OA 
HETATM   27  C   UNL     1     -10.510  19.517  66.006  1.00  0.00    -0.611 C  
HETATM   28  C   UNL     1      -9.330  17.571  67.137  1.00  0.00    -0.250 A  
HETATM   29  H   UNL     1      -9.296  21.478  66.631  1.00  0.00     0.000 HD 
HETATM   30  C   UNL     1      -8.292  17.090  67.965  1.00  0.00    -0.211 A  
HETATM   31  C   UNL     1     -10.288  16.578  66.526  1.00  0.00    -0.307 C  
HETATM   32  O   UNL     1      -8.207  15.716  68.106  1.00  0.00    -0.141 OA 
ENDBRANCH  16  17
ENDBRANCH  15  16
ENDBRANCH  13  15
ENDBRANCH  10  11
ENDBRANCH   9  10
ENDBRANCH   5   6
ENDBRANCH   4   5
TORSDOF 7
ENDMDL
MODEL      211
REMARK 921   NORMALIZED FREE ENERGY PREDICTED BY IDOCK:   -4.24 KCAL/MOL
REMARK 922        TOTAL FREE ENERGY PREDICTED BY IDOCK:   -7.73 KCAL/MOL
REMARK 923 INTER-LIGAND FREE ENERGY PREDICTED BY IDOCK:   -6.08 KCAL/MOL
REMARK 924 INTRA-LIGAND FREE ENERGY PREDICTED BY IDOCK:   -1.65 KCAL/MOL
REMARK 927      BINDING AFFINITY PREDICTED BY RF-SCORE:    0.00 PKD
ROOT
HETATM    1  C   UNL     1      -7.905   6.363  63.068  1.00  0.00    -0.099 C  
HETATM    2  C   UNL     1      -8.096   4.878  63.370  1.00  0.00    -0.100 C  
HETATM    3  C   UNL     1      -6.956   4.071  62.739  1.00  0.00    -0.036 C  
HETATM    4  C   UNL     1      -8.207   4.666  64.893  1.00  0.00    -0.113 C  
ENDROOT
BRANCH   4   5
HETATM    5  C   UNL     1      -8.409   3.197  65.252  1.00  0.00    -0.096 C  
BRANCH   5   6
HETATM    6  C   UNL     1      -7.482   2.726  66.369  1.00  0.00    -0.071 C  
HETATM    7  C   UNL     1      -8.157   2.821  67.753  1.00  0.00    -0.075 C  
HETATM    8  C   UNL     1      -9.432   1.967  67.830  1.00  0.00    -0.134 C  
HETATM    9  C   UNL     1      -7.145   2.427  68.845  1.00  0.00    -0.044 C  
BRANCH   9  10
HETATM   10  C   UNL     1      -7.760   2.504  70.241  1.00  0.00    -0.044 C  
BRANCH  10  11
HETATM   11  C   UNL     1      -8.132   3.926  70.630  1.00  0.00    -0.058 C  
HETATM   12  C   UNL     1      -9.645   4.067  70.896  1.00  0.00    -0.253 C  
HETATM   13  C   UNL     1     -10.027   5.529  71.168  1.00  0.00    -0.253 C  
HETATM   14  C   UNL     1     -10.114   3.204  72.073  1.00  0.00    -0.178 C  
BRANCH  13  15
HETATM   15  C   UNL     1      -9.658   6.513  70.058  1.00  0.00    -0.169 C  
BRANCH  15  16
HETATM   16  C   UNL     1      -8.809   7.713  70.519  1.00  0.00    -0.149 C  
BRANCH  16  17
HETATM   17  C   UNL     1      -9.233   9.061  69.872  1.00  0.00    -0.173 C  
HETATM   18  C   UNL     1      -8.067  10.066  70.001  1.00  0.00    -0.154 C  
HETATM   19  C   UNL     1     -10.544   9.522  70.509  1.00  0.00    -0.358 C  
HETATM   20  C   UNL     1     -10.996  10.831  69.907  1.00  0.00    -0.304 C  
HETATM   21  C   UNL     1     -10.820  10.861  68.413  1.00  0.00    -0.266 A  
HETATM   22  C   UNL     1     -11.335  11.936  67.665  1.00  0.00    -0.372 A  
HETATM   23  C   UNL     1     -12.033  13.092  68.336  1.00  0.00    -0.309 C  
HETATM   24  C   UNL     1     -11.173  11.918  66.269  1.00  0.00    -0.337 A  
HETATM   25  C   UNL     1     -10.492  10.878  65.605  1.00  0.00    -0.274 A  
HETATM   26  O   UNL     1     -11.668  12.932  65.490  1.00  0.00    -0.343 OA 
HETATM   27  C   UNL     1     -10.344  10.909  64.105  1.00  0.00    -0.432 C  
HETATM   28  C   UNL     1      -9.943   9.820  66.366  1.00  0.00    -0.314 A  
HETATM   29  H   UNL     1     -11.559  12.919  64.546  1.00  0.00     0.000 HD 
HETATM   30  C   UNL     1     -10.096   9.835  67.770  1.00  0.00    -0.180 A  
HETATM   31  C   UNL     1      -9.178   8.684  65.733  1.00  0.00    -0.245 C  
HETATM   32  O   UNL     1      -9.473   8.814  68.465  1.00  0.00    -0.144 OA 
ENDBRANCH  16  17
ENDBRANCH  15  16
ENDBRANCH  13  15
ENDBRANCH  10  11
ENDBRANCH   9  10
ENDBRANCH   5   6
ENDBRANCH   4   5
TORSDOF 7
ENDMDL
MODEL      212
REMARK 921   NORMALIZED FREE ENERGY PREDICTED BY IDOCK:   -4.23 KCAL/MOL
REMARK 922        TOTAL FREE ENERGY PREDICTED BY IDOCK:   -7.72 KCAL/MOL
REMARK 923 INTER-LIGAND FREE ENERGY PREDICTED BY IDOCK:   -7.83 KCAL/MOL
REMARK 924 INTRA-LIGAND FREE ENERGY PREDICTED BY IDOCK:    0.11 KCAL/MOL
REMARK 927      BINDING AFFINITY PREDICTED BY RF-SCORE:    0.00 PKD
ROOT
HETATM    1  C   UNL     1      -6.401   2.089  68.105  1.00  0.00    -0.028 C  
HETATM    2  C   UNL     1      -6.870   1.786  69.527  1.00  0.00    -0.033 C  
HETATM    3  C   UNL     1      -5.925   2.445  70.535  1.00  0.00    -0.018 C  
HETATM    4  C   UNL     1      -8.336   2.234  69.699  1.00  0.00    -0.075 C  
ENDROOT
BRANCH   4   5
HETATM    5  C   UNL     1      -8.860   1.944  71.102  1.00  0.00    -0.117 C  
BRANCH   5   6
HETATM    6  C   UNL     1      -9.932   2.933  71.551  1.00  0.00    -0.116 C  
HETATM    7  C   UNL     1      -9.321   4.149  72.279  1.00  0.00    -0.171 C  
HETATM    8  C   UNL     1      -8.337   4.918  71.386  1.00  0.00    -0.116 C  
HETATM    9  C   UNL     1     -10.452   5.059  72.793  1.00  0.00    -0.261 C  
BRANCH   9  10
HETATM   10  C   UNL     1      -9.904   6.282  73.526  1.00  0.00    -0.188 C  
BRANCH  10  11
HETATM   11  C   UNL     1     -10.590   7.569  73.095  1.00  0.00    -0.442 C  
HETATM   12  C   UNL     1     -11.388   7.380  71.789  1.00  0.00    -0.287 C  
HETATM   13  C   UNL     1     -11.975   8.712  71.299  1.00  0.00    -0.339 C  
HETATM   14  C   UNL     1     -12.527   6.364  71.943  1.00  0.00    -0.219 C  
BRANCH  13  15
HETATM   15  C   UNL     1     -10.951   9.822  71.059  1.00  0.00    -0.402 C  
BRANCH  15  16
HETATM   16  C   UNL     1     -10.089   9.639  69.796  1.00  0.00    -0.258 C  
BRANCH  16  17
HETATM   17  C   UNL     1     -10.322  10.734  68.718  1.00  0.00    -0.192 C  
HETATM   18  C   UNL     1      -9.224  11.812  68.856  1.00  0.00     0.089 C  
HETATM   19  C   UNL     1     -11.751  11.260  68.851  1.00  0.00    -0.409 C  
HETATM   20  C   UNL     1     -12.022  12.328  67.819  1.00  0.00    -0.229 C  
HETATM   21  C   UNL     1     -11.462  11.970  66.469  1.00  0.00    -0.413 A  
HETATM   22  C   UNL     1     -11.758  12.770  65.350  1.00  0.00    -0.425 A  
HETATM   23  C   UNL     1     -12.601  14.014  65.478  1.00  0.00    -0.543 C  
HETATM   24  C   UNL     1     -11.238  12.391  64.100  1.00  0.00    -0.376 A  
HETATM   25  C   UNL     1     -10.413  11.259  63.942  1.00  0.00    -0.452 A  
HETATM   26  O   UNL     1     -11.506  13.125  62.974  1.00  0.00    -0.669 OA 
HETATM   27  C   UNL     1      -9.879  10.898  62.579  1.00  0.00    -0.084 C  
HETATM   28  C   UNL     1     -10.088  10.481  65.077  1.00  0.00    -0.390 A  
HETATM   29  H   UNL     1     -11.154  12.869  62.129  1.00  0.00     0.000 HD 
HETATM   30  C   UNL     1     -10.601  10.860  66.337  1.00  0.00    -0.229 A  
HETATM   31  C   UNL     1      -9.191   9.271  64.995  1.00  0.00    -0.242 C  
HETATM   32  O   UNL     1     -10.188  10.105  67.420  1.00  0.00    -0.193 OA 
ENDBRANCH  16  17
ENDBRANCH  15  16
ENDBRANCH  13  15
ENDBRANCH  10  11
ENDBRANCH   9  10
ENDBRANCH   5   6
ENDBRANCH   4   5
TORSDOF 7
ENDMDL
MODEL      213
REMARK 921   NORMALIZED FREE ENERGY PREDICTED BY IDOCK:   -4.22 KCAL/MOL
REMARK 922        TOTAL FREE ENERGY PREDICTED BY IDOCK:   -7.71 KCAL/MOL
REMARK 923 INTER-LIGAND FREE ENERGY PREDICTED BY IDOCK:   -6.41 KCAL/MOL
REMARK 924 INTRA-LIGAND FREE ENERGY PREDICTED BY IDOCK:   -1.30 KCAL/MOL
REMARK 927      BINDING AFFINITY PREDICTED BY RF-SCORE:    0.00 PKD
ROOT
HETATM    1  C   UNL     1      -9.085   7.511  73.458  1.00  0.00    -0.286 C  
HETATM    2  C   UNL     1      -9.466   6.885  72.118  1.00  0.00    -0.148 C  
HETATM    3  C   UNL     1     -10.607   5.883  72.320  1.00  0.00    -0.260 C  
HETATM    4  C   UNL     1      -9.815   7.994  71.105  1.00  0.00    -0.198 C  
ENDROOT
BRANCH   4   5
HETATM    5  C   UNL     1     -10.194   7.423  69.742  1.00  0.00    -0.210 C  
BRANCH   5   6
HETATM    6  C   UNL     1      -9.033   6.710  69.053  1.00  0.00    -0.130 C  
HETATM    7  C   UNL     1      -8.314   7.630  68.044  1.00  0.00    -0.124 C  
HETATM    8  C   UNL     1      -7.742   8.886  68.718  1.00  0.00    -0.096 C  
HETATM    9  C   UNL     1      -7.220   6.830  67.313  1.00  0.00    -0.085 C  
BRANCH   9  10
HETATM   10  C   UNL     1      -6.473   7.692  66.297  1.00  0.00    -0.049 C  
BRANCH  10  11
HETATM   11  C   UNL     1      -7.413   8.363  65.308  1.00  0.00    -0.086 C  
HETATM   12  C   UNL     1      -7.315   9.901  65.383  1.00  0.00    -0.128 C  
HETATM   13  C   UNL     1      -8.354  10.569  64.469  1.00  0.00    -0.108 C  
HETATM   14  C   UNL     1      -5.920  10.416  65.008  1.00  0.00    -0.128 C  
BRANCH  13  15
HETATM   15  C   UNL     1      -9.806  10.183  64.748  1.00  0.00    -0.382 C  
BRANCH  15  16
HETATM   16  C   UNL     1     -10.328  10.605  66.134  1.00  0.00    -0.291 C  
BRANCH  16  17
HETATM   17  C   UNL     1     -10.459  12.144  66.309  1.00  0.00    -0.239 C  
HETATM   18  C   UNL     1     -11.550  12.437  67.362  1.00  0.00    -0.433 C  
HETATM   19  C   UNL     1     -10.710  12.775  64.939  1.00  0.00    -0.329 C  
HETATM   20  C   UNL     1     -10.841  14.274  65.062  1.00  0.00    -0.414 C  
HETATM   21  C   UNL     1      -9.820  14.861  65.998  1.00  0.00    -0.345 A  
HETATM   22  C   UNL     1      -9.687  16.257  66.111  1.00  0.00    -0.357 A  
HETATM   23  C   UNL     1     -10.581  17.193  65.337  1.00  0.00    -0.116 C  
HETATM   24  C   UNL     1      -8.706  16.769  66.977  1.00  0.00    -0.204 A  
HETATM   25  C   UNL     1      -7.876  15.932  67.750  1.00  0.00    -0.153 A  
HETATM   26  O   UNL     1      -8.523  18.121  67.114  1.00  0.00    -0.234 OA 
HETATM   27  C   UNL     1      -6.840  16.532  68.666  1.00  0.00    -0.160 C  
HETATM   28  C   UNL     1      -8.040  14.530  67.661  1.00  0.00    -0.190 A  
HETATM   29  H   UNL     1      -7.859  18.466  67.700  1.00  0.00     0.000 HD 
HETATM   30  C   UNL     1      -9.028  14.009  66.798  1.00  0.00    -0.197 A  
HETATM   31  C   UNL     1      -7.209  13.568  68.475  1.00  0.00    -0.110 C  
HETATM   32  O   UNL     1      -9.192  12.635  66.811  1.00  0.00    -0.217 OA 
ENDBRANCH  16  17
ENDBRANCH  15  16
ENDBRANCH  13  15
ENDBRANCH  10  11
ENDBRANCH   9  10
ENDBRANCH   5   6
ENDBRANCH   4   5
TORSDOF 7
ENDMDL
MODEL      214
REMARK 921   NORMALIZED FREE ENERGY PREDICTED BY IDOCK:   -4.21 KCAL/MOL
REMARK 922        TOTAL FREE ENERGY PREDICTED BY IDOCK:   -7.69 KCAL/MOL
REMARK 923 INTER-LIGAND FREE ENERGY PREDICTED BY IDOCK:   -6.62 KCAL/MOL
REMARK 924 INTRA-LIGAND FREE ENERGY PREDICTED BY IDOCK:   -1.06 KCAL/MOL
REMARK 927      BINDING AFFINITY PREDICTED BY RF-SCORE:    0.00 PKD
ROOT
HETATM    1  C   UNL     1      -8.244   8.610  62.568  1.00  0.00    -0.194 C  
HETATM    2  C   UNL     1      -7.898   8.942  64.018  1.00  0.00    -0.137 C  
HETATM    3  C   UNL     1      -9.141   9.476  64.737  1.00  0.00    -0.271 C  
HETATM    4  C   UNL     1      -7.296   7.701  64.707  1.00  0.00    -0.076 C  
ENDROOT
BRANCH   4   5
HETATM    5  C   UNL     1      -6.922   7.979  66.160  1.00  0.00    -0.058 C  
BRANCH   5   6
HETATM    6  C   UNL     1      -7.901   7.359  67.154  1.00  0.00    -0.117 C  
HETATM    7  C   UNL     1      -7.550   7.730  68.610  1.00  0.00    -0.105 C  
HETATM    8  C   UNL     1      -7.570   9.249  68.837  1.00  0.00    -0.075 C  
HETATM    9  C   UNL     1      -8.508   7.000  69.570  1.00  0.00    -0.134 C  
BRANCH   9  10
HETATM   10  C   UNL     1      -8.206   7.329  71.030  1.00  0.00    -0.107 C  
BRANCH  10  11
HETATM   11  C   UNL     1      -9.459   7.687  71.813  1.00  0.00    -0.178 C  
HETATM   12  C   UNL     1     -10.707   6.980  71.245  1.00  0.00    -0.243 C  
HETATM   13  C   UNL     1     -11.983   7.443  71.965  1.00  0.00    -0.333 C  
HETATM   14  C   UNL     1     -10.608   5.453  71.344  1.00  0.00    -0.282 C  
BRANCH  13  15
HETATM   15  C   UNL     1     -12.243   8.948  71.920  1.00  0.00    -0.445 C  
BRANCH  15  16
HETATM   16  C   UNL     1     -11.123   9.775  71.260  1.00  0.00    -0.375 C  
BRANCH  16  17
HETATM   17  C   UNL     1     -11.565  10.491  69.954  1.00  0.00    -0.307 C  
HETATM   18  C   UNL     1     -13.107  10.472  69.870  1.00  0.00     0.348 C  
HETATM   19  C   UNL     1     -10.854   9.837  68.769  1.00  0.00    -0.219 C  
HETATM   20  C   UNL     1     -11.253  10.506  67.476  1.00  0.00    -0.299 C  
HETATM   21  C   UNL     1     -11.306  12.004  67.602  1.00  0.00    -0.375 A  
HETATM   22  C   UNL     1     -11.502  12.801  66.459  1.00  0.00    -0.409 A  
HETATM   23  C   UNL     1     -11.702  12.181  65.098  1.00  0.00    -0.366 C  
HETATM   24  C   UNL     1     -11.522  14.198  66.612  1.00  0.00    -0.366 A  
HETATM   25  C   UNL     1     -11.380  14.818  67.870  1.00  0.00    -0.331 A  
HETATM   26  O   UNL     1     -11.694  15.023  65.530  1.00  0.00    -0.275 OA 
HETATM   27  C   UNL     1     -11.410  16.321  67.979  1.00  0.00    -0.205 C  
HETATM   28  C   UNL     1     -11.222  14.010  69.020  1.00  0.00    -0.311 A  
HETATM   29  H   UNL     1     -11.707  15.967  65.634  1.00  0.00     0.000 HD 
HETATM   30  C   UNL     1     -11.208  12.606  68.875  1.00  0.00    -0.280 A  
HETATM   31  C   UNL     1     -11.089  14.597  70.404  1.00  0.00    -0.106 C  
HETATM   32  O   UNL     1     -11.126  11.869  70.043  1.00  0.00     0.007 OA 
ENDBRANCH  16  17
ENDBRANCH  15  16
ENDBRANCH  13  15
ENDBRANCH  10  11
ENDBRANCH   9  10
ENDBRANCH   5   6
ENDBRANCH   4   5
TORSDOF 7
ENDMDL
MODEL      215
REMARK 921   NORMALIZED FREE ENERGY PREDICTED BY IDOCK:   -4.20 KCAL/MOL
REMARK 922        TOTAL FREE ENERGY PREDICTED BY IDOCK:   -7.67 KCAL/MOL
REMARK 923 INTER-LIGAND FREE ENERGY PREDICTED BY IDOCK:   -6.38 KCAL/MOL
REMARK 924 INTRA-LIGAND FREE ENERGY PREDICTED BY IDOCK:   -1.29 KCAL/MOL
REMARK 927      BINDING AFFINITY PREDICTED BY RF-SCORE:    0.00 PKD
ROOT
HETATM    1  C   UNL     1     -13.344  15.257  72.435  1.00  0.00    -0.534 C  
HETATM    2  C   UNL     1     -12.317  14.428  71.666  1.00  0.00    -0.415 C  
HETATM    3  C   UNL     1     -13.005  13.224  71.017  1.00  0.00    -0.233 C  
HETATM    4  C   UNL     1     -11.585  15.321  70.645  1.00  0.00    -0.355 C  
ENDROOT
BRANCH   4   5
HETATM    5  C   UNL     1     -10.537  14.544  69.853  1.00  0.00     0.057 C  
BRANCH   5   6
HETATM    6  C   UNL     1     -10.072  15.281  68.600  1.00  0.00    -0.222 C  
HETATM    7  C   UNL     1     -10.799  14.776  67.336  1.00  0.00    -0.300 C  
HETATM    8  C   UNL     1     -12.320  14.961  67.435  1.00  0.00     0.323 C  
HETATM    9  C   UNL     1     -10.220  15.484  66.096  1.00  0.00    -0.322 C  
BRANCH   9  10
HETATM   10  C   UNL     1     -10.903  15.021  64.811  1.00  0.00    -0.375 C  
BRANCH  10  11
HETATM   11  C   UNL     1     -10.343  13.702  64.303  1.00  0.00    -0.068 C  
HETATM   12  C   UNL     1     -11.182  12.502  64.789  1.00  0.00    -0.344 C  
HETATM   13  C   UNL     1     -10.539  11.170  64.372  1.00  0.00    -0.411 C  
HETATM   14  C   UNL     1     -12.621  12.544  64.261  1.00  0.00    -0.485 C  
BRANCH  13  15
HETATM   15  C   UNL     1      -9.106  10.961  64.861  1.00  0.00    -0.201 C  
BRANCH  15  16
HETATM   16  C   UNL     1      -8.976  10.683  66.370  1.00  0.00    -0.176 C  
BRANCH  16  17
HETATM   17  C   UNL     1      -8.602   9.212  66.703  1.00  0.00    -0.127 C  
HETATM   18  C   UNL     1      -7.144   9.169  67.210  1.00  0.00    -0.079 C  
HETATM   19  C   UNL     1      -8.875   8.344  65.474  1.00  0.00    -0.172 C  
HETATM   20  C   UNL     1      -8.527   6.902  65.755  1.00  0.00    -0.150 C  
HETATM   21  C   UNL     1      -8.984   6.461  67.118  1.00  0.00    -0.109 A  
HETATM   22  C   UNL     1      -8.890   5.106  67.488  1.00  0.00    -0.105 A  
HETATM   23  C   UNL     1      -8.298   4.080  66.556  1.00  0.00    -0.104 C  
HETATM   24  C   UNL     1      -9.350   4.727  68.761  1.00  0.00    -0.134 A  
HETATM   25  C   UNL     1      -9.873   5.659  69.680  1.00  0.00    -0.243 A  
HETATM   26  O   UNL     1      -9.296   3.419  69.168  1.00  0.00    -0.149 OA 
HETATM   27  C   UNL     1     -10.350   5.200  71.034  1.00  0.00    -0.278 C  
HETATM   28  C   UNL     1      -9.929   7.025  69.316  1.00  0.00    -0.163 A  
HETATM   29  H   UNL     1      -9.607   3.163  70.029  1.00  0.00     0.000 HD 
HETATM   30  C   UNL     1      -9.463   7.415  68.042  1.00  0.00    -0.141 A  
HETATM   31  C   UNL     1     -10.451   8.087  70.252  1.00  0.00    -0.222 C  
HETATM   32  O   UNL     1      -9.473   8.771  67.773  1.00  0.00    -0.139 OA 
ENDBRANCH  16  17
ENDBRANCH  15  16
ENDBRANCH  13  15
ENDBRANCH  10  11
ENDBRANCH   9  10
ENDBRANCH   5   6
ENDBRANCH   4   5
TORSDOF 7
ENDMDL
MODEL      216
REMARK 921   NORMALIZED FREE ENERGY PREDICTED BY IDOCK:   -4.19 KCAL/MOL
REMARK 922        TOTAL FREE ENERGY PREDICTED BY IDOCK:   -7.67 KCAL/MOL
REMARK 923 INTER-LIGAND FREE ENERGY PREDICTED BY IDOCK:   -7.20 KCAL/MOL
REMARK 924 INTRA-LIGAND FREE ENERGY PREDICTED BY IDOCK:   -0.47 KCAL/MOL
REMARK 927      BINDING AFFINITY PREDICTED BY RF-SCORE:    0.00 PKD
ROOT
HETATM    1  C   UNL     1     -12.095  12.506  64.061  1.00  0.00    -0.557 C  
HETATM    2  C   UNL     1     -11.339  13.822  64.232  1.00  0.00    -0.344 C  
HETATM    3  C   UNL     1     -12.335  14.982  64.325  1.00  0.00    -0.247 C  
HETATM    4  C   UNL     1     -10.408  13.733  65.458  1.00  0.00    -0.333 C  
ENDROOT
BRANCH   4   5
HETATM    5  C   UNL     1      -9.618  15.021  65.670  1.00  0.00    -0.279 C  
BRANCH   5   6
HETATM    6  C   UNL     1     -10.264  15.951  66.693  1.00  0.00    -0.293 C  
HETATM    7  C   UNL     1     -10.847  15.171  67.889  1.00  0.00    -0.291 C  
HETATM    8  C   UNL     1      -9.770  14.361  68.627  1.00  0.00    -0.216 C  
HETATM    9  C   UNL     1     -11.568  16.149  68.836  1.00  0.00    -0.298 C  
BRANCH   9  10
HETATM   10  C   UNL     1     -12.168  15.430  70.042  1.00  0.00    -0.392 C  
BRANCH  10  11
HETATM   11  C   UNL     1     -12.316  13.935  69.808  1.00  0.00    -0.330 C  
HETATM   12  C   UNL     1     -12.286  13.145  71.132  1.00  0.00    -0.295 C  
HETATM   13  C   UNL     1     -12.313  11.631  70.877  1.00  0.00    -0.436 C  
HETATM   14  C   UNL     1     -13.453  13.512  72.057  1.00  0.00    -0.584 C  
BRANCH  13  15
HETATM   15  C   UNL     1     -11.181  11.102  69.997  1.00  0.00    -0.261 C  
BRANCH  15  16
HETATM   16  C   UNL     1     -11.643  10.295  68.769  1.00  0.00    -0.118 C  
BRANCH  16  17
HETATM   17  C   UNL     1     -10.716   9.096  68.426  1.00  0.00    -0.115 C  
HETATM   18  C   UNL     1      -9.269   9.449  68.837  1.00  0.00    -0.140 C  
HETATM   19  C   UNL     1     -10.890   8.746  66.948  1.00  0.00     0.019 C  
HETATM   20  C   UNL     1     -10.006   7.581  66.571  1.00  0.00    -0.209 C  
HETATM   21  C   UNL     1     -10.010   6.501  67.617  1.00  0.00    -0.157 A  
HETATM   22  C   UNL     1      -9.373   5.272  67.363  1.00  0.00    -0.122 A  
HETATM   23  C   UNL     1      -8.644   5.022  66.068  1.00  0.00    -0.121 C  
HETATM   24  C   UNL     1      -9.418   4.277  68.355  1.00  0.00    -0.155 A  
HETATM   25  C   UNL     1     -10.055   4.482  69.596  1.00  0.00    -0.161 A  
HETATM   26  O   UNL     1      -8.828   3.056  68.155  1.00  0.00    -0.098 OA 
HETATM   27  C   UNL     1     -10.072   3.382  70.626  1.00  0.00     0.304 C  
HETATM   28  C   UNL     1     -10.660   5.732  69.860  1.00  0.00    -0.388 A  
HETATM   29  H   UNL     1      -8.859   2.383  68.826  1.00  0.00     0.000 HD 
HETATM   30  C   UNL     1     -10.612   6.739  68.871  1.00  0.00    -0.228 A  
HETATM   31  C   UNL     1     -11.337   6.038  71.173  1.00  0.00    -0.300 C  
HETATM   32  O   UNL     1     -11.155   7.964  69.216  1.00  0.00    -0.053 OA 
ENDBRANCH  16  17
ENDBRANCH  15  16
ENDBRANCH  13  15
ENDBRANCH  10  11
ENDBRANCH   9  10
ENDBRANCH   5   6
ENDBRANCH   4   5
TORSDOF 7
ENDMDL
MODEL      217
REMARK 921   NORMALIZED FREE ENERGY PREDICTED BY IDOCK:   -4.19 KCAL/MOL
REMARK 922        TOTAL FREE ENERGY PREDICTED BY IDOCK:   -7.66 KCAL/MOL
REMARK 923 INTER-LIGAND FREE ENERGY PREDICTED BY IDOCK:   -6.72 KCAL/MOL
REMARK 924 INTRA-LIGAND FREE ENERGY PREDICTED BY IDOCK:   -0.94 KCAL/MOL
REMARK 927      BINDING AFFINITY PREDICTED BY RF-SCORE:    0.00 PKD
ROOT
HETATM    1  C   UNL     1     -12.605   1.655  73.452  1.00  0.00    -0.068 C  
HETATM    2  C   UNL     1     -11.314   2.446  73.651  1.00  0.00    -0.311 C  
HETATM    3  C   UNL     1     -10.152   1.721  72.964  1.00  0.00    -0.176 C  
HETATM    4  C   UNL     1     -11.502   3.889  73.143  1.00  0.00    -0.078 C  
ENDROOT
BRANCH   4   5
HETATM    5  C   UNL     1     -10.242   4.729  73.328  1.00  0.00    -0.213 C  
BRANCH   5   6
HETATM    6  C   UNL     1      -9.603   5.140  72.004  1.00  0.00    -0.191 C  
HETATM    7  C   UNL     1     -10.646   5.701  71.015  1.00  0.00    -0.318 C  
HETATM    8  C   UNL     1     -11.364   6.937  71.576  1.00  0.00    -0.302 C  
HETATM    9  C   UNL     1      -9.961   6.005  69.668  1.00  0.00    -0.217 C  
BRANCH   9  10
HETATM   10  C   UNL     1     -10.949   6.563  68.646  1.00  0.00    -0.363 C  
BRANCH  10  11
HETATM   11  C   UNL     1     -10.633   8.000  68.263  1.00  0.00    -0.155 C  
HETATM   12  C   UNL     1      -9.212   8.135  67.679  1.00  0.00    -0.150 C  
HETATM   13  C   UNL     1      -8.859   9.606  67.409  1.00  0.00    -0.134 C  
HETATM   14  C   UNL     1      -9.037   7.337  66.381  1.00  0.00    -0.192 C  
BRANCH  13  15
HETATM   15  C   UNL     1      -8.949  10.527  68.625  1.00  0.00    -0.162 C  
BRANCH  15  16
HETATM   16  C   UNL     1      -9.945  11.692  68.478  1.00  0.00    -0.198 C  
BRANCH  16  17
HETATM   17  C   UNL     1      -9.338  12.947  67.789  1.00  0.00    -0.203 C  
HETATM   18  C   UNL     1      -9.654  12.890  66.278  1.00  0.00    -0.245 C  
HETATM   19  C   UNL     1      -7.849  13.022  68.126  1.00  0.00    -0.145 C  
HETATM   20  C   UNL     1      -7.219  14.231  67.477  1.00  0.00    -0.197 C  
HETATM   21  C   UNL     1      -8.089  15.453  67.585  1.00  0.00    -0.166 A  
HETATM   22  C   UNL     1      -7.594  16.707  67.181  1.00  0.00    -0.218 A  
HETATM   23  C   UNL     1      -6.211  16.852  66.598  1.00  0.00    -0.206 C  
HETATM   24  C   UNL     1      -8.427  17.831  67.318  1.00  0.00    -0.231 A  
HETATM   25  C   UNL     1      -9.741  17.736  67.820  1.00  0.00    -0.285 A  
HETATM   26  O   UNL     1      -7.992  19.079  66.955  1.00  0.00    -0.247 OA 
HETATM   27  C   UNL     1     -10.593  18.972  67.946  1.00  0.00    -0.441 C  
HETATM   28  C   UNL     1     -10.245  16.467  68.189  1.00  0.00    -0.262 A  
HETATM   29  H   UNL     1      -8.555  19.839  67.048  1.00  0.00     0.000 HD 
HETATM   30  C   UNL     1      -9.417  15.332  68.046  1.00  0.00    -0.198 A  
HETATM   31  C   UNL     1     -11.649  16.278  68.709  1.00  0.00    -0.223 C  
HETATM   32  O   UNL     1      -9.991  14.111  68.351  1.00  0.00    -0.224 OA 
ENDBRANCH  16  17
ENDBRANCH  15  16
ENDBRANCH  13  15
ENDBRANCH  10  11
ENDBRANCH   9  10
ENDBRANCH   5   6
ENDBRANCH   4   5
TORSDOF 7
ENDMDL
MODEL      218
REMARK 921   NORMALIZED FREE ENERGY PREDICTED BY IDOCK:   -4.19 KCAL/MOL
REMARK 922        TOTAL FREE ENERGY PREDICTED BY IDOCK:   -7.66 KCAL/MOL
REMARK 923 INTER-LIGAND FREE ENERGY PREDICTED BY IDOCK:   -6.29 KCAL/MOL
REMARK 924 INTRA-LIGAND FREE ENERGY PREDICTED BY IDOCK:   -1.37 KCAL/MOL
REMARK 927      BINDING AFFINITY PREDICTED BY RF-SCORE:    0.00 PKD
ROOT
HETATM    1  C   UNL     1      -9.433   8.552  65.662  1.00  0.00    -0.051 C  
HETATM    2  C   UNL     1      -9.207  10.050  65.476  1.00  0.00    -0.247 C  
HETATM    3  C   UNL     1      -8.063  10.283  64.484  1.00  0.00    -0.150 C  
HETATM    4  C   UNL     1     -10.523  10.726  65.041  1.00  0.00    -0.307 C  
ENDROOT
BRANCH   4   5
HETATM    5  C   UNL     1     -10.357  12.231  64.850  1.00  0.00    -0.319 C  
BRANCH   5   6
HETATM    6  C   UNL     1     -11.302  13.048  65.728  1.00  0.00    -0.331 C  
HETATM    7  C   UNL     1     -11.100  12.742  67.226  1.00  0.00    -0.314 C  
HETATM    8  C   UNL     1      -9.668  13.050  67.689  1.00  0.00    -0.212 C  
HETATM    9  C   UNL     1     -12.143  13.519  68.052  1.00  0.00    -0.298 C  
BRANCH   9  10
HETATM   10  C   UNL     1     -11.992  13.252  69.548  1.00  0.00    -0.366 C  
BRANCH  10  11
HETATM   11  C   UNL     1     -12.588  11.915  69.960  1.00  0.00     0.026 C  
HETATM   12  C   UNL     1     -12.703  11.791  71.493  1.00  0.00    -0.400 C  
HETATM   13  C   UNL     1     -13.191  10.393  71.901  1.00  0.00    -0.535 C  
HETATM   14  C   UNL     1     -13.646  12.840  72.094  1.00  0.00    -0.547 C  
BRANCH  13  15
HETATM   15  C   UNL     1     -12.325   9.234  71.407  1.00  0.00    -0.421 C  
BRANCH  15  16
HETATM   16  C   UNL     1     -12.075   8.128  72.449  1.00  0.00    -0.406 C  
BRANCH  16  17
HETATM   17  C   UNL     1     -10.587   7.690  72.549  1.00  0.00    -0.281 C  
HETATM   18  C   UNL     1     -10.186   7.619  74.039  1.00  0.00     0.320 C  
HETATM   19  C   UNL     1      -9.737   8.639  71.705  1.00  0.00    -0.361 C  
HETATM   20  C   UNL     1      -8.280   8.248  71.772  1.00  0.00    -0.186 C  
HETATM   21  C   UNL     1      -8.086   6.760  71.677  1.00  0.00    -0.106 A  
HETATM   22  C   UNL     1      -6.789   6.225  71.559  1.00  0.00    -0.071 A  
HETATM   23  C   UNL     1      -5.572   7.115  71.566  1.00  0.00    -0.036 C  
HETATM   24  C   UNL     1      -6.647   4.831  71.449  1.00  0.00    -0.030 A  
HETATM   25  C   UNL     1      -7.754   3.958  71.479  1.00  0.00    -0.061 A  
HETATM   26  O   UNL     1      -5.409   4.257  71.316  1.00  0.00     0.000 OA 
HETATM   27  C   UNL     1      -7.547   2.471  71.358  1.00  0.00    -0.040 C  
HETATM   28  C   UNL     1      -9.052   4.499  71.636  1.00  0.00    -0.171 A  
HETATM   29  H   UNL     1      -5.314   3.315  71.242  1.00  0.00     0.000 HD 
HETATM   30  C   UNL     1      -9.201   5.898  71.755  1.00  0.00    -0.148 A  
HETATM   31  C   UNL     1     -10.284   3.631  71.703  1.00  0.00    -0.034 C  
HETATM   32  O   UNL     1     -10.485   6.361  71.982  1.00  0.00    -0.203 OA 
ENDBRANCH  16  17
ENDBRANCH  15  16
ENDBRANCH  13  15
ENDBRANCH  10  11
ENDBRANCH   9  10
ENDBRANCH   5   6
ENDBRANCH   4   5
TORSDOF 7
ENDMDL
MODEL      219
REMARK 921   NORMALIZED FREE ENERGY PREDICTED BY IDOCK:   -4.18 KCAL/MOL
REMARK 922        TOTAL FREE ENERGY PREDICTED BY IDOCK:   -7.65 KCAL/MOL
REMARK 923 INTER-LIGAND FREE ENERGY PREDICTED BY IDOCK:   -6.29 KCAL/MOL
REMARK 924 INTRA-LIGAND FREE ENERGY PREDICTED BY IDOCK:   -1.36 KCAL/MOL
REMARK 927      BINDING AFFINITY PREDICTED BY RF-SCORE:    0.00 PKD
ROOT
HETATM    1  C   UNL     1      -6.579   9.584  63.873  1.00  0.00    -0.101 C  
HETATM    2  C   UNL     1      -7.497   8.553  64.525  1.00  0.00    -0.105 C  
HETATM    3  C   UNL     1      -7.581   7.304  63.642  1.00  0.00    -0.114 C  
HETATM    4  C   UNL     1      -7.005   8.244  65.953  1.00  0.00    -0.064 C  
ENDROOT
BRANCH   4   5
HETATM    5  C   UNL     1      -7.894   7.224  66.656  1.00  0.00    -0.102 C  
BRANCH   5   6
HETATM    6  C   UNL     1      -8.557   7.781  67.913  1.00  0.00    -0.122 C  
HETATM    7  C   UNL     1      -9.517   8.944  67.588  1.00  0.00    -0.164 C  
HETATM    8  C   UNL     1     -10.641   8.511  66.634  1.00  0.00    -0.118 C  
HETATM    9  C   UNL     1     -10.078   9.527  68.899  1.00  0.00    -0.199 C  
BRANCH   9  10
HETATM   10  C   UNL     1     -11.037  10.686  68.637  1.00  0.00    -0.315 C  
BRANCH  10  11
HETATM   11  C   UNL     1     -11.043  11.698  69.771  1.00  0.00    -0.116 C  
HETATM   12  C   UNL     1     -12.474  11.990  70.267  1.00  0.00    -0.176 C  
HETATM   13  C   UNL     1     -12.478  13.102  71.326  1.00  0.00    -0.327 C  
HETATM   14  C   UNL     1     -13.154  10.746  70.852  1.00  0.00    -0.291 C  
BRANCH  13  15
HETATM   15  C   UNL     1     -11.866  14.428  70.877  1.00  0.00    -0.346 C  
BRANCH  15  16
HETATM   16  C   UNL     1     -12.168  14.814  69.417  1.00  0.00    -0.251 C  
BRANCH  16  17
HETATM   17  C   UNL     1     -10.901  15.177  68.593  1.00  0.00    -0.245 C  
HETATM   18  C   UNL     1     -11.047  14.594  67.170  1.00  0.00    -0.328 C  
HETATM   19  C   UNL     1      -9.665  14.698  69.354  1.00  0.00     0.019 C  
HETATM   20  C   UNL     1      -8.408  15.034  68.588  1.00  0.00    -0.166 C  
HETATM   21  C   UNL     1      -8.453  16.416  67.997  1.00  0.00    -0.183 A  
HETATM   22  C   UNL     1      -7.306  16.960  67.388  1.00  0.00    -0.186 A  
HETATM   23  C   UNL     1      -6.029  16.166  67.277  1.00  0.00    -0.145 C  
HETATM   24  C   UNL     1      -7.379  18.263  66.868  1.00  0.00    -0.208 A  
HETATM   25  C   UNL     1      -8.564  19.026  66.914  1.00  0.00    -0.307 A  
HETATM   26  O   UNL     1      -6.288  18.848  66.278  1.00  0.00    -0.174 OA 
HETATM   27  C   UNL     1      -8.588  20.419  66.339  1.00  0.00    -0.141 C  
HETATM   28  C   UNL     1      -9.723  18.460  67.492  1.00  0.00    -0.308 A  
HETATM   29  H   UNL     1      -6.337  19.729  65.926  1.00  0.00     0.000 HD 
HETATM   30  C   UNL     1      -9.660  17.148  68.011  1.00  0.00    -0.267 A  
HETATM   31  C   UNL     1     -11.036  19.201  67.556  1.00  0.00    -0.405 C  
HETATM   32  O   UNL     1     -10.844  16.621  68.494  1.00  0.00    -0.331 OA 
ENDBRANCH  16  17
ENDBRANCH  15  16
ENDBRANCH  13  15
ENDBRANCH  10  11
ENDBRANCH   9  10
ENDBRANCH   5   6
ENDBRANCH   4   5
TORSDOF 7
ENDMDL
MODEL      220
REMARK 921   NORMALIZED FREE ENERGY PREDICTED BY IDOCK:   -4.17 KCAL/MOL
REMARK 922        TOTAL FREE ENERGY PREDICTED BY IDOCK:   -7.63 KCAL/MOL
REMARK 923 INTER-LIGAND FREE ENERGY PREDICTED BY IDOCK:   -6.23 KCAL/MOL
REMARK 924 INTRA-LIGAND FREE ENERGY PREDICTED BY IDOCK:   -1.41 KCAL/MOL
REMARK 927      BINDING AFFINITY PREDICTED BY RF-SCORE:    0.00 PKD
ROOT
HETATM    1  C   UNL     1     -12.447  12.750  64.879  1.00  0.00    -0.563 C  
HETATM    2  C   UNL     1     -11.292  12.316  65.778  1.00  0.00    -0.400 C  
HETATM    3  C   UNL     1     -11.745  12.323  67.242  1.00  0.00    -0.394 C  
HETATM    4  C   UNL     1     -10.764  10.942  65.322  1.00  0.00    -0.194 C  
ENDROOT
BRANCH   4   5
HETATM    5  C   UNL     1      -9.598  10.463  66.182  1.00  0.00    -0.245 C  
BRANCH   5   6
HETATM    6  C   UNL     1      -9.669   8.973  66.503  1.00  0.00    -0.311 C  
HETATM    7  C   UNL     1      -8.751   8.144  65.581  1.00  0.00    -0.176 C  
HETATM    8  C   UNL     1      -7.279   8.567  65.705  1.00  0.00    -0.079 C  
HETATM    9  C   UNL     1      -8.938   6.645  65.885  1.00  0.00    -0.096 C  
BRANCH   9  10
HETATM   10  C   UNL     1      -8.052   5.774  64.997  1.00  0.00    -0.131 C  
BRANCH  10  11
HETATM   11  C   UNL     1      -7.236   4.774  65.801  1.00  0.00    -0.076 C  
HETATM   12  C   UNL     1      -8.139   3.801  66.585  1.00  0.00    -0.096 C  
HETATM   13  C   UNL     1      -7.307   2.876  67.487  1.00  0.00    -0.054 C  
HETATM   14  C   UNL     1      -9.010   2.941  65.662  1.00  0.00    -0.143 C  
BRANCH  13  15
HETATM   15  C   UNL     1      -6.410   3.590  68.497  1.00  0.00    -0.033 C  
BRANCH  15  16
HETATM   16  C   UNL     1      -6.316   5.116  68.307  1.00  0.00    -0.036 C  
BRANCH  16  17
HETATM   17  C   UNL     1      -6.990   5.929  69.448  1.00  0.00    -0.064 C  
HETATM   18  C   UNL     1      -6.682   7.428  69.243  1.00  0.00    -0.041 C  
HETATM   19  C   UNL     1      -6.533   5.363  70.792  1.00  0.00    -0.035 C  
HETATM   20  C   UNL     1      -7.167   6.123  71.932  1.00  0.00    -0.091 C  
HETATM   21  C   UNL     1      -8.621   6.416  71.681  1.00  0.00    -0.129 A  
HETATM   22  C   UNL     1      -9.413   6.973  72.702  1.00  0.00    -0.163 A  
HETATM   23  C   UNL     1      -8.824   7.326  74.045  1.00  0.00    -0.257 C  
HETATM   24  C   UNL     1     -10.773   7.211  72.440  1.00  0.00    -0.241 A  
HETATM   25  C   UNL     1     -11.356   6.934  71.186  1.00  0.00    -0.332 A  
HETATM   26  O   UNL     1     -11.595   7.738  73.402  1.00  0.00    -0.623 OA 
HETATM   27  C   UNL     1     -12.820   7.209  70.956  1.00  0.00    -0.268 C  
HETATM   28  C   UNL     1     -10.546   6.409  70.152  1.00  0.00    -0.294 A  
HETATM   29  H   UNL     1     -12.514   7.898  73.225  1.00  0.00     0.000 HD 
HETATM   30  C   UNL     1      -9.177   6.175  70.406  1.00  0.00    -0.153 A  
HETATM   31  C   UNL     1     -11.088   6.111  68.776  1.00  0.00    -0.398 C  
HETATM   32  O   UNL     1      -8.421   5.734  69.336  1.00  0.00    -0.110 OA 
ENDBRANCH  16  17
ENDBRANCH  15  16
ENDBRANCH  13  15
ENDBRANCH  10  11
ENDBRANCH   9  10
ENDBRANCH   5   6
ENDBRANCH   4   5
TORSDOF 7
ENDMDL
MODEL      221
REMARK 921   NORMALIZED FREE ENERGY PREDICTED BY IDOCK:   -4.16 KCAL/MOL
REMARK 922        TOTAL FREE ENERGY PREDICTED BY IDOCK:   -7.62 KCAL/MOL
REMARK 923 INTER-LIGAND FREE ENERGY PREDICTED BY IDOCK:   -6.08 KCAL/MOL
REMARK 924 INTRA-LIGAND FREE ENERGY PREDICTED BY IDOCK:   -1.54 KCAL/MOL
REMARK 927      BINDING AFFINITY PREDICTED BY RF-SCORE:    0.00 PKD
ROOT
HETATM    1  C   UNL     1     -12.005  11.555  69.074  1.00  0.00    -0.377 C  
HETATM    2  C   UNL     1     -11.467  11.644  67.648  1.00  0.00    -0.373 C  
HETATM    3  C   UNL     1     -11.998  12.912  66.972  1.00  0.00    -0.390 C  
HETATM    4  C   UNL     1      -9.927  11.576  67.666  1.00  0.00    -0.199 C  
ENDROOT
BRANCH   4   5
HETATM    5  C   UNL     1      -9.335  11.650  66.262  1.00  0.00    -0.228 C  
BRANCH   5   6
HETATM    6  C   UNL     1      -9.574  10.381  65.449  1.00  0.00    -0.303 C  
HETATM    7  C   UNL     1      -8.282   9.886  64.766  1.00  0.00    -0.151 C  
HETATM    8  C   UNL     1      -7.177   9.572  65.786  1.00  0.00    -0.097 C  
HETATM    9  C   UNL     1      -8.604   8.664  63.885  1.00  0.00    -0.019 C  
BRANCH   9  10
HETATM   10  C   UNL     1      -7.358   8.130  63.181  1.00  0.00    -0.103 C  
BRANCH  10  11
HETATM   11  C   UNL     1      -6.872   6.821  63.781  1.00  0.00    -0.053 C  
HETATM   12  C   UNL     1      -7.981   5.749  63.784  1.00  0.00    -0.120 C  
HETATM   13  C   UNL     1      -7.518   4.472  64.502  1.00  0.00    -0.072 C  
HETATM   14  C   UNL     1      -8.442   5.382  62.369  1.00  0.00    -0.111 C  
BRANCH  13  15
HETATM   15  C   UNL     1      -7.062   4.670  65.947  1.00  0.00    -0.074 C  
BRANCH  15  16
HETATM   16  C   UNL     1      -7.823   5.765  66.718  1.00  0.00    -0.101 C  
BRANCH  16  17
HETATM   17  C   UNL     1      -8.143   5.383  68.190  1.00  0.00    -0.095 C  
HETATM   18  C   UNL     1      -6.849   5.491  69.027  1.00  0.00    -0.055 C  
HETATM   19  C   UNL     1      -8.800   4.003  68.210  1.00  0.00    -0.138 C  
HETATM   20  C   UNL     1      -9.131   3.593  69.624  1.00  0.00    -0.197 C  
HETATM   21  C   UNL     1      -9.710   4.726  70.425  1.00  0.00    -0.289 A  
HETATM   22  C   UNL     1     -10.227   4.487  71.713  1.00  0.00    -0.226 A  
HETATM   23  C   UNL     1     -10.177   3.114  72.332  1.00  0.00    -0.197 C  
HETATM   24  C   UNL     1     -10.783   5.566  72.422  1.00  0.00    -0.235 A  
HETATM   25  C   UNL     1     -10.814   6.874  71.897  1.00  0.00    -0.258 A  
HETATM   26  O   UNL     1     -11.314   5.387  73.673  1.00  0.00    -0.454 OA 
HETATM   27  C   UNL     1     -11.419   7.996  72.701  1.00  0.00    -0.465 C  
HETATM   28  C   UNL     1     -10.258   7.115  70.619  1.00  0.00    -0.205 A  
HETATM   29  H   UNL     1     -11.689   6.117  74.152  1.00  0.00     0.000 HD 
HETATM   30  C   UNL     1      -9.692   6.037  69.904  1.00  0.00    -0.163 A  
HETATM   31  C   UNL     1     -10.229   8.490  70.000  1.00  0.00    -0.201 C  
HETATM   32  O   UNL     1      -9.098   6.349  68.694  1.00  0.00    -0.128 OA 
ENDBRANCH  16  17
ENDBRANCH  15  16
ENDBRANCH  13  15
ENDBRANCH  10  11
ENDBRANCH   9  10
ENDBRANCH   5   6
ENDBRANCH   4   5
TORSDOF 7
ENDMDL
MODEL      222
REMARK 921   NORMALIZED FREE ENERGY PREDICTED BY IDOCK:   -4.15 KCAL/MOL
REMARK 922        TOTAL FREE ENERGY PREDICTED BY IDOCK:   -7.60 KCAL/MOL
REMARK 923 INTER-LIGAND FREE ENERGY PREDICTED BY IDOCK:   -5.25 KCAL/MOL
REMARK 924 INTRA-LIGAND FREE ENERGY PREDICTED BY IDOCK:   -2.35 KCAL/MOL
REMARK 927      BINDING AFFINITY PREDICTED BY RF-SCORE:    0.00 PKD
ROOT
HETATM    1  C   UNL     1      -7.533  11.826  67.021  1.00  0.00    -0.137 C  
HETATM    2  C   UNL     1      -8.945  11.852  67.603  1.00  0.00    -0.169 C  
HETATM    3  C   UNL     1      -9.966  11.585  66.493  1.00  0.00    -0.240 C  
HETATM    4  C   UNL     1      -9.049  10.846  68.766  1.00  0.00    -0.174 C  
ENDROOT
BRANCH   4   5
HETATM    5  C   UNL     1     -10.440  10.838  69.392  1.00  0.00    -0.229 C  
BRANCH   5   6
HETATM    6  C   UNL     1     -11.125   9.477  69.298  1.00  0.00    -0.109 C  
HETATM    7  C   UNL     1     -10.902   8.635  70.572  1.00  0.00    -0.257 C  
HETATM    8  C   UNL     1     -11.447   9.334  71.826  1.00  0.00    -0.448 C  
HETATM    9  C   UNL     1     -11.531   7.241  70.380  1.00  0.00    -0.279 C  
BRANCH   9  10
HETATM   10  C   UNL     1     -11.339   6.361  71.613  1.00  0.00    -0.339 C  
BRANCH  10  11
HETATM   11  C   UNL     1     -10.498   5.129  71.318  1.00  0.00    -0.245 C  
HETATM   12  C   UNL     1      -9.907   4.520  72.606  1.00  0.00    -0.201 C  
HETATM   13  C   UNL     1      -8.962   3.352  72.285  1.00  0.00    -0.134 C  
HETATM   14  C   UNL     1     -10.993   4.029  73.571  1.00  0.00    -0.354 C  
BRANCH  13  15
HETATM   15  C   UNL     1      -7.796   3.697  71.359  1.00  0.00    -0.060 C  
BRANCH  15  16
HETATM   16  C   UNL     1      -7.449   2.606  70.329  1.00  0.00    -0.043 C  
BRANCH  16  17
HETATM   17  C   UNL     1      -7.856   2.971  68.874  1.00  0.00    -0.049 C  
HETATM   18  C   UNL     1      -9.329   2.564  68.651  1.00  0.00    -0.242 C  
HETATM   19  C   UNL     1      -6.864   2.324  67.908  1.00  0.00    -0.039 C  
HETATM   20  C   UNL     1      -7.222   2.655  66.479  1.00  0.00    -0.065 C  
HETATM   21  C   UNL     1      -7.623   4.095  66.312  1.00  0.00    -0.089 A  
HETATM   22  C   UNL     1      -7.834   4.622  65.024  1.00  0.00    -0.094 A  
HETATM   23  C   UNL     1      -7.704   3.759  63.795  1.00  0.00    -0.082 C  
HETATM   24  C   UNL     1      -8.184   5.978  64.905  1.00  0.00    -0.130 A  
HETATM   25  C   UNL     1      -8.356   6.812  66.029  1.00  0.00    -0.134 A  
HETATM   26  O   UNL     1      -8.386   6.548  63.675  1.00  0.00    -0.322 OA 
HETATM   27  C   UNL     1      -8.734   8.259  65.846  1.00  0.00    -0.187 C  
HETATM   28  C   UNL     1      -8.180   6.266  67.322  1.00  0.00    -0.109 A  
HETATM   29  H   UNL     1      -8.623   7.465  63.594  1.00  0.00     0.000 HD 
HETATM   30  C   UNL     1      -7.835   4.903  67.450  1.00  0.00    -0.095 A  
HETATM   31  C   UNL     1      -8.371   7.085  68.575  1.00  0.00    -0.121 C  
HETATM   32  O   UNL     1      -7.752   4.409  68.739  1.00  0.00    -0.066 OA 
ENDBRANCH  16  17
ENDBRANCH  15  16
ENDBRANCH  13  15
ENDBRANCH  10  11
ENDBRANCH   9  10
ENDBRANCH   5   6
ENDBRANCH   4   5
TORSDOF 7
ENDMDL
MODEL      223
REMARK 921   NORMALIZED FREE ENERGY PREDICTED BY IDOCK:   -4.13 KCAL/MOL
REMARK 922        TOTAL FREE ENERGY PREDICTED BY IDOCK:   -7.58 KCAL/MOL
REMARK 923 INTER-LIGAND FREE ENERGY PREDICTED BY IDOCK:   -4.75 KCAL/MOL
REMARK 924 INTRA-LIGAND FREE ENERGY PREDICTED BY IDOCK:   -2.83 KCAL/MOL
REMARK 927      BINDING AFFINITY PREDICTED BY RF-SCORE:    0.00 PKD
ROOT
HETATM    1  C   UNL     1     -10.344  11.863  63.753  1.00  0.00    -0.451 C  
HETATM    2  C   UNL     1      -9.552  11.041  64.768  1.00  0.00    -0.292 C  
HETATM    3  C   UNL     1     -10.426  10.748  65.991  1.00  0.00    -0.273 C  
HETATM    4  C   UNL     1      -9.014   9.761  64.097  1.00  0.00    -0.276 C  
ENDROOT
BRANCH   4   5
HETATM    5  C   UNL     1      -8.204   8.905  65.065  1.00  0.00    -0.154 C  
BRANCH   5   6
HETATM    6  C   UNL     1      -8.356   7.409  64.805  1.00  0.00     0.000 C  
HETATM    7  C   UNL     1      -8.642   6.628  66.105  1.00  0.00    -0.148 C  
HETATM    8  C   UNL     1      -9.932   7.104  66.790  1.00  0.00    -0.278 C  
HETATM    9  C   UNL     1      -8.688   5.119  65.796  1.00  0.00    -0.139 C  
BRANCH   9  10
HETATM   10  C   UNL     1      -8.967   4.294  67.050  1.00  0.00    -0.130 C  
BRANCH  10  11
HETATM   11  C   UNL     1      -7.878   4.451  68.099  1.00  0.00    -0.079 C  
HETATM   12  C   UNL     1      -7.274   3.089  68.501  1.00  0.00    -0.049 C  
HETATM   13  C   UNL     1      -6.263   3.247  69.647  1.00  0.00    -0.028 C  
HETATM   14  C   UNL     1      -6.584   2.387  67.325  1.00  0.00    -0.036 C  
BRANCH  13  15
HETATM   15  C   UNL     1      -6.816   3.900  70.913  1.00  0.00    -0.032 C  
BRANCH  15  16
HETATM   16  C   UNL     1      -6.098   5.197  71.334  1.00  0.00    -0.029 C  
BRANCH  16  17
HETATM   17  C   UNL     1      -7.046   6.422  71.456  1.00  0.00    -0.078 C  
HETATM   18  C   UNL     1      -6.629   7.257  72.687  1.00  0.00    -0.059 C  
HETATM   19  C   UNL     1      -8.492   5.926  71.484  1.00  0.00    -0.128 C  
HETATM   20  C   UNL     1      -9.450   7.087  71.600  1.00  0.00    -0.160 C  
HETATM   21  C   UNL     1      -9.055   8.240  70.718  1.00  0.00    -0.168 A  
HETATM   22  C   UNL     1      -9.917   9.343  70.574  1.00  0.00    -0.328 A  
HETATM   23  C   UNL     1     -11.225   9.417  71.321  1.00  0.00    -0.437 C  
HETATM   24  C   UNL     1      -9.527  10.392  69.723  1.00  0.00    -0.003 A  
HETATM   25  C   UNL     1      -8.295  10.383  69.037  1.00  0.00    -0.150 A  
HETATM   26  O   UNL     1     -10.334  11.483  69.534  1.00  0.00    -0.433 OA 
HETATM   27  C   UNL     1      -7.923  11.534  68.138  1.00  0.00    -0.136 C  
HETATM   28  C   UNL     1      -7.416   9.290  69.217  1.00  0.00    -0.075 A  
HETATM   29  H   UNL     1     -10.069  12.192  68.959  1.00  0.00     0.000 HD 
HETATM   30  C   UNL     1      -7.799   8.236  70.075  1.00  0.00    -0.104 A  
HETATM   31  C   UNL     1      -6.070   9.218  68.539  1.00  0.00    -0.045 C  
HETATM   32  O   UNL     1      -6.867   7.233  70.269  1.00  0.00    -0.050 OA 
ENDBRANCH  16  17
ENDBRANCH  15  16
ENDBRANCH  13  15
ENDBRANCH  10  11
ENDBRANCH   9  10
ENDBRANCH   5   6
ENDBRANCH   4   5
TORSDOF 7
ENDMDL
MODEL      224
REMARK 921   NORMALIZED FREE ENERGY PREDICTED BY IDOCK:   -4.13 KCAL/MOL
REMARK 922        TOTAL FREE ENERGY PREDICTED BY IDOCK:   -7.58 KCAL/MOL
REMARK 923 INTER-LIGAND FREE ENERGY PREDICTED BY IDOCK:   -5.65 KCAL/MOL
REMARK 924 INTRA-LIGAND FREE ENERGY PREDICTED BY IDOCK:   -1.93 KCAL/MOL
REMARK 927      BINDING AFFINITY PREDICTED BY RF-SCORE:    0.00 PKD
ROOT
HETATM    1  C   UNL     1     -10.807   8.755  71.916  1.00  0.00    -0.431 C  
HETATM    2  C   UNL     1     -11.113   9.845  70.891  1.00  0.00    -0.418 C  
HETATM    3  C   UNL     1     -11.363   9.209  69.519  1.00  0.00     0.126 C  
HETATM    4  C   UNL     1     -12.298  10.702  71.378  1.00  0.00    -0.455 C  
ENDROOT
BRANCH   4   5
HETATM    5  C   UNL     1     -12.640  11.816  70.393  1.00  0.00    -0.186 C  
BRANCH   5   6
HETATM    6  C   UNL     1     -11.430  12.667  70.016  1.00  0.00    -0.090 C  
HETATM    7  C   UNL     1     -11.191  12.680  68.492  1.00  0.00    -0.315 C  
HETATM    8  C   UNL     1     -12.399  13.239  67.725  1.00  0.00     0.037 C  
HETATM    9  C   UNL     1      -9.906  13.470  68.182  1.00  0.00    -0.237 C  
BRANCH   9  10
HETATM   10  C   UNL     1      -9.618  13.515  66.683  1.00  0.00    -0.282 C  
BRANCH  10  11
HETATM   11  C   UNL     1      -9.172  12.166  66.141  1.00  0.00    -0.155 C  
HETATM   12  C   UNL     1     -10.239  11.541  65.220  1.00  0.00    -0.315 C  
HETATM   13  C   UNL     1      -9.831  10.128  64.776  1.00  0.00    -0.382 C  
HETATM   14  C   UNL     1     -10.507  12.393  63.973  1.00  0.00    -0.443 C  
BRANCH  13  15
HETATM   15  C   UNL     1      -9.567   9.142  65.914  1.00  0.00    -0.343 C  
BRANCH  15  16
HETATM   16  C   UNL     1      -8.875   7.835  65.485  1.00  0.00    -0.048 C  
BRANCH  16  17
HETATM   17  C   UNL     1      -8.120   7.121  66.641  1.00  0.00    -0.109 C  
HETATM   18  C   UNL     1      -7.445   8.189  67.530  1.00  0.00    -0.094 C  
HETATM   19  C   UNL     1      -7.161   6.093  66.041  1.00  0.00    -0.067 C  
HETATM   20  C   UNL     1      -6.405   5.373  67.132  1.00  0.00    -0.039 C  
HETATM   21  C   UNL     1      -7.291   5.007  68.291  1.00  0.00    -0.074 A  
HETATM   22  C   UNL     1      -6.796   4.190  69.326  1.00  0.00    -0.046 A  
HETATM   23  C   UNL     1      -5.370   3.699  69.320  1.00  0.00    -0.012 C  
HETATM   24  C   UNL     1      -7.659   3.848  70.380  1.00  0.00    -0.044 A  
HETATM   25  C   UNL     1      -8.987   4.317  70.446  1.00  0.00    -0.147 A  
HETATM   26  O   UNL     1      -7.235   3.044  71.406  1.00  0.00    -0.032 OA 
HETATM   27  C   UNL     1      -9.871   3.923  71.601  1.00  0.00    -0.247 C  
HETATM   28  C   UNL     1      -9.467   5.168  69.424  1.00  0.00    -0.198 A  
HETATM   29  H   UNL     1      -7.819   2.813  72.119  1.00  0.00     0.000 HD 
HETATM   30  C   UNL     1      -8.603   5.522  68.364  1.00  0.00    -0.099 A  
HETATM   31  C   UNL     1     -10.866   5.733  69.436  1.00  0.00    -0.393 C  
HETATM   32  O   UNL     1      -9.104   6.416  67.436  1.00  0.00    -0.113 OA 
ENDBRANCH  16  17
ENDBRANCH  15  16
ENDBRANCH  13  15
ENDBRANCH  10  11
ENDBRANCH   9  10
ENDBRANCH   5   6
ENDBRANCH   4   5
TORSDOF 7
ENDMDL
MODEL      225
REMARK 921   NORMALIZED FREE ENERGY PREDICTED BY IDOCK:   -4.12 KCAL/MOL
REMARK 922        TOTAL FREE ENERGY PREDICTED BY IDOCK:   -7.56 KCAL/MOL
REMARK 923 INTER-LIGAND FREE ENERGY PREDICTED BY IDOCK:   -5.24 KCAL/MOL
REMARK 924 INTRA-LIGAND FREE ENERGY PREDICTED BY IDOCK:   -2.32 KCAL/MOL
REMARK 927      BINDING AFFINITY PREDICTED BY RF-SCORE:    0.00 PKD
ROOT
HETATM    1  C   UNL     1      -9.280   2.884  68.064  1.00  0.00    -0.248 C  
HETATM    2  C   UNL     1      -9.573   3.558  69.402  1.00  0.00    -0.171 C  
HETATM    3  C   UNL     1      -8.276   3.698  70.205  1.00  0.00    -0.074 C  
HETATM    4  C   UNL     1     -10.277   4.909  69.162  1.00  0.00    -0.186 C  
ENDROOT
BRANCH   4   5
HETATM    5  C   UNL     1     -10.603   5.623  70.470  1.00  0.00    -0.354 C  
BRANCH   5   6
HETATM    6  C   UNL     1     -10.059   7.048  70.520  1.00  0.00    -0.202 C  
HETATM    7  C   UNL     1     -11.168   8.075  70.829  1.00  0.00    -0.275 C  
HETATM    8  C   UNL     1     -11.847   7.799  72.179  1.00  0.00    -0.370 C  
HETATM    9  C   UNL     1     -10.580   9.497  70.769  1.00  0.00    -0.387 C  
BRANCH   9  10
HETATM   10  C   UNL     1     -11.637  10.559  71.066  1.00  0.00    -0.318 C  
BRANCH  10  11
HETATM   11  C   UNL     1     -11.181  11.955  70.673  1.00  0.00     1.119 C  
HETATM   12  C   UNL     1     -12.363  12.944  70.611  1.00  0.00    -0.385 C  
HETATM   13  C   UNL     1     -11.910  14.318  70.096  1.00  0.00    -0.379 C  
HETATM   14  C   UNL     1     -13.044  13.125  71.973  1.00  0.00    -0.476 C  
BRANCH  13  15
HETATM   15  C   UNL     1     -11.243  14.308  68.721  1.00  0.00    -0.286 C  
BRANCH  15  16
HETATM   16  C   UNL     1     -11.969  13.458  67.661  1.00  0.00    -0.362 C  
BRANCH  16  17
HETATM   17  C   UNL     1     -11.114  12.281  67.114  1.00  0.00    -0.278 C  
HETATM   18  C   UNL     1     -10.928  12.464  65.591  1.00  0.00    -0.321 C  
HETATM   19  C   UNL     1     -11.772  10.963  67.521  1.00  0.00     0.082 C  
HETATM   20  C   UNL     1     -10.971   9.789  67.011  1.00  0.00    -0.059 C  
HETATM   21  C   UNL     1      -9.491   9.991  67.188  1.00  0.00    -0.184 A  
HETATM   22  C   UNL     1      -8.599   8.935  66.918  1.00  0.00    -0.121 A  
HETATM   23  C   UNL     1      -9.094   7.604  66.413  1.00  0.00    -0.214 C  
HETATM   24  C   UNL     1      -7.225   9.152  67.118  1.00  0.00    -0.086 A  
HETATM   25  C   UNL     1      -6.715  10.394  67.551  1.00  0.00    -0.071 A  
HETATM   26  O   UNL     1      -6.313   8.155  66.886  1.00  0.00    -0.053 OA 
HETATM   27  C   UNL     1      -5.232  10.574  67.747  1.00  0.00    -0.037 C  
HETATM   28  C   UNL     1      -7.613  11.461  67.783  1.00  0.00    -0.105 A  
HETATM   29  H   UNL     1      -5.384   8.302  67.021  1.00  0.00     0.000 HD 
HETATM   30  C   UNL     1      -8.994  11.253  67.578  1.00  0.00    -0.140 A  
HETATM   31  C   UNL     1      -7.144  12.827  68.222  1.00  0.00    -0.104 C  
HETATM   32  O   UNL     1      -9.813  12.355  67.748  1.00  0.00    -0.193 OA 
ENDBRANCH  16  17
ENDBRANCH  15  16
ENDBRANCH  13  15
ENDBRANCH  10  11
ENDBRANCH   9  10
ENDBRANCH   5   6
ENDBRANCH   4   5
TORSDOF 7
ENDMDL
MODEL      226
REMARK 921   NORMALIZED FREE ENERGY PREDICTED BY IDOCK:   -4.10 KCAL/MOL
REMARK 922        TOTAL FREE ENERGY PREDICTED BY IDOCK:   -7.54 KCAL/MOL
REMARK 923 INTER-LIGAND FREE ENERGY PREDICTED BY IDOCK:   -6.95 KCAL/MOL
REMARK 924 INTRA-LIGAND FREE ENERGY PREDICTED BY IDOCK:   -0.59 KCAL/MOL
REMARK 927      BINDING AFFINITY PREDICTED BY RF-SCORE:    0.00 PKD
ROOT
HETATM    1  C   UNL     1     -12.182   6.983  70.831  1.00  0.00    -0.388 C  
HETATM    2  C   UNL     1     -10.985   6.130  71.248  1.00  0.00    -0.340 C  
HETATM    3  C   UNL     1     -11.416   5.122  72.318  1.00  0.00     0.008 C  
HETATM    4  C   UNL     1     -10.367   5.457  70.006  1.00  0.00    -0.366 C  
ENDROOT
BRANCH   4   5
HETATM    5  C   UNL     1      -9.158   4.598  70.364  1.00  0.00    -0.167 C  
BRANCH   5   6
HETATM    6  C   UNL     1      -8.512   3.944  69.146  1.00  0.00    -0.102 C  
HETATM    7  C   UNL     1      -7.470   4.869  68.484  1.00  0.00    -0.070 C  
HETATM    8  C   UNL     1      -6.339   5.245  69.452  1.00  0.00    -0.034 C  
HETATM    9  C   UNL     1      -6.927   4.198  67.208  1.00  0.00    -0.059 C  
BRANCH   9  10
HETATM   10  C   UNL     1      -5.889   5.072  66.508  1.00  0.00    -0.022 C  
BRANCH  10  11
HETATM   11  C   UNL     1      -6.503   6.324  65.901  1.00  0.00    -0.046 C  
HETATM   12  C   UNL     1      -6.249   6.403  64.382  1.00  0.00    -0.030 C  
HETATM   13  C   UNL     1      -6.766   7.728  63.801  1.00  0.00    -0.062 C  
HETATM   14  C   UNL     1      -6.899   5.241  63.620  1.00  0.00    -0.045 C  
BRANCH  13  15
HETATM   15  C   UNL     1      -6.176   8.987  64.435  1.00  0.00    -0.071 C  
BRANCH  15  16
HETATM   16  C   UNL     1      -6.866   9.435  65.737  1.00  0.00    -0.085 C  
BRANCH  16  17
HETATM   17  C   UNL     1      -8.327   9.927  65.531  1.00  0.00    -0.140 C  
HETATM   18  C   UNL     1      -9.289   8.937  66.224  1.00  0.00    -0.279 C  
HETATM   19  C   UNL     1      -8.576  10.116  64.035  1.00  0.00    -0.197 C  
HETATM   20  C   UNL     1      -9.987  10.596  63.789  1.00  0.00    -0.379 C  
HETATM   21  C   UNL     1     -10.408  11.652  64.774  1.00  0.00    -0.331 A  
HETATM   22  C   UNL     1     -11.629  12.331  64.599  1.00  0.00    -0.404 A  
HETATM   23  C   UNL     1     -12.555  11.993  63.458  1.00  0.00    -0.625 C  
HETATM   24  C   UNL     1     -11.979  13.328  65.525  1.00  0.00    -0.405 A  
HETATM   25  C   UNL     1     -11.162  13.648  66.630  1.00  0.00    -0.324 A  
HETATM   26  O   UNL     1     -13.149  14.031  65.396  1.00  0.00    -0.763 OA 
HETATM   27  C   UNL     1     -11.585  14.726  67.595  1.00  0.00    -0.374 C  
HETATM   28  C   UNL     1      -9.955  12.936  66.820  1.00  0.00    -0.243 A  
HETATM   29  H   UNL     1     -13.385  14.705  66.022  1.00  0.00     0.000 HD 
HETATM   30  C   UNL     1      -9.601  11.928  65.898  1.00  0.00    -0.231 A  
HETATM   31  C   UNL     1      -9.040  13.201  67.991  1.00  0.00    -0.207 C  
HETATM   32  O   UNL     1      -8.449  11.216  66.180  1.00  0.00    -0.169 OA 
ENDBRANCH  16  17
ENDBRANCH  15  16
ENDBRANCH  13  15
ENDBRANCH  10  11
ENDBRANCH   9  10
ENDBRANCH   5   6
ENDBRANCH   4   5
TORSDOF 7
ENDMDL
MODEL      227
REMARK 921   NORMALIZED FREE ENERGY PREDICTED BY IDOCK:   -4.09 KCAL/MOL
REMARK 922        TOTAL FREE ENERGY PREDICTED BY IDOCK:   -7.51 KCAL/MOL
REMARK 923 INTER-LIGAND FREE ENERGY PREDICTED BY IDOCK:   -6.68 KCAL/MOL
REMARK 924 INTRA-LIGAND FREE ENERGY PREDICTED BY IDOCK:   -0.83 KCAL/MOL
REMARK 927      BINDING AFFINITY PREDICTED BY RF-SCORE:    0.00 PKD
ROOT
HETATM    1  C   UNL     1     -10.556  19.704  66.025  1.00  0.00    -0.584 C  
HETATM    2  C   UNL     1      -9.489  19.021  66.877  1.00  0.00    -0.355 C  
HETATM    3  C   UNL     1      -9.601  19.499  68.328  1.00  0.00    -0.464 C  
HETATM    4  C   UNL     1      -9.614  17.490  66.740  1.00  0.00    -0.286 C  
ENDROOT
BRANCH   4   5
HETATM    5  C   UNL     1      -8.562  16.755  67.566  1.00  0.00    -0.203 C  
BRANCH   5   6
HETATM    6  C   UNL     1      -9.171  15.812  68.600  1.00  0.00    -0.207 C  
HETATM    7  C   UNL     1     -10.344  14.999  68.014  1.00  0.00    -0.236 C  
HETATM    8  C   UNL     1      -9.906  14.141  66.818  1.00  0.00    -0.275 C  
HETATM    9  C   UNL     1     -10.979  14.142  69.125  1.00  0.00    -0.280 C  
BRANCH   9  10
HETATM   10  C   UNL     1     -12.150  13.314  68.601  1.00  0.00    -0.257 C  
BRANCH  10  11
HETATM   11  C   UNL     1     -12.144  11.895  69.145  1.00  0.00    -0.261 C  
HETATM   12  C   UNL     1     -11.914  11.870  70.670  1.00  0.00    -0.289 C  
HETATM   13  C   UNL     1     -11.787  10.430  71.190  1.00  0.00    -0.432 C  
HETATM   14  C   UNL     1     -13.035  12.579  71.441  1.00  0.00    -0.347 C  
BRANCH  13  15
HETATM   15  C   UNL     1     -10.678   9.602  70.542  1.00  0.00    -0.374 C  
BRANCH  15  16
HETATM   16  C   UNL     1     -10.935   8.084  70.526  1.00  0.00    -0.247 C  
BRANCH  16  17
HETATM   17  C   UNL     1      -9.904   7.286  69.679  1.00  0.00    -0.163 C  
HETATM   18  C   UNL     1      -8.571   8.066  69.651  1.00  0.00    -0.135 C  
HETATM   19  C   UNL     1     -10.508   7.007  68.303  1.00  0.00    -0.237 C  
HETATM   20  C   UNL     1      -9.538   6.230  67.446  1.00  0.00    -0.129 C  
HETATM   21  C   UNL     1      -8.850   5.135  68.214  1.00  0.00    -0.107 A  
HETATM   22  C   UNL     1      -8.035   4.207  67.540  1.00  0.00    -0.091 A  
HETATM   23  C   UNL     1      -7.800   4.307  66.054  1.00  0.00    -0.094 C  
HETATM   24  C   UNL     1      -7.428   3.183  68.287  1.00  0.00    -0.053 A  
HETATM   25  C   UNL     1      -7.588   3.075  69.683  1.00  0.00    -0.044 A  
HETATM   26  O   UNL     1      -6.636   2.243  67.679  1.00  0.00    -0.034 OA 
HETATM   27  C   UNL     1      -6.912   1.959  70.437  1.00  0.00    -0.033 C  
HETATM   28  C   UNL     1      -8.377   4.034  70.360  1.00  0.00    -0.081 A  
HETATM   29  H   UNL     1      -6.225   1.551  68.185  1.00  0.00     0.000 HD 
HETATM   30  C   UNL     1      -8.985   5.069  69.617  1.00  0.00    -0.099 A  
HETATM   31  C   UNL     1      -8.576   4.003  71.855  1.00  0.00    -0.118 C  
HETATM   32  O   UNL     1      -9.681   6.018  70.344  1.00  0.00    -0.165 OA 
ENDBRANCH  16  17
ENDBRANCH  15  16
ENDBRANCH  13  15
ENDBRANCH  10  11
ENDBRANCH   9  10
ENDBRANCH   5   6
ENDBRANCH   4   5
TORSDOF 7
ENDMDL
MODEL      228
REMARK 921   NORMALIZED FREE ENERGY PREDICTED BY IDOCK:   -4.08 KCAL/MOL
REMARK 922        TOTAL FREE ENERGY PREDICTED BY IDOCK:   -7.51 KCAL/MOL
REMARK 923 INTER-LIGAND FREE ENERGY PREDICTED BY IDOCK:   -5.02 KCAL/MOL
REMARK 924 INTRA-LIGAND FREE ENERGY PREDICTED BY IDOCK:   -2.49 KCAL/MOL
REMARK 927      BINDING AFFINITY PREDICTED BY RF-SCORE:    0.00 PKD
ROOT
HETATM    1  C   UNL     1      -6.649  10.454  63.388  1.00  0.00    -0.055 C  
HETATM    2  C   UNL     1      -7.421  10.185  64.678  1.00  0.00    -0.132 C  
HETATM    3  C   UNL     1      -8.841  10.747  64.559  1.00  0.00    -0.143 C  
HETATM    4  C   UNL     1      -7.399   8.676  64.994  1.00  0.00    -0.086 C  
ENDROOT
BRANCH   4   5
HETATM    5  C   UNL     1      -8.149   8.351  66.282  1.00  0.00    -0.105 C  
BRANCH   5   6
HETATM    6  C   UNL     1      -7.252   7.734  67.352  1.00  0.00    -0.091 C  
HETATM    7  C   UNL     1      -8.063   6.910  68.373  1.00  0.00    -0.120 C  
HETATM    8  C   UNL     1      -8.830   5.759  67.704  1.00  0.00    -0.105 C  
HETATM    9  C   UNL     1      -7.121   6.396  69.479  1.00  0.00    -0.073 C  
BRANCH   9  10
HETATM   10  C   UNL     1      -7.871   5.571  70.522  1.00  0.00    -0.098 C  
BRANCH  10  11
HETATM   11  C   UNL     1      -8.956   6.374  71.222  1.00  0.00    -0.142 C  
HETATM   12  C   UNL     1     -10.341   5.711  71.073  1.00  0.00    -0.297 C  
HETATM   13  C   UNL     1     -11.446   6.592  71.677  1.00  0.00    -0.345 C  
HETATM   14  C   UNL     1     -10.398   4.326  71.727  1.00  0.00    -0.110 C  
BRANCH  13  15
HETATM   15  C   UNL     1     -11.542   8.001  71.094  1.00  0.00    -0.307 C  
BRANCH  15  16
HETATM   16  C   UNL     1     -10.845   8.184  69.733  1.00  0.00    -0.190 C  
BRANCH  16  17
HETATM   17  C   UNL     1     -10.764   9.665  69.268  1.00  0.00    -0.226 C  
HETATM   18  C   UNL     1     -11.308  10.572  70.393  1.00  0.00    -0.411 C  
HETATM   19  C   UNL     1     -11.492   9.802  67.931  1.00  0.00     0.405 C  
HETATM   20  C   UNL     1     -11.436  11.228  67.440  1.00  0.00    -0.300 C  
HETATM   21  C   UNL     1     -10.078  11.845  67.637  1.00  0.00    -0.202 A  
HETATM   22  C   UNL     1      -9.794  13.111  67.093  1.00  0.00    -0.235 A  
HETATM   23  C   UNL     1     -10.842  13.892  66.341  1.00  0.00    -0.291 C  
HETATM   24  C   UNL     1      -8.507  13.645  67.276  1.00  0.00    -0.194 A  
HETATM   25  C   UNL     1      -7.509  12.967  68.005  1.00  0.00    -0.134 A  
HETATM   26  O   UNL     1      -8.171  14.868  66.754  1.00  0.00    -0.342 OA 
HETATM   27  C   UNL     1      -6.145  13.586  68.174  1.00  0.00    -0.115 C  
HETATM   28  C   UNL     1      -7.813  11.712  68.582  1.00  0.00    -0.132 A  
HETATM   29  H   UNL     1      -7.300  15.228  66.878  1.00  0.00     0.000 HD 
HETATM   30  C   UNL     1      -9.106  11.173  68.408  1.00  0.00    -0.168 A  
HETATM   31  C   UNL     1      -6.809  10.937  69.399  1.00  0.00    -0.114 C  
HETATM   32  O   UNL     1      -9.366   9.980  69.059  1.00  0.00    -0.161 OA 
ENDBRANCH  16  17
ENDBRANCH  15  16
ENDBRANCH  13  15
ENDBRANCH  10  11
ENDBRANCH   9  10
ENDBRANCH   5   6
ENDBRANCH   4   5
TORSDOF 7
ENDMDL
MODEL      229
REMARK 921   NORMALIZED FREE ENERGY PREDICTED BY IDOCK:   -4.08 KCAL/MOL
REMARK 922        TOTAL FREE ENERGY PREDICTED BY IDOCK:   -7.50 KCAL/MOL
REMARK 923 INTER-LIGAND FREE ENERGY PREDICTED BY IDOCK:   -7.17 KCAL/MOL
REMARK 924 INTRA-LIGAND FREE ENERGY PREDICTED BY IDOCK:   -0.33 KCAL/MOL
REMARK 927      BINDING AFFINITY PREDICTED BY RF-SCORE:    0.00 PKD
ROOT
HETATM    1  C   UNL     1      -6.363  20.862  66.928  1.00  0.00    -0.352 C  
HETATM    2  C   UNL     1      -7.424  19.903  67.464  1.00  0.00    -0.314 C  
HETATM    3  C   UNL     1      -8.816  20.515  67.280  1.00  0.00    -0.404 C  
HETATM    4  C   UNL     1      -7.278  18.529  66.778  1.00  0.00    -0.231 C  
ENDROOT
BRANCH   4   5
HETATM    5  C   UNL     1      -8.310  17.526  67.285  1.00  0.00    -0.225 C  
BRANCH   5   6
HETATM    6  C   UNL     1      -9.290  17.083  66.202  1.00  0.00    -0.245 C  
HETATM    7  C   UNL     1     -10.107  15.850  66.638  1.00  0.00    -0.287 C  
HETATM    8  C   UNL     1     -10.926  16.123  67.909  1.00  0.00    -0.318 C  
HETATM    9  C   UNL     1     -11.004  15.392  65.473  1.00  0.00    -0.350 C  
BRANCH   9  10
HETATM   10  C   UNL     1     -11.838  14.169  65.849  1.00  0.00    -0.391 C  
BRANCH  10  11
HETATM   11  C   UNL     1     -10.976  12.976  66.227  1.00  0.00    -0.303 C  
HETATM   12  C   UNL     1     -11.066  11.851  65.175  1.00  0.00    -0.360 C  
HETATM   13  C   UNL     1     -10.289  10.605  65.626  1.00  0.00    -0.285 C  
HETATM   14  C   UNL     1     -10.542  12.292  63.803  1.00  0.00    -0.488 C  
BRANCH  13  15
HETATM   15  C   UNL     1     -10.727  10.019  66.968  1.00  0.00    -0.248 C  
BRANCH  15  16
HETATM   16  C   UNL     1      -9.574   9.703  67.939  1.00  0.00    -0.159 C  
BRANCH  16  17
HETATM   17  C   UNL     1      -8.853   8.360  67.633  1.00  0.00    -0.136 C  
HETATM   18  C   UNL     1      -7.401   8.442  68.154  1.00  0.00    -0.096 C  
HETATM   19  C   UNL     1      -8.978   8.063  66.139  1.00  0.00    -0.215 C  
HETATM   20  C   UNL     1      -8.292   6.762  65.797  1.00  0.00    -0.143 C  
HETATM   21  C   UNL     1      -8.566   5.689  66.815  1.00  0.00    -0.111 A  
HETATM   22  C   UNL     1      -8.143   4.368  66.578  1.00  0.00    -0.102 A  
HETATM   23  C   UNL     1      -7.376   4.005  65.331  1.00  0.00    -0.076 C  
HETATM   24  C   UNL     1      -8.439   3.387  67.540  1.00  0.00    -0.097 A  
HETATM   25  C   UNL     1      -9.118   3.690  68.737  1.00  0.00    -0.200 A  
HETATM   26  O   UNL     1      -8.064   2.082  67.353  1.00  0.00    -0.064 OA 
HETATM   27  C   UNL     1      -9.408   2.600  69.737  1.00  0.00    -0.185 C  
HETATM   28  C   UNL     1      -9.507   5.026  68.987  1.00  0.00    -0.194 A  
HETATM   29  H   UNL     1      -8.264   1.419  68.004  1.00  0.00     0.000 HD 
HETATM   30  C   UNL     1      -9.207   6.019  68.029  1.00  0.00    -0.115 A  
HETATM   31  C   UNL     1     -10.214   5.436  70.256  1.00  0.00    -0.338 C  
HETATM   32  O   UNL     1      -9.545   7.317  68.364  1.00  0.00    -0.139 OA 
ENDBRANCH  16  17
ENDBRANCH  15  16
ENDBRANCH  13  15
ENDBRANCH  10  11
ENDBRANCH   9  10
ENDBRANCH   5   6
ENDBRANCH   4   5
TORSDOF 7
ENDMDL
MODEL      230
REMARK 921   NORMALIZED FREE ENERGY PREDICTED BY IDOCK:   -4.08 KCAL/MOL
REMARK 922        TOTAL FREE ENERGY PREDICTED BY IDOCK:   -7.50 KCAL/MOL
REMARK 923 INTER-LIGAND FREE ENERGY PREDICTED BY IDOCK:   -5.50 KCAL/MOL
REMARK 924 INTRA-LIGAND FREE ENERGY PREDICTED BY IDOCK:   -1.99 KCAL/MOL
REMARK 927      BINDING AFFINITY PREDICTED BY RF-SCORE:    0.00 PKD
ROOT
HETATM    1  C   UNL     1      -9.710   3.457  63.632  1.00  0.00    -0.141 C  
HETATM    2  C   UNL     1      -9.505   4.363  64.845  1.00  0.00    -0.164 C  
HETATM    3  C   UNL     1     -10.783   4.393  65.689  1.00  0.00    -0.083 C  
HETATM    4  C   UNL     1      -8.272   3.895  65.643  1.00  0.00    -0.105 C  
ENDROOT
BRANCH   4   5
HETATM    5  C   UNL     1      -8.014   4.774  66.863  1.00  0.00    -0.103 C  
BRANCH   5   6
HETATM    6  C   UNL     1      -7.513   3.983  68.069  1.00  0.00    -0.067 C  
HETATM    7  C   UNL     1      -8.179   4.454  69.379  1.00  0.00    -0.068 C  
HETATM    8  C   UNL     1      -9.706   4.300  69.335  1.00  0.00    -0.257 C  
HETATM    9  C   UNL     1      -7.565   3.691  70.568  1.00  0.00    -0.041 C  
BRANCH   9  10
HETATM   10  C   UNL     1      -8.187   4.119  71.895  1.00  0.00    -0.092 C  
BRANCH  10  11
HETATM   11  C   UNL     1      -8.159   5.627  72.087  1.00  0.00    -0.108 C  
HETATM   12  C   UNL     1      -9.282   6.102  73.032  1.00  0.00    -0.133 C  
HETATM   13  C   UNL     1      -9.321   7.635  73.121  1.00  0.00    -0.289 C  
HETATM   14  C   UNL     1      -9.137   5.527  74.446  1.00  0.00    -0.122 C  
BRANCH  13  15
HETATM   15  C   UNL     1      -9.503   8.358  71.787  1.00  0.00    -0.302 C  
BRANCH  15  16
HETATM   16  C   UNL     1     -10.384   7.612  70.767  1.00  0.00    -0.203 C  
BRANCH  16  17
HETATM   17  C   UNL     1     -10.062   7.967  69.288  1.00  0.00    -0.197 C  
HETATM   18  C   UNL     1     -10.820   6.989  68.363  1.00  0.00    -0.191 C  
HETATM   19  C   UNL     1      -8.545   7.972  69.103  1.00  0.00    -0.137 C  
HETATM   20  C   UNL     1      -8.186   8.315  67.677  1.00  0.00    -0.127 C  
HETATM   21  C   UNL     1      -9.026   9.437  67.133  1.00  0.00    -0.144 A  
HETATM   22  C   UNL     1      -8.723   9.999  65.878  1.00  0.00    -0.154 A  
HETATM   23  C   UNL     1      -7.589   9.470  65.037  1.00  0.00    -0.113 C  
HETATM   24  C   UNL     1      -9.515  11.063  65.412  1.00  0.00    -0.222 A  
HETATM   25  C   UNL     1     -10.610  11.562  66.147  1.00  0.00    -0.314 A  
HETATM   26  O   UNL     1      -9.256  11.657  64.204  1.00  0.00    -0.422 OA 
HETATM   27  C   UNL     1     -11.428  12.704  65.601  1.00  0.00    -0.387 C  
HETATM   28  C   UNL     1     -10.932  10.969  67.389  1.00  0.00    -0.349 A  
HETATM   29  H   UNL     1      -9.792  12.376  63.890  1.00  0.00     0.000 HD 
HETATM   30  C   UNL     1     -10.145   9.895  67.860  1.00  0.00    -0.173 A  
HETATM   31  C   UNL     1     -12.103  11.428  68.222  1.00  0.00    -0.079 C  
HETATM   32  O   UNL     1     -10.555   9.307  69.043  1.00  0.00    -0.218 OA 
ENDBRANCH  16  17
ENDBRANCH  15  16
ENDBRANCH  13  15
ENDBRANCH  10  11
ENDBRANCH   9  10
ENDBRANCH   5   6
ENDBRANCH   4   5
TORSDOF 7
ENDMDL
MODEL      231
REMARK 921   NORMALIZED FREE ENERGY PREDICTED BY IDOCK:   -4.06 KCAL/MOL
REMARK 922        TOTAL FREE ENERGY PREDICTED BY IDOCK:   -7.48 KCAL/MOL
REMARK 923 INTER-LIGAND FREE ENERGY PREDICTED BY IDOCK:   -5.75 KCAL/MOL
REMARK 924 INTRA-LIGAND FREE ENERGY PREDICTED BY IDOCK:   -1.73 KCAL/MOL
REMARK 927      BINDING AFFINITY PREDICTED BY RF-SCORE:    0.00 PKD
ROOT
HETATM    1  C   UNL     1      -8.458  19.745  68.483  1.00  0.00    -0.269 C  
HETATM    2  C   UNL     1      -9.398  18.845  67.684  1.00  0.00    -0.331 C  
HETATM    3  C   UNL     1     -10.309  19.703  66.800  1.00  0.00    -0.591 C  
HETATM    4  C   UNL     1      -8.578  17.818  66.878  1.00  0.00    -0.260 C  
ENDROOT
BRANCH   4   5
HETATM    5  C   UNL     1      -9.470  16.883  66.067  1.00  0.00    -0.227 C  
BRANCH   5   6
HETATM    6  C   UNL     1      -9.217  15.409  66.371  1.00  0.00    -0.339 C  
HETATM    7  C   UNL     1     -10.516  14.579  66.297  1.00  0.00    -0.303 C  
HETATM    8  C   UNL     1     -11.166  14.652  64.907  1.00  0.00    -0.400 C  
HETATM    9  C   UNL     1     -10.217  13.124  66.707  1.00  0.00    -0.252 C  
BRANCH   9  10
HETATM   10  C   UNL     1     -11.470  12.253  66.654  1.00  0.00    -0.431 C  
BRANCH  10  11
HETATM   11  C   UNL     1     -11.491  11.202  67.752  1.00  0.00    -0.349 C  
HETATM   12  C   UNL     1     -11.229  11.823  69.140  1.00  0.00    -0.324 C  
HETATM   13  C   UNL     1     -11.131  10.738  70.223  1.00  0.00    -0.248 C  
HETATM   14  C   UNL     1     -12.314  12.829  69.543  1.00  0.00    -0.016 C  
BRANCH  13  15
HETATM   15  C   UNL     1     -10.058   9.676  69.982  1.00  0.00    -0.293 C  
BRANCH  15  16
HETATM   16  C   UNL     1      -8.610  10.184  70.112  1.00  0.00     0.085 C  
BRANCH  16  17
HETATM   17  C   UNL     1      -7.695   9.768  68.926  1.00  0.00    -0.082 C  
HETATM   18  C   UNL     1      -6.305   9.382  69.478  1.00  0.00    -0.040 C  
HETATM   19  C   UNL     1      -7.680  10.899  67.897  1.00  0.00    -0.104 C  
HETATM   20  C   UNL     1      -6.802  10.536  66.723  1.00  0.00    -0.103 C  
HETATM   21  C   UNL     1      -6.995   9.109  66.288  1.00  0.00    -0.086 A  
HETATM   22  C   UNL     1      -6.382   8.642  65.110  1.00  0.00    -0.060 A  
HETATM   23  C   UNL     1      -5.493   9.537  64.285  1.00  0.00    -0.063 C  
HETATM   24  C   UNL     1      -6.604   7.310  64.722  1.00  0.00    -0.040 A  
HETATM   25  C   UNL     1      -7.396   6.427  65.485  1.00  0.00    -0.076 A  
HETATM   26  O   UNL     1      -6.044   6.808  63.576  1.00  0.00    -0.037 OA 
HETATM   27  C   UNL     1      -7.601   5.007  65.024  1.00  0.00    -0.078 C  
HETATM   28  C   UNL     1      -7.978   6.891  66.687  1.00  0.00    -0.108 A  
HETATM   29  H   UNL     1      -6.195   5.907  63.314  1.00  0.00     0.000 HD 
HETATM   30  C   UNL     1      -7.753   8.226  67.087  1.00  0.00    -0.097 A  
HETATM   31  C   UNL     1      -8.816   6.001  67.572  1.00  0.00    -0.109 C  
HETATM   32  O   UNL     1      -8.286   8.599  68.308  1.00  0.00    -0.120 OA 
ENDBRANCH  16  17
ENDBRANCH  15  16
ENDBRANCH  13  15
ENDBRANCH  10  11
ENDBRANCH   9  10
ENDBRANCH   5   6
ENDBRANCH   4   5
TORSDOF 7
ENDMDL
MODEL      232
REMARK 921   NORMALIZED FREE ENERGY PREDICTED BY IDOCK:   -4.05 KCAL/MOL
REMARK 922        TOTAL FREE ENERGY PREDICTED BY IDOCK:   -7.46 KCAL/MOL
REMARK 923 INTER-LIGAND FREE ENERGY PREDICTED BY IDOCK:   -6.47 KCAL/MOL
REMARK 924 INTRA-LIGAND FREE ENERGY PREDICTED BY IDOCK:   -1.00 KCAL/MOL
REMARK 927      BINDING AFFINITY PREDICTED BY RF-SCORE:    0.00 PKD
ROOT
HETATM    1  C   UNL     1     -12.599   6.893  71.332  1.00  0.00    -0.400 C  
HETATM    2  C   UNL     1     -11.555   7.051  72.436  1.00  0.00    -0.284 C  
HETATM    3  C   UNL     1     -11.059   5.672  72.880  1.00  0.00    -0.337 C  
HETATM    4  C   UNL     1     -10.416   7.968  71.949  1.00  0.00    -0.296 C  
ENDROOT
BRANCH   4   5
HETATM    5  C   UNL     1      -9.348   8.170  73.019  1.00  0.00    -0.335 C  
BRANCH   5   6
HETATM    6  C   UNL     1      -8.126   7.278  72.814  1.00  0.00    -0.122 C  
HETATM    7  C   UNL     1      -7.722   7.194  71.327  1.00  0.00    -0.093 C  
HETATM    8  C   UNL     1      -7.381   8.574  70.745  1.00  0.00    -0.066 C  
HETATM    9  C   UNL     1      -6.549   6.208  71.171  1.00  0.00    -0.050 C  
BRANCH   9  10
HETATM   10  C   UNL     1      -6.106   6.083  69.715  1.00  0.00    -0.026 C  
BRANCH  10  11
HETATM   11  C   UNL     1      -7.275   6.168  68.746  1.00  0.00    -0.084 C  
HETATM   12  C   UNL     1      -6.818   6.606  67.339  1.00  0.00    -0.073 C  
HETATM   13  C   UNL     1      -8.019   6.807  66.403  1.00  0.00    -0.106 C  
HETATM   14  C   UNL     1      -5.854   5.599  66.699  1.00  0.00    -0.018 C  
BRANCH  13  15
HETATM   15  C   UNL     1      -9.057   7.819  66.888  1.00  0.00    -0.171 C  
BRANCH  15  16
HETATM   16  C   UNL     1      -9.533   8.817  65.815  1.00  0.00    -0.239 C  
BRANCH  16  17
HETATM   17  C   UNL     1      -9.202  10.298  66.151  1.00  0.00    -0.158 C  
HETATM   18  C   UNL     1      -7.835  10.658  65.529  1.00  0.00    -0.099 C  
HETATM   19  C   UNL     1      -9.283  10.489  67.666  1.00  0.00    -0.153 C  
HETATM   20  C   UNL     1      -8.970  11.918  68.037  1.00  0.00    -0.185 C  
HETATM   21  C   UNL     1      -9.622  12.904  67.107  1.00  0.00    -0.225 A  
HETATM   22  C   UNL     1      -9.575  14.281  67.394  1.00  0.00    -0.214 A  
HETATM   23  C   UNL     1      -8.844  14.803  68.606  1.00  0.00    -0.180 C  
HETATM   24  C   UNL     1     -10.217  15.171  66.516  1.00  0.00    -0.276 A  
HETATM   25  C   UNL     1     -10.878  14.730  65.351  1.00  0.00    -0.372 A  
HETATM   26  O   UNL     1     -10.215  16.521  66.754  1.00  0.00    -0.281 OA 
HETATM   27  C   UNL     1     -11.548  15.727  64.440  1.00  0.00    -0.240 C  
HETATM   28  C   UNL     1     -10.889  13.349  65.048  1.00  0.00    -0.337 A  
HETATM   29  H   UNL     1     -10.649  17.122  66.160  1.00  0.00     0.000 HD 
HETATM   30  C   UNL     1     -10.240  12.450  65.922  1.00  0.00    -0.251 A  
HETATM   31  C   UNL     1     -11.551  12.802  63.808  1.00  0.00    -0.548 C  
HETATM   32  O   UNL     1     -10.220  11.123  65.534  1.00  0.00    -0.243 OA 
ENDBRANCH  16  17
ENDBRANCH  15  16
ENDBRANCH  13  15
ENDBRANCH  10  11
ENDBRANCH   9  10
ENDBRANCH   5   6
ENDBRANCH   4   5
TORSDOF 7
ENDMDL
MODEL      233
REMARK 921   NORMALIZED FREE ENERGY PREDICTED BY IDOCK:   -4.05 KCAL/MOL
REMARK 922        TOTAL FREE ENERGY PREDICTED BY IDOCK:   -7.46 KCAL/MOL
REMARK 923 INTER-LIGAND FREE ENERGY PREDICTED BY IDOCK:   -6.72 KCAL/MOL
REMARK 924 INTRA-LIGAND FREE ENERGY PREDICTED BY IDOCK:   -0.74 KCAL/MOL
REMARK 927      BINDING AFFINITY PREDICTED BY RF-SCORE:    0.00 PKD
ROOT
HETATM    1  C   UNL     1     -10.292  15.346  65.068  1.00  0.00    -0.362 C  
HETATM    2  C   UNL     1     -11.375  14.997  66.086  1.00  0.00    -0.270 C  
HETATM    3  C   UNL     1     -12.343  13.976  65.481  1.00  0.00    -0.503 C  
HETATM    4  C   UNL     1     -10.723  14.502  67.393  1.00  0.00    -0.282 C  
ENDROOT
BRANCH   4   5
HETATM    5  C   UNL     1     -11.763  14.148  68.451  1.00  0.00    -0.380 C  
BRANCH   5   6
HETATM    6  C   UNL     1     -12.121  12.664  68.459  1.00  0.00    -0.130 C  
HETATM    7  C   UNL     1     -11.744  11.992  69.796  1.00  0.00    -0.390 C  
HETATM    8  C   UNL     1     -12.464  12.640  70.988  1.00  0.00    -0.354 C  
HETATM    9  C   UNL     1     -12.037  10.482  69.709  1.00  0.00    -0.285 C  
BRANCH   9  10
HETATM   10  C   UNL     1     -11.681   9.762  71.008  1.00  0.00    -0.453 C  
BRANCH  10  11
HETATM   11  C   UNL     1     -11.277   8.315  70.774  1.00  0.00    -0.284 C  
HETATM   12  C   UNL     1     -10.279   7.823  71.842  1.00  0.00    -0.250 C  
HETATM   13  C   UNL     1      -9.784   6.403  71.527  1.00  0.00    -0.182 C  
HETATM   14  C   UNL     1     -10.880   7.837  73.253  1.00  0.00    -0.312 C  
BRANCH  13  15
HETATM   15  C   UNL     1      -9.119   6.236  70.161  1.00  0.00    -0.155 C  
BRANCH  15  16
HETATM   16  C   UNL     1     -10.036   5.661  69.066  1.00  0.00    -0.259 C  
BRANCH  16  17
HETATM   17  C   UNL     1      -9.359   5.573  67.669  1.00  0.00    -0.112 C  
HETATM   18  C   UNL     1     -10.279   4.778  66.717  1.00  0.00    -0.253 C  
HETATM   19  C   UNL     1      -7.958   4.988  67.837  1.00  0.00    -0.094 C  
HETATM   20  C   UNL     1      -7.261   4.887  66.501  1.00  0.00    -0.077 C  
HETATM   21  C   UNL     1      -7.482   6.107  65.650  1.00  0.00    -0.082 A  
HETATM   22  C   UNL     1      -6.779   6.260  64.441  1.00  0.00    -0.038 A  
HETATM   23  C   UNL     1      -5.826   5.199  63.951  1.00  0.00    -0.017 C  
HETATM   24  C   UNL     1      -6.993   7.425  63.684  1.00  0.00    -0.059 A  
HETATM   25  C   UNL     1      -7.904   8.424  64.084  1.00  0.00    -0.145 A  
HETATM   26  O   UNL     1      -6.323   7.633  62.506  1.00  0.00    -0.069 OA 
HETATM   27  C   UNL     1      -8.097   9.653  63.234  1.00  0.00    -0.149 C  
HETATM   28  C   UNL     1      -8.636   8.247  65.281  1.00  0.00    -0.159 A  
HETATM   29  H   UNL     1      -6.468   8.420  61.995  1.00  0.00     0.000 HD 
HETATM   30  C   UNL     1      -8.431   7.076  66.043  1.00  0.00    -0.139 A  
HETATM   31  C   UNL     1      -9.648   9.257  65.763  1.00  0.00    -0.341 C  
HETATM   32  O   UNL     1      -9.230   6.924  67.161  1.00  0.00    -0.132 OA 
ENDBRANCH  16  17
ENDBRANCH  15  16
ENDBRANCH  13  15
ENDBRANCH  10  11
ENDBRANCH   9  10
ENDBRANCH   5   6
ENDBRANCH   4   5
TORSDOF 7
ENDMDL
MODEL      234
REMARK 921   NORMALIZED FREE ENERGY PREDICTED BY IDOCK:   -4.04 KCAL/MOL
REMARK 922        TOTAL FREE ENERGY PREDICTED BY IDOCK:   -7.45 KCAL/MOL
REMARK 923 INTER-LIGAND FREE ENERGY PREDICTED BY IDOCK:   -6.31 KCAL/MOL
REMARK 924 INTRA-LIGAND FREE ENERGY PREDICTED BY IDOCK:   -1.14 KCAL/MOL
REMARK 927      BINDING AFFINITY PREDICTED BY RF-SCORE:    0.00 PKD
ROOT
HETATM    1  C   UNL     1     -10.172   2.203  63.288  1.00  0.00    -0.133 C  
HETATM    2  C   UNL     1      -9.758   3.445  64.074  1.00  0.00    -0.161 C  
HETATM    3  C   UNL     1     -11.001   4.134  64.645  1.00  0.00    -0.058 C  
HETATM    4  C   UNL     1      -8.736   3.058  65.160  1.00  0.00    -0.117 C  
ENDROOT
BRANCH   4   5
HETATM    5  C   UNL     1      -8.278   4.266  65.972  1.00  0.00    -0.105 C  
BRANCH   5   6
HETATM    6  C   UNL     1      -8.234   3.992  67.472  1.00  0.00    -0.094 C  
HETATM    7  C   UNL     1      -9.023   5.050  68.272  1.00  0.00    -0.120 C  
HETATM    8  C   UNL     1     -10.503   5.095  67.861  1.00  0.00    -0.100 C  
HETATM    9  C   UNL     1      -8.861   4.777  69.779  1.00  0.00    -0.128 C  
BRANCH   9  10
HETATM   10  C   UNL     1      -9.623   5.798  70.622  1.00  0.00    -0.214 C  
BRANCH  10  11
HETATM   11  C   UNL     1      -9.462   7.216  70.097  1.00  0.00    -0.161 C  
HETATM   12  C   UNL     1     -10.825   7.918  69.927  1.00  0.00    -0.221 C  
HETATM   13  C   UNL     1     -10.660   9.303  69.282  1.00  0.00    -0.234 C  
HETATM   14  C   UNL     1     -11.570   8.077  71.258  1.00  0.00    -0.306 C  
BRANCH  13  15
HETATM   15  C   UNL     1      -9.965   9.305  67.921  1.00  0.00    -0.228 C  
BRANCH  15  16
HETATM   16  C   UNL     1      -8.502   9.785  67.947  1.00  0.00    -0.125 C  
BRANCH  16  17
HETATM   17  C   UNL     1      -8.317  11.247  67.454  1.00  0.00    -0.137 C  
HETATM   18  C   UNL     1      -7.257  11.267  66.331  1.00  0.00    -0.052 C  
HETATM   19  C   UNL     1      -7.988  12.133  68.656  1.00  0.00    -0.063 C  
HETATM   20  C   UNL     1      -7.802  13.568  68.222  1.00  0.00    -0.145 C  
HETATM   21  C   UNL     1      -8.835  13.997  67.217  1.00  0.00    -0.225 A  
HETATM   22  C   UNL     1      -8.917  15.345  66.823  1.00  0.00    -0.288 A  
HETATM   23  C   UNL     1      -7.957  16.377  67.360  1.00  0.00    -0.179 C  
HETATM   24  C   UNL     1      -9.911  15.714  65.900  1.00  0.00    -0.350 A  
HETATM   25  C   UNL     1     -10.803  14.776  65.341  1.00  0.00    -0.372 A  
HETATM   26  O   UNL     1     -10.045  17.016  65.492  1.00  0.00    -0.577 OA 
HETATM   27  C   UNL     1     -11.850  15.224  64.354  1.00  0.00    -0.288 C  
HETATM   28  C   UNL     1     -10.691  13.416  65.713  1.00  0.00    -0.280 A  
HETATM   29  H   UNL     1     -10.717  17.265  64.868  1.00  0.00     0.000 HD 
HETATM   30  C   UNL     1      -9.691  13.037  66.634  1.00  0.00    -0.256 A  
HETATM   31  C   UNL     1     -11.591  12.348  65.141  1.00  0.00    -0.408 C  
HETATM   32  O   UNL     1      -9.582  11.684  66.900  1.00  0.00    -0.182 OA 
ENDBRANCH  16  17
ENDBRANCH  15  16
ENDBRANCH  13  15
ENDBRANCH  10  11
ENDBRANCH   9  10
ENDBRANCH   5   6
ENDBRANCH   4   5
TORSDOF 7
ENDMDL
MODEL      235
REMARK 921   NORMALIZED FREE ENERGY PREDICTED BY IDOCK:   -4.02 KCAL/MOL
REMARK 922        TOTAL FREE ENERGY PREDICTED BY IDOCK:   -7.42 KCAL/MOL
REMARK 923 INTER-LIGAND FREE ENERGY PREDICTED BY IDOCK:   -4.64 KCAL/MOL
REMARK 924 INTRA-LIGAND FREE ENERGY PREDICTED BY IDOCK:   -2.78 KCAL/MOL
REMARK 927      BINDING AFFINITY PREDICTED BY RF-SCORE:    0.00 PKD
ROOT
HETATM    1  C   UNL     1      -5.955  16.373  69.561  1.00  0.00    -0.176 C  
HETATM    2  C   UNL     1      -6.731  15.064  69.685  1.00  0.00    -0.177 C  
HETATM    3  C   UNL     1      -8.218  15.316  69.414  1.00  0.00    -0.233 C  
HETATM    4  C   UNL     1      -6.122  14.006  68.743  1.00  0.00    -0.086 C  
ENDROOT
BRANCH   4   5
HETATM    5  C   UNL     1      -6.854  12.671  68.834  1.00  0.00    -0.097 C  
BRANCH   5   6
HETATM    6  C   UNL     1      -6.133  11.657  69.718  1.00  0.00    -0.131 C  
HETATM    7  C   UNL     1      -6.058  10.267  69.052  1.00  0.00    -0.037 C  
HETATM    8  C   UNL     1      -5.312  10.313  67.710  1.00  0.00    -0.041 C  
HETATM    9  C   UNL     1      -5.410   9.267  70.027  1.00  0.00    -0.028 C  
BRANCH   9  10
HETATM   10  C   UNL     1      -5.310   7.869  69.420  1.00  0.00    -0.026 C  
BRANCH  10  11
HETATM   11  C   UNL     1      -5.859   6.796  70.346  1.00  0.00    -0.024 C  
HETATM   12  C   UNL     1      -6.946   5.947  69.653  1.00  0.00    -0.067 C  
HETATM   13  C   UNL     1      -7.579   4.948  70.634  1.00  0.00    -0.066 C  
HETATM   14  C   UNL     1      -6.402   5.178  68.444  1.00  0.00    -0.036 C  
BRANCH  13  15
HETATM   15  C   UNL     1      -8.204   5.572  71.881  1.00  0.00    -0.119 C  
BRANCH  15  16
HETATM   16  C   UNL     1      -9.629   6.121  71.680  1.00  0.00    -0.166 C  
BRANCH  16  17
HETATM   17  C   UNL     1      -9.666   7.606  71.222  1.00  0.00    -0.160 C  
HETATM   18  C   UNL     1      -8.502   8.366  71.894  1.00  0.00    -0.237 C  
HETATM   19  C   UNL     1     -11.053   8.177  71.515  1.00  0.00    -0.302 C  
HETATM   20  C   UNL     1     -11.135   9.621  71.082  1.00  0.00    -0.444 C  
HETATM   21  C   UNL     1     -10.479   9.854  69.748  1.00  0.00    -0.292 A  
HETATM   22  C   UNL     1     -10.599  11.104  69.112  1.00  0.00    -0.238 A  
HETATM   23  C   UNL     1     -11.345  12.242  69.761  1.00  0.00    -0.149 C  
HETATM   24  C   UNL     1      -9.994  11.276  67.856  1.00  0.00    -0.175 A  
HETATM   25  C   UNL     1      -9.254  10.252  67.231  1.00  0.00    -0.157 A  
HETATM   26  O   UNL     1     -10.092  12.468  67.185  1.00  0.00    -0.213 OA 
HETATM   27  C   UNL     1      -8.624  10.490  65.883  1.00  0.00    -0.170 C  
HETATM   28  C   UNL     1      -9.106   9.011  67.892  1.00  0.00    -0.141 A  
HETATM   29  H   UNL     1      -9.683  12.584  66.335  1.00  0.00     0.000 HD 
HETATM   30  C   UNL     1      -9.705   8.832  69.158  1.00  0.00    -0.175 A  
HETATM   31  C   UNL     1      -8.308   7.874  67.302  1.00  0.00    -0.122 C  
HETATM   32  O   UNL     1      -9.460   7.625  69.788  1.00  0.00    -0.157 OA 
ENDBRANCH  16  17
ENDBRANCH  15  16
ENDBRANCH  13  15
ENDBRANCH  10  11
ENDBRANCH   9  10
ENDBRANCH   5   6
ENDBRANCH   4   5
TORSDOF 7
ENDMDL
MODEL      236
REMARK 921   NORMALIZED FREE ENERGY PREDICTED BY IDOCK:   -3.98 KCAL/MOL
REMARK 922        TOTAL FREE ENERGY PREDICTED BY IDOCK:   -7.36 KCAL/MOL
REMARK 923 INTER-LIGAND FREE ENERGY PREDICTED BY IDOCK:   -6.63 KCAL/MOL
REMARK 924 INTRA-LIGAND FREE ENERGY PREDICTED BY IDOCK:   -0.73 KCAL/MOL
REMARK 927      BINDING AFFINITY PREDICTED BY RF-SCORE:    0.00 PKD
ROOT
HETATM    1  C   UNL     1     -10.267  19.999  66.159  1.00  0.00    -0.589 C  
HETATM    2  C   UNL     1      -9.437  19.216  67.174  1.00  0.00    -0.367 C  
HETATM    3  C   UNL     1     -10.116  19.265  68.546  1.00  0.00    -0.513 C  
HETATM    4  C   UNL     1      -9.215  17.777  66.667  1.00  0.00    -0.280 C  
ENDROOT
BRANCH   4   5
HETATM    5  C   UNL     1      -8.381  16.950  67.641  1.00  0.00    -0.192 C  
BRANCH   5   6
HETATM    6  C   UNL     1      -9.215  15.950  68.436  1.00  0.00    -0.197 C  
HETATM    7  C   UNL     1     -10.243  15.223  67.544  1.00  0.00    -0.239 C  
HETATM    8  C   UNL     1      -9.567  14.447  66.404  1.00  0.00    -0.320 C  
HETATM    9  C   UNL     1     -11.117  14.303  68.416  1.00  0.00    -0.274 C  
BRANCH   9  10
HETATM   10  C   UNL     1     -12.157  13.556  67.584  1.00  0.00    -0.321 C  
BRANCH  10  11
HETATM   11  C   UNL     1     -11.665  12.190  67.134  1.00  0.00    -0.372 C  
HETATM   12  C   UNL     1     -11.163  11.346  68.323  1.00  0.00    -0.326 C  
HETATM   13  C   UNL     1     -10.556  10.018  67.845  1.00  0.00    -0.298 C  
HETATM   14  C   UNL     1     -12.274  11.046  69.337  1.00  0.00    -0.329 C  
BRANCH  13  15
HETATM   15  C   UNL     1      -9.401  10.153  66.852  1.00  0.00    -0.185 C  
BRANCH  15  16
HETATM   16  C   UNL     1      -9.506   9.241  65.616  1.00  0.00    -0.324 C  
BRANCH  16  17
HETATM   17  C   UNL     1      -8.620   7.967  65.705  1.00  0.00    -0.145 C  
HETATM   18  C   UNL     1      -7.438   8.246  66.659  1.00  0.00    -0.086 C  
HETATM   19  C   UNL     1      -8.213   7.551  64.291  1.00  0.00     0.002 C  
HETATM   20  C   UNL     1      -7.351   6.312  64.331  1.00  0.00    -0.074 C  
HETATM   21  C   UNL     1      -7.865   5.292  65.309  1.00  0.00    -0.095 A  
HETATM   22  C   UNL     1      -7.282   4.012  65.363  1.00  0.00    -0.068 A  
HETATM   23  C   UNL     1      -6.116   3.645  64.480  1.00  0.00    -0.023 C  
HETATM   24  C   UNL     1      -7.805   3.076  66.272  1.00  0.00    -0.078 A  
HETATM   25  C   UNL     1      -8.868   3.389  67.144  1.00  0.00    -0.150 A  
HETATM   26  O   UNL     1      -7.286   1.810  66.356  1.00  0.00    -0.054 OA 
HETATM   27  C   UNL     1      -9.389   2.349  68.103  1.00  0.00    -0.263 C  
HETATM   28  C   UNL     1      -9.423   4.689  67.112  1.00  0.00    -0.171 A  
HETATM   29  H   UNL     1      -7.639   1.178  66.971  1.00  0.00     0.000 HD 
HETATM   30  C   UNL     1      -8.899   5.636  66.206  1.00  0.00    -0.137 A  
HETATM   31  C   UNL     1     -10.544   5.109  68.030  1.00  0.00    -0.011 C  
HETATM   32  O   UNL     1      -9.432   6.911  66.274  1.00  0.00    -0.155 OA 
ENDBRANCH  16  17
ENDBRANCH  15  16
ENDBRANCH  13  15
ENDBRANCH  10  11
ENDBRANCH   9  10
ENDBRANCH   5   6
ENDBRANCH   4   5
TORSDOF 7
ENDMDL
MODEL      237
REMARK 921   NORMALIZED FREE ENERGY PREDICTED BY IDOCK:   -3.96 KCAL/MOL
REMARK 922        TOTAL FREE ENERGY PREDICTED BY IDOCK:   -7.34 KCAL/MOL
REMARK 923 INTER-LIGAND FREE ENERGY PREDICTED BY IDOCK:   -6.45 KCAL/MOL
REMARK 924 INTRA-LIGAND FREE ENERGY PREDICTED BY IDOCK:   -0.89 KCAL/MOL
REMARK 927      BINDING AFFINITY PREDICTED BY RF-SCORE:    0.00 PKD
ROOT
HETATM    1  C   UNL     1      -7.465  20.057  66.108  1.00  0.00    -0.324 C  
HETATM    2  C   UNL     1      -8.554  19.114  66.616  1.00  0.00    -0.329 C  
HETATM    3  C   UNL     1      -9.917  19.564  66.082  1.00  0.00    -0.526 C  
HETATM    4  C   UNL     1      -8.209  17.662  66.229  1.00  0.00    -0.264 C  
ENDROOT
BRANCH   4   5
HETATM    5  C   UNL     1      -9.262  16.674  66.721  1.00  0.00    -0.259 C  
BRANCH   5   6
HETATM    6  C   UNL     1      -9.909  15.882  65.588  1.00  0.00    -0.337 C  
HETATM    7  C   UNL     1     -10.554  14.576  66.098  1.00  0.00    -0.308 C  
HETATM    8  C   UNL     1     -11.645  14.845  67.146  1.00  0.00    -0.327 C  
HETATM    9  C   UNL     1     -11.102  13.775  64.902  1.00  0.00    -0.364 C  
BRANCH   9  10
HETATM   10  C   UNL     1     -11.753  12.468  65.348  1.00  0.00    -0.444 C  
BRANCH  10  11
HETATM   11  C   UNL     1     -10.818  11.615  66.190  1.00  0.00    -0.343 C  
HETATM   12  C   UNL     1     -10.352  10.357  65.428  1.00  0.00    -0.270 C  
HETATM   13  C   UNL     1      -9.508   9.443  66.329  1.00  0.00    -0.273 C  
HETATM   14  C   UNL     1      -9.542  10.702  64.173  1.00  0.00    -0.353 C  
BRANCH  13  15
HETATM   15  C   UNL     1     -10.200   8.978  67.611  1.00  0.00    -0.300 C  
BRANCH  15  16
HETATM   16  C   UNL     1      -9.299   8.970  68.860  1.00  0.00    -0.143 C  
BRANCH  16  17
HETATM   17  C   UNL     1      -8.862   7.546  69.304  1.00  0.00    -0.136 C  
HETATM   18  C   UNL     1      -9.963   6.943  70.204  1.00  0.00    -0.188 C  
HETATM   19  C   UNL     1      -7.483   7.636  69.958  1.00  0.00    -0.082 C  
HETATM   20  C   UNL     1      -7.017   6.271  70.403  1.00  0.00    -0.063 C  
HETATM   21  C   UNL     1      -7.310   5.208  69.381  1.00  0.00    -0.057 A  
HETATM   22  C   UNL     1      -6.803   3.906  69.553  1.00  0.00    -0.042 A  
HETATM   23  C   UNL     1      -5.997   3.536  70.773  1.00  0.00    -0.018 C  
HETATM   24  C   UNL     1      -7.076   2.945  68.565  1.00  0.00    -0.049 A  
HETATM   25  C   UNL     1      -7.858   3.237  67.429  1.00  0.00    -0.077 A  
HETATM   26  O   UNL     1      -6.595   1.666  68.674  1.00  0.00    -0.028 OA 
HETATM   27  C   UNL     1      -8.123   2.168  66.399  1.00  0.00    -0.080 C  
HETATM   28  C   UNL     1      -8.396   4.536  67.280  1.00  0.00    -0.104 A  
HETATM   29  H   UNL     1      -6.780   1.016  68.005  1.00  0.00     0.000 HD 
HETATM   30  C   UNL     1      -8.132   5.505  68.273  1.00  0.00    -0.096 A  
HETATM   31  C   UNL     1      -9.264   4.920  66.107  1.00  0.00    -0.146 C  
HETATM   32  O   UNL     1      -8.747   6.733  68.111  1.00  0.00    -0.123 OA 
ENDBRANCH  16  17
ENDBRANCH  15  16
ENDBRANCH  13  15
ENDBRANCH  10  11
ENDBRANCH   9  10
ENDBRANCH   5   6
ENDBRANCH   4   5
TORSDOF 7
ENDMDL
MODEL      238
REMARK 921   NORMALIZED FREE ENERGY PREDICTED BY IDOCK:   -3.93 KCAL/MOL
REMARK 922        TOTAL FREE ENERGY PREDICTED BY IDOCK:   -7.30 KCAL/MOL
REMARK 923 INTER-LIGAND FREE ENERGY PREDICTED BY IDOCK:   -6.82 KCAL/MOL
REMARK 924 INTRA-LIGAND FREE ENERGY PREDICTED BY IDOCK:   -0.48 KCAL/MOL
REMARK 927      BINDING AFFINITY PREDICTED BY RF-SCORE:    0.00 PKD
ROOT
HETATM    1  C   UNL     1      -9.336   1.584  68.220  1.00  0.00    -0.234 C  
HETATM    2  C   UNL     1      -8.383   2.517  67.476  1.00  0.00    -0.094 C  
HETATM    3  C   UNL     1      -8.792   2.606  66.002  1.00  0.00    -0.136 C  
HETATM    4  C   UNL     1      -8.351   3.892  68.172  1.00  0.00    -0.101 C  
ENDROOT
BRANCH   4   5
HETATM    5  C   UNL     1      -7.403   4.863  67.474  1.00  0.00    -0.078 C  
BRANCH   5   6
HETATM    6  C   UNL     1      -8.136   5.917  66.648  1.00  0.00    -0.102 C  
HETATM    7  C   UNL     1      -7.388   7.266  66.647  1.00  0.00    -0.080 C  
HETATM    8  C   UNL     1      -5.972   7.138  66.068  1.00  0.00    -0.036 C  
HETATM    9  C   UNL     1      -8.221   8.313  65.882  1.00  0.00    -0.119 C  
BRANCH   9  10
HETATM   10  C   UNL     1      -7.528   9.673  65.850  1.00  0.00    -0.099 C  
BRANCH  10  11
HETATM   11  C   UNL     1      -8.492  10.819  66.113  1.00  0.00    -0.167 C  
HETATM   12  C   UNL     1      -9.419  10.520  67.309  1.00  0.00    -0.179 C  
HETATM   13  C   UNL     1     -10.468  11.628  67.489  1.00  0.00    -0.228 C  
HETATM   14  C   UNL     1      -8.644  10.353  68.622  1.00  0.00    -0.133 C  
BRANCH  13  15
HETATM   15  C   UNL     1     -11.353  11.887  66.271  1.00  0.00    -0.394 C  
BRANCH  15  16
HETATM   16  C   UNL     1     -10.813  12.952  65.298  1.00  0.00    -0.316 C  
BRANCH  16  17
HETATM   17  C   UNL     1     -10.799  14.389  65.893  1.00  0.00    -0.304 C  
HETATM   18  C   UNL     1     -11.829  14.464  67.042  1.00  0.00    -0.437 C  
HETATM   19  C   UNL     1     -11.031  15.392  64.763  1.00  0.00    -0.411 C  
HETATM   20  C   UNL     1     -11.023  16.804  65.297  1.00  0.00    -0.084 C  
HETATM   21  C   UNL     1      -9.926  17.026  66.302  1.00  0.00    -0.324 A  
HETATM   22  C   UNL     1      -9.664  18.322  66.785  1.00  0.00    -0.322 A  
HETATM   23  C   UNL     1     -10.492  19.502  66.343  1.00  0.00    -0.597 C  
HETATM   24  C   UNL     1      -8.616  18.495  67.705  1.00  0.00    -0.264 A  
HETATM   25  C   UNL     1      -7.843  17.413  68.175  1.00  0.00    -0.234 A  
HETATM   26  O   UNL     1      -8.307  19.737  68.196  1.00  0.00    -0.313 OA 
HETATM   27  C   UNL     1      -6.731  17.653  69.163  1.00  0.00    -0.243 C  
HETATM   28  C   UNL     1      -8.136  16.108  67.715  1.00  0.00    -0.157 A  
HETATM   29  H   UNL     1      -7.599  19.853  68.818  1.00  0.00     0.000 HD 
HETATM   30  C   UNL     1      -9.192  15.926  66.796  1.00  0.00    -0.240 A  
HETATM   31  C   UNL     1      -7.372  14.897  68.190  1.00  0.00    -0.121 C  
HETATM   32  O   UNL     1      -9.479  14.620  66.443  1.00  0.00    -0.275 OA 
ENDBRANCH  16  17
ENDBRANCH  15  16
ENDBRANCH  13  15
ENDBRANCH  10  11
ENDBRANCH   9  10
ENDBRANCH   5   6
ENDBRANCH   4   5
TORSDOF 7
ENDMDL
MODEL      239
REMARK 921   NORMALIZED FREE ENERGY PREDICTED BY IDOCK:   -3.92 KCAL/MOL
REMARK 922        TOTAL FREE ENERGY PREDICTED BY IDOCK:   -7.28 KCAL/MOL
REMARK 923 INTER-LIGAND FREE ENERGY PREDICTED BY IDOCK:   -6.76 KCAL/MOL
REMARK 924 INTRA-LIGAND FREE ENERGY PREDICTED BY IDOCK:   -0.52 KCAL/MOL
REMARK 927      BINDING AFFINITY PREDICTED BY RF-SCORE:    0.00 PKD
ROOT
HETATM    1  C   UNL     1      -5.937  20.113  63.281  1.00  0.00    -0.202 C  
HETATM    2  C   UNL     1      -6.360  19.543  64.633  1.00  0.00    -0.200 C  
HETATM    3  C   UNL     1      -5.136  18.987  65.367  1.00  0.00    -0.188 C  
HETATM    4  C   UNL     1      -7.104  20.623  65.444  1.00  0.00    -0.063 C  
ENDROOT
BRANCH   4   5
HETATM    5  C   UNL     1      -7.560  20.104  66.804  1.00  0.00    -0.328 C  
BRANCH   5   6
HETATM    6  C   UNL     1      -8.758  19.163  66.709  1.00  0.00    -0.322 C  
HETATM    7  C   UNL     1      -9.103  18.534  68.075  1.00  0.00    -0.319 C  
HETATM    8  C   UNL     1      -9.443  19.599  69.128  1.00  0.00    -0.264 C  
HETATM    9  C   UNL     1     -10.252  17.523  67.898  1.00  0.00    -0.350 C  
BRANCH   9  10
HETATM   10  C   UNL     1     -10.635  16.867  69.222  1.00  0.00    -0.325 C  
BRANCH  10  11
HETATM   11  C   UNL     1     -11.537  15.658  69.028  1.00  0.00    -0.396 C  
HETATM   12  C   UNL     1     -11.559  14.756  70.279  1.00  0.00    -0.333 C  
HETATM   13  C   UNL     1     -12.375  13.479  70.029  1.00  0.00    -0.315 C  
HETATM   14  C   UNL     1     -12.130  15.476  71.507  1.00  0.00    -0.458 C  
BRANCH  13  15
HETATM   15  C   UNL     1     -11.899  12.627  68.852  1.00  0.00    -0.345 C  
BRANCH  15  16
HETATM   16  C   UNL     1     -10.535  13.040  68.269  1.00  0.00    -0.258 C  
BRANCH  16  17
HETATM   17  C   UNL     1      -9.514  11.870  68.183  1.00  0.00    -0.195 C  
HETATM   18  C   UNL     1      -8.180  12.324  68.814  1.00  0.00     0.081 C  
HETATM   19  C   UNL     1      -9.409  11.416  66.727  1.00  0.00    -0.192 C  
HETATM   20  C   UNL     1      -8.427  10.276  66.597  1.00  0.00    -0.124 C  
HETATM   21  C   UNL     1      -8.575   9.268  67.704  1.00  0.00    -0.116 A  
HETATM   22  C   UNL     1      -7.855   8.060  67.656  1.00  0.00    -0.122 A  
HETATM   23  C   UNL     1      -6.897   7.763  66.530  1.00  0.00    -0.066 C  
HETATM   24  C   UNL     1      -8.037   7.131  68.695  1.00  0.00    -0.124 A  
HETATM   25  C   UNL     1      -8.892   7.383  69.788  1.00  0.00    -0.141 A  
HETATM   26  O   UNL     1      -7.373   5.931  68.692  1.00  0.00    -0.080 OA 
HETATM   27  C   UNL     1      -9.050   6.354  70.877  1.00  0.00    -0.151 C  
HETATM   28  C   UNL     1      -9.583   8.615  69.848  1.00  0.00    -0.174 A  
HETATM   29  H   UNL     1      -7.497   5.304  69.395  1.00  0.00     0.000 HD 
HETATM   30  C   UNL     1      -9.400   9.556  68.812  1.00  0.00    -0.146 A  
HETATM   31  C   UNL     1     -10.496   8.972  70.996  1.00  0.00    -0.339 C  
HETATM   32  O   UNL     1     -10.043  10.772  68.965  1.00  0.00    -0.200 OA 
ENDBRANCH  16  17
ENDBRANCH  15  16
ENDBRANCH  13  15
ENDBRANCH  10  11
ENDBRANCH   9  10
ENDBRANCH   5   6
ENDBRANCH   4   5
TORSDOF 7
ENDMDL
MODEL      240
REMARK 921   NORMALIZED FREE ENERGY PREDICTED BY IDOCK:   -3.90 KCAL/MOL
REMARK 922        TOTAL FREE ENERGY PREDICTED BY IDOCK:   -7.25 KCAL/MOL
REMARK 923 INTER-LIGAND FREE ENERGY PREDICTED BY IDOCK:   -6.71 KCAL/MOL
REMARK 924 INTRA-LIGAND FREE ENERGY PREDICTED BY IDOCK:   -0.53 KCAL/MOL
REMARK 927      BINDING AFFINITY PREDICTED BY RF-SCORE:    0.00 PKD
ROOT
HETATM    1  C   UNL     1      -7.420  20.314  65.614  1.00  0.00    -0.180 C  
HETATM    2  C   UNL     1      -7.855  19.432  66.783  1.00  0.00    -0.285 C  
HETATM    3  C   UNL     1      -9.092  20.035  67.454  1.00  0.00    -0.460 C  
HETATM    4  C   UNL     1      -8.085  17.990  66.289  1.00  0.00    -0.259 C  
ENDROOT
BRANCH   4   5
HETATM    5  C   UNL     1      -8.513  17.060  67.421  1.00  0.00    -0.208 C  
BRANCH   5   6
HETATM    6  C   UNL     1      -9.468  15.963  66.959  1.00  0.00    -0.234 C  
HETATM    7  C   UNL     1      -8.889  14.556  67.210  1.00  0.00    -0.221 C  
HETATM    8  C   UNL     1      -8.599  14.310  68.698  1.00  0.00    -0.149 C  
HETATM    9  C   UNL     1      -9.850  13.497  66.637  1.00  0.00    -0.279 C  
BRANCH   9  10
HETATM   10  C   UNL     1      -9.325  12.080  66.856  1.00  0.00    -0.200 C  
BRANCH  10  11
HETATM   11  C   UNL     1      -9.524  11.605  68.287  1.00  0.00    -0.191 C  
HETATM   12  C   UNL     1      -8.634  10.387  68.611  1.00  0.00    -0.133 C  
HETATM   13  C   UNL     1      -8.932   9.841  70.016  1.00  0.00    -0.255 C  
HETATM   14  C   UNL     1      -7.139  10.713  68.512  1.00  0.00    -0.069 C  
BRANCH  13  15
HETATM   15  C   UNL     1     -10.384   9.431  70.258  1.00  0.00    -0.293 C  
BRANCH  15  16
HETATM   16  C   UNL     1     -10.579   8.377  71.364  1.00  0.00    -0.296 C  
BRANCH  16  17
HETATM   17  C   UNL     1     -10.466   6.912  70.856  1.00  0.00    -0.211 C  
HETATM   18  C   UNL     1     -11.752   6.149  71.242  1.00  0.00    -0.211 C  
HETATM   19  C   UNL     1      -9.175   6.300  71.400  1.00  0.00    -0.153 C  
HETATM   20  C   UNL     1      -9.024   4.874  70.928  1.00  0.00    -0.167 C  
HETATM   21  C   UNL     1      -9.395   4.712  69.480  1.00  0.00    -0.208 A  
HETATM   22  C   UNL     1      -9.162   3.488  68.826  1.00  0.00    -0.226 A  
HETATM   23  C   UNL     1      -8.579   2.307  69.561  1.00  0.00    -0.107 C  
HETATM   24  C   UNL     1      -9.499   3.380  67.465  1.00  0.00    -0.180 A  
HETATM   25  C   UNL     1     -10.083   4.446  66.750  1.00  0.00    -0.177 A  
HETATM   26  O   UNL     1      -9.279   2.216  66.775  1.00  0.00    -0.282 OA 
HETATM   27  C   UNL     1     -10.427   4.277  65.292  1.00  0.00    -0.196 C  
HETATM   28  C   UNL     1     -10.349   5.661  67.422  1.00  0.00    -0.284 A  
HETATM   29  H   UNL     1      -9.507   2.144  65.856  1.00  0.00     0.000 HD 
HETATM   30  C   UNL     1     -10.020   5.773  68.791  1.00  0.00    -0.159 A  
HETATM   31  C   UNL     1     -10.996   6.837  66.734  1.00  0.00    -0.248 C  
HETATM   32  O   UNL     1     -10.374   6.958  69.411  1.00  0.00    -0.190 OA 
ENDBRANCH  16  17
ENDBRANCH  15  16
ENDBRANCH  13  15
ENDBRANCH  10  11
ENDBRANCH   9  10
ENDBRANCH   5   6
ENDBRANCH   4   5
TORSDOF 7
ENDMDL
MODEL      241
REMARK 921   NORMALIZED FREE ENERGY PREDICTED BY IDOCK:   -3.89 KCAL/MOL
REMARK 922        TOTAL FREE ENERGY PREDICTED BY IDOCK:   -7.23 KCAL/MOL
REMARK 923 INTER-LIGAND FREE ENERGY PREDICTED BY IDOCK:   -6.03 KCAL/MOL
REMARK 924 INTRA-LIGAND FREE ENERGY PREDICTED BY IDOCK:   -1.20 KCAL/MOL
REMARK 927      BINDING AFFINITY PREDICTED BY RF-SCORE:    0.00 PKD
ROOT
HETATM    1  C   UNL     1     -11.803  12.791  69.722  1.00  0.00    -0.380 C  
HETATM    2  C   UNL     1     -11.290  12.856  68.285  1.00  0.00    -0.326 C  
HETATM    3  C   UNL     1     -11.716  14.180  67.643  1.00  0.00    -0.421 C  
HETATM    4  C   UNL     1      -9.763  12.646  68.267  1.00  0.00    -0.216 C  
ENDROOT
BRANCH   4   5
HETATM    5  C   UNL     1      -9.197  12.691  66.850  1.00  0.00    -0.216 C  
BRANCH   5   6
HETATM    6  C   UNL     1      -9.431  11.397  66.076  1.00  0.00    -0.245 C  
HETATM    7  C   UNL     1      -8.127  10.861  65.449  1.00  0.00     0.015 C  
HETATM    8  C   UNL     1      -7.057  10.568  66.511  1.00  0.00    -0.120 C  
HETATM    9  C   UNL     1      -8.442   9.613  64.602  1.00  0.00    -0.183 C  
BRANCH   9  10
HETATM   10  C   UNL     1      -7.185   9.038  63.954  1.00  0.00    -0.096 C  
BRANCH  10  11
HETATM   11  C   UNL     1      -6.804   7.685  64.533  1.00  0.00    -0.055 C  
HETATM   12  C   UNL     1      -7.808   6.587  64.124  1.00  0.00    -0.111 C  
HETATM   13  C   UNL     1      -7.482   5.253  64.813  1.00  0.00    -0.069 C  
HETATM   14  C   UNL     1      -7.845   6.366  62.607  1.00  0.00    -0.099 C  
BRANCH  13  15
HETATM   15  C   UNL     1      -7.448   5.303  66.340  1.00  0.00    -0.087 C  
BRANCH  15  16
HETATM   16  C   UNL     1      -7.783   6.679  66.946  1.00  0.00    -0.106 C  
BRANCH  16  17
HETATM   17  C   UNL     1      -8.981   6.648  67.935  1.00  0.00    -0.112 C  
HETATM   18  C   UNL     1     -10.233   6.137  67.189  1.00  0.00    -0.246 C  
HETATM   19  C   UNL     1      -9.136   8.033  68.564  1.00  0.00    -0.136 C  
HETATM   20  C   UNL     1     -10.291   8.048  69.537  1.00  0.00    -0.221 C  
HETATM   21  C   UNL     1     -10.330   6.812  70.393  1.00  0.00    -0.223 A  
HETATM   22  C   UNL     1     -11.239   6.726  71.464  1.00  0.00    -0.300 A  
HETATM   23  C   UNL     1     -12.214   7.839  71.754  1.00  0.00    -0.338 C  
HETATM   24  C   UNL     1     -11.230   5.565  72.257  1.00  0.00    -0.220 A  
HETATM   25  C   UNL     1     -10.364   4.484  71.997  1.00  0.00    -0.216 A  
HETATM   26  O   UNL     1     -12.084   5.434  73.322  1.00  0.00    -0.445 OA 
HETATM   27  C   UNL     1     -10.397   3.261  72.878  1.00  0.00    -0.246 C  
HETATM   28  C   UNL     1      -9.480   4.561  70.897  1.00  0.00    -0.236 A  
HETATM   29  H   UNL     1     -12.078   4.650  73.858  1.00  0.00     0.000 HD 
HETATM   30  C   UNL     1      -9.488   5.721  70.091  1.00  0.00    -0.160 A  
HETATM   31  C   UNL     1      -8.541   3.436  70.537  1.00  0.00    -0.115 C  
HETATM   32  O   UNL     1      -8.655   5.706  68.986  1.00  0.00    -0.104 OA 
ENDBRANCH  16  17
ENDBRANCH  15  16
ENDBRANCH  13  15
ENDBRANCH  10  11
ENDBRANCH   9  10
ENDBRANCH   5   6
ENDBRANCH   4   5
TORSDOF 7
ENDMDL
MODEL      242
REMARK 921   NORMALIZED FREE ENERGY PREDICTED BY IDOCK:   -3.89 KCAL/MOL
REMARK 922        TOTAL FREE ENERGY PREDICTED BY IDOCK:   -7.23 KCAL/MOL
REMARK 923 INTER-LIGAND FREE ENERGY PREDICTED BY IDOCK:   -6.63 KCAL/MOL
REMARK 924 INTRA-LIGAND FREE ENERGY PREDICTED BY IDOCK:   -0.60 KCAL/MOL
REMARK 927      BINDING AFFINITY PREDICTED BY RF-SCORE:    0.00 PKD
ROOT
HETATM    1  C   UNL     1      -8.505   3.933  62.803  1.00  0.00    -0.083 C  
HETATM    2  C   UNL     1      -9.753   4.171  63.651  1.00  0.00    -0.118 C  
HETATM    3  C   UNL     1     -10.749   3.027  63.439  1.00  0.00    -0.246 C  
HETATM    4  C   UNL     1      -9.353   4.350  65.129  1.00  0.00    -0.165 C  
ENDROOT
BRANCH   4   5
HETATM    5  C   UNL     1     -10.563   4.601  66.023  1.00  0.00    -0.244 C  
BRANCH   5   6
HETATM    6  C   UNL     1     -10.186   5.171  67.388  1.00  0.00    -0.224 C  
HETATM    7  C   UNL     1      -9.022   6.179  67.285  1.00  0.00    -0.112 C  
HETATM    8  C   UNL     1      -9.369   7.367  66.375  1.00  0.00    -0.206 C  
HETATM    9  C   UNL     1      -8.622   6.644  68.698  1.00  0.00    -0.125 C  
BRANCH   9  10
HETATM   10  C   UNL     1      -7.470   7.645  68.658  1.00  0.00    -0.103 C  
BRANCH  10  11
HETATM   11  C   UNL     1      -7.943   9.078  68.842  1.00  0.00    -0.100 C  
HETATM   12  C   UNL     1      -9.270   9.145  69.624  1.00  0.00    -0.172 C  
HETATM   13  C   UNL     1      -9.801  10.585  69.697  1.00  0.00    -0.117 C  
HETATM   14  C   UNL     1      -9.136   8.593  71.049  1.00  0.00    -0.248 C  
BRANCH  13  15
HETATM   15  C   UNL     1     -10.026  11.262  68.346  1.00  0.00    -0.201 C  
BRANCH  15  16
HETATM   16  C   UNL     1     -11.315  12.098  68.253  1.00  0.00    -0.343 C  
BRANCH  16  17
HETATM   17  C   UNL     1     -11.082  13.625  68.427  1.00  0.00    -0.264 C  
HETATM   18  C   UNL     1     -11.752  14.086  69.740  1.00  0.00    -0.375 C  
HETATM   19  C   UNL     1     -11.575  14.345  67.173  1.00  0.00    -0.406 C  
HETATM   20  C   UNL     1     -11.365  15.835  67.299  1.00  0.00    -0.059 C  
HETATM   21  C   UNL     1     -10.026  16.172  67.897  1.00  0.00    -0.239 A  
HETATM   22  C   UNL     1      -9.591  17.510  67.940  1.00  0.00    -0.277 A  
HETATM   23  C   UNL     1     -10.461  18.632  67.432  1.00  0.00    -0.467 C  
HETATM   24  C   UNL     1      -8.325  17.785  68.484  1.00  0.00    -0.297 A  
HETATM   25  C   UNL     1      -7.495  16.771  69.006  1.00  0.00    -0.228 A  
HETATM   26  O   UNL     1      -7.844  19.068  68.538  1.00  0.00    -0.314 OA 
HETATM   27  C   UNL     1      -6.146  17.120  69.580  1.00  0.00    -0.241 C  
HETATM   28  C   UNL     1      -7.955  15.434  68.994  1.00  0.00    -0.202 A  
HETATM   29  H   UNL     1      -6.988  19.253  68.905  1.00  0.00     0.000 HD 
HETATM   30  C   UNL     1      -9.229  15.151  68.456  1.00  0.00    -0.192 A  
HETATM   31  C   UNL     1      -7.138  14.297  69.558  1.00  0.00    -0.045 C  
HETATM   32  O   UNL     1      -9.653  13.838  68.542  1.00  0.00    -0.216 OA 
ENDBRANCH  16  17
ENDBRANCH  15  16
ENDBRANCH  13  15
ENDBRANCH  10  11
ENDBRANCH   9  10
ENDBRANCH   5   6
ENDBRANCH   4   5
TORSDOF 7
ENDMDL
MODEL      243
REMARK 921   NORMALIZED FREE ENERGY PREDICTED BY IDOCK:   -3.88 KCAL/MOL
REMARK 922        TOTAL FREE ENERGY PREDICTED BY IDOCK:   -7.22 KCAL/MOL
REMARK 923 INTER-LIGAND FREE ENERGY PREDICTED BY IDOCK:   -7.48 KCAL/MOL
REMARK 924 INTRA-LIGAND FREE ENERGY PREDICTED BY IDOCK:    0.26 KCAL/MOL
REMARK 927      BINDING AFFINITY PREDICTED BY RF-SCORE:    0.00 PKD
ROOT
HETATM    1  C   UNL     1      -7.871   1.909  70.432  1.00  0.00    -0.047 C  
HETATM    2  C   UNL     1      -8.986   2.916  70.708  1.00  0.00    -0.163 C  
HETATM    3  C   UNL     1      -9.895   2.389  71.823  1.00  0.00    -0.228 C  
HETATM    4  C   UNL     1      -8.375   4.293  71.035  1.00  0.00    -0.094 C  
ENDROOT
BRANCH   4   5
HETATM    5  C   UNL     1      -9.448   5.343  71.310  1.00  0.00    -0.191 C  
BRANCH   5   6
HETATM    6  C   UNL     1     -10.452   5.479  70.169  1.00  0.00    -0.370 C  
HETATM    7  C   UNL     1      -9.888   6.326  69.008  1.00  0.00    -0.165 C  
HETATM    8  C   UNL     1      -8.609   5.714  68.419  1.00  0.00    -0.111 C  
HETATM    9  C   UNL     1     -10.976   6.510  67.934  1.00  0.00    -0.382 C  
BRANCH   9  10
HETATM   10  C   UNL     1     -10.474   7.345  66.758  1.00  0.00    -0.316 C  
BRANCH  10  11
HETATM   11  C   UNL     1      -9.924   8.692  67.198  1.00  0.00    -0.297 C  
HETATM   12  C   UNL     1      -8.594   9.024  66.492  1.00  0.00    -0.129 C  
HETATM   13  C   UNL     1      -7.987  10.327  67.034  1.00  0.00    -0.111 C  
HETATM   14  C   UNL     1      -8.756   9.147  64.972  1.00  0.00    -0.222 C  
BRANCH  13  15
HETATM   15  C   UNL     1      -7.728  10.344  68.540  1.00  0.00    -0.101 C  
BRANCH  15  16
HETATM   16  C   UNL     1      -7.650  11.751  69.163  1.00  0.00     0.080 C  
BRANCH  16  17
HETATM   17  C   UNL     1      -7.897  12.898  68.143  1.00  0.00    -0.147 C  
HETATM   18  C   UNL     1      -6.775  12.874  67.082  1.00  0.00     0.084 C  
HETATM   19  C   UNL     1      -8.022  14.216  68.907  1.00  0.00    -0.051 C  
HETATM   20  C   UNL     1      -8.266  15.361  67.953  1.00  0.00    -0.150 C  
HETATM   21  C   UNL     1      -9.254  15.005  66.877  1.00  0.00    -0.265 A  
HETATM   22  C   UNL     1      -9.725  15.997  65.996  1.00  0.00    -0.376 A  
HETATM   23  C   UNL     1      -9.227  17.417  66.080  1.00  0.00    -0.171 C  
HETATM   24  C   UNL     1     -10.666  15.632  65.018  1.00  0.00    -0.436 A  
HETATM   25  C   UNL     1     -11.129  14.308  64.878  1.00  0.00    -0.396 A  
HETATM   26  O   UNL     1     -11.170  16.560  64.144  1.00  0.00    -1.355 OA 
HETATM   27  C   UNL     1     -12.138  13.969  63.811  1.00  0.00    -0.265 C  
HETATM   28  C   UNL     1     -10.624  13.308  65.741  1.00  0.00    -0.291 A  
HETATM   29  H   UNL     1     -11.807  16.313  63.484  1.00  0.00     0.000 HD 
HETATM   30  C   UNL     1      -9.672  13.666  66.721  1.00  0.00    -0.275 A  
HETATM   31  C   UNL     1     -11.049  11.864  65.638  1.00  0.00    -0.362 C  
HETATM   32  O   UNL     1      -9.159  12.632  67.484  1.00  0.00    -0.176 OA 
ENDBRANCH  16  17
ENDBRANCH  15  16
ENDBRANCH  13  15
ENDBRANCH  10  11
ENDBRANCH   9  10
ENDBRANCH   5   6
ENDBRANCH   4   5
TORSDOF 7
ENDMDL
MODEL      244
REMARK 921   NORMALIZED FREE ENERGY PREDICTED BY IDOCK:   -3.85 KCAL/MOL
REMARK 922        TOTAL FREE ENERGY PREDICTED BY IDOCK:   -7.18 KCAL/MOL
REMARK 923 INTER-LIGAND FREE ENERGY PREDICTED BY IDOCK:   -6.41 KCAL/MOL
REMARK 924 INTRA-LIGAND FREE ENERGY PREDICTED BY IDOCK:   -0.77 KCAL/MOL
REMARK 927      BINDING AFFINITY PREDICTED BY RF-SCORE:    0.00 PKD
ROOT
HETATM    1  C   UNL     1     -10.158  19.751  68.408  1.00  0.00    -0.568 C  
HETATM    2  C   UNL     1     -10.616  19.074  67.118  1.00  0.00    -0.545 C  
HETATM    3  C   UNL     1     -10.192  19.918  65.913  1.00  0.00    -0.552 C  
HETATM    4  C   UNL     1     -10.069  17.633  67.063  1.00  0.00    -0.330 C  
ENDROOT
BRANCH   4   5
HETATM    5  C   UNL     1     -10.506  16.905  65.795  1.00  0.00    -0.279 C  
BRANCH   5   6
HETATM    6  C   UNL     1      -9.930  15.495  65.692  1.00  0.00    -0.394 C  
HETATM    7  C   UNL     1     -10.200  14.671  66.968  1.00  0.00    -0.261 C  
HETATM    8  C   UNL     1     -11.703  14.529  67.253  1.00  0.00    -0.429 C  
HETATM    9  C   UNL     1      -9.514  13.298  66.845  1.00  0.00    -0.249 C  
BRANCH   9  10
HETATM   10  C   UNL     1      -9.747  12.437  68.084  1.00  0.00    -0.214 C  
BRANCH  10  11
HETATM   11  C   UNL     1      -8.469  11.776  68.578  1.00  0.00    -0.125 C  
HETATM   12  C   UNL     1      -7.218  12.579  68.168  1.00  0.00    -0.106 C  
HETATM   13  C   UNL     1      -5.930  11.840  68.564  1.00  0.00    -0.049 C  
HETATM   14  C   UNL     1      -7.195  13.981  68.787  1.00  0.00    -0.113 C  
BRANCH  13  15
HETATM   15  C   UNL     1      -5.786  10.432  67.987  1.00  0.00    -0.040 C  
BRANCH  15  16
HETATM   16  C   UNL     1      -6.316  10.269  66.550  1.00  0.00    -0.078 C  
BRANCH  16  17
HETATM   17  C   UNL     1      -6.651   8.799  66.172  1.00  0.00    -0.065 C  
HETATM   18  C   UNL     1      -5.342   7.979  66.146  1.00  0.00    -0.025 C  
HETATM   19  C   UNL     1      -7.433   8.794  64.859  1.00  0.00    -0.095 C  
HETATM   20  C   UNL     1      -7.782   7.382  64.455  1.00  0.00    -0.120 C  
HETATM   21  C   UNL     1      -8.245   6.554  65.622  1.00  0.00    -0.137 A  
HETATM   22  C   UNL     1      -8.765   5.264  65.408  1.00  0.00    -0.150 A  
HETATM   23  C   UNL     1      -8.835   4.668  64.025  1.00  0.00    -0.138 C  
HETATM   24  C   UNL     1      -9.210   4.529  66.520  1.00  0.00    -0.137 A  
HETATM   25  C   UNL     1      -9.127   5.030  67.835  1.00  0.00    -0.126 A  
HETATM   26  O   UNL     1      -9.740   3.273  66.368  1.00  0.00    -0.402 OA 
HETATM   27  C   UNL     1      -9.617   4.200  68.993  1.00  0.00    -0.232 C  
HETATM   28  C   UNL     1      -8.568   6.312  68.047  1.00  0.00    -0.116 A  
HETATM   29  H   UNL     1     -10.041   2.776  67.120  1.00  0.00     0.000 HD 
HETATM   30  C   UNL     1      -8.112   7.054  66.935  1.00  0.00    -0.116 A  
HETATM   31  C   UNL     1      -8.420   6.908  69.425  1.00  0.00    -0.133 C  
HETATM   32  O   UNL     1      -7.507   8.266  67.213  1.00  0.00    -0.087 OA 
ENDBRANCH  16  17
ENDBRANCH  15  16
ENDBRANCH  13  15
ENDBRANCH  10  11
ENDBRANCH   9  10
ENDBRANCH   5   6
ENDBRANCH   4   5
TORSDOF 7
ENDMDL
MODEL      245
REMARK 921   NORMALIZED FREE ENERGY PREDICTED BY IDOCK:   -3.81 KCAL/MOL
REMARK 922        TOTAL FREE ENERGY PREDICTED BY IDOCK:   -7.13 KCAL/MOL
REMARK 923 INTER-LIGAND FREE ENERGY PREDICTED BY IDOCK:   -6.64 KCAL/MOL
REMARK 924 INTRA-LIGAND FREE ENERGY PREDICTED BY IDOCK:   -0.48 KCAL/MOL
REMARK 927      BINDING AFFINITY PREDICTED BY RF-SCORE:    0.00 PKD
ROOT
HETATM    1  C   UNL     1     -11.709   1.791  73.628  1.00  0.00    -0.295 C  
HETATM    2  C   UNL     1     -10.375   2.530  73.708  1.00  0.00    -0.206 C  
HETATM    3  C   UNL     1      -9.227   1.559  73.412  1.00  0.00    -0.067 C  
HETATM    4  C   UNL     1     -10.392   3.744  72.758  1.00  0.00    -0.238 C  
ENDROOT
BRANCH   4   5
HETATM    5  C   UNL     1      -9.083   4.526  72.806  1.00  0.00    -0.134 C  
BRANCH   5   6
HETATM    6  C   UNL     1      -8.275   4.410  71.517  1.00  0.00    -0.092 C  
HETATM    7  C   UNL     1      -9.185   4.227  70.284  1.00  0.00    -0.203 C  
HETATM    8  C   UNL     1     -10.156   5.404  70.108  1.00  0.00    -0.322 C  
HETATM    9  C   UNL     1      -8.313   4.018  69.031  1.00  0.00    -0.086 C  
BRANCH   9  10
HETATM   10  C   UNL     1      -9.164   3.830  67.777  1.00  0.00    -0.216 C  
BRANCH  10  11
HETATM   11  C   UNL     1      -9.480   5.149  67.090  1.00  0.00    -0.138 C  
HETATM   12  C   UNL     1      -8.197   5.881  66.644  1.00  0.00    -0.106 C  
HETATM   13  C   UNL     1      -8.522   7.265  66.063  1.00  0.00    -0.148 C  
HETATM   14  C   UNL     1      -7.400   5.082  65.607  1.00  0.00    -0.077 C  
BRANCH  13  15
HETATM   15  C   UNL     1      -9.286   8.200  67.001  1.00  0.00    -0.197 C  
BRANCH  15  16
HETATM   16  C   UNL     1     -10.174   9.238  66.291  1.00  0.00    -0.273 C  
BRANCH  16  17
HETATM   17  C   UNL     1      -9.707  10.706  66.501  1.00  0.00    -0.194 C  
HETATM   18  C   UNL     1      -8.294  10.872  65.899  1.00  0.00    -0.149 C  
HETATM   19  C   UNL     1      -9.809  11.046  67.988  1.00  0.00    -0.183 C  
HETATM   20  C   UNL     1      -9.366  12.468  68.238  1.00  0.00    -0.193 C  
HETATM   21  C   UNL     1      -9.891  13.419  67.198  1.00  0.00    -0.237 A  
HETATM   22  C   UNL     1      -9.715  14.806  67.360  1.00  0.00    -0.214 A  
HETATM   23  C   UNL     1      -8.968  15.367  68.544  1.00  0.00    -0.192 C  
HETATM   24  C   UNL     1     -10.240  15.667  66.380  1.00  0.00    -0.290 A  
HETATM   25  C   UNL     1     -10.910  15.184  65.237  1.00  0.00    -0.414 A  
HETATM   26  O   UNL     1     -10.111  17.027  66.494  1.00  0.00    -0.289 OA 
HETATM   27  C   UNL     1     -11.452  16.149  64.215  1.00  0.00    -0.099 C  
HETATM   28  C   UNL     1     -11.050  13.787  65.062  1.00  0.00    -0.348 A  
HETATM   29  H   UNL     1     -10.466  17.608  65.832  1.00  0.00     0.000 HD 
HETATM   30  C   UNL     1     -10.519  12.917  66.038  1.00  0.00    -0.276 A  
HETATM   31  C   UNL     1     -11.730  13.192  63.854  1.00  0.00    -0.515 C  
HETATM   32  O   UNL     1     -10.620  11.563  65.774  1.00  0.00    -0.251 OA 
ENDBRANCH  16  17
ENDBRANCH  15  16
ENDBRANCH  13  15
ENDBRANCH  10  11
ENDBRANCH   9  10
ENDBRANCH   5   6
ENDBRANCH   4   5
TORSDOF 7
ENDMDL
MODEL      246
REMARK 921   NORMALIZED FREE ENERGY PREDICTED BY IDOCK:   -3.78 KCAL/MOL
REMARK 922        TOTAL FREE ENERGY PREDICTED BY IDOCK:   -7.09 KCAL/MOL
REMARK 923 INTER-LIGAND FREE ENERGY PREDICTED BY IDOCK:   -6.35 KCAL/MOL
REMARK 924 INTRA-LIGAND FREE ENERGY PREDICTED BY IDOCK:   -0.74 KCAL/MOL
REMARK 927      BINDING AFFINITY PREDICTED BY RF-SCORE:    0.00 PKD
ROOT
HETATM    1  C   UNL     1      -9.772   3.899  65.268  1.00  0.00    -0.187 C  
HETATM    2  C   UNL     1      -8.646   4.626  64.535  1.00  0.00    -0.141 C  
HETATM    3  C   UNL     1      -7.403   3.732  64.481  1.00  0.00    -0.067 C  
HETATM    4  C   UNL     1      -9.130   5.064  63.138  1.00  0.00     0.086 C  
ENDROOT
BRANCH   4   5
HETATM    5  C   UNL     1      -8.044   5.805  62.364  1.00  0.00    -0.100 C  
BRANCH   5   6
HETATM    6  C   UNL     1      -8.237   7.320  62.375  1.00  0.00    -0.074 C  
HETATM    7  C   UNL     1      -7.890   7.931  63.748  1.00  0.00    -0.141 C  
HETATM    8  C   UNL     1      -6.433   7.655  64.149  1.00  0.00    -0.052 C  
HETATM    9  C   UNL     1      -8.197   9.441  63.728  1.00  0.00    -0.165 C  
BRANCH   9  10
HETATM   10  C   UNL     1      -7.873  10.101  65.066  1.00  0.00    -0.140 C  
BRANCH  10  11
HETATM   11  C   UNL     1      -8.853  11.209  65.417  1.00  0.00    -0.110 C  
HETATM   12  C   UNL     1      -9.938  10.720  66.399  1.00  0.00    -0.264 C  
HETATM   13  C   UNL     1     -10.991  11.810  66.650  1.00  0.00    -0.342 C  
HETATM   14  C   UNL     1      -9.350  10.279  67.745  1.00  0.00    -0.156 C  
BRANCH  13  15
HETATM   15  C   UNL     1     -11.700  12.327  65.398  1.00  0.00    -0.424 C  
BRANCH  15  16
HETATM   16  C   UNL     1     -11.034  13.551  64.742  1.00  0.00    -0.382 C  
BRANCH  16  17
HETATM   17  C   UNL     1     -10.743  14.710  65.736  1.00  0.00    -0.315 C  
HETATM   18  C   UNL     1     -11.796  14.675  66.866  1.00  0.00    -0.345 C  
HETATM   19  C   UNL     1     -10.687  16.024  64.958  1.00  0.00    -0.400 C  
HETATM   20  C   UNL     1     -10.403  17.179  65.888  1.00  0.00    -0.294 C  
HETATM   21  C   UNL     1      -9.344  16.847  66.903  1.00  0.00    -0.254 A  
HETATM   22  C   UNL     1      -8.836  17.852  67.746  1.00  0.00    -0.251 A  
HETATM   23  C   UNL     1      -9.361  19.264  67.684  1.00  0.00    -0.371 C  
HETATM   24  C   UNL     1      -7.830  17.510  68.666  1.00  0.00    -0.272 A  
HETATM   25  C   UNL     1      -7.338  16.194  68.786  1.00  0.00    -0.184 A  
HETATM   26  O   UNL     1      -7.288  18.453  69.501  1.00  0.00    -0.029 OA 
HETATM   27  C   UNL     1      -6.259  15.880  69.790  1.00  0.00    -0.177 C  
HETATM   28  C   UNL     1      -7.880  15.180  67.962  1.00  0.00    -0.135 A  
HETATM   29  H   UNL     1      -6.608  18.221  70.122  1.00  0.00     0.000 HD 
HETATM   30  C   UNL     1      -8.896  15.516  67.040  1.00  0.00    -0.230 A  
HETATM   31  C   UNL     1      -7.425  13.744  68.048  1.00  0.00    -0.139 C  
HETATM   32  O   UNL     1      -9.438  14.469  66.317  1.00  0.00    -0.289 OA 
ENDBRANCH  16  17
ENDBRANCH  15  16
ENDBRANCH  13  15
ENDBRANCH  10  11
ENDBRANCH   9  10
ENDBRANCH   5   6
ENDBRANCH   4   5
TORSDOF 7
ENDMDL
MODEL      247
REMARK 921   NORMALIZED FREE ENERGY PREDICTED BY IDOCK:   -3.78 KCAL/MOL
REMARK 922        TOTAL FREE ENERGY PREDICTED BY IDOCK:   -7.08 KCAL/MOL
REMARK 923 INTER-LIGAND FREE ENERGY PREDICTED BY IDOCK:   -7.02 KCAL/MOL
REMARK 924 INTRA-LIGAND FREE ENERGY PREDICTED BY IDOCK:   -0.06 KCAL/MOL
REMARK 927      BINDING AFFINITY PREDICTED BY RF-SCORE:    0.00 PKD
ROOT
HETATM    1  C   UNL     1     -11.622  16.210  71.691  1.00  0.00    -0.503 C  
HETATM    2  C   UNL     1     -12.321  14.986  72.279  1.00  0.00    -0.434 C  
HETATM    3  C   UNL     1     -12.888  15.328  73.660  1.00  0.00    -0.662 C  
HETATM    4  C   UNL     1     -13.398  14.480  71.298  1.00  0.00    -0.430 C  
ENDROOT
BRANCH   4   5
HETATM    5  C   UNL     1     -14.123  13.249  71.832  1.00  0.00    -0.069 C  
BRANCH   5   6
HETATM    6  C   UNL     1     -13.173  12.108  72.189  1.00  0.00    -0.438 C  
HETATM    7  C   UNL     1     -12.740  11.311  70.940  1.00  0.00    -0.412 C  
HETATM    8  C   UNL     1     -12.021  12.198  69.913  1.00  0.00    -0.380 C  
HETATM    9  C   UNL     1     -11.865  10.119  71.372  1.00  0.00    -0.414 C  
BRANCH   9  10
HETATM   10  C   UNL     1     -11.407   9.291  70.174  1.00  0.00    -0.193 C  
BRANCH  10  11
HETATM   11  C   UNL     1     -11.405   7.800  70.469  1.00  0.00    -0.253 C  
HETATM   12  C   UNL     1     -10.210   7.396  71.357  1.00  0.00    -0.198 C  
HETATM   13  C   UNL     1     -10.149   5.873  71.548  1.00  0.00    -0.238 C  
HETATM   14  C   UNL     1     -10.255   8.067  72.735  1.00  0.00    -0.389 C  
BRANCH  13  15
HETATM   15  C   UNL     1     -10.061   5.061  70.256  1.00  0.00    -0.339 C  
BRANCH  15  16
HETATM   16  C   UNL     1      -8.652   4.536  69.922  1.00  0.00    -0.096 C  
BRANCH  16  17
HETATM   17  C   UNL     1      -8.025   5.193  68.660  1.00  0.00    -0.086 C  
HETATM   18  C   UNL     1      -6.547   4.756  68.552  1.00  0.00    -0.046 C  
HETATM   19  C   UNL     1      -8.239   6.704  68.735  1.00  0.00    -0.120 C  
HETATM   20  C   UNL     1      -7.645   7.384  67.524  1.00  0.00    -0.106 C  
HETATM   21  C   UNL     1      -7.931   6.634  66.252  1.00  0.00    -0.108 A  
HETATM   22  C   UNL     1      -7.596   7.201  65.009  1.00  0.00    -0.104 A  
HETATM   23  C   UNL     1      -6.912   8.542  64.920  1.00  0.00    -0.072 C  
HETATM   24  C   UNL     1      -7.900   6.482  63.841  1.00  0.00    -0.109 A  
HETATM   25  C   UNL     1      -8.502   5.207  63.878  1.00  0.00    -0.119 A  
HETATM   26  O   UNL     1      -7.610   6.993  62.602  1.00  0.00    -0.082 OA 
HETATM   27  C   UNL     1      -8.805   4.477  62.595  1.00  0.00    -0.125 C  
HETATM   28  C   UNL     1      -8.802   4.626  65.132  1.00  0.00    -0.147 A  
HETATM   29  H   UNL     1      -7.815   6.507  61.813  1.00  0.00     0.000 HD 
HETATM   30  C   UNL     1      -8.492   5.340  66.310  1.00  0.00    -0.115 A  
HETATM   31  C   UNL     1      -9.422   3.256  65.257  1.00  0.00    -0.127 C  
HETATM   32  O   UNL     1      -8.739   4.688  67.505  1.00  0.00    -0.104 OA 
ENDBRANCH  16  17
ENDBRANCH  15  16
ENDBRANCH  13  15
ENDBRANCH  10  11
ENDBRANCH   9  10
ENDBRANCH   5   6
ENDBRANCH   4   5
TORSDOF 7
ENDMDL
MODEL      248
REMARK 921   NORMALIZED FREE ENERGY PREDICTED BY IDOCK:   -3.77 KCAL/MOL
REMARK 922        TOTAL FREE ENERGY PREDICTED BY IDOCK:   -7.07 KCAL/MOL
REMARK 923 INTER-LIGAND FREE ENERGY PREDICTED BY IDOCK:   -6.42 KCAL/MOL
REMARK 924 INTRA-LIGAND FREE ENERGY PREDICTED BY IDOCK:   -0.65 KCAL/MOL
REMARK 927      BINDING AFFINITY PREDICTED BY RF-SCORE:    0.00 PKD
ROOT
HETATM    1  C   UNL     1     -10.746  19.885  68.296  1.00  0.00    -0.112 C  
HETATM    2  C   UNL     1      -9.414  19.540  67.633  1.00  0.00    -0.416 C  
HETATM    3  C   UNL     1      -9.649  19.159  66.168  1.00  0.00    -0.318 C  
HETATM    4  C   UNL     1      -8.431  20.716  67.795  1.00  0.00    -0.101 C  
ENDROOT
BRANCH   4   5
HETATM    5  C   UNL     1      -7.077  20.421  67.158  1.00  0.00    -0.334 C  
BRANCH   5   6
HETATM    6  C   UNL     1      -6.259  19.402  67.947  1.00  0.00    -0.227 C  
HETATM    7  C   UNL     1      -6.533  17.959  67.476  1.00  0.00    -0.179 C  
HETATM    8  C   UNL     1      -6.191  17.765  65.991  1.00  0.00    -0.263 C  
HETATM    9  C   UNL     1      -5.757  16.973  68.370  1.00  0.00    -0.132 C  
BRANCH   9  10
HETATM   10  C   UNL     1      -5.993  15.524  67.949  1.00  0.00    -0.163 C  
BRANCH  10  11
HETATM   11  C   UNL     1      -7.373  15.314  67.346  1.00  0.00    -0.241 C  
HETATM   12  C   UNL     1      -8.351  14.694  68.365  1.00  0.00    -0.157 C  
HETATM   13  C   UNL     1      -9.704  14.374  67.712  1.00  0.00    -0.221 C  
HETATM   14  C   UNL     1      -8.588  15.606  69.575  1.00  0.00    -0.191 C  
BRANCH  13  15
HETATM   15  C   UNL     1      -9.636  13.437  66.506  1.00  0.00    -0.277 C  
BRANCH  15  16
HETATM   16  C   UNL     1      -8.957  12.083  66.783  1.00  0.00    -0.198 C  
BRANCH  16  17
HETATM   17  C   UNL     1      -9.845  11.093  67.588  1.00  0.00    -0.174 C  
HETATM   18  C   UNL     1     -11.256  11.065  66.960  1.00  0.00    -0.255 C  
HETATM   19  C   UNL     1      -9.812  11.490  69.063  1.00  0.00    -0.013 C  
HETATM   20  C   UNL     1     -10.662  10.551  69.885  1.00  0.00    -0.301 C  
HETATM   21  C   UNL     1     -10.481   9.114  69.475  1.00  0.00    -0.226 A  
HETATM   22  C   UNL     1     -11.069   8.086  70.236  1.00  0.00    -0.224 A  
HETATM   23  C   UNL     1     -11.919   8.394  71.443  1.00  0.00    -0.337 C  
HETATM   24  C   UNL     1     -10.859   6.755  69.837  1.00  0.00    -0.266 A  
HETATM   25  C   UNL     1     -10.105   6.423  68.693  1.00  0.00    -0.179 A  
HETATM   26  O   UNL     1     -11.395   5.713  70.549  1.00  0.00    -0.143 OA 
HETATM   27  C   UNL     1      -9.912   4.979  68.309  1.00  0.00    -0.193 C  
HETATM   28  C   UNL     1      -9.549   7.463  67.912  1.00  0.00    -0.157 A  
HETATM   29  H   UNL     1     -11.253   4.814  70.280  1.00  0.00     0.000 HD 
HETATM   30  C   UNL     1      -9.762   8.803  68.302  1.00  0.00    -0.158 A  
HETATM   31  C   UNL     1      -8.752   7.191  66.660  1.00  0.00    -0.131 C  
HETATM   32  O   UNL     1      -9.258   9.775  67.457  1.00  0.00    -0.130 OA 
ENDBRANCH  16  17
ENDBRANCH  15  16
ENDBRANCH  13  15
ENDBRANCH  10  11
ENDBRANCH   9  10
ENDBRANCH   5   6
ENDBRANCH   4   5
TORSDOF 7
ENDMDL
MODEL      249
REMARK 921   NORMALIZED FREE ENERGY PREDICTED BY IDOCK:   -3.77 KCAL/MOL
REMARK 922        TOTAL FREE ENERGY PREDICTED BY IDOCK:   -7.06 KCAL/MOL
REMARK 923 INTER-LIGAND FREE ENERGY PREDICTED BY IDOCK:   -5.94 KCAL/MOL
REMARK 924 INTRA-LIGAND FREE ENERGY PREDICTED BY IDOCK:   -1.12 KCAL/MOL
REMARK 927      BINDING AFFINITY PREDICTED BY RF-SCORE:    0.00 PKD
ROOT
HETATM    1  C   UNL     1     -10.151  15.090  66.262  1.00  0.00    -0.298 C  
HETATM    2  C   UNL     1     -11.311  14.408  66.985  1.00  0.00    -0.357 C  
HETATM    3  C   UNL     1     -12.083  13.522  66.002  1.00  0.00    -0.489 C  
HETATM    4  C   UNL     1     -10.778  13.627  68.203  1.00  0.00    -0.260 C  
ENDROOT
BRANCH   4   5
HETATM    5  C   UNL     1     -11.899  12.932  68.970  1.00  0.00    -0.352 C  
BRANCH   5   6
HETATM    6  C   UNL     1     -11.804  11.410  68.910  1.00  0.00    -0.413 C  
HETATM    7  C   UNL     1     -11.490  10.801  70.292  1.00  0.00    -0.406 C  
HETATM    8  C   UNL     1     -12.566  11.149  71.332  1.00  0.00    -0.479 C  
HETATM    9  C   UNL     1     -11.310   9.277  70.151  1.00  0.00    -0.193 C  
BRANCH   9  10
HETATM   10  C   UNL     1     -10.995   8.619  71.493  1.00  0.00    -0.360 C  
BRANCH  10  11
HETATM   11  C   UNL     1     -10.268   7.294  71.329  1.00  0.00    -0.198 C  
HETATM   12  C   UNL     1      -9.529   6.886  72.621  1.00  0.00    -0.159 C  
HETATM   13  C   UNL     1      -8.700   5.611  72.407  1.00  0.00    -0.128 C  
HETATM   14  C   UNL     1     -10.489   6.663  73.796  1.00  0.00    -0.357 C  
BRANCH  13  15
HETATM   15  C   UNL     1      -7.663   5.692  71.287  1.00  0.00    -0.109 C  
BRANCH  15  16
HETATM   16  C   UNL     1      -6.826   4.414  71.092  1.00  0.00    -0.035 C  
BRANCH  16  17
HETATM   17  C   UNL     1      -7.191   3.620  69.806  1.00  0.00    -0.042 C  
HETATM   18  C   UNL     1      -7.965   2.345  70.209  1.00  0.00    -0.052 C  
HETATM   19  C   UNL     1      -5.914   3.364  69.007  1.00  0.00    -0.024 C  
HETATM   20  C   UNL     1      -6.223   2.595  67.745  1.00  0.00    -0.031 C  
HETATM   21  C   UNL     1      -7.464   3.099  67.061  1.00  0.00    -0.074 A  
HETATM   22  C   UNL     1      -7.815   2.610  65.789  1.00  0.00    -0.081 A  
HETATM   23  C   UNL     1      -6.989   1.552  65.102  1.00  0.00    -0.046 C  
HETATM   24  C   UNL     1      -8.969   3.122  65.170  1.00  0.00    -0.142 A  
HETATM   25  C   UNL     1      -9.792   4.083  65.792  1.00  0.00    -0.181 A  
HETATM   26  O   UNL     1      -9.349   2.693  63.924  1.00  0.00    -0.105 OA 
HETATM   27  C   UNL     1     -11.019   4.598  65.085  1.00  0.00     0.027 C  
HETATM   28  C   UNL     1      -9.454   4.542  67.086  1.00  0.00    -0.182 A  
HETATM   29  H   UNL     1     -10.129   3.040  63.506  1.00  0.00     0.000 HD 
HETATM   30  C   UNL     1      -8.301   4.027  67.717  1.00  0.00    -0.094 A  
HETATM   31  C   UNL     1     -10.298   5.549  67.829  1.00  0.00    -0.246 C  
HETATM   32  O   UNL     1      -8.066   4.457  69.011  1.00  0.00    -0.072 OA 
ENDBRANCH  16  17
ENDBRANCH  15  16
ENDBRANCH  13  15
ENDBRANCH  10  11
ENDBRANCH   9  10
ENDBRANCH   5   6
ENDBRANCH   4   5
TORSDOF 7
ENDMDL
MODEL      250
REMARK 921   NORMALIZED FREE ENERGY PREDICTED BY IDOCK:   -3.76 KCAL/MOL
REMARK 922        TOTAL FREE ENERGY PREDICTED BY IDOCK:   -7.06 KCAL/MOL
REMARK 923 INTER-LIGAND FREE ENERGY PREDICTED BY IDOCK:   -6.71 KCAL/MOL
REMARK 924 INTRA-LIGAND FREE ENERGY PREDICTED BY IDOCK:   -0.35 KCAL/MOL
REMARK 927      BINDING AFFINITY PREDICTED BY RF-SCORE:    0.00 PKD
ROOT
HETATM    1  C   UNL     1      -5.130  19.322  64.703  1.00  0.00    -0.204 C  
HETATM    2  C   UNL     1      -6.105  19.590  65.847  1.00  0.00    -0.202 C  
HETATM    3  C   UNL     1      -5.928  21.025  66.353  1.00  0.00    -0.319 C  
HETATM    4  C   UNL     1      -7.546  19.292  65.385  1.00  0.00     0.275 C  
ENDROOT
BRANCH   4   5
HETATM    5  C   UNL     1      -8.563  19.534  66.496  1.00  0.00    -0.374 C  
BRANCH   5   6
HETATM    6  C   UNL     1      -9.373  18.287  66.842  1.00  0.00    -0.286 C  
HETATM    7  C   UNL     1      -9.705  18.220  68.347  1.00  0.00    -0.373 C  
HETATM    8  C   UNL     1     -10.522  19.435  68.810  1.00  0.00    -0.115 C  
HETATM    9  C   UNL     1     -10.434  16.897  68.651  1.00  0.00    -0.352 C  
BRANCH   9  10
HETATM   10  C   UNL     1     -10.788  16.774  70.131  1.00  0.00     0.002 C  
BRANCH  10  11
HETATM   11  C   UNL     1     -11.884  15.750  70.380  1.00  0.00    -0.391 C  
HETATM   12  C   UNL     1     -11.687  15.021  71.726  1.00  0.00    -0.452 C  
HETATM   13  C   UNL     1     -12.727  13.906  71.910  1.00  0.00    -0.364 C  
HETATM   14  C   UNL     1     -11.766  15.976  72.923  1.00  0.00    -0.443 C  
BRANCH  13  15
HETATM   15  C   UNL     1     -12.745  12.847  70.808  1.00  0.00    -0.229 C  
BRANCH  15  16
HETATM   16  C   UNL     1     -12.366  13.368  69.410  1.00  0.00    -0.126 C  
BRANCH  16  17
HETATM   17  C   UNL     1     -11.481  12.383  68.596  1.00  0.00    -0.303 C  
HETATM   18  C   UNL     1     -11.848  12.501  67.100  1.00  0.00    -0.386 C  
HETATM   19  C   UNL     1     -11.639  10.980  69.182  1.00  0.00    -0.389 C  
HETATM   20  C   UNL     1     -10.792   9.989  68.421  1.00  0.00    -0.277 C  
HETATM   21  C   UNL     1      -9.427  10.534  68.101  1.00  0.00    -0.157 A  
HETATM   22  C   UNL     1      -8.447   9.694  67.539  1.00  0.00    -0.125 A  
HETATM   23  C   UNL     1      -8.748   8.253  67.210  1.00  0.00    -0.126 C  
HETATM   24  C   UNL     1      -7.176  10.231  67.276  1.00  0.00    -0.089 A  
HETATM   25  C   UNL     1      -6.863  11.582  67.531  1.00  0.00    -0.098 A  
HETATM   26  O   UNL     1      -6.179   9.455  66.744  1.00  0.00    -0.063 OA 
HETATM   27  C   UNL     1      -5.484  12.109  67.228  1.00  0.00    -0.124 C  
HETATM   28  C   UNL     1      -7.864  12.431  68.060  1.00  0.00    -0.141 A  
HETATM   29  H   UNL     1      -5.320   9.819  66.566  1.00  0.00     0.000 HD 
HETATM   30  C   UNL     1      -9.146  11.899  68.320  1.00  0.00    -0.183 A  
HETATM   31  C   UNL     1      -7.617  13.893  68.336  1.00  0.00    -0.130 C  
HETATM   32  O   UNL     1     -10.102  12.794  68.765  1.00  0.00    -0.167 OA 
ENDBRANCH  16  17
ENDBRANCH  15  16
ENDBRANCH  13  15
ENDBRANCH  10  11
ENDBRANCH   9  10
ENDBRANCH   5   6
ENDBRANCH   4   5
TORSDOF 7
ENDMDL
MODEL      251
REMARK 921   NORMALIZED FREE ENERGY PREDICTED BY IDOCK:   -3.76 KCAL/MOL
REMARK 922        TOTAL FREE ENERGY PREDICTED BY IDOCK:   -7.06 KCAL/MOL
REMARK 923 INTER-LIGAND FREE ENERGY PREDICTED BY IDOCK:   -5.81 KCAL/MOL
REMARK 924 INTRA-LIGAND FREE ENERGY PREDICTED BY IDOCK:   -1.25 KCAL/MOL
REMARK 927      BINDING AFFINITY PREDICTED BY RF-SCORE:    0.00 PKD
ROOT
HETATM    1  C   UNL     1      -7.204  13.196  69.008  1.00  0.00     0.005 C  
HETATM    2  C   UNL     1      -6.392  14.485  69.123  1.00  0.00    -0.100 C  
HETATM    3  C   UNL     1      -5.144  14.235  69.974  1.00  0.00    -0.089 C  
HETATM    4  C   UNL     1      -6.060  15.020  67.716  1.00  0.00    -0.154 C  
ENDROOT
BRANCH   4   5
HETATM    5  C   UNL     1      -5.256  16.315  67.772  1.00  0.00    -0.142 C  
BRANCH   5   6
HETATM    6  C   UNL     1      -6.036  17.520  67.253  1.00  0.00    -0.156 C  
HETATM    7  C   UNL     1      -7.417  17.644  67.929  1.00  0.00    -0.204 C  
HETATM    8  C   UNL     1      -7.299  17.800  69.452  1.00  0.00     0.089 C  
HETATM    9  C   UNL     1      -8.193  18.815  67.297  1.00  0.00    -0.276 C  
BRANCH   9  10
HETATM   10  C   UNL     1      -9.573  18.983  67.928  1.00  0.00    -0.373 C  
BRANCH  10  11
HETATM   11  C   UNL     1     -10.579  17.974  67.398  1.00  0.00    -0.378 C  
HETATM   12  C   UNL     1     -10.530  16.651  68.189  1.00  0.00    -0.321 C  
HETATM   13  C   UNL     1     -11.461  15.598  67.568  1.00  0.00    -0.121 C  
HETATM   14  C   UNL     1     -10.906  16.838  69.663  1.00  0.00    -0.205 C  
BRANCH  13  15
HETATM   15  C   UNL     1     -11.183  15.271  66.101  1.00  0.00    -0.225 C  
BRANCH  15  16
HETATM   16  C   UNL     1     -10.040  14.264  65.872  1.00  0.00    -0.344 C  
BRANCH  16  17
HETATM   17  C   UNL     1     -10.290  12.878  66.530  1.00  0.00    -0.264 C  
HETATM   18  C   UNL     1     -11.511  12.216  65.854  1.00  0.00    -0.418 C  
HETATM   19  C   UNL     1     -10.424  13.067  68.041  1.00  0.00    -0.234 C  
HETATM   20  C   UNL     1     -10.666  11.742  68.722  1.00  0.00    -0.255 C  
HETATM   21  C   UNL     1      -9.798  10.648  68.163  1.00  0.00    -0.170 A  
HETATM   22  C   UNL     1      -9.771   9.384  68.783  1.00  0.00    -0.161 A  
HETATM   23  C   UNL     1     -10.630   9.084  69.986  1.00  0.00    -0.246 C  
HETATM   24  C   UNL     1      -8.930   8.394  68.248  1.00  0.00    -0.139 A  
HETATM   25  C   UNL     1      -8.140   8.618  67.102  1.00  0.00    -0.100 A  
HETATM   26  O   UNL     1      -8.852   7.151  68.820  1.00  0.00    -0.130 OA 
HETATM   27  C   UNL     1      -7.256   7.521  66.567  1.00  0.00    -0.076 C  
HETATM   28  C   UNL     1      -8.201   9.877  66.461  1.00  0.00    -0.121 A  
HETATM   29  H   UNL     1      -8.283   6.481  68.458  1.00  0.00     0.000 HD 
HETATM   30  C   UNL     1      -9.049  10.875  66.989  1.00  0.00    -0.149 A  
HETATM   31  C   UNL     1      -7.407  10.187  65.216  1.00  0.00    -0.141 C  
HETATM   32  O   UNL     1      -9.123  12.058  66.276  1.00  0.00    -0.211 OA 
ENDBRANCH  16  17
ENDBRANCH  15  16
ENDBRANCH  13  15
ENDBRANCH  10  11
ENDBRANCH   9  10
ENDBRANCH   5   6
ENDBRANCH   4   5
TORSDOF 7
ENDMDL
MODEL      252
REMARK 921   NORMALIZED FREE ENERGY PREDICTED BY IDOCK:   -3.76 KCAL/MOL
REMARK 922        TOTAL FREE ENERGY PREDICTED BY IDOCK:   -7.05 KCAL/MOL
REMARK 923 INTER-LIGAND FREE ENERGY PREDICTED BY IDOCK:   -7.03 KCAL/MOL
REMARK 924 INTRA-LIGAND FREE ENERGY PREDICTED BY IDOCK:   -0.02 KCAL/MOL
REMARK 927      BINDING AFFINITY PREDICTED BY RF-SCORE:    0.00 PKD
ROOT
HETATM    1  C   UNL     1      -7.754   2.713  66.732  1.00  0.00    -0.071 C  
HETATM    2  C   UNL     1      -7.553   4.212  66.942  1.00  0.00    -0.084 C  
HETATM    3  C   UNL     1      -6.472   4.446  68.002  1.00  0.00    -0.038 C  
HETATM    4  C   UNL     1      -7.227   4.888  65.595  1.00  0.00    -0.072 C  
ENDROOT
BRANCH   4   5
HETATM    5  C   UNL     1      -7.026   6.393  65.745  1.00  0.00    -0.061 C  
BRANCH   5   6
HETATM    6  C   UNL     1      -8.323   7.183  65.591  1.00  0.00    -0.138 C  
HETATM    7  C   UNL     1      -8.056   8.652  65.201  1.00  0.00    -0.143 C  
HETATM    8  C   UNL     1      -7.293   8.765  63.873  1.00  0.00    -0.099 C  
HETATM    9  C   UNL     1      -9.390   9.421  65.156  1.00  0.00    -0.288 C  
BRANCH   9  10
HETATM   10  C   UNL     1      -9.186  10.885  64.776  1.00  0.00    -0.227 C  
BRANCH  10  11
HETATM   11  C   UNL     1      -9.713  11.837  65.838  1.00  0.00    -0.259 C  
HETATM   12  C   UNL     1     -10.922  11.240  66.588  1.00  0.00    -0.326 C  
HETATM   13  C   UNL     1     -11.522  12.257  67.572  1.00  0.00    -0.414 C  
HETATM   14  C   UNL     1     -10.560   9.962  67.354  1.00  0.00    -0.338 C  
BRANCH  13  15
HETATM   15  C   UNL     1     -11.971  13.577  66.947  1.00  0.00    -0.447 C  
BRANCH  15  16
HETATM   16  C   UNL     1     -11.545  14.835  67.726  1.00  0.00    -0.378 C  
BRANCH  16  17
HETATM   17  C   UNL     1     -10.155  15.389  67.305  1.00  0.00    -0.238 C  
HETATM   18  C   UNL     1     -10.030  15.308  65.768  1.00  0.00    -0.391 C  
HETATM   19  C   UNL     1      -9.071  14.633  68.073  1.00  0.00    -0.189 C  
HETATM   20  C   UNL     1      -7.700  15.142  67.694  1.00  0.00    -0.186 C  
HETATM   21  C   UNL     1      -7.659  16.642  67.591  1.00  0.00    -0.170 A  
HETATM   22  C   UNL     1      -6.429  17.302  67.407  1.00  0.00    -0.170 A  
HETATM   23  C   UNL     1      -5.141  16.531  67.270  1.00  0.00    -0.137 C  
HETATM   24  C   UNL     1      -6.426  18.706  67.340  1.00  0.00    -0.192 A  
HETATM   25  C   UNL     1      -7.611  19.465  67.423  1.00  0.00    -0.269 A  
HETATM   26  O   UNL     1      -5.255  19.401  67.177  1.00  0.00    -0.159 OA 
HETATM   27  C   UNL     1      -7.553  20.969  67.342  1.00  0.00    -0.216 C  
HETATM   28  C   UNL     1      -8.848  18.794  67.569  1.00  0.00    -0.292 A  
HETATM   29  H   UNL     1      -5.254  20.350  67.131  1.00  0.00     0.000 HD 
HETATM   30  C   UNL     1      -8.859  17.383  67.631  1.00  0.00    -0.225 A  
HETATM   31  C   UNL     1     -10.162  19.532  67.639  1.00  0.00    -0.556 C  
HETATM   32  O   UNL     1     -10.103  16.782  67.697  1.00  0.00    -0.260 OA 
ENDBRANCH  16  17
ENDBRANCH  15  16
ENDBRANCH  13  15
ENDBRANCH  10  11
ENDBRANCH   9  10
ENDBRANCH   5   6
ENDBRANCH   4   5
TORSDOF 7
ENDMDL
MODEL      253
REMARK 921   NORMALIZED FREE ENERGY PREDICTED BY IDOCK:   -3.74 KCAL/MOL
REMARK 922        TOTAL FREE ENERGY PREDICTED BY IDOCK:   -7.02 KCAL/MOL
REMARK 923 INTER-LIGAND FREE ENERGY PREDICTED BY IDOCK:   -5.72 KCAL/MOL
REMARK 924 INTRA-LIGAND FREE ENERGY PREDICTED BY IDOCK:   -1.30 KCAL/MOL
REMARK 927      BINDING AFFINITY PREDICTED BY RF-SCORE:    0.00 PKD
ROOT
HETATM    1  C   UNL     1      -8.558  14.612  67.707  1.00  0.00    -0.175 C  
HETATM    2  C   UNL     1      -7.880  13.355  68.248  1.00  0.00    -0.143 C  
HETATM    3  C   UNL     1      -7.433  12.466  67.083  1.00  0.00    -0.095 C  
HETATM    4  C   UNL     1      -6.717  13.749  69.180  1.00  0.00    -0.112 C  
ENDROOT
BRANCH   4   5
HETATM    5  C   UNL     1      -6.008  12.528  69.758  1.00  0.00    -0.135 C  
BRANCH   5   6
HETATM    6  C   UNL     1      -6.920  11.309  69.866  1.00  0.00     0.056 C  
HETATM    7  C   UNL     1      -6.128  10.030  70.212  1.00  0.00    -0.082 C  
HETATM    8  C   UNL     1      -5.382  10.160  71.548  1.00  0.00    -0.050 C  
HETATM    9  C   UNL     1      -7.082   8.821  70.210  1.00  0.00    -0.045 C  
BRANCH   9  10
HETATM   10  C   UNL     1      -6.351   7.524  70.546  1.00  0.00    -0.038 C  
BRANCH  10  11
HETATM   11  C   UNL     1      -7.211   6.295  70.299  1.00  0.00    -0.083 C  
HETATM   12  C   UNL     1      -6.782   5.547  69.020  1.00  0.00    -0.053 C  
HETATM   13  C   UNL     1      -7.733   4.380  68.714  1.00  0.00    -0.066 C  
HETATM   14  C   UNL     1      -5.350   5.008  69.111  1.00  0.00    -0.004 C  
BRANCH  13  15
HETATM   15  C   UNL     1      -9.203   4.766  68.554  1.00  0.00    -0.165 C  
BRANCH  15  16
HETATM   16  C   UNL     1      -9.539   6.208  68.980  1.00  0.00    -0.144 C  
BRANCH  16  17
HETATM   17  C   UNL     1      -9.892   7.143  67.789  1.00  0.00    -0.145 C  
HETATM   18  C   UNL     1     -11.152   6.598  67.081  1.00  0.00    -0.427 C  
HETATM   19  C   UNL     1      -8.664   7.278  66.889  1.00  0.00    -0.126 C  
HETATM   20  C   UNL     1      -8.962   8.183  65.718  1.00  0.00    -0.165 C  
HETATM   21  C   UNL     1      -9.749   9.398  66.123  1.00  0.00    -0.334 A  
HETATM   22  C   UNL     1      -9.978  10.431  65.195  1.00  0.00    -0.390 A  
HETATM   23  C   UNL     1      -9.481  10.331  63.775  1.00  0.00    -0.352 C  
HETATM   24  C   UNL     1     -10.697  11.563  65.616  1.00  0.00    -0.267 A  
HETATM   25  C   UNL     1     -11.214  11.681  66.922  1.00  0.00    -0.376 A  
HETATM   26  O   UNL     1     -10.936  12.605  64.758  1.00  0.00    -0.282 OA 
HETATM   27  C   UNL     1     -11.980  12.916  67.322  1.00  0.00    -0.371 C  
HETATM   28  C   UNL     1     -11.014  10.623  67.839  1.00  0.00    -0.351 A  
HETATM   29  H   UNL     1     -11.422  13.370  65.043  1.00  0.00     0.000 HD 
HETATM   30  C   UNL     1     -10.298   9.480  67.420  1.00  0.00    -0.258 A  
HETATM   31  C   UNL     1     -11.558  10.662  69.246  1.00  0.00    -0.346 C  
HETATM   32  O   UNL     1     -10.200   8.448  68.337  1.00  0.00    -0.197 OA 
ENDBRANCH  16  17
ENDBRANCH  15  16
ENDBRANCH  13  15
ENDBRANCH  10  11
ENDBRANCH   9  10
ENDBRANCH   5   6
ENDBRANCH   4   5
TORSDOF 7
ENDMDL
MODEL      254
REMARK 921   NORMALIZED FREE ENERGY PREDICTED BY IDOCK:   -3.72 KCAL/MOL
REMARK 922        TOTAL FREE ENERGY PREDICTED BY IDOCK:   -7.00 KCAL/MOL
REMARK 923 INTER-LIGAND FREE ENERGY PREDICTED BY IDOCK:   -6.84 KCAL/MOL
REMARK 924 INTRA-LIGAND FREE ENERGY PREDICTED BY IDOCK:   -0.16 KCAL/MOL
REMARK 927      BINDING AFFINITY PREDICTED BY RF-SCORE:    0.00 PKD
ROOT
HETATM    1  C   UNL     1      -5.289   3.547  73.366  1.00  0.00     0.000 C  
HETATM    2  C   UNL     1      -6.562   3.156  72.618  1.00  0.00    -0.022 C  
HETATM    3  C   UNL     1      -6.409   1.746  72.039  1.00  0.00    -0.014 C  
HETATM    4  C   UNL     1      -7.779   3.289  73.555  1.00  0.00    -0.065 C  
ENDROOT
BRANCH   4   5
HETATM    5  C   UNL     1      -9.083   2.918  72.854  1.00  0.00    -0.109 C  
BRANCH   5   6
HETATM    6  C   UNL     1      -9.252   3.617  71.508  1.00  0.00    -0.191 C  
HETATM    7  C   UNL     1     -10.210   4.823  71.606  1.00  0.00    -0.249 C  
HETATM    8  C   UNL     1      -9.708   5.876  72.606  1.00  0.00    -0.166 C  
HETATM    9  C   UNL     1     -10.418   5.426  70.204  1.00  0.00    -0.361 C  
BRANCH   9  10
HETATM   10  C   UNL     1     -11.361   6.627  70.239  1.00  0.00    -0.431 C  
BRANCH  10  11
HETATM   11  C   UNL     1     -10.777   7.842  69.536  1.00  0.00    -0.200 C  
HETATM   12  C   UNL     1      -9.320   7.597  69.092  1.00  0.00    -0.147 C  
HETATM   13  C   UNL     1      -8.701   8.870  68.494  1.00  0.00    -0.134 C  
HETATM   14  C   UNL     1      -9.205   6.461  68.068  1.00  0.00    -0.110 C  
BRANCH  13  15
HETATM   15  C   UNL     1      -8.705  10.088  69.417  1.00  0.00    -0.195 C  
BRANCH  15  16
HETATM   16  C   UNL     1      -7.472  11.001  69.282  1.00  0.00    -0.100 C  
BRANCH  16  17
HETATM   17  C   UNL     1      -7.652  12.142  68.242  1.00  0.00    -0.132 C  
HETATM   18  C   UNL     1      -6.789  11.828  67.000  1.00  0.00    -0.137 C  
HETATM   19  C   UNL     1      -7.336  13.477  68.917  1.00  0.00    -0.045 C  
HETATM   20  C   UNL     1      -7.501  14.617  67.941  1.00  0.00    -0.158 C  
HETATM   21  C   UNL     1      -8.732  14.464  67.090  1.00  0.00    -0.243 A  
HETATM   22  C   UNL     1      -9.134  15.509  66.238  1.00  0.00    -0.369 A  
HETATM   23  C   UNL     1      -8.330  16.780  66.126  1.00  0.00    -0.301 C  
HETATM   24  C   UNL     1     -10.303  15.340  65.476  1.00  0.00    -0.383 A  
HETATM   25  C   UNL     1     -11.063  14.154  65.519  1.00  0.00    -0.310 A  
HETATM   26  O   UNL     1     -10.749  16.332  64.641  1.00  0.00    -0.782 OA 
HETATM   27  C   UNL     1     -12.308  14.023  64.680  1.00  0.00    -0.425 C  
HETATM   28  C   UNL     1     -10.633  13.092  66.348  1.00  0.00    -0.293 A  
HETATM   29  H   UNL     1     -11.540  16.217  64.126  1.00  0.00     0.000 HD 
HETATM   30  C   UNL     1      -9.456  13.252  67.112  1.00  0.00    -0.240 A  
HETATM   31  C   UNL     1     -11.376  11.782  66.430  1.00  0.00    -0.361 C  
HETATM   32  O   UNL     1      -9.045  12.153  67.844  1.00  0.00    -0.170 OA 
ENDBRANCH  16  17
ENDBRANCH  15  16
ENDBRANCH  13  15
ENDBRANCH  10  11
ENDBRANCH   9  10
ENDBRANCH   5   6
ENDBRANCH   4   5
TORSDOF 7
ENDMDL
MODEL      255
REMARK 921   NORMALIZED FREE ENERGY PREDICTED BY IDOCK:   -3.71 KCAL/MOL
REMARK 922        TOTAL FREE ENERGY PREDICTED BY IDOCK:   -6.99 KCAL/MOL
REMARK 923 INTER-LIGAND FREE ENERGY PREDICTED BY IDOCK:   -5.88 KCAL/MOL
REMARK 924 INTRA-LIGAND FREE ENERGY PREDICTED BY IDOCK:   -1.11 KCAL/MOL
REMARK 927      BINDING AFFINITY PREDICTED BY RF-SCORE:    0.00 PKD
ROOT
HETATM    1  C   UNL     1      -5.906   3.179  71.579  1.00  0.00    -0.013 C  
HETATM    2  C   UNL     1      -5.824   3.805  70.189  1.00  0.00    -0.018 C  
HETATM    3  C   UNL     1      -7.054   3.405  69.368  1.00  0.00    -0.042 C  
HETATM    4  C   UNL     1      -5.660   5.333  70.314  1.00  0.00    -0.012 C  
ENDROOT
BRANCH   4   5
HETATM    5  C   UNL     1      -5.562   6.011  68.950  1.00  0.00    -0.011 C  
BRANCH   5   6
HETATM    6  C   UNL     1      -5.555   7.534  69.044  1.00  0.00    -0.022 C  
HETATM    7  C   UNL     1      -6.550   8.174  68.053  1.00  0.00    -0.057 C  
HETATM    8  C   UNL     1      -7.992   7.709  68.307  1.00  0.00    -0.123 C  
HETATM    9  C   UNL     1      -6.427   9.708  68.124  1.00  0.00    -0.057 C  
BRANCH   9  10
HETATM   10  C   UNL     1      -7.391  10.396  67.160  1.00  0.00    -0.092 C  
BRANCH  10  11
HETATM   11  C   UNL     1      -8.727  10.719  67.811  1.00  0.00    -0.130 C  
HETATM   12  C   UNL     1      -9.845  10.891  66.762  1.00  0.00    -0.231 C  
HETATM   13  C   UNL     1     -11.160  11.337  67.420  1.00  0.00    -0.358 C  
HETATM   14  C   UNL     1     -10.100   9.607  65.965  1.00  0.00    -0.318 C  
BRANCH  13  15
HETATM   15  C   UNL     1     -11.075  12.634  68.224  1.00  0.00    -0.295 C  
BRANCH  15  16
HETATM   16  C   UNL     1     -11.398  13.909  67.423  1.00  0.00    -0.349 C  
BRANCH  16  17
HETATM   17  C   UNL     1     -10.140  14.727  67.021  1.00  0.00    -0.245 C  
HETATM   18  C   UNL     1     -10.029  14.748  65.480  1.00  0.00    -0.390 C  
HETATM   19  C   UNL     1      -8.923  14.144  67.739  1.00  0.00    -0.187 C  
HETATM   20  C   UNL     1      -7.675  14.913  67.377  1.00  0.00    -0.231 C  
HETATM   21  C   UNL     1      -7.908  16.399  67.353  1.00  0.00    -0.179 A  
HETATM   22  C   UNL     1      -6.822  17.280  67.194  1.00  0.00    -0.209 A  
HETATM   23  C   UNL     1      -5.418  16.764  67.007  1.00  0.00    -0.166 C  
HETATM   24  C   UNL     1      -7.075  18.662  67.201  1.00  0.00    -0.204 A  
HETATM   25  C   UNL     1      -8.377  19.187  67.334  1.00  0.00    -0.307 A  
HETATM   26  O   UNL     1      -6.054  19.566  67.066  1.00  0.00    -0.181 OA 
HETATM   27  C   UNL     1      -8.594  20.679  67.332  1.00  0.00    -0.300 C  
HETATM   28  C   UNL     1      -9.468  18.296  67.454  1.00  0.00    -0.266 A  
HETATM   29  H   UNL     1      -6.225  20.501  67.071  1.00  0.00     0.000 HD 
HETATM   30  C   UNL     1      -9.222  16.905  67.441  1.00  0.00    -0.222 A  
HETATM   31  C   UNL     1     -10.893  18.778  67.574  1.00  0.00    -0.396 C  
HETATM   32  O   UNL     1     -10.335  16.085  67.486  1.00  0.00    -0.273 OA 
ENDBRANCH  16  17
ENDBRANCH  15  16
ENDBRANCH  13  15
ENDBRANCH  10  11
ENDBRANCH   9  10
ENDBRANCH   5   6
ENDBRANCH   4   5
TORSDOF 7
ENDMDL
MODEL      256
REMARK 921   NORMALIZED FREE ENERGY PREDICTED BY IDOCK:   -3.71 KCAL/MOL
REMARK 922        TOTAL FREE ENERGY PREDICTED BY IDOCK:   -6.98 KCAL/MOL
REMARK 923 INTER-LIGAND FREE ENERGY PREDICTED BY IDOCK:   -7.03 KCAL/MOL
REMARK 924 INTRA-LIGAND FREE ENERGY PREDICTED BY IDOCK:    0.05 KCAL/MOL
REMARK 927      BINDING AFFINITY PREDICTED BY RF-SCORE:    0.00 PKD
ROOT
HETATM    1  C   UNL     1      -7.939   7.566  74.446  1.00  0.00    -0.216 C  
HETATM    2  C   UNL     1      -8.153   6.054  74.484  1.00  0.00    -0.111 C  
HETATM    3  C   UNL     1      -9.632   5.735  74.248  1.00  0.00    -0.169 C  
HETATM    4  C   UNL     1      -7.223   5.371  73.462  1.00  0.00    -0.087 C  
ENDROOT
BRANCH   4   5
HETATM    5  C   UNL     1      -7.388   3.854  73.465  1.00  0.00    -0.069 C  
BRANCH   5   6
HETATM    6  C   UNL     1      -8.576   3.385  72.630  1.00  0.00    -0.090 C  
HETATM    7  C   UNL     1      -8.359   3.649  71.125  1.00  0.00    -0.086 C  
HETATM    8  C   UNL     1      -7.113   2.929  70.589  1.00  0.00    -0.033 C  
HETATM    9  C   UNL     1      -9.626   3.247  70.347  1.00  0.00    -0.211 C  
BRANCH   9  10
HETATM   10  C   UNL     1      -9.469   3.489  68.847  1.00  0.00    -0.210 C  
BRANCH  10  11
HETATM   11  C   UNL     1      -9.280   4.961  68.517  1.00  0.00    -0.157 C  
HETATM   12  C   UNL     1      -7.893   5.232  67.896  1.00  0.00    -0.092 C  
HETATM   13  C   UNL     1      -7.666   6.736  67.679  1.00  0.00    -0.111 C  
HETATM   14  C   UNL     1      -7.700   4.504  66.560  1.00  0.00    -0.094 C  
BRANCH  13  15
HETATM   15  C   UNL     1      -7.786   7.597  68.936  1.00  0.00    -0.123 C  
BRANCH  15  16
HETATM   16  C   UNL     1      -9.062   8.458  69.006  1.00  0.00    -0.147 C  
BRANCH  16  17
HETATM   17  C   UNL     1      -9.582   8.915  67.615  1.00  0.00    -0.148 C  
HETATM   18  C   UNL     1     -10.691   7.944  67.152  1.00  0.00    -0.306 C  
HETATM   19  C   UNL     1      -8.395   9.029  66.659  1.00  0.00    -0.118 C  
HETATM   20  C   UNL     1      -8.856   9.475  65.292  1.00  0.00    -0.220 C  
HETATM   21  C   UNL     1      -9.885  10.570  65.367  1.00  0.00    -0.335 A  
HETATM   22  C   UNL     1     -10.308  11.220  64.192  1.00  0.00    -0.410 A  
HETATM   23  C   UNL     1      -9.779  10.814  62.840  1.00  0.00    -0.337 C  
HETATM   24  C   UNL     1     -11.253  12.254  64.303  1.00  0.00    -0.350 A  
HETATM   25  C   UNL     1     -11.803  12.639  65.543  1.00  0.00    -0.479 A  
HETATM   26  O   UNL     1     -11.689  12.932  63.194  1.00  0.00    -0.801 OA 
HETATM   27  C   UNL     1     -12.815  13.755  65.606  1.00  0.00    -0.456 C  
HETATM   28  C   UNL     1     -11.402  11.957  66.715  1.00  0.00    -0.393 A  
HETATM   29  H   UNL     1     -12.328  13.631  63.270  1.00  0.00     0.000 HD 
HETATM   30  C   UNL     1     -10.459  10.911  66.610  1.00  0.00    -0.254 A  
HETATM   31  C   UNL     1     -11.964  12.291  68.074  1.00  0.00    -0.251 C  
HETATM   32  O   UNL     1     -10.163  10.232  67.778  1.00  0.00    -0.169 OA 
ENDBRANCH  16  17
ENDBRANCH  15  16
ENDBRANCH  13  15
ENDBRANCH  10  11
ENDBRANCH   9  10
ENDBRANCH   5   6
ENDBRANCH   4   5
TORSDOF 7
ENDMDL
MODEL      257
REMARK 921   NORMALIZED FREE ENERGY PREDICTED BY IDOCK:   -3.70 KCAL/MOL
REMARK 922        TOTAL FREE ENERGY PREDICTED BY IDOCK:   -6.97 KCAL/MOL
REMARK 923 INTER-LIGAND FREE ENERGY PREDICTED BY IDOCK:   -3.75 KCAL/MOL
REMARK 924 INTRA-LIGAND FREE ENERGY PREDICTED BY IDOCK:   -3.22 KCAL/MOL
REMARK 927      BINDING AFFINITY PREDICTED BY RF-SCORE:    0.00 PKD
ROOT
HETATM    1  C   UNL     1     -12.084  14.529  67.651  1.00  0.00    -0.266 C  
HETATM    2  C   UNL     1     -12.208  13.466  66.562  1.00  0.00    -0.414 C  
HETATM    3  C   UNL     1     -12.011  14.109  65.186  1.00  0.00    -0.390 C  
HETATM    4  C   UNL     1     -11.213  12.321  66.836  1.00  0.00    -0.367 C  
ENDROOT
BRANCH   4   5
HETATM    5  C   UNL     1     -11.303  11.222  65.781  1.00  0.00     0.022 C  
BRANCH   5   6
HETATM    6  C   UNL     1     -10.544   9.958  66.174  1.00  0.00    -0.050 C  
HETATM    7  C   UNL     1      -9.620   9.468  65.040  1.00  0.00    -0.218 C  
HETATM    8  C   UNL     1      -8.574  10.525  64.653  1.00  0.00    -0.167 C  
HETATM    9  C   UNL     1      -8.958   8.141  65.456  1.00  0.00    -0.082 C  
BRANCH   9  10
HETATM   10  C   UNL     1      -8.030   7.606  64.367  1.00  0.00    -0.123 C  
BRANCH  10  11
HETATM   11  C   UNL     1      -6.896   6.768  64.935  1.00  0.00    -0.050 C  
HETATM   12  C   UNL     1      -7.412   5.448  65.544  1.00  0.00    -0.077 C  
HETATM   13  C   UNL     1      -6.276   4.668  66.222  1.00  0.00    -0.032 C  
HETATM   14  C   UNL     1      -8.080   4.545  64.500  1.00  0.00    -0.102 C  
BRANCH  13  15
HETATM   15  C   UNL     1      -5.534   5.427  67.322  1.00  0.00    -0.012 C  
BRANCH  15  16
HETATM   16  C   UNL     1      -6.067   5.179  68.746  1.00  0.00    -0.029 C  
BRANCH  16  17
HETATM   17  C   UNL     1      -6.774   6.415  69.370  1.00  0.00    -0.052 C  
HETATM   18  C   UNL     1      -5.985   6.863  70.620  1.00  0.00    -0.027 C  
HETATM   19  C   UNL     1      -8.238   6.064  69.633  1.00  0.00    -0.115 C  
HETATM   20  C   UNL     1      -8.965   7.241  70.239  1.00  0.00    -0.151 C  
HETATM   21  C   UNL     1      -8.598   8.540  69.576  1.00  0.00    -0.131 A  
HETATM   22  C   UNL     1      -9.296   9.718  69.901  1.00  0.00    -0.262 A  
HETATM   23  C   UNL     1     -10.390   9.718  70.938  1.00  0.00    -0.245 C  
HETATM   24  C   UNL     1      -8.942  10.909  69.243  1.00  0.00     0.031 A  
HETATM   25  C   UNL     1      -7.899  10.962  68.296  1.00  0.00    -0.118 A  
HETATM   26  O   UNL     1      -9.598  12.083  69.509  1.00  0.00     0.104 OA 
HETATM   27  C   UNL     1      -7.558  12.266  67.621  1.00  0.00    -0.144 C  
HETATM   28  C   UNL     1      -7.176   9.783  68.003  1.00  0.00    -0.080 A  
HETATM   29  H   UNL     1      -9.359  12.887  69.064  1.00  0.00     0.000 HD 
HETATM   30  C   UNL     1      -7.522   8.584  68.665  1.00  0.00    -0.093 A  
HETATM   31  C   UNL     1      -6.030   9.763  67.021  1.00  0.00    -0.055 C  
HETATM   32  O   UNL     1      -6.730   7.483  68.392  1.00  0.00    -0.051 OA 
ENDBRANCH  16  17
ENDBRANCH  15  16
ENDBRANCH  13  15
ENDBRANCH  10  11
ENDBRANCH   9  10
ENDBRANCH   5   6
ENDBRANCH   4   5
TORSDOF 7
ENDMDL
MODEL      258
REMARK 921   NORMALIZED FREE ENERGY PREDICTED BY IDOCK:   -3.67 KCAL/MOL
REMARK 922        TOTAL FREE ENERGY PREDICTED BY IDOCK:   -6.93 KCAL/MOL
REMARK 923 INTER-LIGAND FREE ENERGY PREDICTED BY IDOCK:   -7.23 KCAL/MOL
REMARK 924 INTRA-LIGAND FREE ENERGY PREDICTED BY IDOCK:    0.29 KCAL/MOL
REMARK 927      BINDING AFFINITY PREDICTED BY RF-SCORE:    0.00 PKD
ROOT
HETATM    1  C   UNL     1      -6.339   1.834  73.471  1.00  0.00    -0.012 C  
HETATM    2  C   UNL     1      -7.618   2.522  72.999  1.00  0.00    -0.046 C  
HETATM    3  C   UNL     1      -8.213   1.753  71.815  1.00  0.00    -0.047 C  
HETATM    4  C   UNL     1      -8.602   2.660  74.178  1.00  0.00    -0.071 C  
ENDROOT
BRANCH   4   5
HETATM    5  C   UNL     1      -9.897   3.353  73.764  1.00  0.00    -0.154 C  
BRANCH   5   6
HETATM    6  C   UNL     1      -9.671   4.487  72.768  1.00  0.00    -0.180 C  
HETATM    7  C   UNL     1     -10.543   5.717  73.094  1.00  0.00    -0.272 C  
HETATM    8  C   UNL     1     -10.249   6.276  74.494  1.00  0.00    -0.320 C  
HETATM    9  C   UNL     1     -10.346   6.788  72.004  1.00  0.00    -0.217 C  
BRANCH   9  10
HETATM   10  C   UNL     1     -11.189   8.032  72.274  1.00  0.00    -0.402 C  
BRANCH  10  11
HETATM   11  C   UNL     1     -10.885   9.159  71.301  1.00  0.00    -0.402 C  
HETATM   12  C   UNL     1     -12.172   9.742  70.683  1.00  0.00    -0.283 C  
HETATM   13  C   UNL     1     -11.847  10.794  69.612  1.00  0.00    -0.392 C  
HETATM   14  C   UNL     1     -13.091  10.373  71.736  1.00  0.00    -0.567 C  
BRANCH  13  15
HETATM   15  C   UNL     1     -10.965  10.302  68.465  1.00  0.00    -0.294 C  
BRANCH  15  16
HETATM   16  C   UNL     1     -11.190  11.025  67.125  1.00  0.00    -0.290 C  
BRANCH  16  17
HETATM   17  C   UNL     1     -10.928  12.556  67.191  1.00  0.00    -0.263 C  
HETATM   18  C   UNL     1     -11.748  13.154  68.355  1.00  0.00    -0.386 C  
HETATM   19  C   UNL     1     -11.226  13.167  65.822  1.00  0.00    -0.309 C  
HETATM   20  C   UNL     1     -10.981  14.657  65.841  1.00  0.00    -0.332 C  
HETATM   21  C   UNL     1      -9.722  15.017  66.580  1.00  0.00    -0.273 A  
HETATM   22  C   UNL     1      -9.249  16.343  66.562  1.00  0.00    -0.306 A  
HETATM   23  C   UNL     1     -10.004  17.432  65.843  1.00  0.00    -0.166 C  
HETATM   24  C   UNL     1      -8.056  16.638  67.243  1.00  0.00    -0.168 A  
HETATM   25  C   UNL     1      -7.339  15.659  67.962  1.00  0.00    -0.137 A  
HETATM   26  O   UNL     1      -7.541  17.908  67.246  1.00  0.00    -0.197 OA 
HETATM   27  C   UNL     1      -6.065  16.029  68.677  1.00  0.00    -0.108 C  
HETATM   28  C   UNL     1      -7.840  14.337  68.008  1.00  0.00    -0.143 A  
HETATM   29  H   UNL     1      -6.735  18.107  67.707  1.00  0.00     0.000 HD 
HETATM   30  C   UNL     1      -9.042  14.035  67.332  1.00  0.00    -0.209 A  
HETATM   31  C   UNL     1      -7.146  13.239  68.776  1.00  0.00    -0.100 C  
HETATM   32  O   UNL     1      -9.520  12.745  67.477  1.00  0.00    -0.178 OA 
ENDBRANCH  16  17
ENDBRANCH  15  16
ENDBRANCH  13  15
ENDBRANCH  10  11
ENDBRANCH   9  10
ENDBRANCH   5   6
ENDBRANCH   4   5
TORSDOF 7
ENDMDL
MODEL      259
REMARK 921   NORMALIZED FREE ENERGY PREDICTED BY IDOCK:   -3.67 KCAL/MOL
REMARK 922        TOTAL FREE ENERGY PREDICTED BY IDOCK:   -6.93 KCAL/MOL
REMARK 923 INTER-LIGAND FREE ENERGY PREDICTED BY IDOCK:   -5.74 KCAL/MOL
REMARK 924 INTRA-LIGAND FREE ENERGY PREDICTED BY IDOCK:   -1.19 KCAL/MOL
REMARK 927      BINDING AFFINITY PREDICTED BY RF-SCORE:    0.00 PKD
ROOT
HETATM    1  C   UNL     1     -11.200  10.901  65.348  1.00  0.00     0.212 C  
HETATM    2  C   UNL     1     -10.021  10.227  64.649  1.00  0.00    -0.377 C  
HETATM    3  C   UNL     1      -9.042  11.291  64.144  1.00  0.00     0.022 C  
HETATM    4  C   UNL     1      -9.361   9.211  65.603  1.00  0.00    -0.300 C  
ENDROOT
BRANCH   4   5
HETATM    5  C   UNL     1      -8.180   8.499  64.951  1.00  0.00    -0.166 C  
BRANCH   5   6
HETATM    6  C   UNL     1      -8.376   6.988  64.857  1.00  0.00    -0.016 C  
HETATM    7  C   UNL     1      -8.799   6.380  66.210  1.00  0.00    -0.152 C  
HETATM    8  C   UNL     1     -10.117   6.979  66.722  1.00  0.00    -0.270 C  
HETATM    9  C   UNL     1      -8.885   4.848  66.078  1.00  0.00    -0.126 C  
BRANCH   9  10
HETATM   10  C   UNL     1      -9.300   4.190  67.392  1.00  0.00    -0.204 C  
BRANCH  10  11
HETATM   11  C   UNL     1      -8.304   4.456  68.510  1.00  0.00    -0.090 C  
HETATM   12  C   UNL     1      -8.991   4.479  69.891  1.00  0.00    -0.145 C  
HETATM   13  C   UNL     1      -8.000   4.868  70.998  1.00  0.00    -0.091 C  
HETATM   14  C   UNL     1      -9.629   3.131  70.248  1.00  0.00    -0.180 C  
BRANCH  13  15
HETATM   15  C   UNL     1      -7.307   6.217  70.803  1.00  0.00    -0.082 C  
BRANCH  15  16
HETATM   16  C   UNL     1      -7.864   7.064  69.644  1.00  0.00    -0.119 C  
BRANCH  16  17
HETATM   17  C   UNL     1      -8.797   8.217  70.107  1.00  0.00    -0.141 C  
HETATM   18  C   UNL     1      -8.252   8.800  71.430  1.00  0.00    -0.203 C  
HETATM   19  C   UNL     1     -10.230   7.691  70.186  1.00  0.00    -0.204 C  
HETATM   20  C   UNL     1     -11.173   8.782  70.632  1.00  0.00    -0.294 C  
HETATM   21  C   UNL     1     -10.878  10.097  69.963  1.00  0.00    -0.361 A  
HETATM   22  C   UNL     1     -11.754  11.186  70.133  1.00  0.00    -0.439 A  
HETATM   23  C   UNL     1     -12.974  11.078  71.012  1.00  0.00    -0.369 C  
HETATM   24  C   UNL     1     -11.459  12.391  69.473  1.00  0.00    -0.240 A  
HETATM   25  C   UNL     1     -10.308  12.549  68.674  1.00  0.00    -0.193 A  
HETATM   26  O   UNL     1     -12.285  13.479  69.591  1.00  0.00    -0.304 OA 
HETATM   27  C   UNL     1     -10.038  13.864  67.990  1.00  0.00    -0.244 C  
HETATM   28  C   UNL     1      -9.413  11.463  68.538  1.00  0.00    -0.183 A  
HETATM   29  H   UNL     1     -12.086  14.294  69.145  1.00  0.00     0.000 HD 
HETATM   30  C   UNL     1      -9.698  10.251  69.204  1.00  0.00    -0.217 A  
HETATM   31  C   UNL     1      -8.147  11.560  67.723  1.00  0.00    -0.133 C  
HETATM   32  O   UNL     1      -8.748   9.252  69.094  1.00  0.00    -0.132 OA 
ENDBRANCH  16  17
ENDBRANCH  15  16
ENDBRANCH  13  15
ENDBRANCH  10  11
ENDBRANCH   9  10
ENDBRANCH   5   6
ENDBRANCH   4   5
TORSDOF 7
ENDMDL
MODEL      260
REMARK 921   NORMALIZED FREE ENERGY PREDICTED BY IDOCK:   -3.67 KCAL/MOL
REMARK 922        TOTAL FREE ENERGY PREDICTED BY IDOCK:   -6.92 KCAL/MOL
REMARK 923 INTER-LIGAND FREE ENERGY PREDICTED BY IDOCK:   -6.96 KCAL/MOL
REMARK 924 INTRA-LIGAND FREE ENERGY PREDICTED BY IDOCK:    0.04 KCAL/MOL
REMARK 927      BINDING AFFINITY PREDICTED BY RF-SCORE:    0.00 PKD
ROOT
HETATM    1  C   UNL     1      -7.614  16.527  68.852  1.00  0.00    -0.238 C  
HETATM    2  C   UNL     1      -9.094  16.528  68.475  1.00  0.00    -0.231 C  
HETATM    3  C   UNL     1      -9.243  16.693  66.960  1.00  0.00    -0.234 C  
HETATM    4  C   UNL     1      -9.768  15.248  69.007  1.00  0.00    -0.234 C  
ENDROOT
BRANCH   4   5
HETATM    5  C   UNL     1     -11.255  15.201  68.667  1.00  0.00    -0.295 C  
BRANCH   5   6
HETATM    6  C   UNL     1     -11.624  14.016  67.780  1.00  0.00    -0.378 C  
HETATM    7  C   UNL     1     -11.184  12.675  68.404  1.00  0.00    -0.316 C  
HETATM    8  C   UNL     1     -11.833  12.437  69.775  1.00  0.00    -0.387 C  
HETATM    9  C   UNL     1     -11.494  11.528  67.423  1.00  0.00    -0.349 C  
BRANCH   9  10
HETATM   10  C   UNL     1     -11.076  10.172  67.988  1.00  0.00    -0.302 C  
BRANCH  10  11
HETATM   11  C   UNL     1     -11.224  10.107  69.500  1.00  0.00    -0.288 C  
HETATM   12  C   UNL     1     -10.054   9.344  70.154  1.00  0.00    -0.273 C  
HETATM   13  C   UNL     1     -10.275   9.178  71.665  1.00  0.00    -0.372 C  
HETATM   14  C   UNL     1      -8.705  10.037  69.924  1.00  0.00    -0.169 C  
BRANCH  13  15
HETATM   15  C   UNL     1     -11.569   8.464  72.056  1.00  0.00    -0.418 C  
BRANCH  15  16
HETATM   16  C   UNL     1     -11.403   7.378  73.135  1.00  0.00    -0.209 C  
BRANCH  16  17
HETATM   17  C   UNL     1     -10.627   6.123  72.643  1.00  0.00    -0.218 C  
HETATM   18  C   UNL     1     -11.412   4.858  73.053  1.00  0.00    -0.327 C  
HETATM   19  C   UNL     1      -9.197   6.187  73.180  1.00  0.00    -0.132 C  
HETATM   20  C   UNL     1      -8.405   4.986  72.723  1.00  0.00    -0.112 C  
HETATM   21  C   UNL     1      -8.666   4.647  71.280  1.00  0.00    -0.139 A  
HETATM   22  C   UNL     1      -7.896   3.659  70.638  1.00  0.00    -0.053 A  
HETATM   23  C   UNL     1      -6.829   2.895  71.380  1.00  0.00    -0.031 C  
HETATM   24  C   UNL     1      -8.151   3.387  69.283  1.00  0.00    -0.052 A  
HETATM   25  C   UNL     1      -9.165   4.049  68.562  1.00  0.00    -0.206 A  
HETATM   26  O   UNL     1      -7.421   2.446  68.604  1.00  0.00    -0.047 OA 
HETATM   27  C   UNL     1      -9.399   3.718  67.111  1.00  0.00    -0.223 C  
HETATM   28  C   UNL     1      -9.961   5.014  69.223  1.00  0.00    -0.277 A  
HETATM   29  H   UNL     1      -7.594   2.262  67.688  1.00  0.00     0.000 HD 
HETATM   30  C   UNL     1      -9.715   5.287  70.586  1.00  0.00    -0.186 A  
HETATM   31  C   UNL     1     -11.082   5.746  68.528  1.00  0.00    -0.038 C  
HETATM   32  O   UNL     1     -10.574   6.183  71.197  1.00  0.00    -0.227 OA 
ENDBRANCH  16  17
ENDBRANCH  15  16
ENDBRANCH  13  15
ENDBRANCH  10  11
ENDBRANCH   9  10
ENDBRANCH   5   6
ENDBRANCH   4   5
TORSDOF 7
ENDMDL
MODEL      261
REMARK 921   NORMALIZED FREE ENERGY PREDICTED BY IDOCK:   -3.65 KCAL/MOL
REMARK 922        TOTAL FREE ENERGY PREDICTED BY IDOCK:   -6.90 KCAL/MOL
REMARK 923 INTER-LIGAND FREE ENERGY PREDICTED BY IDOCK:   -4.14 KCAL/MOL
REMARK 924 INTRA-LIGAND FREE ENERGY PREDICTED BY IDOCK:   -2.76 KCAL/MOL
REMARK 927      BINDING AFFINITY PREDICTED BY RF-SCORE:    0.00 PKD
ROOT
HETATM    1  C   UNL     1      -6.001   7.789  63.441  1.00  0.00    -0.058 C  
HETATM    2  C   UNL     1      -6.619   7.165  64.691  1.00  0.00    -0.040 C  
HETATM    3  C   UNL     1      -7.866   7.955  65.101  1.00  0.00    -0.114 C  
HETATM    4  C   UNL     1      -6.912   5.673  64.438  1.00  0.00    -0.051 C  
ENDROOT
BRANCH   4   5
HETATM    5  C   UNL     1      -7.523   4.995  65.661  1.00  0.00    -0.081 C  
BRANCH   5   6
HETATM    6  C   UNL     1      -6.631   5.085  66.897  1.00  0.00    -0.050 C  
HETATM    7  C   UNL     1      -6.823   3.872  67.831  1.00  0.00    -0.047 C  
HETATM    8  C   UNL     1      -6.494   2.547  67.128  1.00  0.00    -0.035 C  
HETATM    9  C   UNL     1      -5.975   4.066  69.102  1.00  0.00    -0.023 C  
BRANCH   9  10
HETATM   10  C   UNL     1      -6.127   2.893  70.067  1.00  0.00    -0.024 C  
BRANCH  10  11
HETATM   11  C   UNL     1      -6.210   3.344  71.517  1.00  0.00    -0.015 C  
HETATM   12  C   UNL     1      -7.643   3.213  72.073  1.00  0.00    -0.053 C  
HETATM   13  C   UNL     1      -7.740   3.785  73.496  1.00  0.00    -0.075 C  
HETATM   14  C   UNL     1      -8.133   1.760  72.088  1.00  0.00    -0.045 C  
BRANCH  13  15
HETATM   15  C   UNL     1      -7.321   5.248  73.636  1.00  0.00    -0.091 C  
BRANCH  15  16
HETATM   16  C   UNL     1      -8.488   6.253  73.648  1.00  0.00    -0.123 C  
BRANCH  16  17
HETATM   17  C   UNL     1      -8.656   7.028  72.311  1.00  0.00    -0.121 C  
HETATM   18  C   UNL     1      -7.257   7.354  71.743  1.00  0.00    -0.071 C  
HETATM   19  C   UNL     1      -9.543   8.248  72.557  1.00  0.00    -0.365 C  
HETATM   20  C   UNL     1      -9.735   9.031  71.280  1.00  0.00    -0.371 C  
HETATM   21  C   UNL     1      -9.977   8.137  70.095  1.00  0.00    -0.187 A  
HETATM   22  C   UNL     1     -10.338   8.694  68.854  1.00  0.00    -0.228 A  
HETATM   23  C   UNL     1     -10.450  10.186  68.670  1.00  0.00    -0.225 C  
HETATM   24  C   UNL     1     -10.580   7.826  67.776  1.00  0.00    -0.185 A  
HETATM   25  C   UNL     1     -10.448   6.427  67.892  1.00  0.00    -0.276 A  
HETATM   26  O   UNL     1     -10.948   8.313  66.548  1.00  0.00    -0.048 OA 
HETATM   27  C   UNL     1     -10.717   5.541  66.703  1.00  0.00    -0.332 C  
HETATM   28  C   UNL     1     -10.048   5.876  69.132  1.00  0.00    -0.244 A  
HETATM   29  H   UNL     1     -11.112   7.726  65.819  1.00  0.00     0.000 HD 
HETATM   30  C   UNL     1      -9.796   6.742  70.218  1.00  0.00    -0.174 A  
HETATM   31  C   UNL     1      -9.859   4.392  69.330  1.00  0.00    -0.239 C  
HETATM   32  O   UNL     1      -9.336   6.151  71.381  1.00  0.00    -0.152 OA 
ENDBRANCH  16  17
ENDBRANCH  15  16
ENDBRANCH  13  15
ENDBRANCH  10  11
ENDBRANCH   9  10
ENDBRANCH   5   6
ENDBRANCH   4   5
TORSDOF 7
ENDMDL
MODEL      262
REMARK 921   NORMALIZED FREE ENERGY PREDICTED BY IDOCK:   -3.64 KCAL/MOL
REMARK 922        TOTAL FREE ENERGY PREDICTED BY IDOCK:   -6.88 KCAL/MOL
REMARK 923 INTER-LIGAND FREE ENERGY PREDICTED BY IDOCK:   -6.78 KCAL/MOL
REMARK 924 INTRA-LIGAND FREE ENERGY PREDICTED BY IDOCK:   -0.10 KCAL/MOL
REMARK 927      BINDING AFFINITY PREDICTED BY RF-SCORE:    0.00 PKD
ROOT
HETATM    1  C   UNL     1      -6.337   1.826  73.473  1.00  0.00    -0.012 C  
HETATM    2  C   UNL     1      -7.624   2.513  73.021  1.00  0.00    -0.046 C  
HETATM    3  C   UNL     1      -8.242   1.737  71.854  1.00  0.00    -0.045 C  
HETATM    4  C   UNL     1      -8.585   2.661  74.217  1.00  0.00    -0.068 C  
ENDROOT
BRANCH   4   5
HETATM    5  C   UNL     1      -9.886   3.352  73.822  1.00  0.00    -0.154 C  
BRANCH   5   6
HETATM    6  C   UNL     1      -9.681   4.462  72.794  1.00  0.00    -0.185 C  
HETATM    7  C   UNL     1     -10.513   5.716  73.132  1.00  0.00    -0.248 C  
HETATM    8  C   UNL     1     -10.147   6.296  74.507  1.00  0.00    -0.353 C  
HETATM    9  C   UNL     1     -10.342   6.760  72.013  1.00  0.00    -0.217 C  
BRANCH   9  10
HETATM   10  C   UNL     1     -11.147   8.027  72.294  1.00  0.00    -0.393 C  
BRANCH  10  11
HETATM   11  C   UNL     1     -10.876   9.122  71.275  1.00  0.00    -0.402 C  
HETATM   12  C   UNL     1     -12.185   9.730  70.729  1.00  0.00    -0.342 C  
HETATM   13  C   UNL     1     -11.901  10.747  69.613  1.00  0.00    -0.392 C  
HETATM   14  C   UNL     1     -13.012  10.412  71.824  1.00  0.00    -0.580 C  
BRANCH  13  15
HETATM   15  C   UNL     1     -11.113  10.201  68.423  1.00  0.00    -0.273 C  
BRANCH  15  16
HETATM   16  C   UNL     1     -11.397  10.908  67.085  1.00  0.00    -0.168 C  
BRANCH  16  17
HETATM   17  C   UNL     1     -11.053  12.424  67.095  1.00  0.00    -0.280 C  
HETATM   18  C   UNL     1     -11.990  13.156  66.109  1.00  0.00    -0.478 C  
HETATM   19  C   UNL     1      -9.562  12.593  66.802  1.00  0.00    -0.241 C  
HETATM   20  C   UNL     1      -9.183  14.054  66.805  1.00  0.00    -0.280 C  
HETATM   21  C   UNL     1      -9.830  14.808  67.935  1.00  0.00    -0.212 A  
HETATM   22  C   UNL     1      -9.465  16.143  68.191  1.00  0.00    -0.209 A  
HETATM   23  C   UNL     1      -8.458  16.858  67.326  1.00  0.00    -0.213 C  
HETATM   24  C   UNL     1     -10.072  16.807  69.271  1.00  0.00    -0.240 A  
HETATM   25  C   UNL     1     -11.047  16.191  70.081  1.00  0.00    -0.373 A  
HETATM   26  O   UNL     1      -9.743  18.103  69.575  1.00  0.00     0.080 OA 
HETATM   27  C   UNL     1     -11.669  16.949  71.224  1.00  0.00     0.816 C  
HETATM   28  C   UNL     1     -11.437  14.862  69.794  1.00  0.00    -0.328 A  
HETATM   29  H   UNL     1     -10.154  18.552  70.304  1.00  0.00     0.000 HD 
HETATM   30  C   UNL     1     -10.837  14.190  68.707  1.00  0.00    -0.258 A  
HETATM   31  C   UNL     1     -12.492  14.141  70.597  1.00  0.00    -0.432 C  
HETATM   32  O   UNL     1     -11.314  12.921  68.431  1.00  0.00    -0.253 OA 
ENDBRANCH  16  17
ENDBRANCH  15  16
ENDBRANCH  13  15
ENDBRANCH  10  11
ENDBRANCH   9  10
ENDBRANCH   5   6
ENDBRANCH   4   5
TORSDOF 7
ENDMDL
MODEL      263
REMARK 921   NORMALIZED FREE ENERGY PREDICTED BY IDOCK:   -3.61 KCAL/MOL
REMARK 922        TOTAL FREE ENERGY PREDICTED BY IDOCK:   -6.84 KCAL/MOL
REMARK 923 INTER-LIGAND FREE ENERGY PREDICTED BY IDOCK:   -5.99 KCAL/MOL
REMARK 924 INTRA-LIGAND FREE ENERGY PREDICTED BY IDOCK:   -0.85 KCAL/MOL
REMARK 927      BINDING AFFINITY PREDICTED BY RF-SCORE:    0.00 PKD
ROOT
HETATM    1  C   UNL     1      -5.693  20.841  68.308  1.00  0.00    -0.361 C  
HETATM    2  C   UNL     1      -6.804  19.838  68.003  1.00  0.00    -0.297 C  
HETATM    3  C   UNL     1      -7.496  19.422  69.304  1.00  0.00    -0.278 C  
HETATM    4  C   UNL     1      -7.780  20.440  66.972  1.00  0.00    -0.362 C  
ENDROOT
BRANCH   4   5
HETATM    5  C   UNL     1      -8.907  19.473  66.622  1.00  0.00    -0.388 C  
BRANCH   5   6
HETATM    6  C   UNL     1      -8.417  18.046  66.396  1.00  0.00    -0.262 C  
HETATM    7  C   UNL     1      -9.569  17.023  66.494  1.00  0.00    -0.295 C  
HETATM    8  C   UNL     1     -10.669  17.296  65.457  1.00  0.00    -0.105 C  
HETATM    9  C   UNL     1      -9.000  15.598  66.356  1.00  0.00    -0.362 C  
BRANCH   9  10
HETATM   10  C   UNL     1     -10.098  14.540  66.446  1.00  0.00    -0.293 C  
BRANCH  10  11
HETATM   11  C   UNL     1      -9.926  13.439  65.412  1.00  0.00    -0.211 C  
HETATM   12  C   UNL     1     -11.257  13.108  64.706  1.00  0.00    -0.347 C  
HETATM   13  C   UNL     1     -11.098  11.914  63.753  1.00  0.00    -0.510 C  
HETATM   14  C   UNL     1     -11.812  14.301  63.917  1.00  0.00    -0.153 C  
BRANCH  13  15
HETATM   15  C   UNL     1     -10.587  10.629  64.404  1.00  0.00    -0.118 C  
BRANCH  15  16
HETATM   16  C   UNL     1      -9.063  10.577  64.616  1.00  0.00    -0.248 C  
BRANCH  16  17
HETATM   17  C   UNL     1      -8.642   9.902  65.952  1.00  0.00    -0.137 C  
HETATM   18  C   UNL     1      -9.854   9.888  66.908  1.00  0.00    -0.252 C  
HETATM   19  C   UNL     1      -7.407  10.618  66.498  1.00  0.00    -0.134 C  
HETATM   20  C   UNL     1      -6.962   9.990  67.797  1.00  0.00    -0.085 C  
HETATM   21  C   UNL     1      -7.016   8.488  67.751  1.00  0.00    -0.075 A  
HETATM   22  C   UNL     1      -6.484   7.732  68.813  1.00  0.00    -0.044 A  
HETATM   23  C   UNL     1      -5.891   8.399  70.028  1.00  0.00    -0.024 C  
HETATM   24  C   UNL     1      -6.531   6.330  68.725  1.00  0.00    -0.046 A  
HETATM   25  C   UNL     1      -7.112   5.664  67.626  1.00  0.00    -0.071 A  
HETATM   26  O   UNL     1      -6.014   5.544  69.723  1.00  0.00    -0.016 OA 
HETATM   27  C   UNL     1      -7.138   4.158  67.582  1.00  0.00    -0.063 C  
HETATM   28  C   UNL     1      -7.678   6.431  66.581  1.00  0.00    -0.099 A  
HETATM   29  H   UNL     1      -6.046   4.596  69.663  1.00  0.00     0.000 HD 
HETATM   30  C   UNL     1      -7.642   7.839  66.666  1.00  0.00    -0.097 A  
HETATM   31  C   UNL     1      -8.342   5.794  65.384  1.00  0.00    -0.142 C  
HETATM   32  O   UNL     1      -8.278   8.532  65.651  1.00  0.00    -0.114 OA 
ENDBRANCH  16  17
ENDBRANCH  15  16
ENDBRANCH  13  15
ENDBRANCH  10  11
ENDBRANCH   9  10
ENDBRANCH   5   6
ENDBRANCH   4   5
TORSDOF 7
ENDMDL
MODEL      264
REMARK 921   NORMALIZED FREE ENERGY PREDICTED BY IDOCK:   -3.60 KCAL/MOL
REMARK 922        TOTAL FREE ENERGY PREDICTED BY IDOCK:   -6.84 KCAL/MOL
REMARK 923 INTER-LIGAND FREE ENERGY PREDICTED BY IDOCK:   -6.17 KCAL/MOL
REMARK 924 INTRA-LIGAND FREE ENERGY PREDICTED BY IDOCK:   -0.66 KCAL/MOL
REMARK 927      BINDING AFFINITY PREDICTED BY RF-SCORE:    0.00 PKD
ROOT
HETATM    1  C   UNL     1     -13.245  13.723  72.574  1.00  0.00    -0.599 C  
HETATM    2  C   UNL     1     -12.396  13.998  71.334  1.00  0.00    -0.410 C  
HETATM    3  C   UNL     1     -12.719  12.968  70.248  1.00  0.00     0.022 C  
HETATM    4  C   UNL     1     -12.614  15.451  70.865  1.00  0.00    -0.496 C  
ENDROOT
BRANCH   4   5
HETATM    5  C   UNL     1     -11.780  15.784  69.632  1.00  0.00    -0.363 C  
BRANCH   5   6
HETATM    6  C   UNL     1     -10.632  14.803  69.409  1.00  0.00    -0.229 C  
HETATM    7  C   UNL     1     -10.614  14.262  67.964  1.00  0.00    -0.238 C  
HETATM    8  C   UNL     1     -10.458  15.387  66.931  1.00  0.00    -0.295 C  
HETATM    9  C   UNL     1      -9.499  13.207  67.827  1.00  0.00    -0.209 C  
BRANCH   9  10
HETATM   10  C   UNL     1      -9.435  12.634  66.413  1.00  0.00    -0.231 C  
BRANCH  10  11
HETATM   11  C   UNL     1      -8.281  11.659  66.237  1.00  0.00     0.012 C  
HETATM   12  C   UNL     1      -8.710  10.209  66.541  1.00  0.00    -0.139 C  
HETATM   13  C   UNL     1      -7.511   9.251  66.480  1.00  0.00    -0.093 C  
HETATM   14  C   UNL     1      -9.795   9.707  65.581  1.00  0.00    -0.369 C  
BRANCH  13  15
HETATM   15  C   UNL     1      -6.355   9.598  67.417  1.00  0.00    -0.068 C  
BRANCH  15  16
HETATM   16  C   UNL     1      -6.784  10.096  68.810  1.00  0.00    -0.053 C  
BRANCH  16  17
HETATM   17  C   UNL     1      -7.255   8.960  69.761  1.00  0.00    -0.055 C  
HETATM   18  C   UNL     1      -6.810   9.297  71.201  1.00  0.00    -0.069 C  
HETATM   19  C   UNL     1      -6.734   7.625  69.229  1.00  0.00    -0.044 C  
HETATM   20  C   UNL     1      -7.171   6.490  70.123  1.00  0.00    -0.080 C  
HETATM   21  C   UNL     1      -8.603   6.631  70.562  1.00  0.00    -0.143 A  
HETATM   22  C   UNL     1      -9.229   5.585  71.266  1.00  0.00    -0.169 A  
HETATM   23  C   UNL     1      -8.480   4.328  71.630  1.00  0.00    -0.108 C  
HETATM   24  C   UNL     1     -10.576   5.742  71.639  1.00  0.00    -0.245 A  
HETATM   25  C   UNL     1     -11.302   6.916  71.354  1.00  0.00    -0.308 A  
HETATM   26  O   UNL     1     -11.240   4.750  72.312  1.00  0.00    -0.018 OA 
HETATM   27  C   UNL     1     -12.744   7.034  71.778  1.00  0.00    -0.378 C  
HETATM   28  C   UNL     1     -10.655   7.978  70.680  1.00  0.00    -0.227 A  
HETATM   29  H   UNL     1     -12.150   4.856  72.564  1.00  0.00     0.000 HD 
HETATM   30  C   UNL     1      -9.301   7.831  70.309  1.00  0.00    -0.156 A  
HETATM   31  C   UNL     1     -11.356   9.276  70.363  1.00  0.00    -0.283 C  
HETATM   32  O   UNL     1      -8.703   8.931  69.722  1.00  0.00    -0.129 OA 
ENDBRANCH  16  17
ENDBRANCH  15  16
ENDBRANCH  13  15
ENDBRANCH  10  11
ENDBRANCH   9  10
ENDBRANCH   5   6
ENDBRANCH   4   5
TORSDOF 7
ENDMDL
MODEL      265
REMARK 921   NORMALIZED FREE ENERGY PREDICTED BY IDOCK:   -3.60 KCAL/MOL
REMARK 922        TOTAL FREE ENERGY PREDICTED BY IDOCK:   -6.83 KCAL/MOL
REMARK 923 INTER-LIGAND FREE ENERGY PREDICTED BY IDOCK:   -5.62 KCAL/MOL
REMARK 924 INTRA-LIGAND FREE ENERGY PREDICTED BY IDOCK:   -1.20 KCAL/MOL
REMARK 927      BINDING AFFINITY PREDICTED BY RF-SCORE:    0.00 PKD
ROOT
HETATM    1  C   UNL     1     -13.358  15.984  73.551  1.00  0.00    -0.493 C  
HETATM    2  C   UNL     1     -12.925  15.295  72.258  1.00  0.00    -0.459 C  
HETATM    3  C   UNL     1     -14.038  15.410  71.213  1.00  0.00    -0.463 C  
HETATM    4  C   UNL     1     -11.586  15.888  71.774  1.00  0.00    -0.541 C  
ENDROOT
BRANCH   4   5
HETATM    5  C   UNL     1     -11.100  15.227  70.488  1.00  0.00    -0.335 C  
BRANCH   5   6
HETATM    6  C   UNL     1     -11.597  13.792  70.334  1.00  0.00    -0.143 C  
HETATM    7  C   UNL     1     -11.245  13.209  68.949  1.00  0.00    -0.324 C  
HETATM    8  C   UNL     1      -9.729  13.195  68.701  1.00  0.00    -0.062 C  
HETATM    9  C   UNL     1     -11.854  11.801  68.816  1.00  0.00    -0.380 C  
BRANCH   9  10
HETATM   10  C   UNL     1     -11.537  11.174  67.460  1.00  0.00    -0.220 C  
BRANCH  10  11
HETATM   11  C   UNL     1     -12.133  11.963  66.306  1.00  0.00     0.275 C  
HETATM   12  C   UNL     1     -11.047  12.429  65.314  1.00  0.00    -0.342 C  
HETATM   13  C   UNL     1     -11.643  13.328  64.219  1.00  0.00    -0.444 C  
HETATM   14  C   UNL     1     -10.321  11.253  64.649  1.00  0.00    -0.373 C  
BRANCH  13  15
HETATM   15  C   UNL     1     -12.371  14.572  64.727  1.00  0.00    -0.403 C  
BRANCH  15  16
HETATM   16  C   UNL     1     -11.893  15.081  66.100  1.00  0.00    -0.023 C  
BRANCH  16  17
HETATM   17  C   UNL     1     -10.593  15.931  66.032  1.00  0.00    -0.323 C  
HETATM   18  C   UNL     1     -10.724  16.953  64.882  1.00  0.00     0.045 C  
HETATM   19  C   UNL     1      -9.395  14.989  65.915  1.00  0.00    -0.249 C  
HETATM   20  C   UNL     1      -8.107  15.775  65.848  1.00  0.00     0.956 C  
HETATM   21  C   UNL     1      -8.087  16.919  66.825  1.00  0.00    -0.276 A  
HETATM   22  C   UNL     1      -6.907  17.661  67.016  1.00  0.00    -0.202 A  
HETATM   23  C   UNL     1      -5.657  17.359  66.229  1.00  0.00    -0.217 C  
HETATM   24  C   UNL     1      -6.919  18.707  67.955  1.00  0.00    -0.221 A  
HETATM   25  C   UNL     1      -8.076  19.050  68.684  1.00  0.00    -0.397 A  
HETATM   26  O   UNL     1      -5.793  19.452  68.193  1.00  0.00    -0.207 OA 
HETATM   27  C   UNL     1      -8.035  20.182  69.677  1.00  0.00     0.603 C  
HETATM   28  C   UNL     1      -9.269  18.325  68.459  1.00  0.00    -0.335 A  
HETATM   29  H   UNL     1      -5.801  20.160  68.828  1.00  0.00     0.000 HD 
HETATM   30  C   UNL     1      -9.267  17.277  67.512  1.00  0.00    -0.227 A  
HETATM   31  C   UNL     1     -10.555  18.647  69.179  1.00  0.00     0.472 C  
HETATM   32  O   UNL     1     -10.481  16.657  67.281  1.00  0.00    -0.315 OA 
ENDBRANCH  16  17
ENDBRANCH  15  16
ENDBRANCH  13  15
ENDBRANCH  10  11
ENDBRANCH   9  10
ENDBRANCH   5   6
ENDBRANCH   4   5
TORSDOF 7
ENDMDL
MODEL      266
REMARK 921   NORMALIZED FREE ENERGY PREDICTED BY IDOCK:   -3.59 KCAL/MOL
REMARK 922        TOTAL FREE ENERGY PREDICTED BY IDOCK:   -6.81 KCAL/MOL
REMARK 923 INTER-LIGAND FREE ENERGY PREDICTED BY IDOCK:   -6.42 KCAL/MOL
REMARK 924 INTRA-LIGAND FREE ENERGY PREDICTED BY IDOCK:   -0.39 KCAL/MOL
REMARK 927      BINDING AFFINITY PREDICTED BY RF-SCORE:    0.00 PKD
ROOT
HETATM    1  C   UNL     1      -8.571   7.566  73.683  1.00  0.00    -0.242 C  
HETATM    2  C   UNL     1      -9.191   6.227  73.289  1.00  0.00    -0.135 C  
HETATM    3  C   UNL     1     -10.715   6.364  73.217  1.00  0.00    -0.288 C  
HETATM    4  C   UNL     1      -8.571   5.736  71.965  1.00  0.00    -0.130 C  
ENDROOT
BRANCH   4   5
HETATM    5  C   UNL     1      -9.149   4.393  71.528  1.00  0.00    -0.177 C  
BRANCH   5   6
HETATM    6  C   UNL     1     -10.159   4.523  70.391  1.00  0.00    -0.229 C  
HETATM    7  C   UNL     1      -9.478   4.913  69.062  1.00  0.00    -0.205 C  
HETATM    8  C   UNL     1      -8.432   3.876  68.626  1.00  0.00    -0.104 C  
HETATM    9  C   UNL     1     -10.553   5.125  67.979  1.00  0.00    -0.011 C  
BRANCH   9  10
HETATM   10  C   UNL     1      -9.935   5.516  66.639  1.00  0.00    -0.213 C  
BRANCH  10  11
HETATM   11  C   UNL     1      -9.451   6.957  66.624  1.00  0.00    -0.209 C  
HETATM   12  C   UNL     1      -7.951   7.051  66.278  1.00  0.00    -0.114 C  
HETATM   13  C   UNL     1      -7.446   8.498  66.386  1.00  0.00    -0.087 C  
HETATM   14  C   UNL     1      -7.642   6.521  64.873  1.00  0.00    -0.097 C  
BRANCH  13  15
HETATM   15  C   UNL     1      -7.649   9.156  67.750  1.00  0.00    -0.085 C  
BRANCH  15  16
HETATM   16  C   UNL     1      -8.924  10.010  67.869  1.00  0.00    -0.131 C  
BRANCH  16  17
HETATM   17  C   UNL     1      -8.799  11.411  67.207  1.00  0.00    -0.153 C  
HETATM   18  C   UNL     1      -7.835  11.312  66.005  1.00  0.00     0.046 C  
HETATM   19  C   UNL     1      -8.385  12.425  68.274  1.00  0.00    -0.169 C  
HETATM   20  C   UNL     1      -8.254  13.804  67.673  1.00  0.00    -0.180 C  
HETATM   21  C   UNL     1      -9.371  14.116  66.715  1.00  0.00    -0.295 A  
HETATM   22  C   UNL     1      -9.502  15.413  66.185  1.00  0.00    -0.371 A  
HETATM   23  C   UNL     1      -8.516  16.501  66.526  1.00  0.00    -0.328 C  
HETATM   24  C   UNL     1     -10.573  15.674  65.312  1.00  0.00    -0.426 A  
HETATM   25  C   UNL     1     -11.495  14.677  64.934  1.00  0.00    -0.401 A  
HETATM   26  O   UNL     1     -10.757  16.923  64.777  1.00  0.00    -0.758 OA 
HETATM   27  C   UNL     1     -12.624  15.010  63.993  1.00  0.00     0.251 C  
HETATM   28  C   UNL     1     -11.336  13.366  65.441  1.00  0.00    -0.309 A  
HETATM   29  H   UNL     1     -11.481  17.099  64.187  1.00  0.00     0.000 HD 
HETATM   30  C   UNL     1     -10.259  13.095  66.313  1.00  0.00    -0.293 A  
HETATM   31  C   UNL     1     -12.264  12.238  65.065  1.00  0.00    -0.374 C  
HETATM   32  O   UNL     1     -10.111  11.779  66.715  1.00  0.00    -0.205 OA 
ENDBRANCH  16  17
ENDBRANCH  15  16
ENDBRANCH  13  15
ENDBRANCH  10  11
ENDBRANCH   9  10
ENDBRANCH   5   6
ENDBRANCH   4   5
TORSDOF 7
ENDMDL
MODEL      267
REMARK 921   NORMALIZED FREE ENERGY PREDICTED BY IDOCK:   -3.58 KCAL/MOL
REMARK 922        TOTAL FREE ENERGY PREDICTED BY IDOCK:   -6.80 KCAL/MOL
REMARK 923 INTER-LIGAND FREE ENERGY PREDICTED BY IDOCK:   -6.85 KCAL/MOL
REMARK 924 INTRA-LIGAND FREE ENERGY PREDICTED BY IDOCK:    0.04 KCAL/MOL
REMARK 927      BINDING AFFINITY PREDICTED BY RF-SCORE:    0.00 PKD
ROOT
HETATM    1  C   UNL     1      -6.614   1.601  67.777  1.00  0.00    -0.028 C  
HETATM    2  C   UNL     1      -6.766   1.530  69.294  1.00  0.00    -0.029 C  
HETATM    3  C   UNL     1      -5.611   2.279  69.966  1.00  0.00    -0.017 C  
HETATM    4  C   UNL     1      -8.150   2.070  69.706  1.00  0.00    -0.057 C  
ENDROOT
BRANCH   4   5
HETATM    5  C   UNL     1      -8.359   2.012  71.216  1.00  0.00    -0.068 C  
BRANCH   5   6
HETATM    6  C   UNL     1      -9.496   2.912  71.693  1.00  0.00    -0.212 C  
HETATM    7  C   UNL     1      -8.970   4.132  72.478  1.00  0.00    -0.127 C  
HETATM    8  C   UNL     1      -8.027   4.999  71.630  1.00  0.00    -0.113 C  
HETATM    9  C   UNL     1     -10.161   4.947  73.016  1.00  0.00    -0.200 C  
BRANCH   9  10
HETATM   10  C   UNL     1      -9.698   6.170  73.805  1.00  0.00    -0.183 C  
BRANCH  10  11
HETATM   11  C   UNL     1     -10.444   7.433  73.404  1.00  0.00    -0.419 C  
HETATM   12  C   UNL     1     -11.206   7.247  72.075  1.00  0.00    -0.285 C  
HETATM   13  C   UNL     1     -11.853   8.563  71.618  1.00  0.00    -0.370 C  
HETATM   14  C   UNL     1     -12.290   6.167  72.171  1.00  0.00    -0.125 C  
BRANCH  13  15
HETATM   15  C   UNL     1     -10.887   9.733  71.437  1.00  0.00    -0.180 C  
BRANCH  15  16
HETATM   16  C   UNL     1      -9.999   9.645  70.182  1.00  0.00    -0.309 C  
BRANCH  16  17
HETATM   17  C   UNL     1     -10.539  10.465  68.977  1.00  0.00    -0.221 C  
HETATM   18  C   UNL     1     -11.943  11.005  69.330  1.00  0.00    -0.410 C  
HETATM   19  C   UNL     1     -10.489   9.591  67.724  1.00  0.00    -0.309 C  
HETATM   20  C   UNL     1     -11.004  10.352  66.526  1.00  0.00    -0.016 C  
HETATM   21  C   UNL     1     -10.499  11.768  66.491  1.00  0.00    -0.265 A  
HETATM   22  C   UNL     1     -10.744  12.575  65.364  1.00  0.00    -0.312 A  
HETATM   23  C   UNL     1     -11.544  12.062  64.193  1.00  0.00    -0.460 C  
HETATM   24  C   UNL     1     -10.236  13.886  65.356  1.00  0.00    -0.337 A  
HETATM   25  C   UNL     1      -9.517  14.420  66.445  1.00  0.00    -0.309 A  
HETATM   26  O   UNL     1     -10.432  14.711  64.278  1.00  0.00    -0.462 OA 
HETATM   27  C   UNL     1      -8.995  15.832  66.386  1.00  0.00    -0.366 C  
HETATM   28  C   UNL     1      -9.307  13.616  67.589  1.00  0.00    -0.215 A  
HETATM   29  H   UNL     1     -10.088  15.596  64.273  1.00  0.00     0.000 HD 
HETATM   30  C   UNL     1      -9.821  12.301  67.608  1.00  0.00    -0.196 A  
HETATM   31  C   UNL     1      -8.571  14.123  68.805  1.00  0.00    -0.067 C  
HETATM   32  O   UNL     1      -9.649  11.592  68.782  1.00  0.00    -0.181 OA 
ENDBRANCH  16  17
ENDBRANCH  15  16
ENDBRANCH  13  15
ENDBRANCH  10  11
ENDBRANCH   9  10
ENDBRANCH   5   6
ENDBRANCH   4   5
TORSDOF 7
ENDMDL
MODEL      268
REMARK 921   NORMALIZED FREE ENERGY PREDICTED BY IDOCK:   -3.57 KCAL/MOL
REMARK 922        TOTAL FREE ENERGY PREDICTED BY IDOCK:   -6.78 KCAL/MOL
REMARK 923 INTER-LIGAND FREE ENERGY PREDICTED BY IDOCK:   -5.84 KCAL/MOL
REMARK 924 INTRA-LIGAND FREE ENERGY PREDICTED BY IDOCK:   -0.94 KCAL/MOL
REMARK 927      BINDING AFFINITY PREDICTED BY RF-SCORE:    0.00 PKD
ROOT
HETATM    1  C   UNL     1      -5.440  16.459  67.730  1.00  0.00    -0.147 C  
HETATM    2  C   UNL     1      -6.575  17.474  67.614  1.00  0.00    -0.174 C  
HETATM    3  C   UNL     1      -6.930  17.687  66.139  1.00  0.00    -0.338 C  
HETATM    4  C   UNL     1      -7.778  17.009  68.459  1.00  0.00    -0.238 C  
ENDROOT
BRANCH   4   5
HETATM    5  C   UNL     1      -8.941  17.994  68.387  1.00  0.00    -0.286 C  
BRANCH   5   6
HETATM    6  C   UNL     1     -10.106  17.478  67.547  1.00  0.00    -0.326 C  
HETATM    7  C   UNL     1     -10.476  16.025  67.911  1.00  0.00    -0.292 C  
HETATM    8  C   UNL     1     -10.882  15.889  69.386  1.00  0.00    -0.288 C  
HETATM    9  C   UNL     1     -11.587  15.528  66.968  1.00  0.00     0.066 C  
BRANCH   9  10
HETATM   10  C   UNL     1     -11.994  14.090  67.282  1.00  0.00    -0.448 C  
BRANCH  10  11
HETATM   11  C   UNL     1     -11.048  13.074  66.662  1.00  0.00    -0.318 C  
HETATM   12  C   UNL     1     -11.733  12.272  65.536  1.00  0.00    -0.433 C  
HETATM   13  C   UNL     1     -10.810  11.167  65.000  1.00  0.00    -0.244 C  
HETATM   14  C   UNL     1     -12.169  13.164  64.367  1.00  0.00    -0.462 C  
BRANCH  13  15
HETATM   15  C   UNL     1     -10.320  10.168  66.048  1.00  0.00    -0.234 C  
BRANCH  15  16
HETATM   16  C   UNL     1      -8.788  10.060  66.166  1.00  0.00    -0.165 C  
BRANCH  16  17
HETATM   17  C   UNL     1      -8.316   9.038  67.238  1.00  0.00    -0.111 C  
HETATM   18  C   UNL     1      -9.027   9.351  68.573  1.00  0.00    -0.128 C  
HETATM   19  C   UNL     1      -6.790   9.067  67.308  1.00  0.00    -0.077 C  
HETATM   20  C   UNL     1      -6.287   8.085  68.339  1.00  0.00    -0.050 C  
HETATM   21  C   UNL     1      -7.025   6.775  68.285  1.00  0.00    -0.080 A  
HETATM   22  C   UNL     1      -6.586   5.686  69.061  1.00  0.00    -0.051 A  
HETATM   23  C   UNL     1      -5.402   5.813  69.986  1.00  0.00    -0.008 C  
HETATM   24  C   UNL     1      -7.285   4.471  68.966  1.00  0.00    -0.052 A  
HETATM   25  C   UNL     1      -8.421   4.319  68.144  1.00  0.00    -0.102 A  
HETATM   26  O   UNL     1      -6.892   3.374  69.688  1.00  0.00    -0.036 OA 
HETATM   27  C   UNL     1      -9.136   2.995  68.081  1.00  0.00    -0.219 C  
HETATM   28  C   UNL     1      -8.880   5.428  67.396  1.00  0.00    -0.105 A  
HETATM   29  H   UNL     1      -7.365   2.552  69.624  1.00  0.00     0.000 HD 
HETATM   30  C   UNL     1      -8.186   6.655  67.492  1.00  0.00    -0.122 A  
HETATM   31  C   UNL     1     -10.102   5.355  66.515  1.00  0.00    -0.250 C  
HETATM   32  O   UNL     1      -8.727   7.721  66.797  1.00  0.00    -0.126 OA 
ENDBRANCH  16  17
ENDBRANCH  15  16
ENDBRANCH  13  15
ENDBRANCH  10  11
ENDBRANCH   9  10
ENDBRANCH   5   6
ENDBRANCH   4   5
TORSDOF 7
ENDMDL
MODEL      269
REMARK 921   NORMALIZED FREE ENERGY PREDICTED BY IDOCK:   -3.56 KCAL/MOL
REMARK 922        TOTAL FREE ENERGY PREDICTED BY IDOCK:   -6.78 KCAL/MOL
REMARK 923 INTER-LIGAND FREE ENERGY PREDICTED BY IDOCK:   -5.40 KCAL/MOL
REMARK 924 INTRA-LIGAND FREE ENERGY PREDICTED BY IDOCK:   -1.38 KCAL/MOL
REMARK 927      BINDING AFFINITY PREDICTED BY RF-SCORE:    0.00 PKD
ROOT
HETATM    1  C   UNL     1     -11.556  15.524  68.097  1.00  0.00    -0.313 C  
HETATM    2  C   UNL     1     -11.169  14.299  68.922  1.00  0.00    -0.289 C  
HETATM    3  C   UNL     1     -11.946  14.298  70.242  1.00  0.00    -0.398 C  
HETATM    4  C   UNL     1     -11.394  13.019  68.093  1.00  0.00    -0.329 C  
ENDROOT
BRANCH   4   5
HETATM    5  C   UNL     1     -11.012  11.761  68.869  1.00  0.00    -0.288 C  
BRANCH   5   6
HETATM    6  C   UNL     1      -9.711  11.133  68.377  1.00  0.00    -0.191 C  
HETATM    7  C   UNL     1      -9.958  10.129  67.231  1.00  0.00    -0.241 C  
HETATM    8  C   UNL     1     -10.629  10.794  66.019  1.00  0.00    -0.224 C  
HETATM    9  C   UNL     1      -8.627   9.457  66.844  1.00  0.00    -0.132 C  
BRANCH   9  10
HETATM   10  C   UNL     1      -8.811   8.450  65.711  1.00  0.00    -0.204 C  
BRANCH  10  11
HETATM   11  C   UNL     1      -8.678   7.013  66.189  1.00  0.00    -0.155 C  
HETATM   12  C   UNL     1      -8.931   6.007  65.047  1.00  0.00     0.193 C  
HETATM   13  C   UNL     1      -8.914   4.561  65.566  1.00  0.00    -0.138 C  
HETATM   14  C   UNL     1      -7.904   6.138  63.915  1.00  0.00    -0.113 C  
BRANCH  13  15
HETATM   15  C   UNL     1      -9.919   4.261  66.679  1.00  0.00    -0.202 C  
BRANCH  15  16
HETATM   16  C   UNL     1      -9.321   3.561  67.913  1.00  0.00    -0.238 C  
BRANCH  16  17
HETATM   17  C   UNL     1      -9.409   4.408  69.214  1.00  0.00    -0.156 C  
HETATM   18  C   UNL     1      -9.288   3.467  70.432  1.00  0.00    -0.239 C  
HETATM   19  C   UNL     1     -10.693   5.237  69.174  1.00  0.00    -0.054 C  
HETATM   20  C   UNL     1     -10.818   6.080  70.421  1.00  0.00    -0.386 C  
HETATM   21  C   UNL     1      -9.512   6.712  70.814  1.00  0.00    -0.173 A  
HETATM   22  C   UNL     1      -9.473   7.659  71.855  1.00  0.00    -0.183 A  
HETATM   23  C   UNL     1     -10.717   8.030  72.622  1.00  0.00    -0.426 C  
HETATM   24  C   UNL     1      -8.238   8.247  72.179  1.00  0.00    -0.157 A  
HETATM   25  C   UNL     1      -7.043   7.901  71.516  1.00  0.00    -0.065 A  
HETATM   26  O   UNL     1      -8.145   9.186  73.174  1.00  0.00     0.052 OA 
HETATM   27  C   UNL     1      -5.745   8.560  71.904  1.00  0.00    -0.047 C  
HETATM   28  C   UNL     1      -7.083   6.921  70.497  1.00  0.00    -0.067 A  
HETATM   29  H   UNL     1      -7.310   9.584  73.393  1.00  0.00     0.000 HD 
HETATM   30  C   UNL     1      -8.318   6.320  70.171  1.00  0.00    -0.129 A  
HETATM   31  C   UNL     1      -5.845   6.476  69.759  1.00  0.00    -0.015 C  
HETATM   32  O   UNL     1      -8.281   5.316  69.220  1.00  0.00    -0.090 OA 
ENDBRANCH  16  17
ENDBRANCH  15  16
ENDBRANCH  13  15
ENDBRANCH  10  11
ENDBRANCH   9  10
ENDBRANCH   5   6
ENDBRANCH   4   5
TORSDOF 7
ENDMDL
MODEL      270
REMARK 921   NORMALIZED FREE ENERGY PREDICTED BY IDOCK:   -3.56 KCAL/MOL
REMARK 922        TOTAL FREE ENERGY PREDICTED BY IDOCK:   -6.77 KCAL/MOL
REMARK 923 INTER-LIGAND FREE ENERGY PREDICTED BY IDOCK:   -5.66 KCAL/MOL
REMARK 924 INTRA-LIGAND FREE ENERGY PREDICTED BY IDOCK:   -1.11 KCAL/MOL
REMARK 927      BINDING AFFINITY PREDICTED BY RF-SCORE:    0.00 PKD
ROOT
HETATM    1  C   UNL     1      -5.131   3.989  73.519  1.00  0.00     0.000 C  
HETATM    2  C   UNL     1      -6.283   3.418  72.695  1.00  0.00    -0.009 C  
HETATM    3  C   UNL     1      -5.911   2.024  72.181  1.00  0.00    -0.009 C  
HETATM    4  C   UNL     1      -7.576   3.422  73.534  1.00  0.00    -0.061 C  
ENDROOT
BRANCH   4   5
HETATM    5  C   UNL     1      -8.765   2.870  72.753  1.00  0.00    -0.090 C  
BRANCH   5   6
HETATM    6  C   UNL     1      -8.872   3.450  71.345  1.00  0.00    -0.135 C  
HETATM    7  C   UNL     1     -10.020   4.476  71.235  1.00  0.00    -0.258 C  
HETATM    8  C   UNL     1      -9.832   5.655  72.200  1.00  0.00    -0.188 C  
HETATM    9  C   UNL     1     -10.141   4.952  69.774  1.00  0.00    -0.319 C  
BRANCH   9  10
HETATM   10  C   UNL     1     -11.266   5.971  69.604  1.00  0.00    -0.428 C  
BRANCH  10  11
HETATM   11  C   UNL     1     -10.824   7.192  68.814  1.00  0.00    -0.157 C  
HETATM   12  C   UNL     1     -10.138   6.798  67.490  1.00  0.00    -0.215 C  
HETATM   13  C   UNL     1      -9.588   8.032  66.760  1.00  0.00    -0.281 C  
HETATM   14  C   UNL     1     -11.082   6.043  66.546  1.00  0.00    -0.000 C  
BRANCH  13  15
HETATM   15  C   UNL     1      -8.595   8.871  67.564  1.00  0.00    -0.120 C  
BRANCH  15  16
HETATM   16  C   UNL     1      -7.892   9.981  66.759  1.00  0.00    -0.110 C  
BRANCH  16  17
HETATM   17  C   UNL     1      -8.552  11.379  66.918  1.00  0.00    -0.154 C  
HETATM   18  C   UNL     1      -9.388  11.683  65.655  1.00  0.00    -0.195 C  
HETATM   19  C   UNL     1      -7.463  12.406  67.224  1.00  0.00    -0.135 C  
HETATM   20  C   UNL     1      -8.062  13.782  67.388  1.00  0.00    -0.188 C  
HETATM   21  C   UNL     1      -9.334  13.757  68.190  1.00  0.00    -0.211 A  
HETATM   22  C   UNL     1      -9.944  14.964  68.582  1.00  0.00    -0.224 A  
HETATM   23  C   UNL     1      -9.368  16.298  68.179  1.00  0.00    -0.210 C  
HETATM   24  C   UNL     1     -11.118  14.901  69.351  1.00  0.00    -0.280 A  
HETATM   25  C   UNL     1     -11.713  13.676  69.716  1.00  0.00    -0.364 A  
HETATM   26  O   UNL     1     -11.746  16.045  69.773  1.00  0.00    -0.319 OA 
HETATM   27  C   UNL     1     -12.975  13.665  70.541  1.00  0.00    -0.065 C  
HETATM   28  C   UNL     1     -11.116  12.468  69.288  1.00  0.00    -0.203 A  
HETATM   29  H   UNL     1     -12.540  16.002  70.293  1.00  0.00     0.000 HD 
HETATM   30  C   UNL     1      -9.940  12.523  68.508  1.00  0.00    -0.165 A  
HETATM   31  C   UNL     1     -11.706  11.118  69.615  1.00  0.00    -0.410 C  
HETATM   32  O   UNL     1      -9.447  11.313  68.056  1.00  0.00    -0.162 OA 
ENDBRANCH  16  17
ENDBRANCH  15  16
ENDBRANCH  13  15
ENDBRANCH  10  11
ENDBRANCH   9  10
ENDBRANCH   5   6
ENDBRANCH   4   5
TORSDOF 7
ENDMDL
MODEL      271
REMARK 921   NORMALIZED FREE ENERGY PREDICTED BY IDOCK:   -3.56 KCAL/MOL
REMARK 922        TOTAL FREE ENERGY PREDICTED BY IDOCK:   -6.77 KCAL/MOL
REMARK 923 INTER-LIGAND FREE ENERGY PREDICTED BY IDOCK:   -5.23 KCAL/MOL
REMARK 924 INTRA-LIGAND FREE ENERGY PREDICTED BY IDOCK:   -1.54 KCAL/MOL
REMARK 927      BINDING AFFINITY PREDICTED BY RF-SCORE:    0.00 PKD
ROOT
HETATM    1  C   UNL     1     -10.681  15.903  67.675  1.00  0.00    -0.312 C  
HETATM    2  C   UNL     1     -11.433  15.185  66.556  1.00  0.00    -0.171 C  
HETATM    3  C   UNL     1     -10.872  15.614  65.197  1.00  0.00    -0.448 C  
HETATM    4  C   UNL     1     -11.367  13.661  66.777  1.00  0.00    -0.346 C  
ENDROOT
BRANCH   4   5
HETATM    5  C   UNL     1     -12.113  12.893  65.691  1.00  0.00    -0.511 C  
BRANCH   5   6
HETATM    6  C   UNL     1     -11.513  11.517  65.418  1.00  0.00    -0.080 C  
HETATM    7  C   UNL     1     -10.267  11.604  64.512  1.00  0.00    -0.337 C  
HETATM    8  C   UNL     1      -9.161  12.467  65.137  1.00  0.00     0.486 C  
HETATM    9  C   UNL     1      -9.765  10.183  64.192  1.00  0.00    -0.301 C  
BRANCH   9  10
HETATM   10  C   UNL     1      -8.530  10.208  63.295  1.00  0.00    -0.184 C  
BRANCH  10  11
HETATM   11  C   UNL     1      -7.257   9.876  64.055  1.00  0.00    -0.133 C  
HETATM   12  C   UNL     1      -6.890   8.383  63.926  1.00  0.00    -0.075 C  
HETATM   13  C   UNL     1      -5.673   8.033  64.796  1.00  0.00    -0.044 C  
HETATM   14  C   UNL     1      -6.597   7.977  62.477  1.00  0.00    -0.086 C  
BRANCH  13  15
HETATM   15  C   UNL     1      -5.829   8.345  66.284  1.00  0.00    -0.044 C  
BRANCH  15  16
HETATM   16  C   UNL     1      -6.063   7.112  67.178  1.00  0.00    -0.041 C  
BRANCH  16  17
HETATM   17  C   UNL     1      -7.232   7.288  68.187  1.00  0.00    -0.091 C  
HETATM   18  C   UNL     1      -6.652   7.345  69.618  1.00  0.00    -0.040 C  
HETATM   19  C   UNL     1      -8.253   6.175  67.957  1.00  0.00    -0.114 C  
HETATM   20  C   UNL     1      -9.410   6.309  68.918  1.00  0.00    -0.128 C  
HETATM   21  C   UNL     1      -9.858   7.736  69.073  1.00  0.00    -0.169 A  
HETATM   22  C   UNL     1     -11.026   8.033  69.802  1.00  0.00    -0.138 A  
HETATM   23  C   UNL     1     -11.826   6.945  70.472  1.00  0.00    -0.385 C  
HETATM   24  C   UNL     1     -11.427   9.376  69.905  1.00  0.00    -0.022 A  
HETATM   25  C   UNL     1     -10.687  10.428  69.329  1.00  0.00    -0.270 A  
HETATM   26  O   UNL     1     -12.564   9.720  70.590  1.00  0.00    -0.470 OA 
HETATM   27  C   UNL     1     -11.161  11.851  69.471  1.00  0.00    -0.237 C  
HETATM   28  C   UNL     1      -9.495  10.127  68.630  1.00  0.00    -0.164 A  
HETATM   29  H   UNL     1     -12.835  10.628  70.660  1.00  0.00     0.000 HD 
HETATM   30  C   UNL     1      -9.081   8.781  68.528  1.00  0.00    -0.138 A  
HETATM   31  C   UNL     1      -8.634  11.198  68.007  1.00  0.00    -0.140 C  
HETATM   32  O   UNL     1      -7.870   8.557  67.900  1.00  0.00    -0.101 OA 
ENDBRANCH  16  17
ENDBRANCH  15  16
ENDBRANCH  13  15
ENDBRANCH  10  11
ENDBRANCH   9  10
ENDBRANCH   5   6
ENDBRANCH   4   5
TORSDOF 7
ENDMDL
MODEL      272
REMARK 921   NORMALIZED FREE ENERGY PREDICTED BY IDOCK:   -3.56 KCAL/MOL
REMARK 922        TOTAL FREE ENERGY PREDICTED BY IDOCK:   -6.77 KCAL/MOL
REMARK 923 INTER-LIGAND FREE ENERGY PREDICTED BY IDOCK:   -6.43 KCAL/MOL
REMARK 924 INTRA-LIGAND FREE ENERGY PREDICTED BY IDOCK:   -0.35 KCAL/MOL
REMARK 927      BINDING AFFINITY PREDICTED BY RF-SCORE:    0.00 PKD
ROOT
HETATM    1  C   UNL     1      -6.219  13.909  69.888  1.00  0.00    -0.136 C  
HETATM    2  C   UNL     1      -6.835  15.205  69.365  1.00  0.00    -0.170 C  
HETATM    3  C   UNL     1      -6.021  16.403  69.865  1.00  0.00    -0.195 C  
HETATM    4  C   UNL     1      -6.936  15.151  67.827  1.00  0.00    -0.190 C  
ENDROOT
BRANCH   4   5
HETATM    5  C   UNL     1      -7.555  16.420  67.251  1.00  0.00    -0.198 C  
BRANCH   5   6
HETATM    6  C   UNL     1      -8.488  16.144  66.075  1.00  0.00    -0.155 C  
HETATM    7  C   UNL     1      -9.809  15.491  66.532  1.00  0.00    -0.281 C  
HETATM    8  C   UNL     1     -10.576  16.378  67.524  1.00  0.00    -0.309 C  
HETATM    9  C   UNL     1     -10.665  15.147  65.298  1.00  0.00    -0.422 C  
BRANCH   9  10
HETATM   10  C   UNL     1     -11.988  14.494  65.692  1.00  0.00    -0.311 C  
BRANCH  10  11
HETATM   11  C   UNL     1     -11.822  13.027  66.056  1.00  0.00    -0.471 C  
HETATM   12  C   UNL     1     -11.230  12.854  67.470  1.00  0.00    -0.329 C  
HETATM   13  C   UNL     1     -10.954  11.375  67.778  1.00  0.00    -0.301 C  
HETATM   14  C   UNL     1     -12.145  13.425  68.559  1.00  0.00    -0.283 C  
BRANCH  13  15
HETATM   15  C   UNL     1     -10.018  10.671  66.795  1.00  0.00    -0.254 C  
BRANCH  15  16
HETATM   16  C   UNL     1      -8.932   9.800  67.453  1.00  0.00    -0.144 C  
BRANCH  16  17
HETATM   17  C   UNL     1      -9.477   8.852  68.557  1.00  0.00    -0.147 C  
HETATM   18  C   UNL     1     -10.714   8.106  68.009  1.00  0.00    -0.108 C  
HETATM   19  C   UNL     1      -9.735   9.667  69.824  1.00  0.00    -0.247 C  
HETATM   20  C   UNL     1     -10.265   8.782  70.926  1.00  0.00    -0.284 C  
HETATM   21  C   UNL     1      -9.539   7.467  70.999  1.00  0.00    -0.162 A  
HETATM   22  C   UNL     1      -9.788   6.583  72.065  1.00  0.00    -0.169 A  
HETATM   23  C   UNL     1     -10.806   6.908  73.129  1.00  0.00    -0.328 C  
HETATM   24  C   UNL     1      -9.073   5.374  72.114  1.00  0.00    -0.136 A  
HETATM   25  C   UNL     1      -8.142   5.011  71.120  1.00  0.00    -0.109 A  
HETATM   26  O   UNL     1      -9.265   4.483  73.138  1.00  0.00    -0.118 OA 
HETATM   27  C   UNL     1      -7.403   3.701  71.218  1.00  0.00    -0.037 C  
HETATM   28  C   UNL     1      -7.924   5.887  70.030  1.00  0.00    -0.105 A  
HETATM   29  H   UNL     1      -8.782   3.665  73.170  1.00  0.00     0.000 HD 
HETATM   30  C   UNL     1      -8.644   7.100  69.971  1.00  0.00    -0.141 A  
HETATM   31  C   UNL     1      -6.964   5.560  68.913  1.00  0.00    -0.060 C  
HETATM   32  O   UNL     1      -8.444   7.878  68.845  1.00  0.00    -0.126 OA 
ENDBRANCH  16  17
ENDBRANCH  15  16
ENDBRANCH  13  15
ENDBRANCH  10  11
ENDBRANCH   9  10
ENDBRANCH   5   6
ENDBRANCH   4   5
TORSDOF 7
ENDMDL
MODEL      273
REMARK 921   NORMALIZED FREE ENERGY PREDICTED BY IDOCK:   -3.56 KCAL/MOL
REMARK 922        TOTAL FREE ENERGY PREDICTED BY IDOCK:   -6.77 KCAL/MOL
REMARK 923 INTER-LIGAND FREE ENERGY PREDICTED BY IDOCK:   -5.85 KCAL/MOL
REMARK 924 INTRA-LIGAND FREE ENERGY PREDICTED BY IDOCK:   -0.92 KCAL/MOL
REMARK 927      BINDING AFFINITY PREDICTED BY RF-SCORE:    0.00 PKD
ROOT
HETATM    1  C   UNL     1      -8.277  19.346  68.730  1.00  0.00    -0.382 C  
HETATM    2  C   UNL     1      -9.259  18.501  67.922  1.00  0.00    -0.306 C  
HETATM    3  C   UNL     1     -10.199  19.416  67.130  1.00  0.00    -0.521 C  
HETATM    4  C   UNL     1      -8.484  17.518  67.023  1.00  0.00    -0.252 C  
ENDROOT
BRANCH   4   5
HETATM    5  C   UNL     1      -9.419  16.639  66.198  1.00  0.00    -0.319 C  
BRANCH   5   6
HETATM    6  C   UNL     1      -9.217  15.148  66.458  1.00  0.00    -0.318 C  
HETATM    7  C   UNL     1     -10.534  14.358  66.312  1.00  0.00    -0.292 C  
HETATM    8  C   UNL     1     -11.135  14.497  64.906  1.00  0.00    -0.401 C  
HETATM    9  C   UNL     1     -10.289  12.883  66.681  1.00  0.00    -0.258 C  
BRANCH   9  10
HETATM   10  C   UNL     1     -11.563  12.050  66.556  1.00  0.00    -0.384 C  
BRANCH  10  11
HETATM   11  C   UNL     1     -11.824  11.204  67.792  1.00  0.00    -0.098 C  
HETATM   12  C   UNL     1     -11.345  11.911  69.077  1.00  0.00    -0.337 C  
HETATM   13  C   UNL     1     -11.502  10.999  70.304  1.00  0.00    -0.363 C  
HETATM   14  C   UNL     1     -12.096  13.223  69.336  1.00  0.00    -0.301 C  
BRANCH  13  15
HETATM   15  C   UNL     1     -10.772   9.660  70.213  1.00  0.00    -0.335 C  
BRANCH  15  16
HETATM   16  C   UNL     1      -9.308   9.756  69.744  1.00  0.00    -0.249 C  
BRANCH  16  17
HETATM   17  C   UNL     1      -8.690   8.386  69.345  1.00  0.00    -0.137 C  
HETATM   18  C   UNL     1      -9.612   7.255  69.852  1.00  0.00    -0.163 C  
HETATM   19  C   UNL     1      -7.256   8.322  69.869  1.00  0.00    -0.059 C  
HETATM   20  C   UNL     1      -6.615   7.005  69.500  1.00  0.00    -0.045 C  
HETATM   21  C   UNL     1      -6.932   6.593  68.088  1.00  0.00    -0.077 A  
HETATM   22  C   UNL     1      -6.291   5.477  67.519  1.00  0.00    -0.042 A  
HETATM   23  C   UNL     1      -5.311   4.650  68.312  1.00  0.00    -0.011 C  
HETATM   24  C   UNL     1      -6.594   5.137  66.190  1.00  0.00    -0.052 A  
HETATM   25  C   UNL     1      -7.533   5.858  65.425  1.00  0.00    -0.082 A  
HETATM   26  O   UNL     1      -5.988   4.069  65.581  1.00  0.00    -0.022 OA 
HETATM   27  C   UNL     1      -7.823   5.449  64.004  1.00  0.00    -0.101 C  
HETATM   28  C   UNL     1      -8.202   6.955  66.015  1.00  0.00    -0.125 A  
HETATM   29  H   UNL     1      -6.193   3.839  64.682  1.00  0.00     0.000 HD 
HETATM   30  C   UNL     1      -7.908   7.299  67.353  1.00  0.00    -0.112 A  
HETATM   31  C   UNL     1      -9.240   7.760  65.272  1.00  0.00     0.424 C  
HETATM   32  O   UNL     1      -8.649   8.332  67.898  1.00  0.00    -0.130 OA 
ENDBRANCH  16  17
ENDBRANCH  15  16
ENDBRANCH  13  15
ENDBRANCH  10  11
ENDBRANCH   9  10
ENDBRANCH   5   6
ENDBRANCH   4   5
TORSDOF 7
ENDMDL
MODEL      274
REMARK 921   NORMALIZED FREE ENERGY PREDICTED BY IDOCK:   -3.55 KCAL/MOL
REMARK 922        TOTAL FREE ENERGY PREDICTED BY IDOCK:   -6.76 KCAL/MOL
REMARK 923 INTER-LIGAND FREE ENERGY PREDICTED BY IDOCK:   -7.54 KCAL/MOL
REMARK 924 INTRA-LIGAND FREE ENERGY PREDICTED BY IDOCK:    0.78 KCAL/MOL
REMARK 927      BINDING AFFINITY PREDICTED BY RF-SCORE:    0.00 PKD
ROOT
HETATM    1  C   UNL     1     -10.944   3.553  73.171  1.00  0.00    -0.221 C  
HETATM    2  C   UNL     1     -10.065   3.974  71.996  1.00  0.00    -0.227 C  
HETATM    3  C   UNL     1     -10.447   5.386  71.543  1.00  0.00    -0.289 C  
HETATM    4  C   UNL     1      -8.578   3.853  72.387  1.00  0.00    -0.108 C  
ENDROOT
BRANCH   4   5
HETATM    5  C   UNL     1      -7.652   4.252  71.243  1.00  0.00    -0.060 C  
BRANCH   5   6
HETATM    6  C   UNL     1      -8.393   4.902  70.078  1.00  0.00    -0.073 C  
HETATM    7  C   UNL     1      -7.788   6.272  69.706  1.00  0.00    -0.110 C  
HETATM    8  C   UNL     1      -6.312   6.157  69.298  1.00  0.00    -0.041 C  
HETATM    9  C   UNL     1      -8.635   6.921  68.595  1.00  0.00    -0.123 C  
BRANCH   9  10
HETATM   10  C   UNL     1      -8.082   8.284  68.186  1.00  0.00    -0.124 C  
BRANCH  10  11
HETATM   11  C   UNL     1      -8.651   8.766  66.861  1.00  0.00    -0.120 C  
HETATM   12  C   UNL     1      -7.849   9.955  66.295  1.00  0.00    -0.108 C  
HETATM   13  C   UNL     1      -8.504  10.511  65.021  1.00  0.00    -0.166 C  
HETATM   14  C   UNL     1      -6.395   9.582  65.982  1.00  0.00    -0.069 C  
BRANCH  13  15
HETATM   15  C   UNL     1      -9.954  10.966  65.184  1.00  0.00    -0.341 C  
BRANCH  15  16
HETATM   16  C   UNL     1     -10.492  10.896  66.625  1.00  0.00    -0.307 C  
BRANCH  16  17
HETATM   17  C   UNL     1     -10.808  12.288  67.241  1.00  0.00    -0.245 C  
HETATM   18  C   UNL     1     -11.991  12.917  66.473  1.00  0.00    -0.447 C  
HETATM   19  C   UNL     1      -9.530  13.127  67.241  1.00  0.00    -0.225 C  
HETATM   20  C   UNL     1      -9.792  14.491  67.835  1.00  0.00    -0.222 C  
HETATM   21  C   UNL     1     -10.660  14.421  69.061  1.00  0.00    -0.245 A  
HETATM   22  C   UNL     1     -10.875  15.574  69.838  1.00  0.00    -0.311 A  
HETATM   23  C   UNL     1     -10.281  16.904  69.446  1.00  0.00    -0.208 C  
HETATM   24  C   UNL     1     -11.673  15.466  70.991  1.00  0.00    -0.364 A  
HETATM   25  C   UNL     1     -12.281  14.252  71.372  1.00  0.00    -0.408 A  
HETATM   26  O   UNL     1     -11.902  16.554  71.793  1.00  0.00    -0.664 OA 
HETATM   27  C   UNL     1     -13.128  14.191  72.617  1.00  0.00    -0.564 C  
HETATM   28  C   UNL     1     -12.092  13.106  70.566  1.00  0.00    -0.385 A  
HETATM   29  H   UNL     1     -12.442  16.480  72.572  1.00  0.00     0.000 HD 
HETATM   30  C   UNL     1     -11.298  13.209  69.403  1.00  0.00    -0.213 A  
HETATM   31  C   UNL     1     -12.730  11.778  70.892  1.00  0.00    -0.328 C  
HETATM   32  O   UNL     1     -11.213  12.075  68.615  1.00  0.00    -0.218 OA 
ENDBRANCH  16  17
ENDBRANCH  15  16
ENDBRANCH  13  15
ENDBRANCH  10  11
ENDBRANCH   9  10
ENDBRANCH   5   6
ENDBRANCH   4   5
TORSDOF 7
ENDMDL
MODEL      275
REMARK 921   NORMALIZED FREE ENERGY PREDICTED BY IDOCK:   -3.53 KCAL/MOL
REMARK 922        TOTAL FREE ENERGY PREDICTED BY IDOCK:   -6.72 KCAL/MOL
REMARK 923 INTER-LIGAND FREE ENERGY PREDICTED BY IDOCK:   -5.71 KCAL/MOL
REMARK 924 INTRA-LIGAND FREE ENERGY PREDICTED BY IDOCK:   -1.01 KCAL/MOL
REMARK 927      BINDING AFFINITY PREDICTED BY RF-SCORE:    0.00 PKD
ROOT
HETATM    1  C   UNL     1     -10.349   2.434  72.925  1.00  0.00    -0.239 C  
HETATM    2  C   UNL     1      -9.791   3.593  72.103  1.00  0.00    -0.240 C  
HETATM    3  C   UNL     1      -8.707   4.321  72.903  1.00  0.00    -0.105 C  
HETATM    4  C   UNL     1      -9.282   3.070  70.744  1.00  0.00    -0.206 C  
ENDROOT
BRANCH   4   5
HETATM    5  C   UNL     1      -8.721   4.191  69.875  1.00  0.00    -0.114 C  
BRANCH   5   6
HETATM    6  C   UNL     1      -9.799   5.143  69.365  1.00  0.00    -0.269 C  
HETATM    7  C   UNL     1      -9.356   6.618  69.467  1.00  0.00    -0.145 C  
HETATM    8  C   UNL     1      -8.083   6.893  68.652  1.00  0.00    -0.121 C  
HETATM    9  C   UNL     1     -10.517   7.532  69.032  1.00  0.00    -0.216 C  
BRANCH   9  10
HETATM   10  C   UNL     1     -10.135   9.008  69.114  1.00  0.00    -0.201 C  
BRANCH  10  11
HETATM   11  C   UNL     1     -10.757   9.829  67.995  1.00  0.00    -0.298 C  
HETATM   12  C   UNL     1      -9.687  10.593  67.187  1.00  0.00    -0.199 C  
HETATM   13  C   UNL     1     -10.334  11.513  66.141  1.00  0.00    -0.287 C  
HETATM   14  C   UNL     1      -8.706   9.650  66.480  1.00  0.00    -0.147 C  
BRANCH  13  15
HETATM   15  C   UNL     1     -11.315  12.543  66.700  1.00  0.00    -0.389 C  
BRANCH  15  16
HETATM   16  C   UNL     1     -11.132  12.857  68.197  1.00  0.00    -0.282 C  
BRANCH  16  17
HETATM   17  C   UNL     1     -10.569  14.280  68.471  1.00  0.00    -0.257 C  
HETATM   18  C   UNL     1      -9.027  14.206  68.520  1.00  0.00    -0.174 C  
HETATM   19  C   UNL     1     -11.221  14.832  69.738  1.00  0.00    -0.306 C  
HETATM   20  C   UNL     1     -10.703  16.218  70.041  1.00  0.00    -0.290 C  
HETATM   21  C   UNL     1     -10.595  17.068  68.805  1.00  0.00    -0.346 A  
HETATM   22  C   UNL     1     -10.285  18.436  68.916  1.00  0.00    -0.284 A  
HETATM   23  C   UNL     1     -10.016  19.071  70.257  1.00  0.00     1.179 C  
HETATM   24  C   UNL     1     -10.217  19.205  67.741  1.00  0.00    -0.403 A  
HETATM   25  C   UNL     1     -10.422  18.644  66.463  1.00  0.00    -0.465 A  
HETATM   26  O   UNL     1      -9.934  20.545  67.791  1.00  0.00    -0.395 OA 
HETATM   27  C   UNL     1     -10.335  19.513  65.235  1.00  0.00     0.383 C  
HETATM   28  C   UNL     1     -10.696  17.261  66.356  1.00  0.00    -0.072 A  
HETATM   29  H   UNL     1      -9.888  21.064  66.997  1.00  0.00     0.000 HD 
HETATM   30  C   UNL     1     -10.759  16.481  67.531  1.00  0.00    -0.283 A  
HETATM   31  C   UNL     1     -10.901  16.581  65.024  1.00  0.00    -0.245 C  
HETATM   32  O   UNL     1     -10.954  15.123  67.357  1.00  0.00    -0.300 OA 
ENDBRANCH  16  17
ENDBRANCH  15  16
ENDBRANCH  13  15
ENDBRANCH  10  11
ENDBRANCH   9  10
ENDBRANCH   5   6
ENDBRANCH   4   5
TORSDOF 7
ENDMDL
MODEL      276
REMARK 921   NORMALIZED FREE ENERGY PREDICTED BY IDOCK:   -3.48 KCAL/MOL
REMARK 922        TOTAL FREE ENERGY PREDICTED BY IDOCK:   -6.67 KCAL/MOL
REMARK 923 INTER-LIGAND FREE ENERGY PREDICTED BY IDOCK:   -5.98 KCAL/MOL
REMARK 924 INTRA-LIGAND FREE ENERGY PREDICTED BY IDOCK:   -0.69 KCAL/MOL
REMARK 927      BINDING AFFINITY PREDICTED BY RF-SCORE:    0.00 PKD
ROOT
HETATM    1  C   UNL     1      -7.386  20.751  66.909  1.00  0.00    -0.312 C  
HETATM    2  C   UNL     1      -7.474  19.668  67.983  1.00  0.00    -0.331 C  
HETATM    3  C   UNL     1      -8.923  19.526  68.457  1.00  0.00    -0.395 C  
HETATM    4  C   UNL     1      -6.889  18.349  67.441  1.00  0.00    -0.205 C  
ENDROOT
BRANCH   4   5
HETATM    5  C   UNL     1      -6.942  17.232  68.479  1.00  0.00    -0.209 C  
BRANCH   5   6
HETATM    6  C   UNL     1      -7.979  16.162  68.148  1.00  0.00    -0.148 C  
HETATM    7  C   UNL     1      -7.364  14.747  68.155  1.00  0.00    -0.122 C  
HETATM    8  C   UNL     1      -6.762  14.389  69.522  1.00  0.00    -0.141 C  
HETATM    9  C   UNL     1      -8.430  13.723  67.720  1.00  0.00    -0.181 C  
BRANCH   9  10
HETATM   10  C   UNL     1      -7.875  12.301  67.707  1.00  0.00    -0.151 C  
BRANCH  10  11
HETATM   11  C   UNL     1      -8.851  11.295  68.297  1.00  0.00    -0.158 C  
HETATM   12  C   UNL     1     -10.315  11.668  67.980  1.00  0.00    -0.208 C  
HETATM   13  C   UNL     1     -11.294  10.716  68.682  1.00  0.00    -0.345 C  
HETATM   14  C   UNL     1     -10.606  11.658  66.475  1.00  0.00    -0.292 C  
BRANCH  13  15
HETATM   15  C   UNL     1     -11.153  10.645  70.202  1.00  0.00    -0.341 C  
BRANCH  15  16
HETATM   16  C   UNL     1     -11.746   9.377  70.845  1.00  0.00    -0.378 C  
BRANCH  16  17
HETATM   17  C   UNL     1     -10.811   8.138  70.754  1.00  0.00    -0.228 C  
HETATM   18  C   UNL     1     -11.658   6.899  70.389  1.00  0.00    -0.385 C  
HETATM   19  C   UNL     1     -10.032   8.013  72.063  1.00  0.00    -0.275 C  
HETATM   20  C   UNL     1      -9.107   6.820  72.018  1.00  0.00    -0.139 C  
HETATM   21  C   UNL     1      -8.403   6.695  70.694  1.00  0.00    -0.129 A  
HETATM   22  C   UNL     1      -7.384   5.739  70.526  1.00  0.00    -0.084 A  
HETATM   23  C   UNL     1      -7.002   4.799  71.641  1.00  0.00    -0.052 C  
HETATM   24  C   UNL     1      -6.732   5.668  69.283  1.00  0.00    -0.060 A  
HETATM   25  C   UNL     1      -7.084   6.500  68.201  1.00  0.00    -0.083 A  
HETATM   26  O   UNL     1      -5.722   4.766  69.068  1.00  0.00    -0.015 OA 
HETATM   27  C   UNL     1      -6.354   6.381  66.888  1.00  0.00    -0.041 C  
HETATM   28  C   UNL     1      -8.135   7.433  68.365  1.00  0.00    -0.125 A  
HETATM   29  H   UNL     1      -5.281   4.718  68.228  1.00  0.00     0.000 HD 
HETATM   30  C   UNL     1      -8.799   7.505  69.608  1.00  0.00    -0.141 A  
HETATM   31  C   UNL     1      -8.588   8.340  67.248  1.00  0.00    -0.124 C  
HETATM   32  O   UNL     1      -9.867   8.382  69.683  1.00  0.00    -0.179 OA 
ENDBRANCH  16  17
ENDBRANCH  15  16
ENDBRANCH  13  15
ENDBRANCH  10  11
ENDBRANCH   9  10
ENDBRANCH   5   6
ENDBRANCH   4   5
TORSDOF 7
ENDMDL
MODEL      277
REMARK 921   NORMALIZED FREE ENERGY PREDICTED BY IDOCK:   -3.44 KCAL/MOL
REMARK 922        TOTAL FREE ENERGY PREDICTED BY IDOCK:   -6.60 KCAL/MOL
REMARK 923 INTER-LIGAND FREE ENERGY PREDICTED BY IDOCK:   -5.49 KCAL/MOL
REMARK 924 INTRA-LIGAND FREE ENERGY PREDICTED BY IDOCK:   -1.10 KCAL/MOL
REMARK 927      BINDING AFFINITY PREDICTED BY RF-SCORE:    0.00 PKD
ROOT
HETATM    1  C   UNL     1     -11.688  11.998  64.382  1.00  0.00    -0.399 C  
HETATM    2  C   UNL     1     -11.956  13.456  64.746  1.00  0.00    -0.429 C  
HETATM    3  C   UNL     1     -12.588  13.534  66.139  1.00  0.00    -0.355 C  
HETATM    4  C   UNL     1     -10.652  14.270  64.634  1.00  0.00    -0.364 C  
ENDROOT
BRANCH   4   5
HETATM    5  C   UNL     1     -10.865  15.741  64.977  1.00  0.00    -0.461 C  
BRANCH   5   6
HETATM    6  C   UNL     1     -10.695  16.034  66.466  1.00  0.00    -0.238 C  
HETATM    7  C   UNL     1      -9.289  15.646  66.969  1.00  0.00    -0.241 C  
HETATM    8  C   UNL     1      -8.182  16.408  66.226  1.00  0.00    -0.343 C  
HETATM    9  C   UNL     1      -9.210  15.872  68.491  1.00  0.00    -0.200 C  
BRANCH   9  10
HETATM   10  C   UNL     1      -7.836  15.502  69.046  1.00  0.00    -0.201 C  
BRANCH  10  11
HETATM   11  C   UNL     1      -7.532  14.020  68.894  1.00  0.00    -0.095 C  
HETATM   12  C   UNL     1      -6.035  13.771  68.617  1.00  0.00    -0.087 C  
HETATM   13  C   UNL     1      -5.760  12.284  68.344  1.00  0.00    -0.055 C  
HETATM   14  C   UNL     1      -5.142  14.236  69.774  1.00  0.00    -0.091 C  
BRANCH  13  15
HETATM   15  C   UNL     1      -6.551  11.681  67.184  1.00  0.00    -0.134 C  
BRANCH  15  16
HETATM   16  C   UNL     1      -6.114  10.262  66.777  1.00  0.00    -0.062 C  
BRANCH  16  17
HETATM   17  C   UNL     1      -7.199   9.178  67.033  1.00  0.00    -0.090 C  
HETATM   18  C   UNL     1      -7.672   8.614  65.675  1.00  0.00    -0.091 C  
HETATM   19  C   UNL     1      -8.309   9.785  67.891  1.00  0.00    -0.114 C  
HETATM   20  C   UNL     1      -9.386   8.764  68.166  1.00  0.00    -0.148 C  
HETATM   21  C   UNL     1      -8.817   7.412  68.498  1.00  0.00    -0.126 A  
HETATM   22  C   UNL     1      -9.665   6.379  68.940  1.00  0.00    -0.134 A  
HETATM   23  C   UNL     1     -11.155   6.586  69.053  1.00  0.00    -0.375 C  
HETATM   24  C   UNL     1      -9.095   5.137  69.265  1.00  0.00    -0.105 A  
HETATM   25  C   UNL     1      -7.713   4.887  69.136  1.00  0.00    -0.072 A  
HETATM   26  O   UNL     1      -9.872   4.101  69.715  1.00  0.00    -0.215 OA 
HETATM   27  C   UNL     1      -7.152   3.536  69.495  1.00  0.00    -0.042 C  
HETATM   28  C   UNL     1      -6.871   5.917  68.655  1.00  0.00    -0.066 A  
HETATM   29  H   UNL     1      -9.486   3.261  69.934  1.00  0.00     0.000 HD 
HETATM   30  C   UNL     1      -7.438   7.166  68.320  1.00  0.00    -0.102 A  
HETATM   31  C   UNL     1      -5.387   5.721  68.464  1.00  0.00    -0.004 C  
HETATM   32  O   UNL     1      -6.578   8.107  67.784  1.00  0.00    -0.055 OA 
ENDBRANCH  16  17
ENDBRANCH  15  16
ENDBRANCH  13  15
ENDBRANCH  10  11
ENDBRANCH   9  10
ENDBRANCH   5   6
ENDBRANCH   4   5
TORSDOF 7
ENDMDL
MODEL      278
REMARK 921   NORMALIZED FREE ENERGY PREDICTED BY IDOCK:   -3.42 KCAL/MOL
REMARK 922        TOTAL FREE ENERGY PREDICTED BY IDOCK:   -6.57 KCAL/MOL
REMARK 923 INTER-LIGAND FREE ENERGY PREDICTED BY IDOCK:   -6.06 KCAL/MOL
REMARK 924 INTRA-LIGAND FREE ENERGY PREDICTED BY IDOCK:   -0.51 KCAL/MOL
REMARK 927      BINDING AFFINITY PREDICTED BY RF-SCORE:    0.00 PKD
ROOT
HETATM    1  C   UNL     1      -8.072   1.472  67.640  1.00  0.00    -0.062 C  
HETATM    2  C   UNL     1      -7.296   2.559  66.900  1.00  0.00    -0.061 C  
HETATM    3  C   UNL     1      -7.612   2.493  65.403  1.00  0.00    -0.076 C  
HETATM    4  C   UNL     1      -7.611   3.936  67.518  1.00  0.00    -0.068 C  
ENDROOT
BRANCH   4   5
HETATM    5  C   UNL     1      -6.852   5.062  66.822  1.00  0.00    -0.063 C  
BRANCH   5   6
HETATM    6  C   UNL     1      -7.760   5.964  65.990  1.00  0.00    -0.099 C  
HETATM    7  C   UNL     1      -7.205   7.401  65.893  1.00  0.00    -0.066 C  
HETATM    8  C   UNL     1      -5.812   7.436  65.246  1.00  0.00    -0.037 C  
HETATM    9  C   UNL     1      -8.208   8.285  65.128  1.00  0.00    -0.156 C  
BRANCH   9  10
HETATM   10  C   UNL     1      -7.711   9.723  65.001  1.00  0.00    -0.126 C  
BRANCH  10  11
HETATM   11  C   UNL     1      -8.750  10.736  65.454  1.00  0.00    -0.190 C  
HETATM   12  C   UNL     1      -9.347  10.365  66.828  1.00  0.00    -0.181 C  
HETATM   13  C   UNL     1     -10.480  11.325  67.219  1.00  0.00    -0.249 C  
HETATM   14  C   UNL     1      -8.292  10.364  67.941  1.00  0.00    -0.114 C  
BRANCH  13  15
HETATM   15  C   UNL     1     -11.634  11.407  66.220  1.00  0.00     0.110 C  
BRANCH  15  16
HETATM   16  C   UNL     1     -11.456  12.466  65.117  1.00  0.00    -0.379 C  
BRANCH  16  17
HETATM   17  C   UNL     1     -11.377  13.922  65.658  1.00  0.00    -0.309 C  
HETATM   18  C   UNL     1     -12.643  14.689  65.215  1.00  0.00    -0.134 C  
HETATM   19  C   UNL     1     -10.060  14.547  65.199  1.00  0.00    -0.361 C  
HETATM   20  C   UNL     1      -9.941  15.964  65.705  1.00  0.00    -0.391 C  
HETATM   21  C   UNL     1     -10.393  16.098  67.134  1.00  0.00    -0.291 A  
HETATM   22  C   UNL     1     -10.202  17.311  67.822  1.00  0.00    -0.332 A  
HETATM   23  C   UNL     1      -9.582  18.506  67.144  1.00  0.00    -0.302 C  
HETATM   24  C   UNL     1     -10.615  17.391  69.163  1.00  0.00    -0.161 A  
HETATM   25  C   UNL     1     -11.234  16.311  69.825  1.00  0.00    -0.314 A  
HETATM   26  O   UNL     1     -10.439  18.543  69.887  1.00  0.00    -0.028 OA 
HETATM   27  C   UNL     1     -11.661  16.451  71.264  1.00  0.00    -0.282 C  
HETATM   28  C   UNL     1     -11.459  15.109  69.116  1.00  0.00    -0.322 A  
HETATM   29  H   UNL     1     -10.718  18.597  70.793  1.00  0.00     0.000 HD 
HETATM   30  C   UNL     1     -11.053  15.023  67.766  1.00  0.00    -0.310 A  
HETATM   31  C   UNL     1     -12.139  13.917  69.745  1.00  0.00    -0.404 C  
HETATM   32  O   UNL     1     -11.367  13.849  67.105  1.00  0.00    -0.302 OA 
ENDBRANCH  16  17
ENDBRANCH  15  16
ENDBRANCH  13  15
ENDBRANCH  10  11
ENDBRANCH   9  10
ENDBRANCH   5   6
ENDBRANCH   4   5
TORSDOF 7
ENDMDL
MODEL      279
REMARK 921   NORMALIZED FREE ENERGY PREDICTED BY IDOCK:   -3.41 KCAL/MOL
REMARK 922        TOTAL FREE ENERGY PREDICTED BY IDOCK:   -6.56 KCAL/MOL
REMARK 923 INTER-LIGAND FREE ENERGY PREDICTED BY IDOCK:   -6.29 KCAL/MOL
REMARK 924 INTRA-LIGAND FREE ENERGY PREDICTED BY IDOCK:   -0.27 KCAL/MOL
REMARK 927      BINDING AFFINITY PREDICTED BY RF-SCORE:    0.00 PKD
ROOT
HETATM    1  C   UNL     1     -11.309   1.489  62.617  1.00  0.00    -0.248 C  
HETATM    2  C   UNL     1     -10.258   2.564  62.889  1.00  0.00    -0.117 C  
HETATM    3  C   UNL     1     -10.879   3.699  63.709  1.00  0.00    -0.213 C  
HETATM    4  C   UNL     1      -9.031   1.931  63.575  1.00  0.00    -0.089 C  
ENDROOT
BRANCH   4   5
HETATM    5  C   UNL     1      -7.943   2.961  63.862  1.00  0.00    -0.081 C  
BRANCH   5   6
HETATM    6  C   UNL     1      -7.250   2.735  65.203  1.00  0.00    -0.062 C  
HETATM    7  C   UNL     1      -7.232   4.017  66.061  1.00  0.00    -0.068 C  
HETATM    8  C   UNL     1      -8.649   4.529  66.361  1.00  0.00    -0.112 C  
HETATM    9  C   UNL     1      -6.438   3.756  67.355  1.00  0.00    -0.038 C  
BRANCH   9  10
HETATM   10  C   UNL     1      -6.386   4.995  68.246  1.00  0.00    -0.036 C  
BRANCH  10  11
HETATM   11  C   UNL     1      -6.544   6.283  67.454  1.00  0.00    -0.052 C  
HETATM   12  C   UNL     1      -6.537   7.522  68.372  1.00  0.00    -0.050 C  
HETATM   13  C   UNL     1      -6.820   8.805  67.577  1.00  0.00    -0.071 C  
HETATM   14  C   UNL     1      -5.208   7.686  69.120  1.00  0.00    -0.018 C  
BRANCH  13  15
HETATM   15  C   UNL     1      -8.138   8.811  66.803  1.00  0.00    -0.104 C  
BRANCH  15  16
HETATM   16  C   UNL     1      -8.905  10.146  66.849  1.00  0.00    -0.142 C  
BRANCH  16  17
HETATM   17  C   UNL     1      -9.617  10.409  68.206  1.00  0.00    -0.144 C  
HETATM   18  C   UNL     1      -8.549  10.531  69.315  1.00  0.00    -0.136 C  
HETATM   19  C   UNL     1     -10.654   9.311  68.439  1.00  0.00    -0.234 C  
HETATM   20  C   UNL     1     -11.373   9.529  69.748  1.00  0.00    -0.117 C  
HETATM   21  C   UNL     1     -11.728  10.974  69.969  1.00  0.00    -0.437 A  
HETATM   22  C   UNL     1     -12.542  11.342  71.057  1.00  0.00    -0.495 A  
HETATM   23  C   UNL     1     -13.041  10.315  72.042  1.00  0.00    -0.529 C  
HETATM   24  C   UNL     1     -12.872  12.698  71.217  1.00  0.00    -0.250 A  
HETATM   25  C   UNL     1     -12.395  13.697  70.344  1.00  0.00    -0.415 A  
HETATM   26  O   UNL     1     -13.674  13.110  72.250  1.00  0.00    -0.550 OA 
HETATM   27  C   UNL     1     -12.778  15.138  70.563  1.00  0.00    -0.416 C  
HETATM   28  C   UNL     1     -11.546  13.326  69.275  1.00  0.00    -0.370 A  
HETATM   29  H   UNL     1     -13.897  14.027  72.359  1.00  0.00     0.000 HD 
HETATM   30  C   UNL     1     -11.204  11.966  69.112  1.00  0.00    -0.255 A  
HETATM   31  C   UNL     1     -10.973  14.337  68.313  1.00  0.00    -0.261 C  
HETATM   32  O   UNL     1     -10.312  11.675  68.096  1.00  0.00    -0.182 OA 
ENDBRANCH  16  17
ENDBRANCH  15  16
ENDBRANCH  13  15
ENDBRANCH  10  11
ENDBRANCH   9  10
ENDBRANCH   5   6
ENDBRANCH   4   5
TORSDOF 7
ENDMDL
MODEL      280
REMARK 921   NORMALIZED FREE ENERGY PREDICTED BY IDOCK:   -3.39 KCAL/MOL
REMARK 922        TOTAL FREE ENERGY PREDICTED BY IDOCK:   -6.53 KCAL/MOL
REMARK 923 INTER-LIGAND FREE ENERGY PREDICTED BY IDOCK:   -6.46 KCAL/MOL
REMARK 924 INTRA-LIGAND FREE ENERGY PREDICTED BY IDOCK:   -0.07 KCAL/MOL
REMARK 927      BINDING AFFINITY PREDICTED BY RF-SCORE:    0.00 PKD
ROOT
HETATM    1  C   UNL     1      -5.789   3.639  66.982  1.00  0.00    -0.023 C  
HETATM    2  C   UNL     1      -5.871   3.200  68.442  1.00  0.00    -0.023 C  
HETATM    3  C   UNL     1      -5.274   4.286  69.342  1.00  0.00    -0.007 C  
HETATM    4  C   UNL     1      -7.330   2.859  68.803  1.00  0.00    -0.048 C  
ENDROOT
BRANCH   4   5
HETATM    5  C   UNL     1      -7.469   2.404  70.253  1.00  0.00    -0.043 C  
BRANCH   5   6
HETATM    6  C   UNL     1      -8.756   2.897  70.910  1.00  0.00    -0.128 C  
HETATM    7  C   UNL     1      -8.578   4.293  71.541  1.00  0.00    -0.129 C  
HETATM    8  C   UNL     1      -8.165   5.346  70.502  1.00  0.00    -0.110 C  
HETATM    9  C   UNL     1      -9.874   4.694  72.271  1.00  0.00    -0.222 C  
BRANCH   9  10
HETATM   10  C   UNL     1      -9.755   6.071  72.919  1.00  0.00    -0.162 C  
BRANCH  10  11
HETATM   11  C   UNL     1     -10.125   7.194  71.962  1.00  0.00    -0.194 C  
HETATM   12  C   UNL     1     -11.361   6.834  71.112  1.00  0.00    -0.342 C  
HETATM   13  C   UNL     1     -11.651   7.921  70.066  1.00  0.00     0.143 C  
HETATM   14  C   UNL     1     -12.615   6.622  71.968  1.00  0.00    -0.251 C  
BRANCH  13  15
HETATM   15  C   UNL     1     -10.500   8.220  69.106  1.00  0.00    -0.217 C  
BRANCH  15  16
HETATM   16  C   UNL     1     -10.854   9.185  67.959  1.00  0.00    -0.135 C  
BRANCH  16  17
HETATM   17  C   UNL     1     -10.709  10.686  68.340  1.00  0.00    -0.222 C  
HETATM   18  C   UNL     1      -9.263  10.942  68.818  1.00  0.00    -0.187 C  
HETATM   19  C   UNL     1     -11.790  11.042  69.360  1.00  0.00    -0.407 C  
HETATM   20  C   UNL     1     -11.687  12.495  69.757  1.00  0.00    -0.355 C  
HETATM   21  C   UNL     1     -11.426  13.390  68.577  1.00  0.00    -0.345 A  
HETATM   22  C   UNL     1     -11.460  14.788  68.732  1.00  0.00    -0.324 A  
HETATM   23  C   UNL     1     -11.717  15.420  70.077  1.00  0.00    -0.349 C  
HETATM   24  C   UNL     1     -11.236  15.593  67.602  1.00  0.00    -0.274 A  
HETATM   25  C   UNL     1     -10.953  15.046  66.334  1.00  0.00    -0.336 A  
HETATM   26  O   UNL     1     -11.273  16.961  67.693  1.00  0.00    -0.150 OA 
HETATM   27  C   UNL     1     -10.718  15.955  65.155  1.00  0.00    -0.449 C  
HETATM   28  C   UNL     1     -10.882  13.641  66.193  1.00  0.00    -0.279 A  
HETATM   29  H   UNL     1     -11.121  17.505  66.929  1.00  0.00     0.000 HD 
HETATM   30  C   UNL     1     -11.099  12.826  67.325  1.00  0.00    -0.276 A  
HETATM   31  C   UNL     1     -10.558  12.979  64.876  1.00  0.00    -0.355 C  
HETATM   32  O   UNL     1     -10.941  11.464  67.140  1.00  0.00    -0.255 OA 
ENDBRANCH  16  17
ENDBRANCH  15  16
ENDBRANCH  13  15
ENDBRANCH  10  11
ENDBRANCH   9  10
ENDBRANCH   5   6
ENDBRANCH   4   5
TORSDOF 7
ENDMDL
MODEL      281
REMARK 921   NORMALIZED FREE ENERGY PREDICTED BY IDOCK:   -3.37 KCAL/MOL
REMARK 922        TOTAL FREE ENERGY PREDICTED BY IDOCK:   -6.50 KCAL/MOL
REMARK 923 INTER-LIGAND FREE ENERGY PREDICTED BY IDOCK:   -5.37 KCAL/MOL
REMARK 924 INTRA-LIGAND FREE ENERGY PREDICTED BY IDOCK:   -1.13 KCAL/MOL
REMARK 927      BINDING AFFINITY PREDICTED BY RF-SCORE:    0.00 PKD
ROOT
HETATM    1  C   UNL     1     -11.377  19.662  67.884  1.00  0.00     0.590 C  
HETATM    2  C   UNL     1     -10.063  19.559  67.113  1.00  0.00    -0.515 C  
HETATM    3  C   UNL     1     -10.324  19.749  65.616  1.00  0.00    -0.421 C  
HETATM    4  C   UNL     1      -9.047  20.573  67.677  1.00  0.00    -0.346 C  
ENDROOT
BRANCH   4   5
HETATM    5  C   UNL     1      -7.708  20.506  66.948  1.00  0.00    -0.323 C  
BRANCH   5   6
HETATM    6  C   UNL     1      -6.695  19.605  67.650  1.00  0.00    -0.262 C  
HETATM    7  C   UNL     1      -6.735  18.163  67.103  1.00  0.00    -0.205 C  
HETATM    8  C   UNL     1      -6.427  18.110  65.599  1.00  0.00    -0.287 C  
HETATM    9  C   UNL     1      -5.765  17.281  67.912  1.00  0.00    -0.123 C  
BRANCH   9  10
HETATM   10  C   UNL     1      -5.765  15.838  67.414  1.00  0.00    -0.048 C  
BRANCH  10  11
HETATM   11  C   UNL     1      -7.170  15.275  67.271  1.00  0.00    -0.213 C  
HETATM   12  C   UNL     1      -7.493  14.260  68.387  1.00  0.00    -0.122 C  
HETATM   13  C   UNL     1      -8.866  13.608  68.164  1.00  0.00    -0.189 C  
HETATM   14  C   UNL     1      -7.468  14.899  69.781  1.00  0.00    -0.067 C  
BRANCH  13  15
HETATM   15  C   UNL     1      -9.033  12.892  66.824  1.00  0.00    -0.182 C  
BRANCH  15  16
HETATM   16  C   UNL     1      -8.164  11.631  66.657  1.00  0.00    -0.140 C  
BRANCH  16  17
HETATM   17  C   UNL     1      -8.975  10.305  66.697  1.00  0.00    -0.140 C  
HETATM   18  C   UNL     1     -10.234  10.463  65.817  1.00  0.00    -0.305 C  
HETATM   19  C   UNL     1      -9.257   9.945  68.155  1.00  0.00    -0.131 C  
HETATM   20  C   UNL     1     -10.043   8.659  68.241  1.00  0.00    -0.225 C  
HETATM   21  C   UNL     1      -9.537   7.617  67.281  1.00  0.00    -0.201 A  
HETATM   22  C   UNL     1     -10.042   6.305  67.334  1.00  0.00    -0.191 A  
HETATM   23  C   UNL     1     -11.120   5.921  68.316  1.00  0.00    -0.139 C  
HETATM   24  C   UNL     1      -9.528   5.352  66.438  1.00  0.00    -0.154 A  
HETATM   25  C   UNL     1      -8.549   5.676  65.477  1.00  0.00    -0.151 A  
HETATM   26  O   UNL     1      -9.973   4.056  66.456  1.00  0.00    -0.337 OA 
HETATM   27  C   UNL     1      -8.033   4.617  64.537  1.00  0.00    -0.094 C  
HETATM   28  C   UNL     1      -8.073   7.006  65.403  1.00  0.00    -0.133 A  
HETATM   29  H   UNL     1      -9.625   3.412  65.850  1.00  0.00     0.000 HD 
HETATM   30  C   UNL     1      -8.590   7.970  66.296  1.00  0.00    -0.143 A  
HETATM   31  C   UNL     1      -7.046   7.438  64.386  1.00  0.00    -0.062 C  
HETATM   32  O   UNL     1      -8.142   9.267  66.124  1.00  0.00    -0.108 OA 
ENDBRANCH  16  17
ENDBRANCH  15  16
ENDBRANCH  13  15
ENDBRANCH  10  11
ENDBRANCH   9  10
ENDBRANCH   5   6
ENDBRANCH   4   5
TORSDOF 7
ENDMDL
MODEL      282
REMARK 921   NORMALIZED FREE ENERGY PREDICTED BY IDOCK:   -3.36 KCAL/MOL
REMARK 922        TOTAL FREE ENERGY PREDICTED BY IDOCK:   -6.49 KCAL/MOL
REMARK 923 INTER-LIGAND FREE ENERGY PREDICTED BY IDOCK:   -4.92 KCAL/MOL
REMARK 924 INTRA-LIGAND FREE ENERGY PREDICTED BY IDOCK:   -1.57 KCAL/MOL
REMARK 927      BINDING AFFINITY PREDICTED BY RF-SCORE:    0.00 PKD
ROOT
HETATM    1  C   UNL     1      -7.069   2.917  63.559  1.00  0.00    -0.044 C  
HETATM    2  C   UNL     1      -7.383   2.912  65.053  1.00  0.00    -0.067 C  
HETATM    3  C   UNL     1      -6.163   2.415  65.836  1.00  0.00    -0.024 C  
HETATM    4  C   UNL     1      -7.846   4.314  65.494  1.00  0.00    -0.090 C  
ENDROOT
BRANCH   4   5
HETATM    5  C   UNL     1      -8.183   4.363  66.981  1.00  0.00    -0.101 C  
BRANCH   5   6
HETATM    6  C   UNL     1      -7.175   5.173  67.793  1.00  0.00    -0.067 C  
HETATM    7  C   UNL     1      -7.257   4.846  69.298  1.00  0.00    -0.056 C  
HETATM    8  C   UNL     1      -6.980   3.362  69.580  1.00  0.00    -0.041 C  
HETATM    9  C   UNL     1      -6.289   5.760  70.074  1.00  0.00    -0.031 C  
BRANCH   9  10
HETATM   10  C   UNL     1      -6.329   5.481  71.574  1.00  0.00    -0.039 C  
BRANCH  10  11
HETATM   11  C   UNL     1      -7.610   5.983  72.222  1.00  0.00    -0.100 C  
HETATM   12  C   UNL     1      -8.043   5.085  73.399  1.00  0.00    -0.107 C  
HETATM   13  C   UNL     1      -9.399   5.529  73.966  1.00  0.00    -0.134 C  
HETATM   14  C   UNL     1      -7.011   5.072  74.534  1.00  0.00    -0.077 C  
BRANCH  13  15
HETATM   15  C   UNL     1     -10.547   5.554  72.957  1.00  0.00    -0.274 C  
BRANCH  15  16
HETATM   16  C   UNL     1     -11.406   6.832  72.993  1.00  0.00    -0.116 C  
BRANCH  16  17
HETATM   17  C   UNL     1     -11.524   7.542  71.615  1.00  0.00    -0.261 C  
HETATM   18  C   UNL     1     -12.823   7.075  70.922  1.00  0.00    -0.172 C  
HETATM   19  C   UNL     1     -10.247   7.283  70.817  1.00  0.00    -0.204 C  
HETATM   20  C   UNL     1     -10.318   7.958  69.468  1.00  0.00    -0.217 C  
HETATM   21  C   UNL     1     -10.896   9.344  69.556  1.00  0.00    -0.231 A  
HETATM   22  C   UNL     1     -10.888  10.183  68.426  1.00  0.00    -0.284 A  
HETATM   23  C   UNL     1     -10.344   9.708  67.102  1.00  0.00    -0.319 C  
HETATM   24  C   UNL     1     -11.415  11.480  68.551  1.00  0.00    -0.292 A  
HETATM   25  C   UNL     1     -11.969  11.953  69.759  1.00  0.00    -0.377 A  
HETATM   26  O   UNL     1     -11.419  12.345  67.487  1.00  0.00    -0.302 OA 
HETATM   27  C   UNL     1     -12.523  13.352  69.839  1.00  0.00    -0.155 C  
HETATM   28  C   UNL     1     -12.008  11.092  70.880  1.00  0.00    -0.391 A  
HETATM   29  H   UNL     1     -11.775  13.222  67.573  1.00  0.00     0.000 HD 
HETATM   30  C   UNL     1     -11.488   9.785  70.759  1.00  0.00    -0.342 A  
HETATM   31  C   UNL     1     -12.609  11.513  72.198  1.00  0.00     0.322 C  
HETATM   32  O   UNL     1     -11.623   8.966  71.865  1.00  0.00    -0.331 OA 
ENDBRANCH  16  17
ENDBRANCH  15  16
ENDBRANCH  13  15
ENDBRANCH  10  11
ENDBRANCH   9  10
ENDBRANCH   5   6
ENDBRANCH   4   5
TORSDOF 7
ENDMDL
MODEL      283
REMARK 921   NORMALIZED FREE ENERGY PREDICTED BY IDOCK:   -3.36 KCAL/MOL
REMARK 922        TOTAL FREE ENERGY PREDICTED BY IDOCK:   -6.49 KCAL/MOL
REMARK 923 INTER-LIGAND FREE ENERGY PREDICTED BY IDOCK:   -6.42 KCAL/MOL
REMARK 924 INTRA-LIGAND FREE ENERGY PREDICTED BY IDOCK:   -0.07 KCAL/MOL
REMARK 927      BINDING AFFINITY PREDICTED BY RF-SCORE:    0.00 PKD
ROOT
HETATM    1  C   UNL     1     -10.194  17.747  66.137  1.00  0.00    -0.339 C  
HETATM    2  C   UNL     1     -10.259  16.380  66.816  1.00  0.00    -0.285 C  
HETATM    3  C   UNL     1      -8.844  15.815  66.977  1.00  0.00    -0.241 C  
HETATM    4  C   UNL     1     -11.011  16.500  68.156  1.00  0.00    -0.336 C  
ENDROOT
BRANCH   4   5
HETATM    5  C   UNL     1     -11.115  15.158  68.875  1.00  0.00    -0.276 C  
BRANCH   5   6
HETATM    6  C   UNL     1     -11.410  13.998  67.927  1.00  0.00    -0.317 C  
HETATM    7  C   UNL     1     -11.262  12.632  68.631  1.00  0.00    -0.323 C  
HETATM    8  C   UNL     1     -12.216  12.496  69.827  1.00  0.00    -0.199 C  
HETATM    9  C   UNL     1     -11.475  11.503  67.605  1.00  0.00    -0.357 C  
BRANCH   9  10
HETATM   10  C   UNL     1     -11.339  10.124  68.246  1.00  0.00    -0.183 C  
BRANCH  10  11
HETATM   11  C   UNL     1     -10.159   9.342  67.691  1.00  0.00    -0.262 C  
HETATM   12  C   UNL     1      -9.999   9.555  66.172  1.00  0.00    -0.342 C  
HETATM   13  C   UNL     1      -8.882   8.667  65.602  1.00  0.00    -0.227 C  
HETATM   14  C   UNL     1      -9.701  11.016  65.815  1.00  0.00    -0.268 C  
BRANCH  13  15
HETATM   15  C   UNL     1      -9.059   7.168  65.843  1.00  0.00    -0.054 C  
BRANCH  15  16
HETATM   16  C   UNL     1      -7.806   6.452  66.381  1.00  0.00    -0.104 C  
BRANCH  16  17
HETATM   17  C   UNL     1      -7.726   6.416  67.933  1.00  0.00    -0.104 C  
HETATM   18  C   UNL     1      -7.254   7.796  68.441  1.00  0.00    -0.093 C  
HETATM   19  C   UNL     1      -6.839   5.244  68.353  1.00  0.00    -0.056 C  
HETATM   20  C   UNL     1      -6.736   5.170  69.858  1.00  0.00    -0.040 C  
HETATM   21  C   UNL     1      -8.060   5.406  70.532  1.00  0.00    -0.106 A  
HETATM   22  C   UNL     1      -8.187   5.215  71.920  1.00  0.00    -0.117 A  
HETATM   23  C   UNL     1      -7.006   4.813  72.766  1.00  0.00    -0.076 C  
HETATM   24  C   UNL     1      -9.446   5.421  72.511  1.00  0.00    -0.145 A  
HETATM   25  C   UNL     1     -10.568   5.836  71.765  1.00  0.00    -0.293 A  
HETATM   26  O   UNL     1      -9.631   5.235  73.857  1.00  0.00    -0.135 OA 
HETATM   27  C   UNL     1     -11.894   6.045  72.449  1.00  0.00    -0.283 C  
HETATM   28  C   UNL     1     -10.424   6.063  70.377  1.00  0.00    -0.307 A  
HETATM   29  H   UNL     1     -10.481   5.375  74.256  1.00  0.00     0.000 HD 
HETATM   30  C   UNL     1      -9.161   5.864  69.777  1.00  0.00    -0.138 A  
HETATM   31  C   UNL     1     -11.569   6.532  69.514  1.00  0.00    -0.298 C  
HETATM   32  O   UNL     1      -9.065   6.175  68.433  1.00  0.00    -0.115 OA 
ENDBRANCH  16  17
ENDBRANCH  15  16
ENDBRANCH  13  15
ENDBRANCH  10  11
ENDBRANCH   9  10
ENDBRANCH   5   6
ENDBRANCH   4   5
TORSDOF 7
ENDMDL
MODEL      284
REMARK 921   NORMALIZED FREE ENERGY PREDICTED BY IDOCK:   -3.36 KCAL/MOL
REMARK 922        TOTAL FREE ENERGY PREDICTED BY IDOCK:   -6.48 KCAL/MOL
REMARK 923 INTER-LIGAND FREE ENERGY PREDICTED BY IDOCK:   -6.33 KCAL/MOL
REMARK 924 INTRA-LIGAND FREE ENERGY PREDICTED BY IDOCK:   -0.15 KCAL/MOL
REMARK 927      BINDING AFFINITY PREDICTED BY RF-SCORE:    0.00 PKD
ROOT
HETATM    1  C   UNL     1     -12.718   7.299  71.385  1.00  0.00    -0.427 C  
HETATM    2  C   UNL     1     -11.600   6.341  71.790  1.00  0.00    -0.358 C  
HETATM    3  C   UNL     1     -12.128   5.333  72.815  1.00  0.00     0.027 C  
HETATM    4  C   UNL     1     -11.010   5.667  70.536  1.00  0.00    -0.267 C  
ENDROOT
BRANCH   4   5
HETATM    5  C   UNL     1      -9.879   4.704  70.883  1.00  0.00    -0.272 C  
BRANCH   5   6
HETATM    6  C   UNL     1      -9.243   4.066  69.650  1.00  0.00    -0.217 C  
HETATM    7  C   UNL     1      -8.396   5.080  68.853  1.00  0.00    -0.083 C  
HETATM    8  C   UNL     1      -7.258   5.670  69.698  1.00  0.00    -0.065 C  
HETATM    9  C   UNL     1      -7.863   4.407  67.574  1.00  0.00    -0.085 C  
BRANCH   9  10
HETATM   10  C   UNL     1      -7.017   5.367  66.741  1.00  0.00    -0.065 C  
BRANCH  10  11
HETATM   11  C   UNL     1      -7.597   6.772  66.712  1.00  0.00    -0.090 C  
HETATM   12  C   UNL     1      -8.676   6.921  65.621  1.00  0.00    -0.086 C  
HETATM   13  C   UNL     1      -9.167   8.373  65.519  1.00  0.00    -0.057 C  
HETATM   14  C   UNL     1      -9.882   6.006  65.865  1.00  0.00     0.150 C  
BRANCH  13  15
HETATM   15  C   UNL     1      -8.078   9.407  65.236  1.00  0.00    -0.124 C  
BRANCH  15  16
HETATM   16  C   UNL     1      -7.765  10.350  66.413  1.00  0.00    -0.125 C  
BRANCH  16  17
HETATM   17  C   UNL     1      -8.946  11.288  66.790  1.00  0.00    -0.171 C  
HETATM   18  C   UNL     1     -10.090  11.086  65.772  1.00  0.00    -0.305 C  
HETATM   19  C   UNL     1      -8.425  12.722  66.887  1.00  0.00    -0.106 C  
HETATM   20  C   UNL     1      -9.542  13.669  67.254  1.00  0.00    -0.238 C  
HETATM   21  C   UNL     1     -10.435  13.107  68.326  1.00  0.00    -0.258 A  
HETATM   22  C   UNL     1     -11.431  13.913  68.909  1.00  0.00    -0.340 A  
HETATM   23  C   UNL     1     -11.653  15.333  68.451  1.00  0.00    -0.365 C  
HETATM   24  C   UNL     1     -12.230  13.362  69.924  1.00  0.00    -0.271 A  
HETATM   25  C   UNL     1     -12.083  12.027  70.355  1.00  0.00    -0.407 A  
HETATM   26  O   UNL     1     -13.205  14.107  70.537  1.00  0.00    -0.329 OA 
HETATM   27  C   UNL     1     -12.968  11.484  71.447  1.00  0.00    -0.450 C  
HETATM   28  C   UNL     1     -11.107  11.211  69.740  1.00  0.00    -0.271 A  
HETATM   29  H   UNL     1     -13.745  13.734  71.223  1.00  0.00     0.000 HD 
HETATM   30  C   UNL     1     -10.305  11.756  68.713  1.00  0.00    -0.179 A  
HETATM   31  C   UNL     1     -10.905   9.766  70.126  1.00  0.00    -0.340 C  
HETATM   32  O   UNL     1      -9.421  10.887  68.099  1.00  0.00    -0.155 OA 
ENDBRANCH  16  17
ENDBRANCH  15  16
ENDBRANCH  13  15
ENDBRANCH  10  11
ENDBRANCH   9  10
ENDBRANCH   5   6
ENDBRANCH   4   5
TORSDOF 7
ENDMDL
MODEL      285
REMARK 921   NORMALIZED FREE ENERGY PREDICTED BY IDOCK:   -3.35 KCAL/MOL
REMARK 922        TOTAL FREE ENERGY PREDICTED BY IDOCK:   -6.48 KCAL/MOL
REMARK 923 INTER-LIGAND FREE ENERGY PREDICTED BY IDOCK:   -3.98 KCAL/MOL
REMARK 924 INTRA-LIGAND FREE ENERGY PREDICTED BY IDOCK:   -2.50 KCAL/MOL
REMARK 927      BINDING AFFINITY PREDICTED BY RF-SCORE:    0.00 PKD
ROOT
HETATM    1  C   UNL     1     -10.617  15.941  66.823  1.00  0.00    -0.309 C  
HETATM    2  C   UNL     1     -11.442  15.154  65.807  1.00  0.00    -0.172 C  
HETATM    3  C   UNL     1     -10.947  15.461  64.390  1.00  0.00    -0.053 C  
HETATM    4  C   UNL     1     -11.391  13.651  66.146  1.00  0.00    -0.324 C  
ENDROOT
BRANCH   4   5
HETATM    5  C   UNL     1     -12.209  12.816  65.166  1.00  0.00    -0.530 C  
BRANCH   5   6
HETATM    6  C   UNL     1     -11.672  11.397  65.001  1.00  0.00     0.188 C  
HETATM    7  C   UNL     1     -10.449  11.353  64.062  1.00  0.00    -0.435 C  
HETATM    8  C   UNL     1      -9.293  12.221  64.582  1.00  0.00     0.365 C  
HETATM    9  C   UNL     1     -10.013   9.890  63.857  1.00  0.00     0.434 C  
BRANCH   9  10
HETATM   10  C   UNL     1      -8.803   9.785  62.931  1.00  0.00    -0.255 C  
BRANCH  10  11
HETATM   11  C   UNL     1      -7.517   9.503  63.691  1.00  0.00    -0.115 C  
HETATM   12  C   UNL     1      -7.198   7.994  63.731  1.00  0.00    -0.092 C  
HETATM   13  C   UNL     1      -5.966   7.709  64.603  1.00  0.00    -0.038 C  
HETATM   14  C   UNL     1      -6.962   7.410  62.333  1.00  0.00    -0.071 C  
BRANCH  13  15
HETATM   15  C   UNL     1      -6.067   8.199  66.047  1.00  0.00    -0.041 C  
BRANCH  15  16
HETATM   16  C   UNL     1      -7.104   7.453  66.908  1.00  0.00    -0.083 C  
BRANCH  16  17
HETATM   17  C   UNL     1      -7.986   8.394  67.775  1.00  0.00    -0.111 C  
HETATM   18  C   UNL     1      -7.639   8.175  69.264  1.00  0.00    -0.095 C  
HETATM   19  C   UNL     1      -9.454   8.156  67.422  1.00  0.00    -0.191 C  
HETATM   20  C   UNL     1     -10.350   9.054  68.241  1.00  0.00    -0.252 C  
HETATM   21  C   UNL     1      -9.808  10.453  68.350  1.00  0.00    -0.173 A  
HETATM   22  C   UNL     1     -10.587  11.466  68.938  1.00  0.00    -0.234 A  
HETATM   23  C   UNL     1     -11.953  11.173  69.506  1.00  0.00    -0.425 C  
HETATM   24  C   UNL     1     -10.057  12.767  69.001  1.00  0.00     0.187 A  
HETATM   25  C   UNL     1      -8.769  13.077  68.519  1.00  0.00    -0.042 A  
HETATM   26  O   UNL     1     -10.778  13.795  69.549  1.00  0.00    -0.444 OA 
HETATM   27  C   UNL     1      -8.248  14.488  68.612  1.00  0.00    -0.152 C  
HETATM   28  C   UNL     1      -7.976  12.046  67.963  1.00  0.00    -0.149 A  
HETATM   29  H   UNL     1     -10.420  14.674  69.591  1.00  0.00     0.000 HD 
HETATM   30  C   UNL     1      -8.499  10.736  67.904  1.00  0.00    -0.122 A  
HETATM   31  C   UNL     1      -6.579  12.292  67.450  1.00  0.00    -0.154 C  
HETATM   32  O   UNL     1      -7.649   9.758  67.420  1.00  0.00    -0.091 OA 
ENDBRANCH  16  17
ENDBRANCH  15  16
ENDBRANCH  13  15
ENDBRANCH  10  11
ENDBRANCH   9  10
ENDBRANCH   5   6
ENDBRANCH   4   5
TORSDOF 7
ENDMDL
MODEL      286
REMARK 921   NORMALIZED FREE ENERGY PREDICTED BY IDOCK:   -3.35 KCAL/MOL
REMARK 922        TOTAL FREE ENERGY PREDICTED BY IDOCK:   -6.47 KCAL/MOL
REMARK 923 INTER-LIGAND FREE ENERGY PREDICTED BY IDOCK:   -4.73 KCAL/MOL
REMARK 924 INTRA-LIGAND FREE ENERGY PREDICTED BY IDOCK:   -1.74 KCAL/MOL
REMARK 927      BINDING AFFINITY PREDICTED BY RF-SCORE:    0.00 PKD
ROOT
HETATM    1  C   UNL     1     -11.432   7.470  72.170  1.00  0.00    -0.334 C  
HETATM    2  C   UNL     1     -10.492   6.288  72.396  1.00  0.00    -0.223 C  
HETATM    3  C   UNL     1     -11.179   5.243  73.280  1.00  0.00    -0.359 C  
HETATM    4  C   UNL     1     -10.036   5.718  71.038  1.00  0.00    -0.260 C  
ENDROOT
BRANCH   4   5
HETATM    5  C   UNL     1      -9.084   4.537  71.206  1.00  0.00    -0.178 C  
BRANCH   5   6
HETATM    6  C   UNL     1      -9.482   3.329  70.363  1.00  0.00    -0.235 C  
HETATM    7  C   UNL     1      -8.824   3.362  68.967  1.00  0.00    -0.161 C  
HETATM    8  C   UNL     1      -7.291   3.370  69.055  1.00  0.00    -0.049 C  
HETATM    9  C   UNL     1      -9.338   2.175  68.131  1.00  0.00    -0.257 C  
BRANCH   9  10
HETATM   10  C   UNL     1      -8.720   2.157  66.735  1.00  0.00    -0.130 C  
BRANCH  10  11
HETATM   11  C   UNL     1      -8.929   3.469  65.994  1.00  0.00    -0.140 C  
HETATM   12  C   UNL     1      -8.021   3.572  64.751  1.00  0.00    -0.089 C  
HETATM   13  C   UNL     1      -8.151   4.948  64.081  1.00  0.00    -0.115 C  
HETATM   14  C   UNL     1      -8.328   2.485  63.714  1.00  0.00    -0.082 C  
BRANCH  13  15
HETATM   15  C   UNL     1      -7.836   6.140  64.984  1.00  0.00    -0.110 C  
BRANCH  15  16
HETATM   16  C   UNL     1      -8.277   7.505  64.423  1.00  0.00    -0.018 C  
BRANCH  16  17
HETATM   17  C   UNL     1      -8.224   8.655  65.468  1.00  0.00    -0.135 C  
HETATM   18  C   UNL     1      -9.667   9.064  65.836  1.00  0.00    -0.306 C  
HETATM   19  C   UNL     1      -7.363   9.788  64.910  1.00  0.00    -0.129 C  
HETATM   20  C   UNL     1      -7.281  10.928  65.896  1.00  0.00    -0.037 C  
HETATM   21  C   UNL     1      -7.088  10.446  67.308  1.00  0.00    -0.088 A  
HETATM   22  C   UNL     1      -6.829  11.370  68.338  1.00  0.00    -0.068 A  
HETATM   23  C   UNL     1      -6.779  12.852  68.065  1.00  0.00    -0.109 C  
HETATM   24  C   UNL     1      -6.630  10.881  69.641  1.00  0.00    -0.123 A  
HETATM   25  C   UNL     1      -6.707   9.507  69.948  1.00  0.00    -0.063 A  
HETATM   26  O   UNL     1      -6.359  11.734  70.680  1.00  0.00    -0.528 OA 
HETATM   27  C   UNL     1      -6.488   9.036  71.363  1.00  0.00    -0.079 C  
HETATM   28  C   UNL     1      -7.006   8.588  68.916  1.00  0.00    -0.062 A  
HETATM   29  H   UNL     1      -6.224  11.403  71.560  1.00  0.00     0.000 HD 
HETATM   30  C   UNL     1      -7.214   9.072  67.606  1.00  0.00    -0.083 A  
HETATM   31  C   UNL     1      -7.132   7.106  69.168  1.00  0.00    -0.083 C  
HETATM   32  O   UNL     1      -7.577   8.135  66.656  1.00  0.00    -0.090 OA 
ENDBRANCH  16  17
ENDBRANCH  15  16
ENDBRANCH  13  15
ENDBRANCH  10  11
ENDBRANCH   9  10
ENDBRANCH   5   6
ENDBRANCH   4   5
TORSDOF 7
ENDMDL
MODEL      287
REMARK 921   NORMALIZED FREE ENERGY PREDICTED BY IDOCK:   -3.32 KCAL/MOL
REMARK 922        TOTAL FREE ENERGY PREDICTED BY IDOCK:   -6.43 KCAL/MOL
REMARK 923 INTER-LIGAND FREE ENERGY PREDICTED BY IDOCK:   -5.94 KCAL/MOL
REMARK 924 INTRA-LIGAND FREE ENERGY PREDICTED BY IDOCK:   -0.48 KCAL/MOL
REMARK 927      BINDING AFFINITY PREDICTED BY RF-SCORE:    0.00 PKD
ROOT
HETATM    1  C   UNL     1     -10.292  15.345  65.067  1.00  0.00    -0.362 C  
HETATM    2  C   UNL     1     -11.379  15.004  66.085  1.00  0.00    -0.270 C  
HETATM    3  C   UNL     1     -12.356  13.993  65.479  1.00  0.00    -0.503 C  
HETATM    4  C   UNL     1     -10.731  14.502  67.391  1.00  0.00    -0.282 C  
ENDROOT
BRANCH   4   5
HETATM    5  C   UNL     1     -11.773  14.156  68.450  1.00  0.00    -0.380 C  
BRANCH   5   6
HETATM    6  C   UNL     1     -12.151  12.677  68.450  1.00  0.00    -0.135 C  
HETATM    7  C   UNL     1     -11.775  11.991  69.780  1.00  0.00    -0.390 C  
HETATM    8  C   UNL     1     -12.479  12.640  70.981  1.00  0.00    -0.354 C  
HETATM    9  C   UNL     1     -12.088  10.485  69.685  1.00  0.00    -0.241 C  
BRANCH   9  10
HETATM   10  C   UNL     1     -11.734   9.752  70.977  1.00  0.00    -0.453 C  
BRANCH  10  11
HETATM   11  C   UNL     1     -11.362   8.298  70.732  1.00  0.00    -0.285 C  
HETATM   12  C   UNL     1     -10.354   7.784  71.781  1.00  0.00    -0.243 C  
HETATM   13  C   UNL     1      -9.892   6.356  71.454  1.00  0.00    -0.195 C  
HETATM   14  C   UNL     1     -10.928   7.806  73.202  1.00  0.00    -0.372 C  
BRANCH  13  15
HETATM   15  C   UNL     1      -9.256   6.180  70.075  1.00  0.00    -0.158 C  
BRANCH  15  16
HETATM   16  C   UNL     1     -10.202   5.616  68.998  1.00  0.00    -0.291 C  
BRANCH  16  17
HETATM   17  C   UNL     1      -9.553   5.516  67.589  1.00  0.00    -0.123 C  
HETATM   18  C   UNL     1      -8.669   6.761  67.357  1.00  0.00    -0.119 C  
HETATM   19  C   UNL     1     -10.657   5.317  66.551  1.00  0.00    -0.348 C  
HETATM   20  C   UNL     1     -10.070   5.212  65.165  1.00  0.00     0.319 C  
HETATM   21  C   UNL     1      -8.830   4.360  65.135  1.00  0.00    -0.138 A  
HETATM   22  C   UNL     1      -8.240   4.018  63.904  1.00  0.00    -0.092 A  
HETATM   23  C   UNL     1      -8.803   4.523  62.599  1.00  0.00    -0.125 C  
HETATM   24  C   UNL     1      -7.097   3.200  63.913  1.00  0.00    -0.049 A  
HETATM   25  C   UNL     1      -6.513   2.739  65.111  1.00  0.00    -0.034 A  
HETATM   26  O   UNL     1      -6.490   2.824  62.743  1.00  0.00    -0.017 OA 
HETATM   27  C   UNL     1      -5.286   1.866  65.065  1.00  0.00    -0.005 C  
HETATM   28  C   UNL     1      -7.089   3.117  66.346  1.00  0.00    -0.058 A  
HETATM   29  H   UNL     1      -5.717   2.271  62.750  1.00  0.00     0.000 HD 
HETATM   30  C   UNL     1      -8.233   3.944  66.344  1.00  0.00    -0.104 A  
HETATM   31  C   UNL     1      -6.509   2.686  67.670  1.00  0.00    -0.036 C  
HETATM   32  O   UNL     1      -8.705   4.342  67.582  1.00  0.00    -0.102 OA 
ENDBRANCH  16  17
ENDBRANCH  15  16
ENDBRANCH  13  15
ENDBRANCH  10  11
ENDBRANCH   9  10
ENDBRANCH   5   6
ENDBRANCH   4   5
TORSDOF 7
ENDMDL
MODEL      288
REMARK 921   NORMALIZED FREE ENERGY PREDICTED BY IDOCK:   -3.31 KCAL/MOL
REMARK 922        TOTAL FREE ENERGY PREDICTED BY IDOCK:   -6.43 KCAL/MOL
REMARK 923 INTER-LIGAND FREE ENERGY PREDICTED BY IDOCK:   -5.27 KCAL/MOL
REMARK 924 INTRA-LIGAND FREE ENERGY PREDICTED BY IDOCK:   -1.16 KCAL/MOL
REMARK 927      BINDING AFFINITY PREDICTED BY RF-SCORE:    0.00 PKD
ROOT
HETATM    1  C   UNL     1      -7.980  20.576  66.286  1.00  0.00    -0.036 C  
HETATM    2  C   UNL     1      -8.667  19.630  67.269  1.00  0.00    -0.367 C  
HETATM    3  C   UNL     1     -10.127  20.051  67.457  1.00  0.00    -0.565 C  
HETATM    4  C   UNL     1      -8.521  18.175  66.779  1.00  0.00    -0.273 C  
ENDROOT
BRANCH   4   5
HETATM    5  C   UNL     1      -9.182  17.183  67.732  1.00  0.00    -0.241 C  
BRANCH   5   6
HETATM    6  C   UNL     1      -9.449  15.827  67.085  1.00  0.00    -0.222 C  
HETATM    7  C   UNL     1      -8.563  14.719  67.691  1.00  0.00    -0.180 C  
HETATM    8  C   UNL     1      -8.798  14.557  69.201  1.00  0.00     0.037 C  
HETATM    9  C   UNL     1      -8.806  13.399  66.935  1.00  0.00    -0.185 C  
BRANCH   9  10
HETATM   10  C   UNL     1      -7.951  12.263  67.493  1.00  0.00    -0.166 C  
BRANCH  10  11
HETATM   11  C   UNL     1      -8.638  11.531  68.635  1.00  0.00    -0.109 C  
HETATM   12  C   UNL     1      -7.799  10.336  69.133  1.00  0.00    -0.127 C  
HETATM   13  C   UNL     1      -8.556   9.532  70.201  1.00  0.00    -0.250 C  
HETATM   14  C   UNL     1      -6.446  10.772  69.707  1.00  0.00    -0.118 C  
BRANCH  13  15
HETATM   15  C   UNL     1      -9.917   8.991  69.762  1.00  0.00    -0.204 C  
BRANCH  15  16
HETATM   16  C   UNL     1     -10.017   7.455  69.729  1.00  0.00    -0.188 C  
BRANCH  16  17
HETATM   17  C   UNL     1      -9.615   6.834  68.362  1.00  0.00    -0.125 C  
HETATM   18  C   UNL     1     -10.795   5.991  67.829  1.00  0.00    -0.380 C  
HETATM   19  C   UNL     1      -8.309   6.060  68.537  1.00  0.00    -0.113 C  
HETATM   20  C   UNL     1      -7.879   5.440  67.230  1.00  0.00    -0.101 C  
HETATM   21  C   UNL     1      -8.061   6.379  66.068  1.00  0.00    -0.120 A  
HETATM   22  C   UNL     1      -7.564   6.032  64.798  1.00  0.00    -0.090 A  
HETATM   23  C   UNL     1      -6.880   4.709  64.560  1.00  0.00    -0.045 C  
HETATM   24  C   UNL     1      -7.730   6.944  63.742  1.00  0.00    -0.118 A  
HETATM   25  C   UNL     1      -8.399   8.174  63.909  1.00  0.00     0.002 A  
HETATM   26  O   UNL     1      -7.253   6.664  62.487  1.00  0.00    -0.046 OA 
HETATM   27  C   UNL     1      -8.552   9.115  62.743  1.00  0.00    -0.209 C  
HETATM   28  C   UNL     1      -8.929   8.500  65.179  1.00  0.00    -0.059 A  
HETATM   29  H   UNL     1      -7.366   7.281  61.773  1.00  0.00     0.000 HD 
HETATM   30  C   UNL     1      -8.772   7.585  66.243  1.00  0.00    -0.149 A  
HETATM   31  C   UNL     1      -9.680   9.784  65.433  1.00  0.00    -0.383 C  
HETATM   32  O   UNL     1      -9.377   7.926  67.440  1.00  0.00    -0.137 OA 
ENDBRANCH  16  17
ENDBRANCH  15  16
ENDBRANCH  13  15
ENDBRANCH  10  11
ENDBRANCH   9  10
ENDBRANCH   5   6
ENDBRANCH   4   5
TORSDOF 7
ENDMDL
MODEL      289
REMARK 921   NORMALIZED FREE ENERGY PREDICTED BY IDOCK:   -3.30 KCAL/MOL
REMARK 922        TOTAL FREE ENERGY PREDICTED BY IDOCK:   -6.41 KCAL/MOL
REMARK 923 INTER-LIGAND FREE ENERGY PREDICTED BY IDOCK:   -5.45 KCAL/MOL
REMARK 924 INTRA-LIGAND FREE ENERGY PREDICTED BY IDOCK:   -0.96 KCAL/MOL
REMARK 927      BINDING AFFINITY PREDICTED BY RF-SCORE:    0.00 PKD
ROOT
HETATM    1  C   UNL     1      -9.938   1.750  62.419  1.00  0.00    -0.087 C  
HETATM    2  C   UNL     1      -9.539   3.056  63.102  1.00  0.00    -0.094 C  
HETATM    3  C   UNL     1     -10.769   3.694  63.755  1.00  0.00    -0.271 C  
HETATM    4  C   UNL     1      -8.397   2.794  64.103  1.00  0.00    -0.083 C  
ENDROOT
BRANCH   4   5
HETATM    5  C   UNL     1      -7.951   4.071  64.809  1.00  0.00    -0.089 C  
BRANCH   5   6
HETATM    6  C   UNL     1      -7.469   3.824  66.236  1.00  0.00    -0.080 C  
HETATM    7  C   UNL     1      -8.291   4.627  67.265  1.00  0.00    -0.105 C  
HETATM    8  C   UNL     1      -9.782   4.263  67.220  1.00  0.00    -0.216 C  
HETATM    9  C   UNL     1      -7.698   4.414  68.671  1.00  0.00    -0.071 C  
BRANCH   9  10
HETATM   10  C   UNL     1      -8.473   5.189  69.734  1.00  0.00    -0.097 C  
BRANCH  10  11
HETATM   11  C   UNL     1      -8.774   6.616  69.305  1.00  0.00    -0.131 C  
HETATM   12  C   UNL     1     -10.052   7.156  69.979  1.00  0.00    -0.194 C  
HETATM   13  C   UNL     1     -10.414   8.551  69.446  1.00  0.00    -0.223 C  
HETATM   14  C   UNL     1      -9.921   7.228  71.505  1.00  0.00    -0.191 C  
BRANCH  13  15
HETATM   15  C   UNL     1     -10.618   8.633  67.933  1.00  0.00    -0.223 C  
BRANCH  15  16
HETATM   16  C   UNL     1      -9.352   8.988  67.132  1.00  0.00    -0.184 C  
BRANCH  16  17
HETATM   17  C   UNL     1      -9.098  10.517  67.013  1.00  0.00    -0.143 C  
HETATM   18  C   UNL     1      -9.449  10.972  65.579  1.00  0.00    -0.250 C  
HETATM   19  C   UNL     1      -7.660  10.811  67.441  1.00  0.00    -0.099 C  
HETATM   20  C   UNL     1      -7.370  12.290  67.343  1.00  0.00    -0.151 C  
HETATM   21  C   UNL     1      -8.507  13.129  67.858  1.00  0.00    -0.181 A  
HETATM   22  C   UNL     1      -8.350  14.521  67.994  1.00  0.00    -0.153 A  
HETATM   23  C   UNL     1      -7.068  15.206  67.595  1.00  0.00    -0.210 C  
HETATM   24  C   UNL     1      -9.426  15.269  68.502  1.00  0.00    -0.200 A  
HETATM   25  C   UNL     1     -10.657  14.675  68.850  1.00  0.00    -0.253 A  
HETATM   26  O   UNL     1      -9.323  16.626  68.670  1.00  0.00    -0.230 OA 
HETATM   27  C   UNL     1     -11.779  15.524  69.388  1.00  0.00    -0.382 C  
HETATM   28  C   UNL     1     -10.821  13.282  68.674  1.00  0.00    -0.285 A  
HETATM   29  H   UNL     1     -10.051  17.131  69.013  1.00  0.00     0.000 HD 
HETATM   30  C   UNL     1      -9.747  12.524  68.158  1.00  0.00    -0.222 A  
HETATM   31  C   UNL     1     -12.114  12.576  68.998  1.00  0.00    -0.181 C  
HETATM   32  O   UNL     1      -9.993  11.181  67.938  1.00  0.00    -0.168 OA 
ENDBRANCH  16  17
ENDBRANCH  15  16
ENDBRANCH  13  15
ENDBRANCH  10  11
ENDBRANCH   9  10
ENDBRANCH   5   6
ENDBRANCH   4   5
TORSDOF 7
ENDMDL
MODEL      290
REMARK 921   NORMALIZED FREE ENERGY PREDICTED BY IDOCK:   -3.29 KCAL/MOL
REMARK 922        TOTAL FREE ENERGY PREDICTED BY IDOCK:   -6.39 KCAL/MOL
REMARK 923 INTER-LIGAND FREE ENERGY PREDICTED BY IDOCK:   -4.22 KCAL/MOL
REMARK 924 INTRA-LIGAND FREE ENERGY PREDICTED BY IDOCK:   -2.17 KCAL/MOL
REMARK 927      BINDING AFFINITY PREDICTED BY RF-SCORE:    0.00 PKD
ROOT
HETATM    1  C   UNL     1     -10.761   7.702  73.035  1.00  0.00    -0.449 C  
HETATM    2  C   UNL     1     -11.026   8.007  71.562  1.00  0.00    -0.279 C  
HETATM    3  C   UNL     1     -12.404   7.472  71.163  1.00  0.00    -0.321 C  
HETATM    4  C   UNL     1     -10.875   9.520  71.309  1.00  0.00    -0.413 C  
ENDROOT
BRANCH   4   5
HETATM    5  C   UNL     1     -11.119   9.882  69.847  1.00  0.00    -0.318 C  
BRANCH   5   6
HETATM    6  C   UNL     1      -9.892  10.488  69.172  1.00  0.00    -0.233 C  
HETATM    7  C   UNL     1      -9.800  10.088  67.684  1.00  0.00    -0.194 C  
HETATM    8  C   UNL     1     -11.030  10.548  66.888  1.00  0.00    -0.199 C  
HETATM    9  C   UNL     1      -8.495  10.646  67.084  1.00  0.00    -0.128 C  
BRANCH   9  10
HETATM   10  C   UNL     1      -8.350  10.279  65.609  1.00  0.00    -0.159 C  
BRANCH  10  11
HETATM   11  C   UNL     1      -7.861   8.852  65.414  1.00  0.00    -0.102 C  
HETATM   12  C   UNL     1      -7.953   8.415  63.938  1.00  0.00    -0.158 C  
HETATM   13  C   UNL     1      -7.573   6.935  63.773  1.00  0.00    -0.105 C  
HETATM   14  C   UNL     1      -7.061   9.261  63.022  1.00  0.00    -0.091 C  
BRANCH  13  15
HETATM   15  C   UNL     1      -8.406   5.956  64.598  1.00  0.00    -0.086 C  
BRANCH  15  16
HETATM   16  C   UNL     1      -7.798   4.547  64.732  1.00  0.00    -0.086 C  
BRANCH  16  17
HETATM   17  C   UNL     1      -7.105   4.295  66.101  1.00  0.00    -0.067 C  
HETATM   18  C   UNL     1      -5.614   4.682  65.985  1.00  0.00    -0.017 C  
HETATM   19  C   UNL     1      -7.357   2.847  66.521  1.00  0.00    -0.070 C  
HETATM   20  C   UNL     1      -6.702   2.559  67.850  1.00  0.00    -0.040 C  
HETATM   21  C   UNL     1      -6.889   3.683  68.832  1.00  0.00    -0.046 A  
HETATM   22  C   UNL     1      -6.487   3.522  70.172  1.00  0.00    -0.032 A  
HETATM   23  C   UNL     1      -5.830   2.249  70.643  1.00  0.00    -0.017 C  
HETATM   24  C   UNL     1      -6.699   4.585  71.067  1.00  0.00    -0.031 A  
HETATM   25  C   UNL     1      -7.273   5.806  70.660  1.00  0.00    -0.082 A  
HETATM   26  O   UNL     1      -6.341   4.477  72.386  1.00  0.00    -0.020 OA 
HETATM   27  C   UNL     1      -7.477   6.915  71.660  1.00  0.00    -0.085 C  
HETATM   28  C   UNL     1      -7.640   5.975  69.305  1.00  0.00    -0.094 A  
HETATM   29  H   UNL     1      -6.484   5.195  72.990  1.00  0.00     0.000 HD 
HETATM   30  C   UNL     1      -7.423   4.915  68.398  1.00  0.00    -0.074 A  
HETATM   31  C   UNL     1      -8.235   7.261  68.786  1.00  0.00    -0.129 C  
HETATM   32  O   UNL     1      -7.732   5.167  67.074  1.00  0.00    -0.091 OA 
ENDBRANCH  16  17
ENDBRANCH  15  16
ENDBRANCH  13  15
ENDBRANCH  10  11
ENDBRANCH   9  10
ENDBRANCH   5   6
ENDBRANCH   4   5
TORSDOF 7
ENDMDL
MODEL      291
REMARK 921   NORMALIZED FREE ENERGY PREDICTED BY IDOCK:   -3.26 KCAL/MOL
REMARK 922        TOTAL FREE ENERGY PREDICTED BY IDOCK:   -6.35 KCAL/MOL
REMARK 923 INTER-LIGAND FREE ENERGY PREDICTED BY IDOCK:   -5.30 KCAL/MOL
REMARK 924 INTRA-LIGAND FREE ENERGY PREDICTED BY IDOCK:   -1.04 KCAL/MOL
REMARK 927      BINDING AFFINITY PREDICTED BY RF-SCORE:    0.00 PKD
ROOT
HETATM    1  C   UNL     1     -11.735   9.601  71.178  1.00  0.00    -0.450 C  
HETATM    2  C   UNL     1     -11.385   8.677  72.342  1.00  0.00    -0.353 C  
HETATM    3  C   UNL     1     -12.212   7.391  72.248  1.00  0.00    -0.206 C  
HETATM    4  C   UNL     1      -9.866   8.412  72.359  1.00  0.00    -0.378 C  
ENDROOT
BRANCH   4   5
HETATM    5  C   UNL     1      -9.458   7.499  73.512  1.00  0.00    -0.326 C  
BRANCH   5   6
HETATM    6  C   UNL     1      -9.139   6.077  73.058  1.00  0.00    -0.130 C  
HETATM    7  C   UNL     1      -8.270   6.064  71.783  1.00  0.00    -0.118 C  
HETATM    8  C   UNL     1      -6.931   6.787  71.992  1.00  0.00    -0.074 C  
HETATM    9  C   UNL     1      -8.063   4.610  71.320  1.00  0.00    -0.096 C  
BRANCH   9  10
HETATM   10  C   UNL     1      -7.209   4.535  70.056  1.00  0.00    -0.050 C  
BRANCH  10  11
HETATM   11  C   UNL     1      -7.634   3.400  69.138  1.00  0.00    -0.051 C  
HETATM   12  C   UNL     1      -6.417   2.684  68.517  1.00  0.00    -0.029 C  
HETATM   13  C   UNL     1      -6.857   1.622  67.499  1.00  0.00    -0.035 C  
HETATM   14  C   UNL     1      -5.529   2.019  69.576  1.00  0.00    -0.013 C  
BRANCH  13  15
HETATM   15  C   UNL     1      -7.723   2.143  66.352  1.00  0.00    -0.071 C  
BRANCH  15  16
HETATM   16  C   UNL     1      -8.959   2.948  66.793  1.00  0.00    -0.174 C  
BRANCH  16  17
HETATM   17  C   UNL     1      -9.092   4.324  66.083  1.00  0.00    -0.133 C  
HETATM   18  C   UNL     1     -10.230   4.241  65.042  1.00  0.00    -0.213 C  
HETATM   19  C   UNL     1      -7.731   4.716  65.509  1.00  0.00    -0.090 C  
HETATM   20  C   UNL     1      -7.815   6.052  64.810  1.00  0.00    -0.111 C  
HETATM   21  C   UNL     1      -8.633   7.049  65.584  1.00  0.00    -0.121 A  
HETATM   22  C   UNL     1      -8.686   8.392  65.167  1.00  0.00    -0.118 A  
HETATM   23  C   UNL     1      -7.965   8.854  63.926  1.00  0.00    -0.154 C  
HETATM   24  C   UNL     1      -9.441   9.300  65.928  1.00  0.00    -0.259 A  
HETATM   25  C   UNL     1     -10.163   8.904  67.073  1.00  0.00    -0.345 A  
HETATM   26  O   UNL     1      -9.515  10.623  65.577  1.00  0.00    -0.189 OA 
HETATM   27  C   UNL     1     -10.959   9.918  67.852  1.00  0.00    -0.281 C  
HETATM   28  C   UNL     1     -10.137   7.545  67.464  1.00  0.00    -0.261 A  
HETATM   29  H   UNL     1     -10.026  11.237  66.092  1.00  0.00     0.000 HD 
HETATM   30  C   UNL     1      -9.386   6.625  66.700  1.00  0.00    -0.163 A  
HETATM   31  C   UNL     1     -10.903   7.037  68.661  1.00  0.00    -0.191 C  
HETATM   32  O   UNL     1      -9.460   5.300  67.089  1.00  0.00    -0.118 OA 
ENDBRANCH  16  17
ENDBRANCH  15  16
ENDBRANCH  13  15
ENDBRANCH  10  11
ENDBRANCH   9  10
ENDBRANCH   5   6
ENDBRANCH   4   5
TORSDOF 7
ENDMDL
MODEL      292
REMARK 921   NORMALIZED FREE ENERGY PREDICTED BY IDOCK:   -3.23 KCAL/MOL
REMARK 922        TOTAL FREE ENERGY PREDICTED BY IDOCK:   -6.31 KCAL/MOL
REMARK 923 INTER-LIGAND FREE ENERGY PREDICTED BY IDOCK:   -5.80 KCAL/MOL
REMARK 924 INTRA-LIGAND FREE ENERGY PREDICTED BY IDOCK:   -0.51 KCAL/MOL
REMARK 927      BINDING AFFINITY PREDICTED BY RF-SCORE:    0.00 PKD
ROOT
HETATM    1  C   UNL     1      -5.980  19.483  64.675  1.00  0.00    -0.307 C  
HETATM    2  C   UNL     1      -6.689  18.767  65.823  1.00  0.00    -0.306 C  
HETATM    3  C   UNL     1      -5.669  17.978  66.650  1.00  0.00    -0.190 C  
HETATM    4  C   UNL     1      -7.480  19.788  66.665  1.00  0.00    -0.276 C  
ENDROOT
BRANCH   4   5
HETATM    5  C   UNL     1      -8.219  19.124  67.823  1.00  0.00    -0.319 C  
BRANCH   5   6
HETATM    6  C   UNL     1      -9.016  17.896  67.392  1.00  0.00    -0.245 C  
HETATM    7  C   UNL     1      -9.593  17.133  68.603  1.00  0.00    -0.281 C  
HETATM    8  C   UNL     1     -10.531  18.013  69.442  1.00  0.00     0.303 C  
HETATM    9  C   UNL     1     -10.300  15.855  68.113  1.00  0.00    -0.256 C  
BRANCH   9  10
HETATM   10  C   UNL     1     -10.891  15.057  69.273  1.00  0.00    -0.263 C  
BRANCH  10  11
HETATM   11  C   UNL     1     -11.694  13.857  68.799  1.00  0.00    -0.392 C  
HETATM   12  C   UNL     1     -11.663  12.708  69.828  1.00  0.00    -0.354 C  
HETATM   13  C   UNL     1     -12.373  11.458  69.286  1.00  0.00    -0.148 C  
HETATM   14  C   UNL     1     -12.305  13.103  71.163  1.00  0.00    -0.295 C  
BRANCH  13  15
HETATM   15  C   UNL     1     -11.817  10.915  67.970  1.00  0.00    -0.070 C  
BRANCH  15  16
HETATM   16  C   UNL     1     -10.424  11.452  67.591  1.00  0.00    -0.225 C  
BRANCH  16  17
HETATM   17  C   UNL     1      -9.403  10.337  67.230  1.00  0.00    -0.149 C  
HETATM   18  C   UNL     1      -8.190  10.443  68.180  1.00  0.00    -0.116 C  
HETATM   19  C   UNL     1      -9.060  10.445  65.745  1.00  0.00    -0.197 C  
HETATM   20  C   UNL     1      -8.070   9.376  65.350  1.00  0.00    -0.118 C  
HETATM   21  C   UNL     1      -8.398   8.042  65.963  1.00  0.00    -0.126 A  
HETATM   22  C   UNL     1      -7.680   6.894  65.577  1.00  0.00    -0.101 A  
HETATM   23  C   UNL     1      -6.551   6.976  64.582  1.00  0.00    -0.043 C  
HETATM   24  C   UNL     1      -8.031   5.661  66.153  1.00  0.00    -0.106 A  
HETATM   25  C   UNL     1      -9.053   5.545  67.117  1.00  0.00    -0.111 A  
HETATM   26  O   UNL     1      -7.375   4.509  65.804  1.00  0.00    -0.074 OA 
HETATM   27  C   UNL     1      -9.388   4.198  67.705  1.00  0.00    -0.211 C  
HETATM   28  C   UNL     1      -9.745   6.708  67.528  1.00  0.00    -0.149 A  
HETATM   29  H   UNL     1      -7.613   3.675  66.193  1.00  0.00     0.000 HD 
HETATM   30  C   UNL     1      -9.394   7.952  66.959  1.00  0.00    -0.160 A  
HETATM   31  C   UNL     1     -10.833   6.671  68.573  1.00  0.00    -0.319 C  
HETATM   32  O   UNL     1     -10.053   9.062  67.456  1.00  0.00    -0.196 OA 
ENDBRANCH  16  17
ENDBRANCH  15  16
ENDBRANCH  13  15
ENDBRANCH  10  11
ENDBRANCH   9  10
ENDBRANCH   5   6
ENDBRANCH   4   5
TORSDOF 7
ENDMDL
MODEL      293
REMARK 921   NORMALIZED FREE ENERGY PREDICTED BY IDOCK:   -3.21 KCAL/MOL
REMARK 922        TOTAL FREE ENERGY PREDICTED BY IDOCK:   -6.28 KCAL/MOL
REMARK 923 INTER-LIGAND FREE ENERGY PREDICTED BY IDOCK:   -5.06 KCAL/MOL
REMARK 924 INTRA-LIGAND FREE ENERGY PREDICTED BY IDOCK:   -1.23 KCAL/MOL
REMARK 927      BINDING AFFINITY PREDICTED BY RF-SCORE:    0.00 PKD
ROOT
HETATM    1  C   UNL     1     -11.108  19.556  67.659  1.00  0.00    -0.174 C  
HETATM    2  C   UNL     1      -9.775  19.515  66.915  1.00  0.00    -0.457 C  
HETATM    3  C   UNL     1     -10.005  19.788  65.425  1.00  0.00     0.249 C  
HETATM    4  C   UNL     1      -8.787  20.508  67.559  1.00  0.00    -0.352 C  
ENDROOT
BRANCH   4   5
HETATM    5  C   UNL     1      -7.431  20.500  66.860  1.00  0.00    -0.336 C  
BRANCH   5   6
HETATM    6  C   UNL     1      -6.361  19.748  67.646  1.00  0.00    -0.228 C  
HETATM    7  C   UNL     1      -6.289  18.261  67.238  1.00  0.00    -0.190 C  
HETATM    8  C   UNL     1      -5.962  18.090  65.747  1.00  0.00    -0.248 C  
HETATM    9  C   UNL     1      -5.264  17.535  68.130  1.00  0.00    -0.139 C  
BRANCH   9  10
HETATM   10  C   UNL     1      -5.151  16.055  67.771  1.00  0.00    -0.142 C  
BRANCH  10  11
HETATM   11  C   UNL     1      -6.503  15.359  67.756  1.00  0.00    -0.183 C  
HETATM   12  C   UNL     1      -6.611  14.301  68.874  1.00  0.00    -0.096 C  
HETATM   13  C   UNL     1      -7.930  13.521  68.774  1.00  0.00    -0.002 C  
HETATM   14  C   UNL     1      -6.505  14.918  70.274  1.00  0.00    -0.124 C  
BRANCH  13  15
HETATM   15  C   UNL     1      -8.164  12.811  67.440  1.00  0.00    -0.186 C  
BRANCH  15  16
HETATM   16  C   UNL     1      -7.146  11.703  67.114  1.00  0.00    -0.143 C  
BRANCH  16  17
HETATM   17  C   UNL     1      -7.776  10.286  67.019  1.00  0.00    -0.100 C  
HETATM   18  C   UNL     1      -7.068   9.499  65.894  1.00  0.00    -0.096 C  
HETATM   19  C   UNL     1      -9.287  10.429  66.843  1.00  0.00    -0.186 C  
HETATM   20  C   UNL     1      -9.942   9.072  66.749  1.00  0.00    -0.332 C  
HETATM   21  C   UNL     1      -9.378   8.098  67.746  1.00  0.00    -0.149 A  
HETATM   22  C   UNL     1      -9.977   6.835  67.913  1.00  0.00    -0.164 A  
HETATM   23  C   UNL     1     -11.160   6.414  67.078  1.00  0.00    -0.405 C  
HETATM   24  C   UNL     1      -9.438   5.960  68.872  1.00  0.00    -0.126 A  
HETATM   25  C   UNL     1      -8.309   6.297  69.646  1.00  0.00    -0.125 A  
HETATM   26  O   UNL     1      -9.991   4.724  69.087  1.00  0.00    -0.191 OA 
HETATM   27  C   UNL     1      -7.770   5.320  70.660  1.00  0.00    -0.084 C  
HETATM   28  C   UNL     1      -7.689   7.552  69.447  1.00  0.00    -0.111 A  
HETATM   29  H   UNL     1      -9.626   4.133  69.735  1.00  0.00     0.000 HD 
HETATM   30  C   UNL     1      -8.220   8.433  68.480  1.00  0.00    -0.124 A  
HETATM   31  C   UNL     1      -6.462   7.975  70.216  1.00  0.00    -0.037 C  
HETATM   32  O   UNL     1      -7.526   9.612  68.278  1.00  0.00    -0.077 OA 
ENDBRANCH  16  17
ENDBRANCH  15  16
ENDBRANCH  13  15
ENDBRANCH  10  11
ENDBRANCH   9  10
ENDBRANCH   5   6
ENDBRANCH   4   5
TORSDOF 7
ENDMDL
MODEL      294
REMARK 921   NORMALIZED FREE ENERGY PREDICTED BY IDOCK:   -3.21 KCAL/MOL
REMARK 922        TOTAL FREE ENERGY PREDICTED BY IDOCK:   -6.28 KCAL/MOL
REMARK 923 INTER-LIGAND FREE ENERGY PREDICTED BY IDOCK:   -6.48 KCAL/MOL
REMARK 924 INTRA-LIGAND FREE ENERGY PREDICTED BY IDOCK:    0.20 KCAL/MOL
REMARK 927      BINDING AFFINITY PREDICTED BY RF-SCORE:    0.00 PKD
ROOT
HETATM    1  C   UNL     1      -6.883   5.245  65.981  1.00  0.00    -0.061 C  
HETATM    2  C   UNL     1      -6.882   6.529  65.155  1.00  0.00    -0.047 C  
HETATM    3  C   UNL     1      -5.533   7.239  65.306  1.00  0.00    -0.032 C  
HETATM    4  C   UNL     1      -7.228   6.206  63.688  1.00  0.00    -0.061 C  
ENDROOT
BRANCH   4   5
HETATM    5  C   UNL     1      -7.251   7.459  62.818  1.00  0.00    -0.081 C  
BRANCH   5   6
HETATM    6  C   UNL     1      -8.549   8.251  62.951  1.00  0.00     0.072 C  
HETATM    7  C   UNL     1      -8.291   9.698  63.418  1.00  0.00    -0.170 C  
HETATM    8  C   UNL     1      -7.388  10.466  62.441  1.00  0.00    -0.162 C  
HETATM    9  C   UNL     1      -9.638  10.416  63.628  1.00  0.00    -0.364 C  
BRANCH   9  10
HETATM   10  C   UNL     1      -9.444  11.857  64.094  1.00  0.00     0.048 C  
BRANCH  10  11
HETATM   11  C   UNL     1      -9.706  12.022  65.583  1.00  0.00    -0.241 C  
HETATM   12  C   UNL     1     -10.441  10.801  66.172  1.00  0.00    -0.278 C  
HETATM   13  C   UNL     1     -10.807  11.031  67.646  1.00  0.00    -0.306 C  
HETATM   14  C   UNL     1      -9.614   9.514  66.062  1.00  0.00    -0.316 C  
BRANCH  13  15
HETATM   15  C   UNL     1     -11.670  12.264  67.914  1.00  0.00    -0.410 C  
BRANCH  15  16
HETATM   16  C   UNL     1     -11.514  12.863  69.324  1.00  0.00    -0.341 C  
BRANCH  16  17
HETATM   17  C   UNL     1     -11.067  14.352  69.323  1.00  0.00    -0.271 C  
HETATM   18  C   UNL     1     -11.401  14.976  70.696  1.00  0.00    -0.312 C  
HETATM   19  C   UNL     1     -11.710  15.058  68.129  1.00  0.00    -0.335 C  
HETATM   20  C   UNL     1     -11.299  16.510  68.087  1.00  0.00    -0.150 C  
HETATM   21  C   UNL     1      -9.838  16.697  68.389  1.00  0.00    -0.252 A  
HETATM   22  C   UNL     1      -9.244  17.964  68.237  1.00  0.00    -0.283 A  
HETATM   23  C   UNL     1     -10.055  19.162  67.811  1.00  0.00    -0.469 C  
HETATM   24  C   UNL     1      -7.870  18.097  68.505  1.00  0.00    -0.297 A  
HETATM   25  C   UNL     1      -7.083  17.013  68.944  1.00  0.00    -0.233 A  
HETATM   26  O   UNL     1      -7.237  19.304  68.359  1.00  0.00    -0.277 OA 
HETATM   27  C   UNL     1      -5.614  17.209  69.220  1.00  0.00    -0.177 C  
HETATM   28  C   UNL     1      -7.694  15.751  69.132  1.00  0.00    -0.220 A  
HETATM   29  H   UNL     1      -6.309  19.393  68.540  1.00  0.00     0.000 HD 
HETATM   30  C   UNL     1      -9.074  15.612  68.871  1.00  0.00    -0.217 A  
HETATM   31  C   UNL     1      -6.925  14.549  69.623  1.00  0.00    -0.122 C  
HETATM   32  O   UNL     1      -9.629  14.376  69.145  1.00  0.00    -0.112 OA 
ENDBRANCH  16  17
ENDBRANCH  15  16
ENDBRANCH  13  15
ENDBRANCH  10  11
ENDBRANCH   9  10
ENDBRANCH   5   6
ENDBRANCH   4   5
TORSDOF 7
ENDMDL
MODEL      295
REMARK 921   NORMALIZED FREE ENERGY PREDICTED BY IDOCK:   -3.20 KCAL/MOL
REMARK 922        TOTAL FREE ENERGY PREDICTED BY IDOCK:   -6.27 KCAL/MOL
REMARK 923 INTER-LIGAND FREE ENERGY PREDICTED BY IDOCK:   -6.95 KCAL/MOL
REMARK 924 INTRA-LIGAND FREE ENERGY PREDICTED BY IDOCK:    0.68 KCAL/MOL
REMARK 927      BINDING AFFINITY PREDICTED BY RF-SCORE:    0.00 PKD
ROOT
HETATM    1  C   UNL     1      -5.210  13.897  69.285  1.00  0.00    -0.081 C  
HETATM    2  C   UNL     1      -6.109  15.131  69.267  1.00  0.00    -0.109 C  
HETATM    3  C   UNL     1      -5.362  16.325  69.871  1.00  0.00    -0.154 C  
HETATM    4  C   UNL     1      -6.600  15.398  67.830  1.00  0.00    -0.178 C  
ENDROOT
BRANCH   4   5
HETATM    5  C   UNL     1      -7.514  16.617  67.755  1.00  0.00    -0.169 C  
BRANCH   5   6
HETATM    6  C   UNL     1      -8.634  16.585  68.791  1.00  0.00    -0.262 C  
HETATM    7  C   UNL     1      -9.688  15.508  68.461  1.00  0.00    -0.203 C  
HETATM    8  C   UNL     1      -9.076  14.101  68.409  1.00  0.00    -0.191 C  
HETATM    9  C   UNL     1     -10.839  15.588  69.482  1.00  0.00    -0.267 C  
BRANCH   9  10
HETATM   10  C   UNL     1     -11.916  14.543  69.203  1.00  0.00    -0.344 C  
BRANCH  10  11
HETATM   11  C   UNL     1     -11.588  13.195  69.825  1.00  0.00    -0.291 C  
HETATM   12  C   UNL     1     -12.044  12.027  68.927  1.00  0.00    -0.201 C  
HETATM   13  C   UNL     1     -11.820  10.674  69.619  1.00  0.00    -0.358 C  
HETATM   14  C   UNL     1     -11.325  12.017  67.573  1.00  0.00    -0.387 C  
BRANCH  13  15
HETATM   15  C   UNL     1     -12.512  10.515  70.972  1.00  0.00    -0.501 C  
BRANCH  15  16
HETATM   16  C   UNL     1     -13.064   9.104  71.250  1.00  0.00    -0.297 C  
BRANCH  16  17
HETATM   17  C   UNL     1     -11.958   8.025  71.421  1.00  0.00    -0.298 C  
HETATM   18  C   UNL     1     -12.586   6.760  72.046  1.00  0.00    -0.259 C  
HETATM   19  C   UNL     1     -10.804   8.626  72.222  1.00  0.00    -0.392 C  
HETATM   20  C   UNL     1      -9.703   7.610  72.411  1.00  0.00    -0.231 C  
HETATM   21  C   UNL     1      -9.434   6.823  71.157  1.00  0.00    -0.164 A  
HETATM   22  C   UNL     1      -8.335   5.945  71.098  1.00  0.00    -0.124 A  
HETATM   23  C   UNL     1      -7.432   5.742  72.289  1.00  0.00    -0.099 C  
HETATM   24  C   UNL     1      -8.101   5.245  69.903  1.00  0.00    -0.084 A  
HETATM   25  C   UNL     1      -8.943   5.374  68.779  1.00  0.00    -0.127 A  
HETATM   26  O   UNL     1      -7.037   4.389  69.784  1.00  0.00    -0.047 OA 
HETATM   27  C   UNL     1      -8.648   4.598  67.521  1.00  0.00    -0.103 C  
HETATM   28  C   UNL     1     -10.067   6.228  68.858  1.00  0.00    -0.200 A  
HETATM   29  H   UNL     1      -6.879   3.915  68.976  1.00  0.00     0.000 HD 
HETATM   30  C   UNL     1     -10.313   6.930  70.058  1.00  0.00    -0.200 A  
HETATM   31  C   UNL     1     -11.030   6.400  67.709  1.00  0.00    -0.425 C  
HETATM   32  O   UNL     1     -11.468   7.689  70.099  1.00  0.00    -0.199 OA 
ENDBRANCH  16  17
ENDBRANCH  15  16
ENDBRANCH  13  15
ENDBRANCH  10  11
ENDBRANCH   9  10
ENDBRANCH   5   6
ENDBRANCH   4   5
TORSDOF 7
ENDMDL
MODEL      296
REMARK 921   NORMALIZED FREE ENERGY PREDICTED BY IDOCK:   -3.19 KCAL/MOL
REMARK 922        TOTAL FREE ENERGY PREDICTED BY IDOCK:   -6.25 KCAL/MOL
REMARK 923 INTER-LIGAND FREE ENERGY PREDICTED BY IDOCK:   -4.40 KCAL/MOL
REMARK 924 INTRA-LIGAND FREE ENERGY PREDICTED BY IDOCK:   -1.85 KCAL/MOL
REMARK 927      BINDING AFFINITY PREDICTED BY RF-SCORE:    0.00 PKD
ROOT
HETATM    1  C   UNL     1     -11.882   8.919  71.478  1.00  0.00    -0.402 C  
HETATM    2  C   UNL     1     -12.653  10.105  70.902  1.00  0.00    -0.454 C  
HETATM    3  C   UNL     1     -13.410  10.824  72.023  1.00  0.00    -0.403 C  
HETATM    4  C   UNL     1     -11.688  11.035  70.141  1.00  0.00    -0.442 C  
ENDROOT
BRANCH   4   5
HETATM    5  C   UNL     1     -12.409  12.234  69.534  1.00  0.00    -0.009 C  
BRANCH   5   6
HETATM    6  C   UNL     1     -12.049  13.551  70.216  1.00  0.00    -0.425 C  
HETATM    7  C   UNL     1     -11.342  14.523  69.248  1.00  0.00    -0.317 C  
HETATM    8  C   UNL     1     -12.219  14.865  68.035  1.00  0.00     0.040 C  
HETATM    9  C   UNL     1     -10.917  15.790  70.015  1.00  0.00    -0.344 C  
BRANCH   9  10
HETATM   10  C   UNL     1     -10.209  16.790  69.104  1.00  0.00    -0.306 C  
BRANCH  10  11
HETATM   11  C   UNL     1      -8.705  16.571  69.064  1.00  0.00    -0.215 C  
HETATM   12  C   UNL     1      -7.987  17.689  68.281  1.00  0.00    -0.272 C  
HETATM   13  C   UNL     1      -6.486  17.394  68.141  1.00  0.00    -0.168 C  
HETATM   14  C   UNL     1      -8.163  19.065  68.935  1.00  0.00    -0.303 C  
BRANCH  13  15
HETATM   15  C   UNL     1      -6.147  16.066  67.466  1.00  0.00    -0.189 C  
BRANCH  15  16
HETATM   16  C   UNL     1      -5.685  14.955  68.428  1.00  0.00    -0.108 C  
BRANCH  16  17
HETATM   17  C   UNL     1      -6.384  13.588  68.183  1.00  0.00    -0.124 C  
HETATM   18  C   UNL     1      -5.515  12.748  67.221  1.00  0.00     0.031 C  
HETATM   19  C   UNL     1      -7.809  13.845  67.695  1.00  0.00    -0.187 C  
HETATM   20  C   UNL     1      -8.528  12.540  67.446  1.00  0.00    -0.181 C  
HETATM   21  C   UNL     1      -8.261  11.529  68.527  1.00  0.00    -0.148 A  
HETATM   22  C   UNL     1      -8.973  10.315  68.547  1.00  0.00    -0.134 A  
HETATM   23  C   UNL     1      -9.981   9.982  67.476  1.00  0.00    -0.232 C  
HETATM   24  C   UNL     1      -8.715   9.404  69.585  1.00  0.00    -0.167 A  
HETATM   25  C   UNL     1      -7.752   9.656  70.584  1.00  0.00    -0.099 A  
HETATM   26  O   UNL     1      -9.390   8.213  69.663  1.00  0.00    -0.158 OA 
HETATM   27  C   UNL     1      -7.513   8.645  71.675  1.00  0.00    -0.121 C  
HETATM   28  C   UNL     1      -7.013  10.861  70.537  1.00  0.00     0.631 A  
HETATM   29  H   UNL     1      -9.215   7.598  70.365  1.00  0.00     0.000 HD 
HETATM   30  C   UNL     1      -7.262  11.778  69.492  1.00  0.00     0.165 A  
HETATM   31  C   UNL     1      -5.948  11.193  71.553  1.00  0.00     0.755 C  
HETATM   32  O   UNL     1      -6.456  12.901  69.457  1.00  0.00    -0.116 OA 
ENDBRANCH  16  17
ENDBRANCH  15  16
ENDBRANCH  13  15
ENDBRANCH  10  11
ENDBRANCH   9  10
ENDBRANCH   5   6
ENDBRANCH   4   5
TORSDOF 7
ENDMDL
MODEL      297
REMARK 921   NORMALIZED FREE ENERGY PREDICTED BY IDOCK:   -3.19 KCAL/MOL
REMARK 922        TOTAL FREE ENERGY PREDICTED BY IDOCK:   -6.25 KCAL/MOL
REMARK 923 INTER-LIGAND FREE ENERGY PREDICTED BY IDOCK:   -4.93 KCAL/MOL
REMARK 924 INTRA-LIGAND FREE ENERGY PREDICTED BY IDOCK:   -1.32 KCAL/MOL
REMARK 927      BINDING AFFINITY PREDICTED BY RF-SCORE:    0.00 PKD
ROOT
HETATM    1  C   UNL     1      -5.834  15.998  70.099  1.00  0.00    -0.155 C  
HETATM    2  C   UNL     1      -6.534  17.057  69.249  1.00  0.00    -0.231 C  
HETATM    3  C   UNL     1      -5.743  18.367  69.300  1.00  0.00    -0.227 C  
HETATM    4  C   UNL     1      -6.726  16.529  67.813  1.00  0.00    -0.158 C  
ENDROOT
BRANCH   4   5
HETATM    5  C   UNL     1      -7.431  17.545  66.920  1.00  0.00    -0.235 C  
BRANCH   5   6
HETATM    6  C   UNL     1      -8.599  16.943  66.144  1.00  0.00    -0.277 C  
HETATM    7  C   UNL     1      -9.578  16.193  67.071  1.00  0.00    -0.233 C  
HETATM    8  C   UNL     1     -10.173  17.115  68.146  1.00  0.00    -0.332 C  
HETATM    9  C   UNL     1     -10.678  15.527  66.223  1.00  0.00    -0.307 C  
BRANCH   9  10
HETATM   10  C   UNL     1     -11.677  14.766  67.091  1.00  0.00    -0.351 C  
BRANCH  10  11
HETATM   11  C   UNL     1     -11.276  13.314  67.298  1.00  0.00    -0.320 C  
HETATM   12  C   UNL     1     -10.996  13.006  68.783  1.00  0.00    -0.295 C  
HETATM   13  C   UNL     1     -10.475  11.572  68.964  1.00  0.00    -0.175 C  
HETATM   14  C   UNL     1     -12.238  13.196  69.662  1.00  0.00    -0.241 C  
BRANCH  13  15
HETATM   15  C   UNL     1      -9.208  11.239  68.175  1.00  0.00    -0.170 C  
BRANCH  15  16
HETATM   16  C   UNL     1      -8.127  10.495  68.981  1.00  0.00    -0.143 C  
BRANCH  16  17
HETATM   17  C   UNL     1      -7.821   9.068  68.444  1.00  0.00    -0.103 C  
HETATM   18  C   UNL     1      -8.982   8.128  68.836  1.00  0.00    -0.141 C  
HETATM   19  C   UNL     1      -6.448   8.634  68.956  1.00  0.00    -0.048 C  
HETATM   20  C   UNL     1      -6.109   7.250  68.455  1.00  0.00    -0.031 C  
HETATM   21  C   UNL     1      -6.481   7.061  67.009  1.00  0.00    -0.050 A  
HETATM   22  C   UNL     1      -6.092   5.892  66.329  1.00  0.00    -0.029 A  
HETATM   23  C   UNL     1      -5.337   4.792  67.033  1.00  0.00    -0.012 C  
HETATM   24  C   UNL     1      -6.436   5.761  64.973  1.00  0.00    -0.042 A  
HETATM   25  C   UNL     1      -7.176   6.745  64.287  1.00  0.00    -0.070 A  
HETATM   26  O   UNL     1      -6.070   4.650  64.258  1.00  0.00    -0.021 OA 
HETATM   27  C   UNL     1      -7.520   6.554  62.832  1.00  0.00    -0.071 C  
HETATM   28  C   UNL     1      -7.596   7.901  64.986  1.00  0.00    -0.098 A  
HETATM   29  H   UNL     1      -6.303   4.561  63.341  1.00  0.00     0.000 HD 
HETATM   30  C   UNL     1      -7.260   8.036  66.351  1.00  0.00    -0.079 A  
HETATM   31  C   UNL     1      -8.413   8.987  64.330  1.00  0.00    -0.190 C  
HETATM   32  O   UNL     1      -7.764   9.149  66.999  1.00  0.00    -0.097 OA 
ENDBRANCH  16  17
ENDBRANCH  15  16
ENDBRANCH  13  15
ENDBRANCH  10  11
ENDBRANCH   9  10
ENDBRANCH   5   6
ENDBRANCH   4   5
TORSDOF 7
ENDMDL
MODEL      298
REMARK 921   NORMALIZED FREE ENERGY PREDICTED BY IDOCK:   -3.17 KCAL/MOL
REMARK 922        TOTAL FREE ENERGY PREDICTED BY IDOCK:   -6.23 KCAL/MOL
REMARK 923 INTER-LIGAND FREE ENERGY PREDICTED BY IDOCK:   -4.32 KCAL/MOL
REMARK 924 INTRA-LIGAND FREE ENERGY PREDICTED BY IDOCK:   -1.91 KCAL/MOL
REMARK 927      BINDING AFFINITY PREDICTED BY RF-SCORE:    0.00 PKD
ROOT
HETATM    1  C   UNL     1      -7.749  20.396  67.137  1.00  0.00    -0.369 C  
HETATM    2  C   UNL     1      -7.919  19.226  68.104  1.00  0.00    -0.343 C  
HETATM    3  C   UNL     1      -9.329  19.249  68.701  1.00  0.00    -0.446 C  
HETATM    4  C   UNL     1      -7.595  17.903  67.383  1.00  0.00    -0.217 C  
ENDROOT
BRANCH   4   5
HETATM    5  C   UNL     1      -7.739  16.698  68.308  1.00  0.00    -0.183 C  
BRANCH   5   6
HETATM    6  C   UNL     1      -8.008  15.399  67.553  1.00  0.00    -0.192 C  
HETATM    7  C   UNL     1      -7.003  14.294  67.939  1.00  0.00    -0.174 C  
HETATM    8  C   UNL     1      -7.055  13.968  69.439  1.00  0.00    -0.008 C  
HETATM    9  C   UNL     1      -7.262  13.043  67.078  1.00  0.00     0.205 C  
BRANCH   9  10
HETATM   10  C   UNL     1      -6.293  11.913  67.417  1.00  0.00    -0.128 C  
BRANCH  10  11
HETATM   11  C   UNL     1      -6.663  11.202  68.709  1.00  0.00    -0.067 C  
HETATM   12  C   UNL     1      -7.292   9.819  68.438  1.00  0.00    -0.078 C  
HETATM   13  C   UNL     1      -7.773   9.164  69.741  1.00  0.00    -0.082 C  
HETATM   14  C   UNL     1      -6.321   8.865  67.732  1.00  0.00    -0.056 C  
BRANCH  13  15
HETATM   15  C   UNL     1      -8.784   9.982  70.544  1.00  0.00     0.381 C  
BRANCH  15  16
HETATM   16  C   UNL     1     -10.244   9.513  70.407  1.00  0.00    -0.337 C  
BRANCH  16  17
HETATM   17  C   UNL     1     -11.042  10.271  69.309  1.00  0.00    -0.245 C  
HETATM   18  C   UNL     1     -12.549  10.188  69.639  1.00  0.00     0.369 C  
HETATM   19  C   UNL     1     -10.657   9.706  67.942  1.00  0.00    -0.308 C  
HETATM   20  C   UNL     1     -11.409  10.418  66.843  1.00  0.00     0.273 C  
HETATM   21  C   UNL     1     -11.471  11.904  67.066  1.00  0.00    -0.384 A  
HETATM   22  C   UNL     1     -11.990  12.745  66.064  1.00  0.00    -0.491 A  
HETATM   23  C   UNL     1     -12.529  12.183  64.773  1.00  0.00    -0.264 C  
HETATM   24  C   UNL     1     -12.009  14.131  66.297  1.00  0.00    -0.429 A  
HETATM   25  C   UNL     1     -11.553  14.696  67.505  1.00  0.00    -0.396 A  
HETATM   26  O   UNL     1     -12.490  14.998  65.350  1.00  0.00     0.016 OA 
HETATM   27  C   UNL     1     -11.597  16.189  67.705  1.00  0.00     0.149 C  
HETATM   28  C   UNL     1     -11.067  13.842  68.522  1.00  0.00    -0.289 A  
HETATM   29  H   UNL     1     -12.503  15.935  65.508  1.00  0.00     0.000 HD 
HETATM   30  C   UNL     1     -11.051  12.449  68.298  1.00  0.00    -0.243 A  
HETATM   31  C   UNL     1     -10.585  14.367  69.852  1.00  0.00     0.133 C  
HETATM   32  O   UNL     1     -10.637  11.662  69.358  1.00  0.00    -0.112 OA 
ENDBRANCH  16  17
ENDBRANCH  15  16
ENDBRANCH  13  15
ENDBRANCH  10  11
ENDBRANCH   9  10
ENDBRANCH   5   6
ENDBRANCH   4   5
TORSDOF 7
ENDMDL
MODEL      299
REMARK 921   NORMALIZED FREE ENERGY PREDICTED BY IDOCK:   -3.17 KCAL/MOL
REMARK 922        TOTAL FREE ENERGY PREDICTED BY IDOCK:   -6.22 KCAL/MOL
REMARK 923 INTER-LIGAND FREE ENERGY PREDICTED BY IDOCK:   -5.79 KCAL/MOL
REMARK 924 INTRA-LIGAND FREE ENERGY PREDICTED BY IDOCK:   -0.43 KCAL/MOL
REMARK 927      BINDING AFFINITY PREDICTED BY RF-SCORE:    0.00 PKD
ROOT
HETATM    1  C   UNL     1      -6.840   4.939  68.071  1.00  0.00    -0.056 C  
HETATM    2  C   UNL     1      -7.124   6.330  67.507  1.00  0.00    -0.073 C  
HETATM    3  C   UNL     1      -5.820   7.129  67.419  1.00  0.00    -0.025 C  
HETATM    4  C   UNL     1      -7.843   6.205  66.149  1.00  0.00    -0.105 C  
ENDROOT
BRANCH   4   5
HETATM    5  C   UNL     1      -8.161   7.568  65.543  1.00  0.00    -0.135 C  
BRANCH   5   6
HETATM    6  C   UNL     1      -9.454   8.172  66.086  1.00  0.00    -0.217 C  
HETATM    7  C   UNL     1      -9.375   9.710  66.175  1.00  0.00    -0.248 C  
HETATM    8  C   UNL     1      -9.113  10.353  64.805  1.00  0.00    -0.247 C  
HETATM    9  C   UNL     1     -10.666  10.252  66.819  1.00  0.00    -0.216 C  
BRANCH   9  10
HETATM   10  C   UNL     1     -10.642  11.775  66.935  1.00  0.00    -0.270 C  
BRANCH  10  11
HETATM   11  C   UNL     1     -10.867  12.249  68.362  1.00  0.00    -0.257 C  
HETATM   12  C   UNL     1     -11.875  11.351  69.109  1.00  0.00    -0.413 C  
HETATM   13  C   UNL     1     -12.186  11.909  70.506  1.00  0.00    -0.426 C  
HETATM   14  C   UNL     1     -11.376   9.908  69.251  1.00  0.00    -0.116 C  
BRANCH  13  15
HETATM   15  C   UNL     1     -12.734  13.336  70.526  1.00  0.00    -0.169 C  
BRANCH  15  16
HETATM   16  C   UNL     1     -11.807  14.370  71.191  1.00  0.00    -0.316 C  
BRANCH  16  17
HETATM   17  C   UNL     1     -11.294  15.465  70.214  1.00  0.00    -0.311 C  
HETATM   18  C   UNL     1     -11.142  16.794  70.988  1.00  0.00     0.418 C  
HETATM   19  C   UNL     1     -12.235  15.533  69.012  1.00  0.00    -0.147 C  
HETATM   20  C   UNL     1     -11.772  16.585  68.033  1.00  0.00     0.326 C  
HETATM   21  C   UNL     1     -10.281  16.562  67.836  1.00  0.00    -0.273 A  
HETATM   22  C   UNL     1      -9.689  17.362  66.840  1.00  0.00    -0.286 A  
HETATM   23  C   UNL     1     -10.519  18.283  65.982  1.00  0.00    -0.380 C  
HETATM   24  C   UNL     1      -8.296  17.295  66.668  1.00  0.00    -0.257 A  
HETATM   25  C   UNL     1      -7.477  16.478  67.475  1.00  0.00    -0.170 A  
HETATM   26  O   UNL     1      -7.669  18.041  65.704  1.00  0.00    -0.539 OA 
HETATM   27  C   UNL     1      -5.987  16.446  67.250  1.00  0.00    -0.193 C  
HETATM   28  C   UNL     1      -8.073  15.706  68.498  1.00  0.00    -0.147 A  
HETATM   29  H   UNL     1      -6.727  17.996  65.588  1.00  0.00     0.000 HD 
HETATM   30  C   UNL     1      -9.472  15.773  68.682  1.00  0.00    -0.208 A  
HETATM   31  C   UNL     1      -7.264  14.827  69.419  1.00  0.00    -0.168 C  
HETATM   32  O   UNL     1      -9.986  15.054  69.746  1.00  0.00    -0.165 OA 
ENDBRANCH  16  17
ENDBRANCH  15  16
ENDBRANCH  13  15
ENDBRANCH  10  11
ENDBRANCH   9  10
ENDBRANCH   5   6
ENDBRANCH   4   5
TORSDOF 7
ENDMDL
MODEL      300
REMARK 921   NORMALIZED FREE ENERGY PREDICTED BY IDOCK:   -3.17 KCAL/MOL
REMARK 922        TOTAL FREE ENERGY PREDICTED BY IDOCK:   -6.22 KCAL/MOL
REMARK 923 INTER-LIGAND FREE ENERGY PREDICTED BY IDOCK:   -5.31 KCAL/MOL
REMARK 924 INTRA-LIGAND FREE ENERGY PREDICTED BY IDOCK:   -0.91 KCAL/MOL
REMARK 927      BINDING AFFINITY PREDICTED BY RF-SCORE:    0.00 PKD
ROOT
HETATM    1  C   UNL     1      -6.766  10.157  65.549  1.00  0.00    -0.122 C  
HETATM    2  C   UNL     1      -5.959  10.009  66.837  1.00  0.00    -0.055 C  
HETATM    3  C   UNL     1      -5.484  11.386  67.311  1.00  0.00    -0.065 C  
HETATM    4  C   UNL     1      -6.799   9.268  67.896  1.00  0.00    -0.072 C  
ENDROOT
BRANCH   4   5
HETATM    5  C   UNL     1      -6.035   9.083  69.204  1.00  0.00    -0.042 C  
BRANCH   5   6
HETATM    6  C   UNL     1      -6.896   9.346  70.436  1.00  0.00    -0.089 C  
HETATM    7  C   UNL     1      -8.247   8.606  70.359  1.00  0.00    -0.122 C  
HETATM    8  C   UNL     1      -8.065   7.085  70.248  1.00  0.00    -0.119 C  
HETATM    9  C   UNL     1      -9.109   8.986  71.579  1.00  0.00    -0.231 C  
BRANCH   9  10
HETATM   10  C   UNL     1     -10.464   8.282  71.555  1.00  0.00    -0.289 C  
BRANCH  10  11
HETATM   11  C   UNL     1     -11.543   9.129  70.900  1.00  0.00    -0.350 C  
HETATM   12  C   UNL     1     -11.098   9.652  69.519  1.00  0.00    -0.198 C  
HETATM   13  C   UNL     1     -12.145  10.605  68.922  1.00  0.00    -0.014 C  
HETATM   14  C   UNL     1     -10.835   8.517  68.522  1.00  0.00     0.020 C  
BRANCH  13  15
HETATM   15  C   UNL     1     -12.487  11.817  69.788  1.00  0.00    -0.051 C  
BRANCH  15  16
HETATM   16  C   UNL     1     -11.287  12.717  70.137  1.00  0.00     0.180 C  
BRANCH  16  17
HETATM   17  C   UNL     1     -11.178  13.984  69.245  1.00  0.00    -0.261 C  
HETATM   18  C   UNL     1     -11.965  15.134  69.911  1.00  0.00    -0.372 C  
HETATM   19  C   UNL     1     -11.639  13.632  67.831  1.00  0.00    -0.376 C  
HETATM   20  C   UNL     1     -11.547  14.838  66.926  1.00  0.00    -0.337 C  
HETATM   21  C   UNL     1     -10.279  15.617  67.144  1.00  0.00    -0.270 A  
HETATM   22  C   UNL     1      -9.947  16.678  66.281  1.00  0.00    -0.336 A  
HETATM   23  C   UNL     1     -10.861  17.083  65.152  1.00  0.00    -0.059 C  
HETATM   24  C   UNL     1      -8.743  17.368  66.500  1.00  0.00    -0.260 A  
HETATM   25  C   UNL     1      -7.878  17.049  67.567  1.00  0.00    -0.186 A  
HETATM   26  O   UNL     1      -8.362  18.399  65.681  1.00  0.00    -0.388 OA 
HETATM   27  C   UNL     1      -6.598  17.822  67.759  1.00  0.00    -0.193 C  
HETATM   28  C   UNL     1      -8.236  16.007  68.454  1.00  0.00    -0.165 A  
HETATM   29  H   UNL     1      -7.548  18.865  65.830  1.00  0.00     0.000 HD 
HETATM   30  C   UNL     1      -9.448  15.314  68.244  1.00  0.00    -0.205 A  
HETATM   31  C   UNL     1      -7.377  15.623  69.634  1.00  0.00    -0.144 C  
HETATM   32  O   UNL     1      -9.779  14.358  69.187  1.00  0.00    -0.134 OA 
ENDBRANCH  16  17
ENDBRANCH  15  16
ENDBRANCH  13  15
ENDBRANCH  10  11
ENDBRANCH   9  10
ENDBRANCH   5   6
ENDBRANCH   4   5
TORSDOF 7
ENDMDL
MODEL      301
REMARK 921   NORMALIZED FREE ENERGY PREDICTED BY IDOCK:   -3.16 KCAL/MOL
REMARK 922        TOTAL FREE ENERGY PREDICTED BY IDOCK:   -6.20 KCAL/MOL
REMARK 923 INTER-LIGAND FREE ENERGY PREDICTED BY IDOCK:   -5.50 KCAL/MOL
REMARK 924 INTRA-LIGAND FREE ENERGY PREDICTED BY IDOCK:   -0.71 KCAL/MOL
REMARK 927      BINDING AFFINITY PREDICTED BY RF-SCORE:    0.00 PKD
ROOT
HETATM    1  C   UNL     1     -14.065  15.548  72.561  1.00  0.00    -0.595 C  
HETATM    2  C   UNL     1     -12.967  14.743  71.869  1.00  0.00    -0.405 C  
HETATM    3  C   UNL     1     -13.237  13.245  72.041  1.00  0.00    -0.541 C  
HETATM    4  C   UNL     1     -12.862  15.167  70.391  1.00  0.00    -0.346 C  
ENDROOT
BRANCH   4   5
HETATM    5  C   UNL     1     -11.770  14.400  69.652  1.00  0.00    -0.362 C  
BRANCH   5   6
HETATM    6  C   UNL     1     -10.373  14.954  69.916  1.00  0.00    -0.060 C  
HETATM    7  C   UNL     1      -9.397  14.619  68.768  1.00  0.00    -0.191 C  
HETATM    8  C   UNL     1      -9.870  15.195  67.425  1.00  0.00    -0.224 C  
HETATM    9  C   UNL     1      -7.986  15.117  69.134  1.00  0.00    -0.205 C  
BRANCH   9  10
HETATM   10  C   UNL     1      -6.975  14.810  68.031  1.00  0.00    -0.149 C  
BRANCH  10  11
HETATM   11  C   UNL     1      -7.015  13.352  67.601  1.00  0.00    -0.168 C  
HETATM   12  C   UNL     1      -5.654  12.657  67.816  1.00  0.00    -0.122 C  
HETATM   13  C   UNL     1      -5.670  11.223  67.266  1.00  0.00    -0.069 C  
HETATM   14  C   UNL     1      -5.246  12.617  69.294  1.00  0.00    -0.069 C  
BRANCH  13  15
HETATM   15  C   UNL     1      -6.023  11.101  65.784  1.00  0.00     0.037 C  
BRANCH  15  16
HETATM   16  C   UNL     1      -7.510  11.333  65.456  1.00  0.00     0.454 C  
BRANCH  16  17
HETATM   17  C   UNL     1      -8.370  10.039  65.516  1.00  0.00    -0.148 C  
HETATM   18  C   UNL     1      -9.491  10.135  64.458  1.00  0.00    -0.364 C  
HETATM   19  C   UNL     1      -8.862   9.841  66.949  1.00  0.00    -0.150 C  
HETATM   20  C   UNL     1      -9.702   8.591  67.054  1.00  0.00    -0.266 C  
HETATM   21  C   UNL     1      -9.112   7.442  66.283  1.00  0.00    -0.195 A  
HETATM   22  C   UNL     1      -9.671   6.156  66.398  1.00  0.00    -0.152 A  
HETATM   23  C   UNL     1     -10.887   5.905  67.253  1.00  0.00    -0.351 C  
HETATM   24  C   UNL     1      -9.078   5.102  65.682  1.00  0.00    -0.157 A  
HETATM   25  C   UNL     1      -7.964   5.298  64.839  1.00  0.00    -0.105 A  
HETATM   26  O   UNL     1      -9.572   3.826  65.768  1.00  0.00    -0.173 OA 
HETATM   27  C   UNL     1      -7.368   4.134  64.092  1.00  0.00    -0.066 C  
HETATM   28  C   UNL     1      -7.431   6.601  64.699  1.00  0.00    -0.093 A  
HETATM   29  H   UNL     1      -9.170   3.113  65.284  1.00  0.00     0.000 HD 
HETATM   30  C   UNL     1      -8.026   7.666  65.409  1.00  0.00    -0.123 A  
HETATM   31  C   UNL     1      -6.258   6.898  63.797  1.00  0.00    -0.043 C  
HETATM   32  O   UNL     1      -7.508   8.926  65.173  1.00  0.00    -0.093 OA 
ENDBRANCH  16  17
ENDBRANCH  15  16
ENDBRANCH  13  15
ENDBRANCH  10  11
ENDBRANCH   9  10
ENDBRANCH   5   6
ENDBRANCH   4   5
TORSDOF 7
ENDMDL
MODEL      302
REMARK 921   NORMALIZED FREE ENERGY PREDICTED BY IDOCK:   -3.13 KCAL/MOL
REMARK 922        TOTAL FREE ENERGY PREDICTED BY IDOCK:   -6.16 KCAL/MOL
REMARK 923 INTER-LIGAND FREE ENERGY PREDICTED BY IDOCK:   -5.78 KCAL/MOL
REMARK 924 INTRA-LIGAND FREE ENERGY PREDICTED BY IDOCK:   -0.39 KCAL/MOL
REMARK 927      BINDING AFFINITY PREDICTED BY RF-SCORE:    0.00 PKD
ROOT
HETATM    1  C   UNL     1      -9.304  17.220  66.337  1.00  0.00    -0.281 C  
HETATM    2  C   UNL     1     -10.613  16.435  66.299  1.00  0.00    -0.243 C  
HETATM    3  C   UNL     1     -10.837  15.869  64.894  1.00  0.00    -0.420 C  
HETATM    4  C   UNL     1     -10.599  15.343  67.388  1.00  0.00    -0.289 C  
ENDROOT
BRANCH   4   5
HETATM    5  C   UNL     1     -11.892  14.533  67.402  1.00  0.00    -0.416 C  
BRANCH   5   6
HETATM    6  C   UNL     1     -11.681  13.087  67.844  1.00  0.00    -0.402 C  
HETATM    7  C   UNL     1     -11.079  12.225  66.714  1.00  0.00    -0.345 C  
HETATM    8  C   UNL     1      -9.718  12.761  66.246  1.00  0.00    -0.262 C  
HETATM    9  C   UNL     1     -10.982  10.762  67.184  1.00  0.00    -0.324 C  
BRANCH   9  10
HETATM   10  C   UNL     1     -10.391   9.859  66.103  1.00  0.00    -0.223 C  
BRANCH  10  11
HETATM   11  C   UNL     1      -9.244   9.009  66.623  1.00  0.00    -0.211 C  
HETATM   12  C   UNL     1      -9.740   7.907  67.582  1.00  0.00    -0.196 C  
HETATM   13  C   UNL     1      -8.563   7.133  68.195  1.00  0.00    -0.129 C  
HETATM   14  C   UNL     1     -10.681   6.912  66.890  1.00  0.00    -0.386 C  
BRANCH  13  15
HETATM   15  C   UNL     1      -7.552   7.989  68.958  1.00  0.00    -0.098 C  
BRANCH  15  16
HETATM   16  C   UNL     1      -6.273   7.245  69.385  1.00  0.00    -0.031 C  
BRANCH  16  17
HETATM   17  C   UNL     1      -6.515   6.166  70.478  1.00  0.00    -0.043 C  
HETATM   18  C   UNL     1      -5.828   6.616  71.786  1.00  0.00    -0.037 C  
HETATM   19  C   UNL     1      -6.046   4.812  69.945  1.00  0.00    -0.022 C  
HETATM   20  C   UNL     1      -6.265   3.732  70.976  1.00  0.00    -0.018 C  
HETATM   21  C   UNL     1      -7.597   3.862  71.663  1.00  0.00    -0.057 A  
HETATM   22  C   UNL     1      -8.041   2.852  72.537  1.00  0.00    -0.059 A  
HETATM   23  C   UNL     1      -7.187   1.645  72.836  1.00  0.00    -0.024 C  
HETATM   24  C   UNL     1      -9.301   2.996  73.142  1.00  0.00    -0.090 A  
HETATM   25  C   UNL     1     -10.115   4.126  72.923  1.00  0.00    -0.217 A  
HETATM   26  O   UNL     1      -9.789   2.036  73.990  1.00  0.00    -0.085 OA 
HETATM   27  C   UNL     1     -11.457   4.233  73.599  1.00  0.00    -0.206 C  
HETATM   28  C   UNL     1      -9.646   5.156  72.074  1.00  0.00    -0.191 A  
HETATM   29  H   UNL     1     -10.641   2.134  74.399  1.00  0.00     0.000 HD 
HETATM   30  C   UNL     1      -8.378   5.021  71.468  1.00  0.00    -0.119 A  
HETATM   31  C   UNL     1     -10.446   6.408  71.809  1.00  0.00    -0.246 C  
HETATM   32  O   UNL     1      -7.943   6.093  70.710  1.00  0.00    -0.110 OA 
ENDBRANCH  16  17
ENDBRANCH  15  16
ENDBRANCH  13  15
ENDBRANCH  10  11
ENDBRANCH   9  10
ENDBRANCH   5   6
ENDBRANCH   4   5
TORSDOF 7
ENDMDL
MODEL      303
REMARK 921   NORMALIZED FREE ENERGY PREDICTED BY IDOCK:   -3.10 KCAL/MOL
REMARK 922        TOTAL FREE ENERGY PREDICTED BY IDOCK:   -6.13 KCAL/MOL
REMARK 923 INTER-LIGAND FREE ENERGY PREDICTED BY IDOCK:   -6.97 KCAL/MOL
REMARK 924 INTRA-LIGAND FREE ENERGY PREDICTED BY IDOCK:    0.84 KCAL/MOL
REMARK 927      BINDING AFFINITY PREDICTED BY RF-SCORE:    0.00 PKD
ROOT
HETATM    1  C   UNL     1      -5.948   3.679  67.082  1.00  0.00    -0.024 C  
HETATM    2  C   UNL     1      -5.545   3.112  68.442  1.00  0.00    -0.018 C  
HETATM    3  C   UNL     1      -5.132   4.254  69.376  1.00  0.00     0.000 C  
HETATM    4  C   UNL     1      -6.694   2.258  69.012  1.00  0.00    -0.033 C  
ENDROOT
BRANCH   4   5
HETATM    5  C   UNL     1      -6.340   1.657  70.369  1.00  0.00    -0.024 C  
BRANCH   5   6
HETATM    6  C   UNL     1      -7.435   1.861  71.413  1.00  0.00    -0.032 C  
HETATM    7  C   UNL     1      -7.361   3.263  72.054  1.00  0.00    -0.051 C  
HETATM    8  C   UNL     1      -7.513   4.380  71.011  1.00  0.00    -0.051 C  
HETATM    9  C   UNL     1      -8.424   3.374  73.163  1.00  0.00    -0.082 C  
BRANCH   9  10
HETATM   10  C   UNL     1      -8.397   4.745  73.836  1.00  0.00    -0.104 C  
BRANCH  10  11
HETATM   11  C   UNL     1      -9.163   5.793  73.044  1.00  0.00    -0.140 C  
HETATM   12  C   UNL     1     -10.429   5.200  72.391  1.00  0.00    -0.272 C  
HETATM   13  C   UNL     1     -11.128   6.235  71.496  1.00  0.00    -0.333 C  
HETATM   14  C   UNL     1     -11.433   4.683  73.428  1.00  0.00    -0.335 C  
BRANCH  13  15
HETATM   15  C   UNL     1     -10.261   6.817  70.380  1.00  0.00    -0.212 C  
BRANCH  15  16
HETATM   16  C   UNL     1     -10.980   7.830  69.469  1.00  0.00    -0.092 C  
BRANCH  16  17
HETATM   17  C   UNL     1     -11.191   9.221  70.129  1.00  0.00    -0.208 C  
HETATM   18  C   UNL     1      -9.905   9.614  70.889  1.00  0.00    -0.168 C  
HETATM   19  C   UNL     1     -12.451   9.170  70.993  1.00  0.00    -0.238 C  
HETATM   20  C   UNL     1     -12.696  10.506  71.653  1.00  0.00    -0.550 C  
HETATM   21  C   UNL     1     -12.460  11.657  70.714  1.00  0.00    -0.425 A  
HETATM   22  C   UNL     1     -12.795  12.966  71.106  1.00  0.00    -0.326 A  
HETATM   23  C   UNL     1     -13.355  13.253  72.477  1.00  0.00    -0.569 C  
HETATM   24  C   UNL     1     -12.583  14.014  70.193  1.00  0.00    -0.251 A  
HETATM   25  C   UNL     1     -12.024  13.797  68.917  1.00  0.00    -0.394 A  
HETATM   26  O   UNL     1     -12.905  15.306  70.517  1.00  0.00    -0.499 OA 
HETATM   27  C   UNL     1     -11.816  14.956  67.977  1.00  0.00    -0.296 C  
HETATM   28  C   UNL     1     -11.655  12.484  68.543  1.00  0.00    -0.364 A  
HETATM   29  H   UNL     1     -12.761  16.014  69.900  1.00  0.00     0.000 HD 
HETATM   30  C   UNL     1     -11.858  11.427  69.458  1.00  0.00    -0.357 A  
HETATM   31  C   UNL     1     -11.027  12.173  67.207  1.00  0.00    -0.308 C  
HETATM   32  O   UNL     1     -11.407  10.180  69.065  1.00  0.00    -0.211 OA 
ENDBRANCH  16  17
ENDBRANCH  15  16
ENDBRANCH  13  15
ENDBRANCH  10  11
ENDBRANCH   9  10
ENDBRANCH   5   6
ENDBRANCH   4   5
TORSDOF 7
ENDMDL
MODEL      304
REMARK 921   NORMALIZED FREE ENERGY PREDICTED BY IDOCK:   -3.09 KCAL/MOL
REMARK 922        TOTAL FREE ENERGY PREDICTED BY IDOCK:   -6.11 KCAL/MOL
REMARK 923 INTER-LIGAND FREE ENERGY PREDICTED BY IDOCK:   -5.63 KCAL/MOL
REMARK 924 INTRA-LIGAND FREE ENERGY PREDICTED BY IDOCK:   -0.48 KCAL/MOL
REMARK 927      BINDING AFFINITY PREDICTED BY RF-SCORE:    0.00 PKD
ROOT
HETATM    1  C   UNL     1      -7.674  20.494  66.866  1.00  0.00    -0.323 C  
HETATM    2  C   UNL     1      -7.654  19.637  68.129  1.00  0.00    -0.342 C  
HETATM    3  C   UNL     1      -9.080  19.473  68.665  1.00  0.00    -0.396 C  
HETATM    4  C   UNL     1      -6.967  18.289  67.834  1.00  0.00    -0.211 C  
ENDROOT
BRANCH   4   5
HETATM    5  C   UNL     1      -6.910  17.394  69.069  1.00  0.00    -0.244 C  
BRANCH   5   6
HETATM    6  C   UNL     1      -8.019  16.346  69.094  1.00  0.00    -0.204 C  
HETATM    7  C   UNL     1      -7.551  15.003  68.495  1.00  0.00    -0.118 C  
HETATM    8  C   UNL     1      -6.355  14.418  69.261  1.00  0.00    -0.115 C  
HETATM    9  C   UNL     1      -8.737  14.019  68.457  1.00  0.00    -0.156 C  
BRANCH   9  10
HETATM   10  C   UNL     1      -8.331  12.669  67.871  1.00  0.00    -0.172 C  
BRANCH  10  11
HETATM   11  C   UNL     1      -9.130  11.519  68.462  1.00  0.00    -0.157 C  
HETATM   12  C   UNL     1     -10.474  12.000  69.047  1.00  0.00    -0.087 C  
HETATM   13  C   UNL     1     -11.217  10.853  69.749  1.00  0.00    -0.351 C  
HETATM   14  C   UNL     1     -11.393  12.604  67.978  1.00  0.00    -0.337 C  
BRANCH  13  15
HETATM   15  C   UNL     1     -10.440  10.172  70.875  1.00  0.00     0.164 C  
BRANCH  15  16
HETATM   16  C   UNL     1     -11.276   9.214  71.745  1.00  0.00    -0.451 C  
BRANCH  16  17
HETATM   17  C   UNL     1     -10.846   7.726  71.624  1.00  0.00    -0.229 C  
HETATM   18  C   UNL     1     -11.468   7.128  70.343  1.00  0.00    -0.317 C  
HETATM   19  C   UNL     1     -11.222   6.998  72.915  1.00  0.00    -0.273 C  
HETATM   20  C   UNL     1     -10.818   5.545  72.841  1.00  0.00    -0.312 C  
HETATM   21  C   UNL     1      -9.455   5.363  72.231  1.00  0.00    -0.165 A  
HETATM   22  C   UNL     1      -8.848   4.093  72.230  1.00  0.00    -0.124 A  
HETATM   23  C   UNL     1      -9.554   2.888  72.797  1.00  0.00    -0.167 C  
HETATM   24  C   UNL     1      -7.564   3.966  71.672  1.00  0.00    -0.057 A  
HETATM   25  C   UNL     1      -6.883   5.058  71.095  1.00  0.00    -0.043 A  
HETATM   26  O   UNL     1      -6.919   2.756  71.658  1.00  0.00    -0.029 OA 
HETATM   27  C   UNL     1      -5.508   4.866  70.509  1.00  0.00    -0.008 C  
HETATM   28  C   UNL     1      -7.515   6.323  71.066  1.00  0.00    -0.085 A  
HETATM   29  H   UNL     1      -6.051   2.671  71.281  1.00  0.00     0.000 HD 
HETATM   30  C   UNL     1      -8.808   6.457  71.617  1.00  0.00    -0.136 A  
HETATM   31  C   UNL     1      -6.864   7.533  70.443  1.00  0.00    -0.047 C  
HETATM   32  O   UNL     1      -9.403   7.699  71.490  1.00  0.00    -0.136 OA 
ENDBRANCH  16  17
ENDBRANCH  15  16
ENDBRANCH  13  15
ENDBRANCH  10  11
ENDBRANCH   9  10
ENDBRANCH   5   6
ENDBRANCH   4   5
TORSDOF 7
ENDMDL
MODEL      305
REMARK 921   NORMALIZED FREE ENERGY PREDICTED BY IDOCK:   -3.08 KCAL/MOL
REMARK 922        TOTAL FREE ENERGY PREDICTED BY IDOCK:   -6.10 KCAL/MOL
REMARK 923 INTER-LIGAND FREE ENERGY PREDICTED BY IDOCK:   -7.89 KCAL/MOL
REMARK 924 INTRA-LIGAND FREE ENERGY PREDICTED BY IDOCK:    1.79 KCAL/MOL
REMARK 927      BINDING AFFINITY PREDICTED BY RF-SCORE:    0.00 PKD
ROOT
HETATM    1  C   UNL     1      -9.058   5.812  73.815  1.00  0.00    -0.127 C  
HETATM    2  C   UNL     1      -9.778   5.584  72.488  1.00  0.00    -0.173 C  
HETATM    3  C   UNL     1     -10.781   4.435  72.634  1.00  0.00    -0.204 C  
HETATM    4  C   UNL     1     -10.436   6.897  72.019  1.00  0.00    -0.229 C  
ENDROOT
BRANCH   4   5
HETATM    5  C   UNL     1     -11.163   6.729  70.688  1.00  0.00    -0.361 C  
BRANCH   5   6
HETATM    6  C   UNL     1     -10.217   6.424  69.530  1.00  0.00    -0.228 C  
HETATM    7  C   UNL     1      -9.263   7.602  69.245  1.00  0.00    -0.145 C  
HETATM    8  C   UNL     1      -8.393   7.945  70.464  1.00  0.00    -0.124 C  
HETATM    9  C   UNL     1      -8.403   7.277  68.008  1.00  0.00    -0.123 C  
BRANCH   9  10
HETATM   10  C   UNL     1      -7.437   8.412  67.677  1.00  0.00    -0.094 C  
BRANCH  10  11
HETATM   11  C   UNL     1      -8.117   9.551  66.934  1.00  0.00    -0.109 C  
HETATM   12  C   UNL     1      -9.294  10.136  67.741  1.00  0.00    -0.153 C  
HETATM   13  C   UNL     1     -10.048  11.201  66.930  1.00  0.00    -0.250 C  
HETATM   14  C   UNL     1      -8.841  10.753  69.069  1.00  0.00    -0.135 C  
BRANCH  13  15
HETATM   15  C   UNL     1     -10.600  10.723  65.587  1.00  0.00    -0.199 C  
BRANCH  15  16
HETATM   16  C   UNL     1     -11.705  11.615  64.992  1.00  0.00    -0.072 C  
BRANCH  16  17
HETATM   17  C   UNL     1     -11.640  13.092  65.473  1.00  0.00    -0.347 C  
HETATM   18  C   UNL     1     -12.999  13.769  65.192  1.00  0.00    -0.279 C  
HETATM   19  C   UNL     1     -10.441  13.772  64.812  1.00  0.00    -0.448 C  
HETATM   20  C   UNL     1     -10.338  15.212  65.255  1.00  0.00    -0.425 C  
HETATM   21  C   UNL     1     -10.592  15.374  66.728  1.00  0.00    -0.309 A  
HETATM   22  C   UNL     1     -10.380  16.621  67.346  1.00  0.00    -0.292 A  
HETATM   23  C   UNL     1      -9.937  17.823  66.551  1.00  0.00    -0.346 C  
HETATM   24  C   UNL     1     -10.605  16.729  68.730  1.00  0.00    -0.348 A  
HETATM   25  C   UNL     1     -11.058  15.642  69.505  1.00  0.00    -0.298 A  
HETATM   26  O   UNL     1     -10.400  17.915  69.386  1.00  0.00    -0.384 OA 
HETATM   27  C   UNL     1     -11.286  15.812  70.985  1.00  0.00    -0.396 C  
HETATM   28  C   UNL     1     -11.306  14.402  68.870  1.00  0.00    -0.300 A  
HETATM   29  H   UNL     1     -10.552  17.988  70.321  1.00  0.00     0.000 HD 
HETATM   30  C   UNL     1     -11.089  14.288  67.480  1.00  0.00    -0.298 A  
HETATM   31  C   UNL     1     -11.817  13.199  69.624  1.00  0.00    -0.390 C  
HETATM   32  O   UNL     1     -11.421  13.075  66.905  1.00  0.00    -0.305 OA 
ENDBRANCH  16  17
ENDBRANCH  15  16
ENDBRANCH  13  15
ENDBRANCH  10  11
ENDBRANCH   9  10
ENDBRANCH   5   6
ENDBRANCH   4   5
TORSDOF 7
ENDMDL
MODEL      306
REMARK 921   NORMALIZED FREE ENERGY PREDICTED BY IDOCK:   -3.02 KCAL/MOL
REMARK 922        TOTAL FREE ENERGY PREDICTED BY IDOCK:   -6.01 KCAL/MOL
REMARK 923 INTER-LIGAND FREE ENERGY PREDICTED BY IDOCK:   -4.24 KCAL/MOL
REMARK 924 INTRA-LIGAND FREE ENERGY PREDICTED BY IDOCK:   -1.77 KCAL/MOL
REMARK 927      BINDING AFFINITY PREDICTED BY RF-SCORE:    0.00 PKD
ROOT
HETATM    1  C   UNL     1      -7.046   9.452  71.643  1.00  0.00     0.279 C  
HETATM    2  C   UNL     1      -7.760   8.172  71.217  1.00  0.00    -0.095 C  
HETATM    3  C   UNL     1      -7.514   7.072  72.254  1.00  0.00    -0.086 C  
HETATM    4  C   UNL     1      -9.259   8.460  70.995  1.00  0.00    -0.206 C  
ENDROOT
BRANCH   4   5
HETATM    5  C   UNL     1     -10.021   7.213  70.556  1.00  0.00    -0.191 C  
BRANCH   5   6
HETATM    6  C   UNL     1     -10.427   7.252  69.086  1.00  0.00    -0.222 C  
HETATM    7  C   UNL     1      -9.237   6.939  68.155  1.00  0.00    -0.126 C  
HETATM    8  C   UNL     1      -8.646   5.548  68.427  1.00  0.00    -0.099 C  
HETATM    9  C   UNL     1      -9.682   7.089  66.687  1.00  0.00    -0.226 C  
BRANCH   9  10
HETATM   10  C   UNL     1      -8.541   6.791  65.718  1.00  0.00    -0.144 C  
BRANCH  10  11
HETATM   11  C   UNL     1      -8.022   8.045  65.033  1.00  0.00    -0.126 C  
HETATM   12  C   UNL     1      -7.568   9.107  66.056  1.00  0.00    -0.095 C  
HETATM   13  C   UNL     1      -7.162  10.413  65.357  1.00  0.00    -0.121 C  
HETATM   14  C   UNL     1      -6.397   8.621  66.919  1.00  0.00    -0.060 C  
BRANCH  13  15
HETATM   15  C   UNL     1      -8.245  11.045  64.484  1.00  0.00     0.320 C  
BRANCH  15  16
HETATM   16  C   UNL     1      -9.661  11.011  65.090  1.00  0.00    -0.281 C  
BRANCH  16  17
HETATM   17  C   UNL     1     -10.155  12.394  65.599  1.00  0.00    -0.257 C  
HETATM   18  C   UNL     1     -11.556  12.671  65.011  1.00  0.00    -0.384 C  
HETATM   19  C   UNL     1      -9.101  13.448  65.259  1.00  0.00     1.059 C  
HETATM   20  C   UNL     1      -9.541  14.811  65.739  1.00  0.00    -0.289 C  
HETATM   21  C   UNL     1     -10.157  14.761  67.110  1.00  0.00    -0.240 A  
HETATM   22  C   UNL     1     -10.476  15.955  67.783  1.00  0.00    -0.287 A  
HETATM   23  C   UNL     1     -10.249  17.300  67.140  1.00  0.00    -0.319 C  
HETATM   24  C   UNL     1     -11.028  15.869  69.073  1.00  0.00    -0.277 A  
HETATM   25  C   UNL     1     -11.293  14.633  69.696  1.00  0.00    -0.317 A  
HETATM   26  O   UNL     1     -11.343  17.000  69.780  1.00  0.00    -0.188 OA 
HETATM   27  C   UNL     1     -11.888  14.597  71.080  1.00  0.00    -0.378 C  
HETATM   28  C   UNL     1     -11.006  13.436  68.999  1.00  0.00    -0.265 A  
HETATM   29  H   UNL     1     -11.716  16.942  70.652  1.00  0.00     0.000 HD 
HETATM   30  C   UNL     1     -10.458  13.514  67.700  1.00  0.00    -0.238 A  
HETATM   31  C   UNL     1     -11.285  12.075  69.586  1.00  0.00    -0.168 C  
HETATM   32  O   UNL     1     -10.269  12.313  67.041  1.00  0.00    -0.214 OA 
ENDBRANCH  16  17
ENDBRANCH  15  16
ENDBRANCH  13  15
ENDBRANCH  10  11
ENDBRANCH   9  10
ENDBRANCH   5   6
ENDBRANCH   4   5
TORSDOF 7
ENDMDL
MODEL      307
REMARK 921   NORMALIZED FREE ENERGY PREDICTED BY IDOCK:   -3.00 KCAL/MOL
REMARK 922        TOTAL FREE ENERGY PREDICTED BY IDOCK:   -5.98 KCAL/MOL
REMARK 923 INTER-LIGAND FREE ENERGY PREDICTED BY IDOCK:   -5.33 KCAL/MOL
REMARK 924 INTRA-LIGAND FREE ENERGY PREDICTED BY IDOCK:   -0.64 KCAL/MOL
REMARK 927      BINDING AFFINITY PREDICTED BY RF-SCORE:    0.00 PKD
ROOT
HETATM    1  C   UNL     1      -8.577  13.892  67.867  1.00  0.00    -0.180 C  
HETATM    2  C   UNL     1      -7.859  12.691  68.478  1.00  0.00    -0.104 C  
HETATM    3  C   UNL     1      -7.353  11.769  67.365  1.00  0.00    -0.136 C  
HETATM    4  C   UNL     1      -6.732  13.177  69.412  1.00  0.00    -0.022 C  
ENDROOT
BRANCH   4   5
HETATM    5  C   UNL     1      -5.986  12.014  70.060  1.00  0.00    -0.159 C  
BRANCH   5   6
HETATM    6  C   UNL     1      -6.870  10.789  70.277  1.00  0.00     0.024 C  
HETATM    7  C   UNL     1      -6.044   9.552  70.689  1.00  0.00    -0.071 C  
HETATM    8  C   UNL     1      -5.266   9.789  71.991  1.00  0.00    -0.063 C  
HETATM    9  C   UNL     1      -6.974   8.329  70.798  1.00  0.00    -0.043 C  
BRANCH   9  10
HETATM   10  C   UNL     1      -6.208   7.071  71.202  1.00  0.00    -0.037 C  
BRANCH  10  11
HETATM   11  C   UNL     1      -7.044   5.811  71.048  1.00  0.00    -0.068 C  
HETATM   12  C   UNL     1      -6.632   5.003  69.801  1.00  0.00    -0.036 C  
HETATM   13  C   UNL     1      -7.561   3.798  69.587  1.00  0.00    -0.052 C  
HETATM   14  C   UNL     1      -5.184   4.503  69.881  1.00  0.00     0.000 C  
BRANCH  13  15
HETATM   15  C   UNL     1      -9.044   4.141  69.448  1.00  0.00    -0.189 C  
BRANCH  15  16
HETATM   16  C   UNL     1      -9.517   5.318  70.322  1.00  0.00    -0.225 C  
BRANCH  16  17
HETATM   17  C   UNL     1     -10.064   6.521  69.503  1.00  0.00    -0.176 C  
HETATM   18  C   UNL     1     -11.327   6.071  68.736  1.00  0.00    -0.037 C  
HETATM   19  C   UNL     1      -8.943   7.066  68.620  1.00  0.00    -0.130 C  
HETATM   20  C   UNL     1      -9.431   8.241  67.807  1.00  0.00    -0.171 C  
HETATM   21  C   UNL     1     -10.289   9.175  68.616  1.00  0.00    -0.233 A  
HETATM   22  C   UNL     1     -10.699  10.406  68.069  1.00  0.00    -0.292 A  
HETATM   23  C   UNL     1     -10.328  10.799  66.662  1.00  0.00    -0.294 C  
HETATM   24  C   UNL     1     -11.480  11.264  68.863  1.00  0.00    -0.297 A  
HETATM   25  C   UNL     1     -11.884  10.919  70.169  1.00  0.00    -0.438 A  
HETATM   26  O   UNL     1     -11.895  12.481  68.387  1.00  0.00    -0.316 OA 
HETATM   27  C   UNL     1     -12.724  11.875  70.977  1.00  0.00    -0.354 C  
HETATM   28  C   UNL     1     -11.501   9.665  70.698  1.00  0.00    -0.376 A  
HETATM   29  H   UNL     1     -12.423  13.060  68.923  1.00  0.00     0.000 HD 
HETATM   30  C   UNL     1     -10.722   8.795  69.904  1.00  0.00    -0.223 A  
HETATM   31  C   UNL     1     -11.915   9.211  72.076  1.00  0.00    -0.421 C  
HETATM   32  O   UNL     1     -10.444   7.553  70.446  1.00  0.00    -0.215 OA 
ENDBRANCH  16  17
ENDBRANCH  15  16
ENDBRANCH  13  15
ENDBRANCH  10  11
ENDBRANCH   9  10
ENDBRANCH   5   6
ENDBRANCH   4   5
TORSDOF 7
ENDMDL
MODEL      308
REMARK 921   NORMALIZED FREE ENERGY PREDICTED BY IDOCK:   -3.00 KCAL/MOL
REMARK 922        TOTAL FREE ENERGY PREDICTED BY IDOCK:   -5.98 KCAL/MOL
REMARK 923 INTER-LIGAND FREE ENERGY PREDICTED BY IDOCK:   -5.94 KCAL/MOL
REMARK 924 INTRA-LIGAND FREE ENERGY PREDICTED BY IDOCK:   -0.03 KCAL/MOL
REMARK 927      BINDING AFFINITY PREDICTED BY RF-SCORE:    0.00 PKD
ROOT
HETATM    1  C   UNL     1     -12.607   7.416  71.471  1.00  0.00    -0.401 C  
HETATM    2  C   UNL     1     -11.330   6.606  71.255  1.00  0.00    -0.346 C  
HETATM    3  C   UNL     1     -11.352   5.359  72.145  1.00  0.00    -0.149 C  
HETATM    4  C   UNL     1     -11.171   6.271  69.759  1.00  0.00    -0.499 C  
ENDROOT
BRANCH   4   5
HETATM    5  C   UNL     1      -9.902   5.470  69.484  1.00  0.00    -0.253 C  
BRANCH   5   6
HETATM    6  C   UNL     1      -9.723   5.130  68.007  1.00  0.00    -0.188 C  
HETATM    7  C   UNL     1      -8.761   6.112  67.306  1.00  0.00    -0.108 C  
HETATM    8  C   UNL     1      -7.366   6.106  67.948  1.00  0.00    -0.084 C  
HETATM    9  C   UNL     1      -8.696   5.779  65.803  1.00  0.00    -0.152 C  
BRANCH   9  10
HETATM   10  C   UNL     1      -7.757   6.723  65.056  1.00  0.00    -0.108 C  
BRANCH  10  11
HETATM   11  C   UNL     1      -7.489   8.004  65.830  1.00  0.00    -0.081 C  
HETATM   12  C   UNL     1      -7.576   9.248  64.922  1.00  0.00    -0.108 C  
HETATM   13  C   UNL     1      -7.184  10.521  65.687  1.00  0.00    -0.124 C  
HETATM   14  C   UNL     1      -8.976   9.438  64.327  1.00  0.00    -0.204 C  
BRANCH  13  15
HETATM   15  C   UNL     1      -5.788  10.500  66.309  1.00  0.00    -0.092 C  
BRANCH  15  16
HETATM   16  C   UNL     1      -5.771  10.435  67.848  1.00  0.00    -0.040 C  
BRANCH  16  17
HETATM   17  C   UNL     1      -7.076  10.963  68.508  1.00  0.00    -0.076 C  
HETATM   18  C   UNL     1      -6.742  11.499  69.917  1.00  0.00     0.002 C  
HETATM   19  C   UNL     1      -8.126   9.852  68.481  1.00  0.00    -0.101 C  
HETATM   20  C   UNL     1      -9.414  10.324  69.112  1.00  0.00    -0.225 C  
HETATM   21  C   UNL     1      -9.772  11.724  68.695  1.00  0.00    -0.135 A  
HETATM   22  C   UNL     1     -11.019  12.268  69.055  1.00  0.00    -0.250 A  
HETATM   23  C   UNL     1     -12.001  11.488  69.893  1.00  0.00    -0.426 C  
HETATM   24  C   UNL     1     -11.330  13.570  68.627  1.00  0.00    -0.288 A  
HETATM   25  C   UNL     1     -10.426  14.351  67.877  1.00  0.00    -0.239 A  
HETATM   26  O   UNL     1     -12.536  14.145  68.936  1.00  0.00    -0.538 OA 
HETATM   27  C   UNL     1     -10.809  15.743  67.445  1.00  0.00    -0.306 C  
HETATM   28  C   UNL     1      -9.160  13.812  67.551  1.00  0.00    -0.209 A  
HETATM   29  H   UNL     1     -12.746  15.025  68.647  1.00  0.00     0.000 HD 
HETATM   30  C   UNL     1      -8.838  12.507  67.984  1.00  0.00    -0.187 A  
HETATM   31  C   UNL     1      -8.128  14.592  66.775  1.00  0.00     0.088 C  
HETATM   32  O   UNL     1      -7.559  12.064  67.700  1.00  0.00    -0.117 OA 
ENDBRANCH  16  17
ENDBRANCH  15  16
ENDBRANCH  13  15
ENDBRANCH  10  11
ENDBRANCH   9  10
ENDBRANCH   5   6
ENDBRANCH   4   5
TORSDOF 7
ENDMDL
MODEL      309
REMARK 921   NORMALIZED FREE ENERGY PREDICTED BY IDOCK:   -2.98 KCAL/MOL
REMARK 922        TOTAL FREE ENERGY PREDICTED BY IDOCK:   -5.96 KCAL/MOL
REMARK 923 INTER-LIGAND FREE ENERGY PREDICTED BY IDOCK:   -5.87 KCAL/MOL
REMARK 924 INTRA-LIGAND FREE ENERGY PREDICTED BY IDOCK:   -0.09 KCAL/MOL
REMARK 927      BINDING AFFINITY PREDICTED BY RF-SCORE:    0.00 PKD
ROOT
HETATM    1  C   UNL     1      -9.180  19.898  67.925  1.00  0.00    -0.423 C  
HETATM    2  C   UNL     1      -9.465  19.157  66.620  1.00  0.00    -0.387 C  
HETATM    3  C   UNL     1      -8.145  18.743  65.961  1.00  0.00    -0.137 C  
HETATM    4  C   UNL     1     -10.399  17.961  66.893  1.00  0.00    -0.358 C  
ENDROOT
BRANCH   4   5
HETATM    5  C   UNL     1     -10.726  17.189  65.618  1.00  0.00    -0.140 C  
BRANCH   5   6
HETATM    6  C   UNL     1     -10.193  15.759  65.637  1.00  0.00    -0.407 C  
HETATM    7  C   UNL     1      -9.866  15.289  67.070  1.00  0.00    -0.233 C  
HETATM    8  C   UNL     1     -11.101  15.327  67.983  1.00  0.00    -0.312 C  
HETATM    9  C   UNL     1      -9.244  13.881  67.016  1.00  0.00    -0.257 C  
BRANCH   9  10
HETATM   10  C   UNL     1      -8.898  13.363  68.411  1.00  0.00    -0.133 C  
BRANCH  10  11
HETATM   11  C   UNL     1      -7.547  12.667  68.450  1.00  0.00    -0.132 C  
HETATM   12  C   UNL     1      -6.509  13.387  67.564  1.00  0.00    -0.129 C  
HETATM   13  C   UNL     1      -5.186  12.608  67.514  1.00  0.00    -0.091 C  
HETATM   14  C   UNL     1      -6.225  14.816  68.041  1.00  0.00    -0.164 C  
BRANCH  13  15
HETATM   15  C   UNL     1      -5.300  11.167  67.016  1.00  0.00    -0.068 C  
BRANCH  15  16
HETATM   16  C   UNL     1      -6.729  10.725  66.648  1.00  0.00    -0.120 C  
BRANCH  16  17
HETATM   17  C   UNL     1      -7.155   9.384  67.307  1.00  0.00    -0.086 C  
HETATM   18  C   UNL     1      -6.063   8.950  68.309  1.00  0.00    -0.053 C  
HETATM   19  C   UNL     1      -7.448   8.365  66.205  1.00  0.00    -0.089 C  
HETATM   20  C   UNL     1      -7.869   7.044  66.802  1.00  0.00    -0.107 C  
HETATM   21  C   UNL     1      -8.820   7.218  67.955  1.00  0.00    -0.128 A  
HETATM   22  C   UNL     1      -9.443   6.094  68.529  1.00  0.00    -0.121 A  
HETATM   23  C   UNL     1      -9.148   4.699  68.037  1.00  0.00    -0.144 C  
HETATM   24  C   UNL     1     -10.344   6.296  69.589  1.00  0.00    -0.215 A  
HETATM   25  C   UNL     1     -10.619   7.579  70.106  1.00  0.00    -0.241 A  
HETATM   26  O   UNL     1     -10.991   5.239  70.175  1.00  0.00    -0.170 OA 
HETATM   27  C   UNL     1     -11.593   7.740  71.245  1.00  0.00    -0.301 C  
HETATM   28  C   UNL     1      -9.961   8.700  69.550  1.00  0.00    -0.196 A  
HETATM   29  H   UNL     1     -11.600   5.377  70.892  1.00  0.00     0.000 HD 
HETATM   30  C   UNL     1      -9.049   8.503  68.490  1.00  0.00    -0.135 A  
HETATM   31  C   UNL     1     -10.181  10.101  70.065  1.00  0.00    -0.271 C  
HETATM   32  O   UNL     1      -8.381   9.627  68.039  1.00  0.00    -0.116 OA 
ENDBRANCH  16  17
ENDBRANCH  15  16
ENDBRANCH  13  15
ENDBRANCH  10  11
ENDBRANCH   9  10
ENDBRANCH   5   6
ENDBRANCH   4   5
TORSDOF 7
ENDMDL
MODEL      310
REMARK 921   NORMALIZED FREE ENERGY PREDICTED BY IDOCK:   -2.98 KCAL/MOL
REMARK 922        TOTAL FREE ENERGY PREDICTED BY IDOCK:   -5.95 KCAL/MOL
REMARK 923 INTER-LIGAND FREE ENERGY PREDICTED BY IDOCK:   -6.21 KCAL/MOL
REMARK 924 INTRA-LIGAND FREE ENERGY PREDICTED BY IDOCK:    0.26 KCAL/MOL
REMARK 927      BINDING AFFINITY PREDICTED BY RF-SCORE:    0.00 PKD
ROOT
HETATM    1  C   UNL     1     -12.475   1.619  73.454  1.00  0.00    -0.103 C  
HETATM    2  C   UNL     1     -11.123   2.291  73.688  1.00  0.00    -0.302 C  
HETATM    3  C   UNL     1     -10.025   1.511  72.958  1.00  0.00    -0.151 C  
HETATM    4  C   UNL     1     -11.194   3.770  73.257  1.00  0.00    -0.230 C  
ENDROOT
BRANCH   4   5
HETATM    5  C   UNL     1      -9.870   4.493  73.479  1.00  0.00    -0.166 C  
BRANCH   5   6
HETATM    6  C   UNL     1      -9.143   4.814  72.176  1.00  0.00    -0.148 C  
HETATM    7  C   UNL     1     -10.129   5.134  71.034  1.00  0.00    -0.297 C  
HETATM    8  C   UNL     1     -11.021   6.339  71.366  1.00  0.00    -0.327 C  
HETATM    9  C   UNL     1      -9.344   5.352  69.726  1.00  0.00    -0.186 C  
BRANCH   9  10
HETATM   10  C   UNL     1     -10.273   5.672  68.557  1.00  0.00    -0.253 C  
BRANCH  10  11
HETATM   11  C   UNL     1     -10.599   7.154  68.467  1.00  0.00    -0.219 C  
HETATM   12  C   UNL     1      -9.418   7.964  67.895  1.00  0.00    -0.160 C  
HETATM   13  C   UNL     1      -9.713   9.471  67.922  1.00  0.00    -0.171 C  
HETATM   14  C   UNL     1      -9.070   7.553  66.459  1.00  0.00    -0.201 C  
BRANCH  13  15
HETATM   15  C   UNL     1     -10.040  10.042  69.302  1.00  0.00    -0.226 C  
BRANCH  15  16
HETATM   16  C   UNL     1     -11.092  11.168  69.299  1.00  0.00    -0.318 C  
BRANCH  16  17
HETATM   17  C   UNL     1     -10.577  12.499  68.683  1.00  0.00    -0.216 C  
HETATM   18  C   UNL     1      -9.153  12.276  68.129  1.00  0.00    -0.196 C  
HETATM   19  C   UNL     1     -10.685  13.602  69.736  1.00  0.00     0.340 C  
HETATM   20  C   UNL     1     -10.197  14.918  69.178  1.00  0.00    -0.243 C  
HETATM   21  C   UNL     1     -10.677  15.153  67.772  1.00  0.00    -0.279 A  
HETATM   22  C   UNL     1     -10.455  16.397  67.151  1.00  0.00    -0.297 A  
HETATM   23  C   UNL     1      -9.705  17.499  67.854  1.00  0.00    -0.278 C  
HETATM   24  C   UNL     1     -10.940  16.589  65.845  1.00  0.00     0.029 A  
HETATM   25  C   UNL     1     -11.612  15.572  65.136  1.00  0.00    -0.060 A  
HETATM   26  O   UNL     1     -10.765  17.785  65.198  1.00  0.00    -0.638 OA 
HETATM   27  C   UNL     1     -12.109  15.830  63.737  1.00  0.00     0.609 C  
HETATM   28  C   UNL     1     -11.798  14.313  65.752  1.00  0.00    -0.377 A  
HETATM   29  H   UNL     1     -11.093  17.914  64.316  1.00  0.00     0.000 HD 
HETATM   30  C   UNL     1     -11.308  14.110  67.060  1.00  0.00    -0.332 A  
HETATM   31  C   UNL     1     -12.483  13.167  65.050  1.00  0.00    -0.516 C  
HETATM   32  O   UNL     1     -11.452  12.836  67.579  1.00  0.00    -0.294 OA 
ENDBRANCH  16  17
ENDBRANCH  15  16
ENDBRANCH  13  15
ENDBRANCH  10  11
ENDBRANCH   9  10
ENDBRANCH   5   6
ENDBRANCH   4   5
TORSDOF 7
ENDMDL
MODEL      311
REMARK 921   NORMALIZED FREE ENERGY PREDICTED BY IDOCK:   -2.97 KCAL/MOL
REMARK 922        TOTAL FREE ENERGY PREDICTED BY IDOCK:   -5.94 KCAL/MOL
REMARK 923 INTER-LIGAND FREE ENERGY PREDICTED BY IDOCK:   -5.45 KCAL/MOL
REMARK 924 INTRA-LIGAND FREE ENERGY PREDICTED BY IDOCK:   -0.49 KCAL/MOL
REMARK 927      BINDING AFFINITY PREDICTED BY RF-SCORE:    0.00 PKD
ROOT
HETATM    1  C   UNL     1     -11.130   2.062  62.984  1.00  0.00    -0.255 C  
HETATM    2  C   UNL     1     -10.161   3.108  63.532  1.00  0.00    -0.189 C  
HETATM    3  C   UNL     1     -10.903   4.052  64.483  1.00  0.00    -0.142 C  
HETATM    4  C   UNL     1      -8.961   2.408  64.200  1.00  0.00    -0.103 C  
ENDROOT
BRANCH   4   5
HETATM    5  C   UNL     1      -7.954   3.409  64.758  1.00  0.00    -0.089 C  
BRANCH   5   6
HETATM    6  C   UNL     1      -7.778   3.295  66.269  1.00  0.00    -0.078 C  
HETATM    7  C   UNL     1      -7.565   4.674  66.927  1.00  0.00    -0.087 C  
HETATM    8  C   UNL     1      -8.750   5.619  66.677  1.00  0.00    -0.118 C  
HETATM    9  C   UNL     1      -7.297   4.488  68.432  1.00  0.00    -0.065 C  
BRANCH   9  10
HETATM   10  C   UNL     1      -7.077   5.824  69.137  1.00  0.00    -0.065 C  
BRANCH  10  11
HETATM   11  C   UNL     1      -6.527   6.888  68.200  1.00  0.00    -0.050 C  
HETATM   12  C   UNL     1      -6.310   8.231  68.927  1.00  0.00    -0.044 C  
HETATM   13  C   UNL     1      -5.872   9.329  67.946  1.00  0.00    -0.041 C  
HETATM   14  C   UNL     1      -5.271   8.126  70.049  1.00  0.00    -0.023 C  
BRANCH  13  15
HETATM   15  C   UNL     1      -6.833   9.581  66.784  1.00  0.00    -0.080 C  
BRANCH  15  16
HETATM   16  C   UNL     1      -7.112  11.068  66.492  1.00  0.00    -0.136 C  
BRANCH  16  17
HETATM   17  C   UNL     1      -8.090  11.728  67.504  1.00  0.00    -0.152 C  
HETATM   18  C   UNL     1      -7.334  12.002  68.823  1.00  0.00    -0.098 C  
HETATM   19  C   UNL     1      -9.324  10.838  67.650  1.00  0.00    -0.156 C  
HETATM   20  C   UNL     1     -10.304  11.444  68.625  1.00  0.00    -0.219 C  
HETATM   21  C   UNL     1     -10.452  12.929  68.434  1.00  0.00    -0.260 A  
HETATM   22  C   UNL     1     -11.440  13.635  69.144  1.00  0.00    -0.346 A  
HETATM   23  C   UNL     1     -12.341  12.939  70.133  1.00  0.00    -0.249 C  
HETATM   24  C   UNL     1     -11.565  15.018  68.922  1.00  0.00    -0.326 A  
HETATM   25  C   UNL     1     -10.719  15.716  68.037  1.00  0.00    -0.287 A  
HETATM   26  O   UNL     1     -12.521  15.752  69.575  1.00  0.00    -0.531 OA 
HETATM   27  C   UNL     1     -10.894  17.199  67.836  1.00  0.00    -0.294 C  
HETATM   28  C   UNL     1      -9.702  15.007  67.355  1.00  0.00    -0.216 A  
HETATM   29  H   UNL     1     -12.605  16.687  69.424  1.00  0.00     0.000 HD 
HETATM   30  C   UNL     1      -9.566  13.619  67.579  1.00  0.00    -0.220 A  
HETATM   31  C   UNL     1      -8.740  15.686  66.412  1.00  0.00    -0.354 C  
HETATM   32  O   UNL     1      -8.508  12.996  66.943  1.00  0.00    -0.173 OA 
ENDBRANCH  16  17
ENDBRANCH  15  16
ENDBRANCH  13  15
ENDBRANCH  10  11
ENDBRANCH   9  10
ENDBRANCH   5   6
ENDBRANCH   4   5
TORSDOF 7
ENDMDL
MODEL      312
REMARK 921   NORMALIZED FREE ENERGY PREDICTED BY IDOCK:   -2.93 KCAL/MOL
REMARK 922        TOTAL FREE ENERGY PREDICTED BY IDOCK:   -5.89 KCAL/MOL
REMARK 923 INTER-LIGAND FREE ENERGY PREDICTED BY IDOCK:   -6.34 KCAL/MOL
REMARK 924 INTRA-LIGAND FREE ENERGY PREDICTED BY IDOCK:    0.45 KCAL/MOL
REMARK 927      BINDING AFFINITY PREDICTED BY RF-SCORE:    0.00 PKD
ROOT
HETATM    1  C   UNL     1     -10.580  16.244  68.835  1.00  0.00    -0.284 C  
HETATM    2  C   UNL     1      -9.364  15.407  68.445  1.00  0.00    -0.193 C  
HETATM    3  C   UNL     1      -9.029  15.638  66.968  1.00  0.00    -0.244 C  
HETATM    4  C   UNL     1      -8.185  15.732  69.384  1.00  0.00    -0.211 C  
ENDROOT
BRANCH   4   5
HETATM    5  C   UNL     1      -6.942  14.914  69.044  1.00  0.00    -0.120 C  
BRANCH   5   6
HETATM    6  C   UNL     1      -7.270  13.605  68.330  1.00  0.00    -0.109 C  
HETATM    7  C   UNL     1      -6.240  12.503  68.654  1.00  0.00    -0.069 C  
HETATM    8  C   UNL     1      -6.179  12.198  70.159  1.00  0.00    -0.061 C  
HETATM    9  C   UNL     1      -6.566  11.241  67.833  1.00  0.00    -0.059 C  
BRANCH   9  10
HETATM   10  C   UNL     1      -5.575  10.113  68.113  1.00  0.00    -0.038 C  
BRANCH  10  11
HETATM   11  C   UNL     1      -6.257   8.866  68.652  1.00  0.00    -0.046 C  
HETATM   12  C   UNL     1      -6.486   7.818  67.544  1.00  0.00    -0.055 C  
HETATM   13  C   UNL     1      -7.283   6.616  68.073  1.00  0.00    -0.091 C  
HETATM   14  C   UNL     1      -5.172   7.312  66.937  1.00  0.00    -0.022 C  
BRANCH  13  15
HETATM   15  C   UNL     1      -8.645   6.956  68.677  1.00  0.00    -0.123 C  
BRANCH  15  16
HETATM   16  C   UNL     1      -8.949   8.463  68.769  1.00  0.00    -0.140 C  
BRANCH  16  17
HETATM   17  C   UNL     1      -9.565   9.055  67.469  1.00  0.00    -0.144 C  
HETATM   18  C   UNL     1     -10.800   8.217  67.075  1.00  0.00    -0.086 C  
HETATM   19  C   UNL     1      -8.476   9.128  66.398  1.00  0.00    -0.129 C  
HETATM   20  C   UNL     1      -9.031   9.701  65.116  1.00  0.00    -0.249 C  
HETATM   21  C   UNL     1      -9.940  10.874  65.363  1.00  0.00    -0.319 A  
HETATM   22  C   UNL     1     -10.420  11.634  64.280  1.00  0.00    -0.383 A  
HETATM   23  C   UNL     1     -10.072  11.273  62.858  1.00  0.00    -0.243 C  
HETATM   24  C   UNL     1     -11.247  12.737  64.550  1.00  0.00    -0.333 A  
HETATM   25  C   UNL     1     -11.629  13.086  65.862  1.00  0.00    -0.405 A  
HETATM   26  O   UNL     1     -11.730  13.521  63.535  1.00  0.00    -0.680 OA 
HETATM   27  C   UNL     1     -12.521  14.278  66.097  1.00  0.00    -0.362 C  
HETATM   28  C   UNL     1     -11.175  12.295  66.943  1.00  0.00    -0.367 A  
HETATM   29  H   UNL     1     -12.289  14.267  63.718  1.00  0.00     0.000 HD 
HETATM   30  C   UNL     1     -10.350  11.181  66.678  1.00  0.00    -0.241 A  
HETATM   31  C   UNL     1     -11.561  12.588  68.372  1.00  0.00    -0.368 C  
HETATM   32  O   UNL     1     -10.001  10.404  67.768  1.00  0.00    -0.168 OA 
ENDBRANCH  16  17
ENDBRANCH  15  16
ENDBRANCH  13  15
ENDBRANCH  10  11
ENDBRANCH   9  10
ENDBRANCH   5   6
ENDBRANCH   4   5
TORSDOF 7
ENDMDL
MODEL      313
REMARK 921   NORMALIZED FREE ENERGY PREDICTED BY IDOCK:   -2.92 KCAL/MOL
REMARK 922        TOTAL FREE ENERGY PREDICTED BY IDOCK:   -5.87 KCAL/MOL
REMARK 923 INTER-LIGAND FREE ENERGY PREDICTED BY IDOCK:   -5.14 KCAL/MOL
REMARK 924 INTRA-LIGAND FREE ENERGY PREDICTED BY IDOCK:   -0.73 KCAL/MOL
REMARK 927      BINDING AFFINITY PREDICTED BY RF-SCORE:    0.00 PKD
ROOT
HETATM    1  C   UNL     1      -7.338  20.045  67.806  1.00  0.00    -0.329 C  
HETATM    2  C   UNL     1      -8.710  19.535  67.370  1.00  0.00    -0.356 C  
HETATM    3  C   UNL     1      -9.614  20.720  67.016  1.00  0.00    -0.411 C  
HETATM    4  C   UNL     1      -8.550  18.536  66.206  1.00  0.00    -0.223 C  
ENDROOT
BRANCH   4   5
HETATM    5  C   UNL     1      -9.894  17.986  65.737  1.00  0.00     0.110 C  
BRANCH   5   6
HETATM    6  C   UNL     1     -10.605  17.164  66.807  1.00  0.00    -0.192 C  
HETATM    7  C   UNL     1     -10.903  15.729  66.324  1.00  0.00    -0.232 C  
HETATM    8  C   UNL     1      -9.621  14.972  65.946  1.00  0.00    -0.356 C  
HETATM    9  C   UNL     1     -11.706  14.981  67.405  1.00  0.00    -0.255 C  
BRANCH   9  10
HETATM   10  C   UNL     1     -12.031  13.551  66.979  1.00  0.00    -0.440 C  
BRANCH  10  11
HETATM   11  C   UNL     1     -11.319  12.517  67.836  1.00  0.00    -0.343 C  
HETATM   12  C   UNL     1     -11.314  11.127  67.165  1.00  0.00    -0.257 C  
HETATM   13  C   UNL     1     -10.701  10.066  68.091  1.00  0.00    -0.282 C  
HETATM   14  C   UNL     1     -10.550  11.124  65.835  1.00  0.00    -0.294 C  
BRANCH  13  15
HETATM   15  C   UNL     1     -11.384   9.921  69.451  1.00  0.00    -0.143 C  
BRANCH  15  16
HETATM   16  C   UNL     1     -11.898   8.503  69.764  1.00  0.00     0.693 C  
BRANCH  16  17
HETATM   17  C   UNL     1     -10.764   7.460  69.968  1.00  0.00    -0.246 C  
HETATM   18  C   UNL     1     -11.395   6.057  70.109  1.00  0.00    -0.351 C  
HETATM   19  C   UNL     1      -9.903   7.893  71.154  1.00  0.00    -0.190 C  
HETATM   20  C   UNL     1      -8.785   6.906  71.387  1.00  0.00    -0.126 C  
HETATM   21  C   UNL     1      -8.144   6.459  70.102  1.00  0.00    -0.120 A  
HETATM   22  C   UNL     1      -6.982   5.666  70.133  1.00  0.00    -0.065 A  
HETATM   23  C   UNL     1      -6.377   5.216  71.439  1.00  0.00    -0.030 C  
HETATM   24  C   UNL     1      -6.397   5.287  68.912  1.00  0.00    -0.035 A  
HETATM   25  C   UNL     1      -6.951   5.651  67.668  1.00  0.00    -0.066 A  
HETATM   26  O   UNL     1      -5.256   4.528  68.884  1.00  0.00    -0.003 OA 
HETATM   27  C   UNL     1      -6.286   5.216  66.388  1.00  0.00    -0.035 C  
HETATM   28  C   UNL     1      -8.141   6.415  67.644  1.00  0.00    -0.114 A  
HETATM   29  H   UNL     1      -4.861   4.272  68.059  1.00  0.00     0.000 HD 
HETATM   30  C   UNL     1      -8.738   6.794  68.866  1.00  0.00    -0.129 A  
HETATM   31  C   UNL     1      -8.810   6.823  66.354  1.00  0.00    -0.153 C  
HETATM   32  O   UNL     1      -9.939   7.475  68.777  1.00  0.00    -0.163 OA 
ENDBRANCH  16  17
ENDBRANCH  15  16
ENDBRANCH  13  15
ENDBRANCH  10  11
ENDBRANCH   9  10
ENDBRANCH   5   6
ENDBRANCH   4   5
TORSDOF 7
ENDMDL
MODEL      314
REMARK 921   NORMALIZED FREE ENERGY PREDICTED BY IDOCK:   -2.87 KCAL/MOL
REMARK 922        TOTAL FREE ENERGY PREDICTED BY IDOCK:   -5.79 KCAL/MOL
REMARK 923 INTER-LIGAND FREE ENERGY PREDICTED BY IDOCK:   -5.32 KCAL/MOL
REMARK 924 INTRA-LIGAND FREE ENERGY PREDICTED BY IDOCK:   -0.48 KCAL/MOL
REMARK 927      BINDING AFFINITY PREDICTED BY RF-SCORE:    0.00 PKD
ROOT
HETATM    1  C   UNL     1      -9.572   2.205  62.851  1.00  0.00    -0.090 C  
HETATM    2  C   UNL     1      -9.706   3.299  63.908  1.00  0.00    -0.150 C  
HETATM    3  C   UNL     1     -11.161   3.772  63.983  1.00  0.00     0.089 C  
HETATM    4  C   UNL     1      -9.173   2.785  65.261  1.00  0.00    -0.130 C  
ENDROOT
BRANCH   4   5
HETATM    5  C   UNL     1      -9.273   3.844  66.354  1.00  0.00    -0.172 C  
BRANCH   5   6
HETATM    6  C   UNL     1      -7.976   4.628  66.542  1.00  0.00    -0.103 C  
HETATM    7  C   UNL     1      -7.716   5.595  65.368  1.00  0.00    -0.087 C  
HETATM    8  C   UNL     1      -8.849   6.620  65.206  1.00  0.00     0.132 C  
HETATM    9  C   UNL     1      -6.352   6.283  65.564  1.00  0.00    -0.038 C  
BRANCH   9  10
HETATM   10  C   UNL     1      -6.040   7.253  64.427  1.00  0.00    -0.037 C  
BRANCH  10  11
HETATM   11  C   UNL     1      -6.310   8.699  64.812  1.00  0.00    -0.065 C  
HETATM   12  C   UNL     1      -6.429   8.870  66.340  1.00  0.00    -0.066 C  
HETATM   13  C   UNL     1      -6.822  10.308  66.710  1.00  0.00    -0.088 C  
HETATM   14  C   UNL     1      -5.129   8.508  67.070  1.00  0.00    -0.032 C  
BRANCH  13  15
HETATM   15  C   UNL     1      -8.127  10.804  66.087  1.00  0.00    -0.160 C  
BRANCH  15  16
HETATM   16  C   UNL     1      -9.404  10.256  66.749  1.00  0.00    -0.187 C  
BRANCH  16  17
HETATM   17  C   UNL     1      -9.949  11.157  67.893  1.00  0.00    -0.173 C  
HETATM   18  C   UNL     1      -8.884  11.248  69.008  1.00  0.00     0.026 C  
HETATM   19  C   UNL     1     -11.303  10.611  68.347  1.00  0.00    -0.348 C  
HETATM   20  C   UNL     1     -11.871  11.461  69.459  1.00  0.00    -0.426 C  
HETATM   21  C   UNL     1     -11.687  12.931  69.202  1.00  0.00    -0.376 A  
HETATM   22  C   UNL     1     -12.296  13.876  70.049  1.00  0.00    -0.378 A  
HETATM   23  C   UNL     1     -13.106  13.445  71.246  1.00  0.00    -0.317 C  
HETATM   24  C   UNL     1     -12.123  15.241  69.764  1.00  0.00    -0.328 A  
HETATM   25  C   UNL     1     -11.342  15.689  68.679  1.00  0.00    -0.359 A  
HETATM   26  O   UNL     1     -12.706  16.204  70.547  1.00  0.00    -0.504 OA 
HETATM   27  C   UNL     1     -11.186  17.165  68.419  1.00  0.00     0.036 C  
HETATM   28  C   UNL     1     -10.701  14.735  67.854  1.00  0.00    -0.259 A  
HETATM   29  H   UNL     1     -12.588  17.127  70.354  1.00  0.00     0.000 HD 
HETATM   30  C   UNL     1     -10.865  13.362  68.139  1.00  0.00    -0.255 A  
HETATM   31  C   UNL     1      -9.828  15.135  66.690  1.00  0.00    -0.265 C  
HETATM   32  O   UNL     1     -10.154  12.482  67.344  1.00  0.00    -0.207 OA 
ENDBRANCH  16  17
ENDBRANCH  15  16
ENDBRANCH  13  15
ENDBRANCH  10  11
ENDBRANCH   9  10
ENDBRANCH   5   6
ENDBRANCH   4   5
TORSDOF 7
ENDMDL
MODEL      315
REMARK 921   NORMALIZED FREE ENERGY PREDICTED BY IDOCK:   -2.86 KCAL/MOL
REMARK 922        TOTAL FREE ENERGY PREDICTED BY IDOCK:   -5.79 KCAL/MOL
REMARK 923 INTER-LIGAND FREE ENERGY PREDICTED BY IDOCK:   -4.77 KCAL/MOL
REMARK 924 INTRA-LIGAND FREE ENERGY PREDICTED BY IDOCK:   -1.02 KCAL/MOL
REMARK 927      BINDING AFFINITY PREDICTED BY RF-SCORE:    0.00 PKD
ROOT
HETATM    1  C   UNL     1      -7.943   7.567  74.438  1.00  0.00    -0.216 C  
HETATM    2  C   UNL     1      -8.132   6.056  74.542  1.00  0.00    -0.111 C  
HETATM    3  C   UNL     1      -9.606   5.702  74.323  1.00  0.00    -0.162 C  
HETATM    4  C   UNL     1      -7.191   5.343  73.550  1.00  0.00    -0.087 C  
ENDROOT
BRANCH   4   5
HETATM    5  C   UNL     1      -7.332   3.825  73.619  1.00  0.00    -0.068 C  
BRANCH   5   6
HETATM    6  C   UNL     1      -8.499   3.298  72.789  1.00  0.00    -0.081 C  
HETATM    7  C   UNL     1      -8.234   3.438  71.275  1.00  0.00    -0.074 C  
HETATM    8  C   UNL     1      -6.979   2.667  70.838  1.00  0.00    -0.033 C  
HETATM    9  C   UNL     1      -9.481   2.983  70.494  1.00  0.00    -0.221 C  
BRANCH   9  10
HETATM   10  C   UNL     1      -9.276   3.101  68.985  1.00  0.00    -0.225 C  
BRANCH  10  11
HETATM   11  C   UNL     1      -9.121   4.544  68.534  1.00  0.00    -0.161 C  
HETATM   12  C   UNL     1      -7.711   4.816  67.969  1.00  0.00    -0.082 C  
HETATM   13  C   UNL     1      -7.526   6.304  67.631  1.00  0.00    -0.089 C  
HETATM   14  C   UNL     1      -7.415   3.983  66.717  1.00  0.00    -0.073 C  
BRANCH  13  15
HETATM   15  C   UNL     1      -7.750   7.266  68.797  1.00  0.00    -0.119 C  
BRANCH  15  16
HETATM   16  C   UNL     1      -9.061   8.071  68.724  1.00  0.00    -0.144 C  
BRANCH  16  17
HETATM   17  C   UNL     1      -8.876   9.517  68.186  1.00  0.00    -0.124 C  
HETATM   18  C   UNL     1      -9.173   9.529  66.670  1.00  0.00    -0.190 C  
HETATM   19  C   UNL     1      -7.478  10.007  68.564  1.00  0.00    -0.086 C  
HETATM   20  C   UNL     1      -7.255  11.414  68.062  1.00  0.00    -0.084 C  
HETATM   21  C   UNL     1      -8.457  12.292  68.276  1.00  0.00    -0.173 A  
HETATM   22  C   UNL     1      -8.375  13.673  68.018  1.00  0.00    -0.170 A  
HETATM   23  C   UNL     1      -7.108  14.296  67.488  1.00  0.00    -0.189 C  
HETATM   24  C   UNL     1      -9.511  14.467  68.253  1.00  0.00    -0.207 A  
HETATM   25  C   UNL     1     -10.728  13.920  68.710  1.00  0.00    -0.278 A  
HETATM   26  O   UNL     1      -9.483  15.820  68.034  1.00  0.00    -0.200 OA 
HETATM   27  C   UNL     1     -11.917  14.816  68.944  1.00  0.00    -0.298 C  
HETATM   28  C   UNL     1     -10.815  12.526  68.931  1.00  0.00    -0.238 A  
HETATM   29  H   UNL     1     -10.251  16.356  68.193  1.00  0.00     0.000 HD 
HETATM   30  C   UNL     1      -9.680  11.722  68.690  1.00  0.00    -0.128 A  
HETATM   31  C   UNL     1     -12.088  11.862  69.395  1.00  0.00    -0.277 C  
HETATM   32  O   UNL     1      -9.849  10.358  68.851  1.00  0.00    -0.181 OA 
ENDBRANCH  16  17
ENDBRANCH  15  16
ENDBRANCH  13  15
ENDBRANCH  10  11
ENDBRANCH   9  10
ENDBRANCH   5   6
ENDBRANCH   4   5
TORSDOF 7
ENDMDL
MODEL      316
REMARK 921   NORMALIZED FREE ENERGY PREDICTED BY IDOCK:   -2.84 KCAL/MOL
REMARK 922        TOTAL FREE ENERGY PREDICTED BY IDOCK:   -5.76 KCAL/MOL
REMARK 923 INTER-LIGAND FREE ENERGY PREDICTED BY IDOCK:   -4.56 KCAL/MOL
REMARK 924 INTRA-LIGAND FREE ENERGY PREDICTED BY IDOCK:   -1.19 KCAL/MOL
REMARK 927      BINDING AFFINITY PREDICTED BY RF-SCORE:    0.00 PKD
ROOT
HETATM    1  C   UNL     1      -6.547   7.863  63.029  1.00  0.00    -0.080 C  
HETATM    2  C   UNL     1      -7.170   7.216  64.264  1.00  0.00    -0.072 C  
HETATM    3  C   UNL     1      -8.383   8.033  64.720  1.00  0.00    -0.086 C  
HETATM    4  C   UNL     1      -7.519   5.745  63.962  1.00  0.00    -0.069 C  
ENDROOT
BRANCH   4   5
HETATM    5  C   UNL     1      -8.136   5.045  65.168  1.00  0.00    -0.112 C  
BRANCH   5   6
HETATM    6  C   UNL     1      -7.202   5.005  66.374  1.00  0.00    -0.077 C  
HETATM    7  C   UNL     1      -7.440   3.751  67.242  1.00  0.00    -0.071 C  
HETATM    8  C   UNL     1      -7.218   2.454  66.451  1.00  0.00    -0.061 C  
HETATM    9  C   UNL     1      -6.541   3.815  68.491  1.00  0.00    -0.045 C  
BRANCH   9  10
HETATM   10  C   UNL     1      -6.736   2.597  69.391  1.00  0.00    -0.033 C  
BRANCH  10  11
HETATM   11  C   UNL     1      -6.695   2.956  70.867  1.00  0.00    -0.032 C  
HETATM   12  C   UNL     1      -8.100   2.917  71.503  1.00  0.00    -0.058 C  
HETATM   13  C   UNL     1      -8.064   3.400  72.961  1.00  0.00    -0.073 C  
HETATM   14  C   UNL     1      -8.721   1.516  71.460  1.00  0.00    -0.083 C  
BRANCH  13  15
HETATM   15  C   UNL     1      -7.503   4.807  73.164  1.00  0.00    -0.087 C  
BRANCH  15  16
HETATM   16  C   UNL     1      -8.569   5.901  73.365  1.00  0.00    -0.120 C  
BRANCH  16  17
HETATM   17  C   UNL     1      -8.772   6.809  72.121  1.00  0.00    -0.132 C  
HETATM   18  C   UNL     1      -9.035   5.916  70.888  1.00  0.00    -0.152 C  
HETATM   19  C   UNL     1      -7.567   7.740  71.988  1.00  0.00    -0.089 C  
HETATM   20  C   UNL     1      -7.724   8.644  70.789  1.00  0.00    -0.091 C  
HETATM   21  C   UNL     1      -9.123   9.183  70.662  1.00  0.00    -0.307 A  
HETATM   22  C   UNL     1      -9.414  10.168  69.700  1.00  0.00    -0.226 A  
HETATM   23  C   UNL     1      -8.354  10.675  68.755  1.00  0.00    -0.144 C  
HETATM   24  C   UNL     1     -10.726  10.666  69.627  1.00  0.00    -0.244 A  
HETATM   25  C   UNL     1     -11.757  10.192  70.464  1.00  0.00    -0.407 A  
HETATM   26  O   UNL     1     -11.062  11.637  68.719  1.00  0.00    -0.198 OA 
HETATM   27  C   UNL     1     -13.149  10.758  70.343  1.00  0.00    -0.080 C  
HETATM   28  C   UNL     1     -11.467   9.174  71.402  1.00  0.00    -0.420 A  
HETATM   29  H   UNL     1     -11.949  11.973  68.670  1.00  0.00     0.000 HD 
HETATM   30  C   UNL     1     -10.153   8.665  71.477  1.00  0.00    -0.274 A  
HETATM   31  C   UNL     1     -12.521   8.596  72.315  1.00  0.00    -0.460 C  
HETATM   32  O   UNL     1      -9.949   7.620  72.360  1.00  0.00    -0.179 OA 
ENDBRANCH  16  17
ENDBRANCH  15  16
ENDBRANCH  13  15
ENDBRANCH  10  11
ENDBRANCH   9  10
ENDBRANCH   5   6
ENDBRANCH   4   5
TORSDOF 7
ENDMDL
MODEL      317
REMARK 921   NORMALIZED FREE ENERGY PREDICTED BY IDOCK:   -2.78 KCAL/MOL
REMARK 922        TOTAL FREE ENERGY PREDICTED BY IDOCK:   -5.68 KCAL/MOL
REMARK 923 INTER-LIGAND FREE ENERGY PREDICTED BY IDOCK:   -5.11 KCAL/MOL
REMARK 924 INTRA-LIGAND FREE ENERGY PREDICTED BY IDOCK:   -0.57 KCAL/MOL
REMARK 927      BINDING AFFINITY PREDICTED BY RF-SCORE:    0.00 PKD
ROOT
HETATM    1  C   UNL     1     -14.399   6.890  72.361  1.00  0.00     0.040 C  
HETATM    2  C   UNL     1     -13.308   7.077  71.309  1.00  0.00    -0.282 C  
HETATM    3  C   UNL     1     -13.098   8.570  71.041  1.00  0.00     0.071 C  
HETATM    4  C   UNL     1     -12.018   6.363  71.764  1.00  0.00    -0.370 C  
ENDROOT
BRANCH   4   5
HETATM    5  C   UNL     1     -10.895   6.509  70.742  1.00  0.00    -0.311 C  
BRANCH   5   6
HETATM    6  C   UNL     1     -10.150   7.836  70.864  1.00  0.00    -0.195 C  
HETATM    7  C   UNL     1      -8.656   7.626  71.188  1.00  0.00    -0.132 C  
HETATM    8  C   UNL     1      -7.943   6.802  70.105  1.00  0.00    -0.112 C  
HETATM    9  C   UNL     1      -7.980   8.995  71.396  1.00  0.00    -0.096 C  
BRANCH   9  10
HETATM   10  C   UNL     1      -6.495   8.848  71.721  1.00  0.00    -0.065 C  
BRANCH  10  11
HETATM   11  C   UNL     1      -5.623   8.907  70.478  1.00  0.00    -0.027 C  
HETATM   12  C   UNL     1      -6.020  10.079  69.557  1.00  0.00    -0.041 C  
HETATM   13  C   UNL     1      -5.215  10.055  68.249  1.00  0.00    -0.035 C  
HETATM   14  C   UNL     1      -5.829  11.442  70.233  1.00  0.00    -0.154 C  
BRANCH  13  15
HETATM   15  C   UNL     1      -5.337   8.767  67.436  1.00  0.00    -0.034 C  
BRANCH  15  16
HETATM   16  C   UNL     1      -6.719   8.092  67.503  1.00  0.00    -0.062 C  
BRANCH  16  17
HETATM   17  C   UNL     1      -7.762   8.709  66.529  1.00  0.00    -0.095 C  
HETATM   18  C   UNL     1      -9.061   7.876  66.594  1.00  0.00    -0.199 C  
HETATM   19  C   UNL     1      -7.137   8.808  65.138  1.00  0.00    -0.086 C  
HETATM   20  C   UNL     1      -8.117   9.406  64.157  1.00  0.00    -0.145 C  
HETATM   21  C   UNL     1      -8.868  10.571  64.742  1.00  0.00    -0.211 A  
HETATM   22  C   UNL     1      -9.704  11.352  63.923  1.00  0.00    -0.299 A  
HETATM   23  C   UNL     1      -9.900  11.023  62.464  1.00  0.00    -0.072 C  
HETATM   24  C   UNL     1     -10.371  12.448  64.498  1.00  0.00    -0.325 A  
HETATM   25  C   UNL     1     -10.249  12.768  65.866  1.00  0.00    -0.300 A  
HETATM   26  O   UNL     1     -11.186  13.252  63.744  1.00  0.00    -0.555 OA 
HETATM   27  C   UNL     1     -10.987  13.953  66.433  1.00  0.00    -0.303 C  
HETATM   28  C   UNL     1      -9.437  11.956  66.691  1.00  0.00    -0.217 A  
HETATM   29  H   UNL     1     -11.637  13.992  64.133  1.00  0.00     0.000 HD 
HETATM   30  C   UNL     1      -8.770  10.850  66.122  1.00  0.00    -0.184 A  
HETATM   31  C   UNL     1      -9.275  12.217  68.169  1.00  0.00    -0.197 C  
HETATM   32  O   UNL     1      -8.052  10.051  66.993  1.00  0.00    -0.115 OA 
ENDBRANCH  16  17
ENDBRANCH  15  16
ENDBRANCH  13  15
ENDBRANCH  10  11
ENDBRANCH   9  10
ENDBRANCH   5   6
ENDBRANCH   4   5
TORSDOF 7
ENDMDL
MODEL      318
REMARK 921   NORMALIZED FREE ENERGY PREDICTED BY IDOCK:   -2.75 KCAL/MOL
REMARK 922        TOTAL FREE ENERGY PREDICTED BY IDOCK:   -5.63 KCAL/MOL
REMARK 923 INTER-LIGAND FREE ENERGY PREDICTED BY IDOCK:   -5.21 KCAL/MOL
REMARK 924 INTRA-LIGAND FREE ENERGY PREDICTED BY IDOCK:   -0.42 KCAL/MOL
REMARK 927      BINDING AFFINITY PREDICTED BY RF-SCORE:    0.00 PKD
ROOT
HETATM    1  C   UNL     1      -8.314  15.196  70.377  1.00  0.00     1.064 C  
HETATM    2  C   UNL     1      -6.873  15.648  70.152  1.00  0.00     0.127 C  
HETATM    3  C   UNL     1      -5.910  14.644  70.793  1.00  0.00    -0.159 C  
HETATM    4  C   UNL     1      -6.617  15.844  68.644  1.00  0.00    -0.118 C  
ENDROOT
BRANCH   4   5
HETATM    5  C   UNL     1      -5.191  16.306  68.362  1.00  0.00    -0.105 C  
BRANCH   5   6
HETATM    6  C   UNL     1      -5.135  17.600  67.555  1.00  0.00    -0.135 C  
HETATM    7  C   UNL     1      -6.337  18.518  67.860  1.00  0.00    -0.196 C  
HETATM    8  C   UNL     1      -6.399  18.910  69.343  1.00  0.00    -0.299 C  
HETATM    9  C   UNL     1      -6.279  19.758  66.947  1.00  0.00    -0.192 C  
BRANCH   9  10
HETATM   10  C   UNL     1      -7.449  20.704  67.205  1.00  0.00    -0.395 C  
BRANCH  10  11
HETATM   11  C   UNL     1      -8.751  20.188  66.614  1.00  0.00    -0.367 C  
HETATM   12  C   UNL     1      -9.755  19.783  67.714  1.00  0.00    -0.495 C  
HETATM   13  C   UNL     1     -11.017  19.150  67.108  1.00  0.00    -0.389 C  
HETATM   14  C   UNL     1     -10.169  20.971  68.591  1.00  0.00     0.699 C  
BRANCH  13  15
HETATM   15  C   UNL     1     -10.769  17.921  66.234  1.00  0.00    -0.120 C  
BRANCH  15  16
HETATM   16  C   UNL     1      -9.431  17.205  66.495  1.00  0.00    -0.290 C  
BRANCH  16  17
HETATM   17  C   UNL     1      -9.524  15.656  66.397  1.00  0.00    -0.292 C  
HETATM   18  C   UNL     1      -8.104  15.061  66.529  1.00  0.00     0.233 C  
HETATM   19  C   UNL     1     -10.251  15.287  65.105  1.00  0.00    -0.374 C  
HETATM   20  C   UNL     1     -10.366  13.788  64.970  1.00  0.00    -0.402 C  
HETATM   21  C   UNL     1     -10.734  13.126  66.270  1.00  0.00    -0.295 A  
HETATM   22  C   UNL     1     -11.043  11.753  66.298  1.00  0.00    -0.364 A  
HETATM   23  C   UNL     1     -10.975  10.910  65.050  1.00  0.00    -0.035 C  
HETATM   24  C   UNL     1     -11.406  11.174  67.526  1.00  0.00    -0.278 A  
HETATM   25  C   UNL     1     -11.444  11.915  68.725  1.00  0.00    -0.347 A  
HETATM   26  O   UNL     1     -11.731   9.845  67.609  1.00  0.00    -0.351 OA 
HETATM   27  C   UNL     1     -11.838  11.245  70.016  1.00  0.00    -0.448 C  
HETATM   28  C   UNL     1     -11.096  13.286  68.696  1.00  0.00    -0.301 A  
HETATM   29  H   UNL     1     -11.976   9.453  68.440  1.00  0.00     0.000 HD 
HETATM   30  C   UNL     1     -10.723  13.873  67.467  1.00  0.00    -0.267 A  
HETATM   31  C   UNL     1     -11.086  14.141  69.939  1.00  0.00    -0.083 C  
HETATM   32  O   UNL     1     -10.321  15.195  67.516  1.00  0.00    -0.238 OA 
ENDBRANCH  16  17
ENDBRANCH  15  16
ENDBRANCH  13  15
ENDBRANCH  10  11
ENDBRANCH   9  10
ENDBRANCH   5   6
ENDBRANCH   4   5
TORSDOF 7
ENDMDL
MODEL      319
REMARK 921   NORMALIZED FREE ENERGY PREDICTED BY IDOCK:   -2.71 KCAL/MOL
REMARK 922        TOTAL FREE ENERGY PREDICTED BY IDOCK:   -5.58 KCAL/MOL
REMARK 923 INTER-LIGAND FREE ENERGY PREDICTED BY IDOCK:   -5.31 KCAL/MOL
REMARK 924 INTRA-LIGAND FREE ENERGY PREDICTED BY IDOCK:   -0.26 KCAL/MOL
REMARK 927      BINDING AFFINITY PREDICTED BY RF-SCORE:    0.00 PKD
ROOT
HETATM    1  C   UNL     1     -12.390  13.954  70.670  1.00  0.00    -0.451 C  
HETATM    2  C   UNL     1     -11.750  13.715  69.304  1.00  0.00    -0.376 C  
HETATM    3  C   UNL     1     -12.085  12.302  68.816  1.00  0.00    -0.162 C  
HETATM    4  C   UNL     1     -12.200  14.811  68.318  1.00  0.00    -0.065 C  
ENDROOT
BRANCH   4   5
HETATM    5  C   UNL     1     -11.580  14.626  66.936  1.00  0.00    -0.374 C  
BRANCH   5   6
HETATM    6  C   UNL     1     -10.292  15.424  66.751  1.00  0.00    -0.279 C  
HETATM    7  C   UNL     1      -9.076  14.697  67.361  1.00  0.00    -0.203 C  
HETATM    8  C   UNL     1      -8.852  13.317  66.725  1.00  0.00    -0.140 C  
HETATM    9  C   UNL     1      -7.828  15.591  67.232  1.00  0.00    -0.236 C  
BRANCH   9  10
HETATM   10  C   UNL     1      -6.589  14.921  67.822  1.00  0.00    -0.187 C  
BRANCH  10  11
HETATM   11  C   UNL     1      -6.855  13.485  68.244  1.00  0.00    -0.108 C  
HETATM   12  C   UNL     1      -5.865  13.017  69.330  1.00  0.00    -0.096 C  
HETATM   13  C   UNL     1      -6.064  11.530  69.660  1.00  0.00    -0.114 C  
HETATM   14  C   UNL     1      -5.990  13.833  70.623  1.00  0.00    -0.159 C  
BRANCH  13  15
HETATM   15  C   UNL     1      -5.929  10.579  68.471  1.00  0.00    -0.043 C  
BRANCH  15  16
HETATM   16  C   UNL     1      -7.266  10.135  67.848  1.00  0.00    -0.086 C  
BRANCH  16  17
HETATM   17  C   UNL     1      -8.044   9.104  68.712  1.00  0.00    -0.101 C  
HETATM   18  C   UNL     1      -7.857   7.698  68.102  1.00  0.00    -0.121 C  
HETATM   19  C   UNL     1      -9.499   9.559  68.830  1.00  0.00    -0.147 C  
HETATM   20  C   UNL     1     -10.293   8.584  69.665  1.00  0.00    -0.218 C  
HETATM   21  C   UNL     1      -9.535   8.127  70.881  1.00  0.00    -0.186 A  
HETATM   22  C   UNL     1     -10.178   7.345  71.859  1.00  0.00    -0.213 A  
HETATM   23  C   UNL     1     -11.614   6.915  71.697  1.00  0.00    -0.325 C  
HETATM   24  C   UNL     1      -9.445   6.956  72.994  1.00  0.00    -0.145 A  
HETATM   25  C   UNL     1      -8.089   7.302  73.167  1.00  0.00    -0.123 A  
HETATM   26  O   UNL     1     -10.025   6.207  73.985  1.00  0.00    -0.193 OA 
HETATM   27  C   UNL     1      -7.348   6.858  74.402  1.00  0.00    -0.107 C  
HETATM   28  C   UNL     1      -7.439   8.056  72.163  1.00  0.00    -0.111 A  
HETATM   29  H   UNL     1      -9.529   5.945  74.752  1.00  0.00     0.000 HD 
HETATM   30  C   UNL     1      -8.166   8.443  71.017  1.00  0.00    -0.128 A  
HETATM   31  C   UNL     1      -5.984   8.443  72.261  1.00  0.00    -0.059 C  
HETATM   32  O   UNL     1      -7.457   9.112  70.036  1.00  0.00    -0.060 OA 
ENDBRANCH  16  17
ENDBRANCH  15  16
ENDBRANCH  13  15
ENDBRANCH  10  11
ENDBRANCH   9  10
ENDBRANCH   5   6
ENDBRANCH   4   5
TORSDOF 7
ENDMDL
MODEL      320
REMARK 921   NORMALIZED FREE ENERGY PREDICTED BY IDOCK:   -2.70 KCAL/MOL
REMARK 922        TOTAL FREE ENERGY PREDICTED BY IDOCK:   -5.56 KCAL/MOL
REMARK 923 INTER-LIGAND FREE ENERGY PREDICTED BY IDOCK:   -5.51 KCAL/MOL
REMARK 924 INTRA-LIGAND FREE ENERGY PREDICTED BY IDOCK:   -0.05 KCAL/MOL
REMARK 927      BINDING AFFINITY PREDICTED BY RF-SCORE:    0.00 PKD
ROOT
HETATM    1  C   UNL     1     -12.220  13.676  70.811  1.00  0.00    -0.424 C  
HETATM    2  C   UNL     1     -11.688  13.425  69.401  1.00  0.00    -0.382 C  
HETATM    3  C   UNL     1     -12.033  11.998  68.965  1.00  0.00    -0.321 C  
HETATM    4  C   UNL     1     -12.239  14.495  68.438  1.00  0.00    -0.154 C  
ENDROOT
BRANCH   4   5
HETATM    5  C   UNL     1     -11.730  14.297  67.013  1.00  0.00    -0.427 C  
BRANCH   5   6
HETATM    6  C   UNL     1     -10.520  15.169  66.689  1.00  0.00    -0.287 C  
HETATM    7  C   UNL     1      -9.225  14.607  67.312  1.00  0.00    -0.212 C  
HETATM    8  C   UNL     1      -8.913  13.190  66.808  1.00  0.00    -0.183 C  
HETATM    9  C   UNL     1      -8.061  15.577  67.034  1.00  0.00    -0.272 C  
BRANCH   9  10
HETATM   10  C   UNL     1      -6.750  15.071  67.631  1.00  0.00    -0.201 C  
BRANCH  10  11
HETATM   11  C   UNL     1      -6.914  13.734  68.337  1.00  0.00    -0.103 C  
HETATM   12  C   UNL     1      -5.867  13.547  69.455  1.00  0.00    -0.095 C  
HETATM   13  C   UNL     1      -5.964  12.146  70.077  1.00  0.00    -0.156 C  
HETATM   14  C   UNL     1      -6.008  14.594  70.566  1.00  0.00    -0.172 C  
BRANCH  13  15
HETATM   15  C   UNL     1      -5.803  10.987  69.094  1.00  0.00    -0.041 C  
BRANCH  15  16
HETATM   16  C   UNL     1      -7.127  10.394  68.576  1.00  0.00    -0.074 C  
BRANCH  16  17
HETATM   17  C   UNL     1      -7.829   9.454  69.595  1.00  0.00    -0.105 C  
HETATM   18  C   UNL     1      -9.295   9.908  69.767  1.00  0.00    -0.248 C  
HETATM   19  C   UNL     1      -7.013   9.431  70.887  1.00  0.00    -0.099 C  
HETATM   20  C   UNL     1      -7.659   8.525  71.907  1.00  0.00    -0.139 C  
HETATM   21  C   UNL     1      -8.158   7.244  71.296  1.00  0.00    -0.102 A  
HETATM   22  C   UNL     1      -8.642   6.212  72.121  1.00  0.00    -0.127 A  
HETATM   23  C   UNL     1      -8.711   6.375  73.619  1.00  0.00    -0.131 C  
HETATM   24  C   UNL     1      -9.076   5.020  71.517  1.00  0.00    -0.140 A  
HETATM   25  C   UNL     1      -9.066   4.839  70.119  1.00  0.00    -0.155 A  
HETATM   26  O   UNL     1      -9.543   3.976  72.273  1.00  0.00    -0.131 OA 
HETATM   27  C   UNL     1      -9.546   3.541  69.521  1.00  0.00    -0.179 C  
HETATM   28  C   UNL     1      -8.614   5.895  69.293  1.00  0.00    -0.112 A  
HETATM   29  H   UNL     1      -9.837   3.170  71.864  1.00  0.00     0.000 HD 
HETATM   30  C   UNL     1      -8.183   7.098  69.893  1.00  0.00    -0.133 A  
HETATM   31  C   UNL     1      -8.597   5.790  67.788  1.00  0.00    -0.101 C  
HETATM   32  O   UNL     1      -7.824   8.119  69.031  1.00  0.00    -0.104 OA 
ENDBRANCH  16  17
ENDBRANCH  15  16
ENDBRANCH  13  15
ENDBRANCH  10  11
ENDBRANCH   9  10
ENDBRANCH   5   6
ENDBRANCH   4   5
TORSDOF 7
ENDMDL
MODEL      321
REMARK 921   NORMALIZED FREE ENERGY PREDICTED BY IDOCK:   -2.70 KCAL/MOL
REMARK 922        TOTAL FREE ENERGY PREDICTED BY IDOCK:   -5.55 KCAL/MOL
REMARK 923 INTER-LIGAND FREE ENERGY PREDICTED BY IDOCK:   -5.77 KCAL/MOL
REMARK 924 INTRA-LIGAND FREE ENERGY PREDICTED BY IDOCK:    0.21 KCAL/MOL
REMARK 927      BINDING AFFINITY PREDICTED BY RF-SCORE:    0.00 PKD
ROOT
HETATM    1  C   UNL     1      -7.048  20.446  65.167  1.00  0.00    -0.139 C  
HETATM    2  C   UNL     1      -7.311  19.632  66.432  1.00  0.00    -0.266 C  
HETATM    3  C   UNL     1      -8.725  19.918  66.948  1.00  0.00    -0.408 C  
HETATM    4  C   UNL     1      -7.069  18.135  66.149  1.00  0.00    -0.316 C  
ENDROOT
BRANCH   4   5
HETATM    5  C   UNL     1      -7.308  17.274  67.385  1.00  0.00    -0.185 C  
BRANCH   5   6
HETATM    6  C   UNL     1      -8.122  16.018  67.085  1.00  0.00    -0.232 C  
HETATM    7  C   UNL     1      -7.322  14.732  67.384  1.00  0.00    -0.214 C  
HETATM    8  C   UNL     1      -6.889  14.654  68.856  1.00  0.00    -0.104 C  
HETATM    9  C   UNL     1      -8.155  13.504  66.971  1.00  0.00    -0.015 C  
BRANCH   9  10
HETATM   10  C   UNL     1      -7.411  12.199  67.244  1.00  0.00    -0.149 C  
BRANCH  10  11
HETATM   11  C   UNL     1      -7.535  11.755  68.692  1.00  0.00    -0.120 C  
HETATM   12  C   UNL     1      -6.180  11.286  69.263  1.00  0.00    -0.073 C  
HETATM   13  C   UNL     1      -6.340  10.725  70.684  1.00  0.00     0.021 C  
HETATM   14  C   UNL     1      -5.137  12.409  69.287  1.00  0.00    -0.068 C  
BRANCH  13  15
HETATM   15  C   UNL     1      -7.325   9.564  70.816  1.00  0.00    -0.103 C  
BRANCH  15  16
HETATM   16  C   UNL     1      -6.978   8.549  71.921  1.00  0.00    -0.101 C  
BRANCH  16  17
HETATM   17  C   UNL     1      -8.207   7.758  72.449  1.00  0.00    -0.121 C  
HETATM   18  C   UNL     1      -8.333   7.986  73.971  1.00  0.00    -0.323 C  
HETATM   19  C   UNL     1      -8.065   6.293  72.034  1.00  0.00    -0.109 C  
HETATM   20  C   UNL     1      -9.243   5.486  72.526  1.00  0.00    -0.150 C  
HETATM   21  C   UNL     1     -10.548   6.210  72.338  1.00  0.00    -0.243 A  
HETATM   22  C   UNL     1     -11.764   5.547  72.588  1.00  0.00    -0.240 A  
HETATM   23  C   UNL     1     -11.790   4.124  73.085  1.00  0.00     0.100 C  
HETATM   24  C   UNL     1     -12.964   6.248  72.378  1.00  0.00     0.352 A  
HETATM   25  C   UNL     1     -12.985   7.592  71.954  1.00  0.00    -0.299 A  
HETATM   26  O   UNL     1     -14.177   5.647  72.592  1.00  0.00    -0.502 OA 
HETATM   27  C   UNL     1     -14.300   8.298  71.746  1.00  0.00    -0.574 C  
HETATM   28  C   UNL     1     -11.759   8.264  71.740  1.00  0.00    -0.357 A  
HETATM   29  H   UNL     1     -14.988   6.121  72.450  1.00  0.00     0.000 HD 
HETATM   30  C   UNL     1     -10.549   7.569  71.956  1.00  0.00    -0.211 A  
HETATM   31  C   UNL     1     -11.697   9.709  71.311  1.00  0.00    -0.458 C  
HETATM   32  O   UNL     1      -9.385   8.301  71.804  1.00  0.00    -0.163 OA 
ENDBRANCH  16  17
ENDBRANCH  15  16
ENDBRANCH  13  15
ENDBRANCH  10  11
ENDBRANCH   9  10
ENDBRANCH   5   6
ENDBRANCH   4   5
TORSDOF 7
ENDMDL
MODEL      322
REMARK 921   NORMALIZED FREE ENERGY PREDICTED BY IDOCK:   -2.57 KCAL/MOL
REMARK 922        TOTAL FREE ENERGY PREDICTED BY IDOCK:   -5.38 KCAL/MOL
REMARK 923 INTER-LIGAND FREE ENERGY PREDICTED BY IDOCK:   -4.35 KCAL/MOL
REMARK 924 INTRA-LIGAND FREE ENERGY PREDICTED BY IDOCK:   -1.03 KCAL/MOL
REMARK 927      BINDING AFFINITY PREDICTED BY RF-SCORE:    0.00 PKD
ROOT
HETATM    1  C   UNL     1     -11.633  12.794  69.826  1.00  0.00    -0.288 C  
HETATM    2  C   UNL     1     -11.383  12.771  68.320  1.00  0.00    -0.335 C  
HETATM    3  C   UNL     1     -11.931  14.052  67.684  1.00  0.00    -0.404 C  
HETATM    4  C   UNL     1      -9.881  12.560  68.044  1.00  0.00    -0.214 C  
ENDROOT
BRANCH   4   5
HETATM    5  C   UNL     1      -9.575  12.518  66.550  1.00  0.00    -0.242 C  
BRANCH   5   6
HETATM    6  C   UNL     1      -9.853  11.153  65.925  1.00  0.00    -0.275 C  
HETATM    7  C   UNL     1      -8.647  10.639  65.112  1.00  0.00    -0.173 C  
HETATM    8  C   UNL     1      -7.389  10.493  65.980  1.00  0.00    -0.137 C  
HETATM    9  C   UNL     1      -9.021   9.310  64.428  1.00  0.00    -0.163 C  
BRANCH   9  10
HETATM   10  C   UNL     1      -7.862   8.753  63.605  1.00  0.00    -0.145 C  
BRANCH  10  11
HETATM   11  C   UNL     1      -7.273   7.491  64.216  1.00  0.00    -0.079 C  
HETATM   12  C   UNL     1      -8.113   6.245  63.870  1.00  0.00    -0.055 C  
HETATM   13  C   UNL     1      -7.580   4.998  64.591  1.00  0.00    -0.078 C  
HETATM   14  C   UNL     1      -8.150   5.967  62.362  1.00  0.00    -0.104 C  
BRANCH  13  15
HETATM   15  C   UNL     1      -7.521   5.107  66.115  1.00  0.00    -0.086 C  
BRANCH  15  16
HETATM   16  C   UNL     1      -8.665   4.391  66.856  1.00  0.00    -0.112 C  
BRANCH  16  17
HETATM   17  C   UNL     1      -8.317   4.011  68.322  1.00  0.00    -0.091 C  
HETATM   18  C   UNL     1      -6.986   3.228  68.333  1.00  0.00    -0.049 C  
HETATM   19  C   UNL     1      -9.502   3.262  68.931  1.00  0.00    -0.191 C  
HETATM   20  C   UNL     1      -9.206   2.874  70.361  1.00  0.00    -0.211 C  
HETATM   21  C   UNL     1      -8.530   3.981  71.122  1.00  0.00    -0.098 A  
HETATM   22  C   UNL     1      -8.325   3.859  72.509  1.00  0.00    -0.098 A  
HETATM   23  C   UNL     1      -8.737   2.614  73.254  1.00  0.00    -0.078 C  
HETATM   24  C   UNL     1      -7.711   4.923  73.192  1.00  0.00    -0.093 A  
HETATM   25  C   UNL     1      -7.274   6.088  72.529  1.00  0.00    -0.086 A  
HETATM   26  O   UNL     1      -7.501   4.865  74.545  1.00  0.00    -0.087 OA 
HETATM   27  C   UNL     1      -6.619   7.200  73.308  1.00  0.00    -0.065 C  
HETATM   28  C   UNL     1      -7.448   6.189  71.129  1.00  0.00    -0.085 A  
HETATM   29  H   UNL     1      -7.086   5.584  75.006  1.00  0.00     0.000 HD 
HETATM   30  C   UNL     1      -8.057   5.120  70.435  1.00  0.00    -0.090 A  
HETATM   31  C   UNL     1      -6.984   7.390  70.344  1.00  0.00    -0.056 C  
HETATM   32  O   UNL     1      -8.131   5.244  69.060  1.00  0.00    -0.085 OA 
ENDBRANCH  16  17
ENDBRANCH  15  16
ENDBRANCH  13  15
ENDBRANCH  10  11
ENDBRANCH   9  10
ENDBRANCH   5   6
ENDBRANCH   4   5
TORSDOF 7
ENDMDL
MODEL      323
REMARK 921   NORMALIZED FREE ENERGY PREDICTED BY IDOCK:   -2.55 KCAL/MOL
REMARK 922        TOTAL FREE ENERGY PREDICTED BY IDOCK:   -5.35 KCAL/MOL
REMARK 923 INTER-LIGAND FREE ENERGY PREDICTED BY IDOCK:   -4.16 KCAL/MOL
REMARK 924 INTRA-LIGAND FREE ENERGY PREDICTED BY IDOCK:   -1.18 KCAL/MOL
REMARK 927      BINDING AFFINITY PREDICTED BY RF-SCORE:    0.00 PKD
ROOT
HETATM    1  C   UNL     1      -7.293   9.042  63.431  1.00  0.00    -0.097 C  
HETATM    2  C   UNL     1      -7.883   7.725  63.932  1.00  0.00    -0.126 C  
HETATM    3  C   UNL     1      -8.128   6.785  62.747  1.00  0.00    -0.047 C  
HETATM    4  C   UNL     1      -6.956   7.112  65.001  1.00  0.00    -0.052 C  
ENDROOT
BRANCH   4   5
HETATM    5  C   UNL     1      -7.503   5.796  65.544  1.00  0.00    -0.077 C  
BRANCH   5   6
HETATM    6  C   UNL     1      -8.791   5.973  66.344  1.00  0.00    -0.137 C  
HETATM    7  C   UNL     1      -8.512   6.116  67.855  1.00  0.00    -0.116 C  
HETATM    8  C   UNL     1      -7.615   7.324  68.162  1.00  0.00    -0.115 C  
HETATM    9  C   UNL     1      -9.849   6.193  68.616  1.00  0.00    -0.160 C  
BRANCH   9  10
HETATM   10  C   UNL     1      -9.634   6.333  70.122  1.00  0.00    -0.181 C  
BRANCH  10  11
HETATM   11  C   UNL     1      -9.992   7.721  70.630  1.00  0.00    -0.186 C  
HETATM   12  C   UNL     1     -11.512   7.976  70.566  1.00  0.00    -0.192 C  
HETATM   13  C   UNL     1     -11.849   9.421  70.965  1.00  0.00    -0.396 C  
HETATM   14  C   UNL     1     -12.303   7.017  71.463  1.00  0.00    -0.420 C  
BRANCH  13  15
HETATM   15  C   UNL     1     -11.163  10.501  70.129  1.00  0.00    -0.389 C  
BRANCH  15  16
HETATM   16  C   UNL     1     -11.499  10.463  68.627  1.00  0.00    -0.238 C  
BRANCH  16  17
HETATM   17  C   UNL     1     -10.872  11.632  67.818  1.00  0.00    -0.217 C  
HETATM   18  C   UNL     1      -9.657  11.098  67.028  1.00  0.00    -0.201 C  
HETATM   19  C   UNL     1     -10.553  12.779  68.776  1.00  0.00    -0.216 C  
HETATM   20  C   UNL     1      -9.942  13.940  68.030  1.00  0.00    -0.241 C  
HETATM   21  C   UNL     1     -10.639  14.207  66.724  1.00  0.00    -0.277 A  
HETATM   22  C   UNL     1     -10.311  15.351  65.971  1.00  0.00    -0.339 A  
HETATM   23  C   UNL     1      -9.237  16.305  66.427  1.00  0.00    -0.332 C  
HETATM   24  C   UNL     1     -11.000  15.580  64.768  1.00  0.00    -0.399 A  
HETATM   25  C   UNL     1     -11.983  14.693  64.283  1.00  0.00    -0.406 A  
HETATM   26  O   UNL     1     -10.731  16.686  64.002  1.00  0.00    -0.422 OA 
HETATM   27  C   UNL     1     -12.690  14.986  62.985  1.00  0.00     2.676 C  
HETATM   28  C   UNL     1     -12.281  13.527  65.025  1.00  0.00    -0.453 A  
HETATM   29  H   UNL     1     -11.197  16.841  63.189  1.00  0.00     0.000 HD 
HETATM   30  C   UNL     1     -11.588  13.286  66.231  1.00  0.00    -0.346 A  
HETATM   31  C   UNL     1     -13.300  12.516  64.561  1.00  0.00     0.495 C  
HETATM   32  O   UNL     1     -11.868  12.092  66.872  1.00  0.00    -0.555 OA 
ENDBRANCH  16  17
ENDBRANCH  15  16
ENDBRANCH  13  15
ENDBRANCH  10  11
ENDBRANCH   9  10
ENDBRANCH   5   6
ENDBRANCH   4   5
TORSDOF 7
ENDMDL
MODEL      324
REMARK 921   NORMALIZED FREE ENERGY PREDICTED BY IDOCK:   -2.49 KCAL/MOL
REMARK 922        TOTAL FREE ENERGY PREDICTED BY IDOCK:   -5.27 KCAL/MOL
REMARK 923 INTER-LIGAND FREE ENERGY PREDICTED BY IDOCK:   -4.20 KCAL/MOL
REMARK 924 INTRA-LIGAND FREE ENERGY PREDICTED BY IDOCK:   -1.07 KCAL/MOL
REMARK 927      BINDING AFFINITY PREDICTED BY RF-SCORE:    0.00 PKD
ROOT
HETATM    1  C   UNL     1     -12.483  12.059  63.433  1.00  0.00    -0.625 C  
HETATM    2  C   UNL     1     -12.496  13.402  64.160  1.00  0.00    -0.312 C  
HETATM    3  C   UNL     1     -13.147  13.239  65.537  1.00  0.00     0.123 C  
HETATM    4  C   UNL     1     -11.063  13.965  64.239  1.00  0.00    -0.250 C  
ENDROOT
BRANCH   4   5
HETATM    5  C   UNL     1     -11.018  15.315  64.949  1.00  0.00    -0.445 C  
BRANCH   5   6
HETATM    6  C   UNL     1     -10.849  15.185  66.461  1.00  0.00    -0.317 C  
HETATM    7  C   UNL     1      -9.422  14.739  66.841  1.00  0.00    -0.253 C  
HETATM    8  C   UNL     1      -8.358  15.731  66.348  1.00  0.00    -0.267 C  
HETATM    9  C   UNL     1      -9.340  14.531  68.365  1.00  0.00    -0.208 C  
BRANCH   9  10
HETATM   10  C   UNL     1      -7.945  14.086  68.801  1.00  0.00    -0.081 C  
BRANCH  10  11
HETATM   11  C   UNL     1      -7.627  12.667  68.357  1.00  0.00    -0.132 C  
HETATM   12  C   UNL     1      -6.441  12.630  67.372  1.00  0.00    -0.150 C  
HETATM   13  C   UNL     1      -6.207  11.209  66.838  1.00  0.00    -0.111 C  
HETATM   14  C   UNL     1      -5.141  13.141  68.005  1.00  0.00    -0.102 C  
BRANCH  13  15
HETATM   15  C   UNL     1      -7.409  10.574  66.138  1.00  0.00    -0.136 C  
BRANCH  15  16
HETATM   16  C   UNL     1      -7.090   9.285  65.357  1.00  0.00    -0.086 C  
BRANCH  16  17
HETATM   17  C   UNL     1      -7.751   8.013  65.958  1.00  0.00    -0.088 C  
HETATM   18  C   UNL     1      -8.994   7.650  65.116  1.00  0.00     0.281 C  
HETATM   19  C   UNL     1      -8.035   8.258  67.439  1.00  0.00    -0.106 C  
HETATM   20  C   UNL     1      -8.677   7.043  68.065  1.00  0.00    -0.126 C  
HETATM   21  C   UNL     1      -8.031   5.762  67.613  1.00  0.00    -0.102 A  
HETATM   22  C   UNL     1      -8.391   4.542  68.215  1.00  0.00    -0.092 A  
HETATM   23  C   UNL     1      -9.449   4.481  69.288  1.00  0.00    -0.242 C  
HETATM   24  C   UNL     1      -7.749   3.368  67.784  1.00  0.00    -0.069 A  
HETATM   25  C   UNL     1      -6.783   3.374  66.757  1.00  0.00    -0.049 A  
HETATM   26  O   UNL     1      -8.049   2.154  68.346  1.00  0.00    -0.056 OA 
HETATM   27  C   UNL     1      -6.126   2.086  66.331  1.00  0.00    -0.023 C  
HETATM   28  C   UNL     1      -6.454   4.598  66.130  1.00  0.00    -0.041 A  
HETATM   29  H   UNL     1      -7.615   1.361  68.054  1.00  0.00     0.000 HD 
HETATM   30  C   UNL     1      -7.100   5.780  66.553  1.00  0.00    -0.069 A  
HETATM   31  C   UNL     1      -5.451   4.683  65.006  1.00  0.00    -0.013 C  
HETATM   32  O   UNL     1      -6.792   6.932  65.851  1.00  0.00    -0.054 OA 
ENDBRANCH  16  17
ENDBRANCH  15  16
ENDBRANCH  13  15
ENDBRANCH  10  11
ENDBRANCH   9  10
ENDBRANCH   5   6
ENDBRANCH   4   5
TORSDOF 7
ENDMDL
MODEL      325
REMARK 921   NORMALIZED FREE ENERGY PREDICTED BY IDOCK:   -2.46 KCAL/MOL
REMARK 922        TOTAL FREE ENERGY PREDICTED BY IDOCK:   -5.22 KCAL/MOL
REMARK 923 INTER-LIGAND FREE ENERGY PREDICTED BY IDOCK:   -5.32 KCAL/MOL
REMARK 924 INTRA-LIGAND FREE ENERGY PREDICTED BY IDOCK:    0.11 KCAL/MOL
REMARK 927      BINDING AFFINITY PREDICTED BY RF-SCORE:    0.00 PKD
ROOT
HETATM    1  C   UNL     1      -6.059   3.876  67.120  1.00  0.00    -0.025 C  
HETATM    2  C   UNL     1      -6.303   3.238  68.486  1.00  0.00    -0.032 C  
HETATM    3  C   UNL     1      -5.828   4.185  69.592  1.00  0.00    -0.018 C  
HETATM    4  C   UNL     1      -7.790   2.853  68.625  1.00  0.00    -0.057 C  
ENDROOT
BRANCH   4   5
HETATM    5  C   UNL     1      -8.088   2.200  69.971  1.00  0.00    -0.057 C  
BRANCH   5   6
HETATM    6  C   UNL     1      -9.452   2.593  70.532  1.00  0.00    -0.195 C  
HETATM    7  C   UNL     1      -9.401   3.948  71.267  1.00  0.00    -0.213 C  
HETATM    8  C   UNL     1      -8.945   5.087  70.342  1.00  0.00    -0.159 C  
HETATM    9  C   UNL     1     -10.777   4.243  71.893  1.00  0.00     0.140 C  
BRANCH   9  10
HETATM   10  C   UNL     1     -10.785   5.577  72.637  1.00  0.00    -0.289 C  
BRANCH  10  11
HETATM   11  C   UNL     1     -10.608   6.762  71.701  1.00  0.00    -0.239 C  
HETATM   12  C   UNL     1     -10.426   8.081  72.480  1.00  0.00    -0.383 C  
HETATM   13  C   UNL     1     -10.371   9.285  71.527  1.00  0.00    -0.364 C  
HETATM   14  C   UNL     1      -9.163   8.077  73.348  1.00  0.00    -0.332 C  
BRANCH  13  15
HETATM   15  C   UNL     1     -11.587   9.448  70.617  1.00  0.00    -0.330 C  
BRANCH  15  16
HETATM   16  C   UNL     1     -11.335  10.287  69.350  1.00  0.00    -0.279 C  
BRANCH  16  17
HETATM   17  C   UNL     1     -10.348   9.622  68.349  1.00  0.00    -0.204 C  
HETATM   18  C   UNL     1     -10.808   8.171  68.085  1.00  0.00     0.015 C  
HETATM   19  C   UNL     1      -8.928   9.750  68.899  1.00  0.00    -0.144 C  
HETATM   20  C   UNL     1      -7.934   9.117  67.954  1.00  0.00    -0.101 C  
HETATM   21  C   UNL     1      -8.229   9.443  66.516  1.00  0.00    -0.115 A  
HETATM   22  C   UNL     1      -7.318   9.075  65.509  1.00  0.00    -0.085 A  
HETATM   23  C   UNL     1      -6.056   8.317  65.836  1.00  0.00    -0.045 C  
HETATM   24  C   UNL     1      -7.615   9.417  64.179  1.00  0.00    -0.115 A  
HETATM   25  C   UNL     1      -8.802  10.090  63.823  1.00  0.00    -0.250 A  
HETATM   26  O   UNL     1      -6.755   9.097  63.160  1.00  0.00    -0.091 OA 
HETATM   27  C   UNL     1      -9.073  10.432  62.381  1.00  0.00    -0.313 C  
HETATM   28  C   UNL     1      -9.731  10.424  64.835  1.00  0.00    -0.372 A  
HETATM   29  H   UNL     1      -6.956   9.329  62.261  1.00  0.00     0.000 HD 
HETATM   30  C   UNL     1      -9.443  10.077  66.173  1.00  0.00    -0.190 A  
HETATM   31  C   UNL     1     -11.036  11.120  64.533  1.00  0.00    -0.255 C  
HETATM   32  O   UNL     1     -10.424  10.361  67.106  1.00  0.00    -0.228 OA 
ENDBRANCH  16  17
ENDBRANCH  15  16
ENDBRANCH  13  15
ENDBRANCH  10  11
ENDBRANCH   9  10
ENDBRANCH   5   6
ENDBRANCH   4   5
TORSDOF 7
ENDMDL
MODEL      326
REMARK 921   NORMALIZED FREE ENERGY PREDICTED BY IDOCK:   -2.38 KCAL/MOL
REMARK 922        TOTAL FREE ENERGY PREDICTED BY IDOCK:   -5.11 KCAL/MOL
REMARK 923 INTER-LIGAND FREE ENERGY PREDICTED BY IDOCK:   -5.32 KCAL/MOL
REMARK 924 INTRA-LIGAND FREE ENERGY PREDICTED BY IDOCK:    0.22 KCAL/MOL
REMARK 927      BINDING AFFINITY PREDICTED BY RF-SCORE:    0.00 PKD
ROOT
HETATM    1  C   UNL     1     -12.836   7.632  71.265  1.00  0.00    -0.297 C  
HETATM    2  C   UNL     1     -11.700   6.678  71.626  1.00  0.00    -0.362 C  
HETATM    3  C   UNL     1     -12.202   5.626  72.620  1.00  0.00     0.048 C  
HETATM    4  C   UNL     1     -11.113   6.056  70.342  1.00  0.00    -0.399 C  
ENDROOT
BRANCH   4   5
HETATM    5  C   UNL     1      -9.964   5.100  70.644  1.00  0.00    -0.296 C  
BRANCH   5   6
HETATM    6  C   UNL     1      -9.352   4.492  69.385  1.00  0.00    -0.217 C  
HETATM    7  C   UNL     1      -8.178   5.340  68.852  1.00  0.00    -0.089 C  
HETATM    8  C   UNL     1      -7.051   5.477  69.886  1.00  0.00    -0.063 C  
HETATM    9  C   UNL     1      -7.667   4.732  67.531  1.00  0.00    -0.090 C  
BRANCH   9  10
HETATM   10  C   UNL     1      -6.502   5.534  66.954  1.00  0.00    -0.044 C  
BRANCH  10  11
HETATM   11  C   UNL     1      -6.832   7.012  66.814  1.00  0.00    -0.068 C  
HETATM   12  C   UNL     1      -7.553   7.311  65.484  1.00  0.00    -0.097 C  
HETATM   13  C   UNL     1      -7.771   8.820  65.298  1.00  0.00    -0.098 C  
HETATM   14  C   UNL     1      -8.907   6.598  65.382  1.00  0.00     0.065 C  
BRANCH  13  15
HETATM   15  C   UNL     1      -6.501   9.668  65.336  1.00  0.00    -0.080 C  
BRANCH  15  16
HETATM   16  C   UNL     1      -6.360  10.561  66.583  1.00  0.00    -0.084 C  
BRANCH  16  17
HETATM   17  C   UNL     1      -7.671  11.301  66.970  1.00  0.00    -0.147 C  
HETATM   18  C   UNL     1      -8.163  10.766  68.333  1.00  0.00    -0.129 C  
HETATM   19  C   UNL     1      -8.676  11.154  65.828  1.00  0.00    -0.153 C  
HETATM   20  C   UNL     1      -9.967  11.862  66.162  1.00  0.00    -0.254 C  
HETATM   21  C   UNL     1      -9.732  13.201  66.804  1.00  0.00    -0.246 A  
HETATM   22  C   UNL     1     -10.814  14.071  67.035  1.00  0.00    -0.291 A  
HETATM   23  C   UNL     1     -12.226  13.673  66.687  1.00  0.00    -0.437 C  
HETATM   24  C   UNL     1     -10.553  15.325  67.615  1.00  0.00    -0.270 A  
HETATM   25  C   UNL     1      -9.254  15.723  67.992  1.00  0.00    -0.188 A  
HETATM   26  O   UNL     1     -11.567  16.218  67.849  1.00  0.00    -0.145 OA 
HETATM   27  C   UNL     1      -9.029  17.078  68.612  1.00  0.00    -0.267 C  
HETATM   28  C   UNL     1      -8.176  14.829  67.792  1.00  0.00    -0.167 A  
HETATM   29  H   UNL     1     -11.390  17.065  68.241  1.00  0.00     0.000 HD 
HETATM   30  C   UNL     1      -8.432  13.565  67.217  1.00  0.00    -0.193 A  
HETATM   31  C   UNL     1      -6.762  15.169  68.193  1.00  0.00    -0.139 C  
HETATM   32  O   UNL     1      -7.352  12.707  67.117  1.00  0.00    -0.127 OA 
ENDBRANCH  16  17
ENDBRANCH  15  16
ENDBRANCH  13  15
ENDBRANCH  10  11
ENDBRANCH   9  10
ENDBRANCH   5   6
ENDBRANCH   4   5
TORSDOF 7
ENDMDL
MODEL      327
REMARK 921   NORMALIZED FREE ENERGY PREDICTED BY IDOCK:   -2.37 KCAL/MOL
REMARK 922        TOTAL FREE ENERGY PREDICTED BY IDOCK:   -5.10 KCAL/MOL
REMARK 923 INTER-LIGAND FREE ENERGY PREDICTED BY IDOCK:   -3.92 KCAL/MOL
REMARK 924 INTRA-LIGAND FREE ENERGY PREDICTED BY IDOCK:   -1.18 KCAL/MOL
REMARK 927      BINDING AFFINITY PREDICTED BY RF-SCORE:    0.00 PKD
ROOT
HETATM    1  C   UNL     1      -6.810   9.165  72.015  1.00  0.00     0.176 C  
HETATM    2  C   UNL     1      -7.497   7.890  71.529  1.00  0.00    -0.073 C  
HETATM    3  C   UNL     1      -7.255   6.758  72.532  1.00  0.00    -0.075 C  
HETATM    4  C   UNL     1      -8.994   8.165  71.285  1.00  0.00    -0.179 C  
ENDROOT
BRANCH   4   5
HETATM    5  C   UNL     1      -9.728   6.924  70.786  1.00  0.00    -0.176 C  
BRANCH   5   6
HETATM    6  C   UNL     1     -10.144   7.028  69.321  1.00  0.00    -0.178 C  
HETATM    7  C   UNL     1      -8.933   6.907  68.373  1.00  0.00    -0.121 C  
HETATM    8  C   UNL     1      -8.200   5.568  68.544  1.00  0.00    -0.098 C  
HETATM    9  C   UNL     1      -9.399   7.117  66.919  1.00  0.00    -0.189 C  
BRANCH   9  10
HETATM   10  C   UNL     1      -8.238   7.010  65.933  1.00  0.00    -0.133 C  
BRANCH  10  11
HETATM   11  C   UNL     1      -7.683   8.371  65.543  1.00  0.00    -0.097 C  
HETATM   12  C   UNL     1      -7.352   9.228  66.782  1.00  0.00    -0.086 C  
HETATM   13  C   UNL     1      -6.909  10.642  66.376  1.00  0.00    -0.129 C  
HETATM   14  C   UNL     1      -6.260   8.597  67.653  1.00  0.00    -0.052 C  
BRANCH  13  15
HETATM   15  C   UNL     1      -7.918  11.420  65.531  1.00  0.00     0.423 C  
BRANCH  15  16
HETATM   16  C   UNL     1      -9.372  10.927  65.651  1.00  0.00    -0.236 C  
BRANCH  16  17
HETATM   17  C   UNL     1     -10.229  11.753  66.651  1.00  0.00    -0.210 C  
HETATM   18  C   UNL     1     -11.493  12.262  65.923  1.00  0.00    -0.428 C  
HETATM   19  C   UNL     1      -9.357  12.852  67.257  1.00  0.00    -0.212 C  
HETATM   20  C   UNL     1     -10.151  13.679  68.238  1.00  0.00    -0.240 C  
HETATM   21  C   UNL     1     -11.031  12.832  69.116  1.00  0.00    -0.185 A  
HETATM   22  C   UNL     1     -11.720  13.415  70.196  1.00  0.00    -0.266 A  
HETATM   23  C   UNL     1     -11.629  14.894  70.475  1.00  0.00    -0.336 C  
HETATM   24  C   UNL     1     -12.514  12.588  71.009  1.00  0.00    -0.258 A  
HETATM   25  C   UNL     1     -12.661  11.208  70.760  1.00  0.00    -0.445 A  
HETATM   26  O   UNL     1     -13.195  13.100  72.083  1.00  0.00    -0.451 OA 
HETATM   27  C   UNL     1     -13.526  10.366  71.662  1.00  0.00    -0.335 C  
HETATM   28  C   UNL     1     -11.996  10.635  69.651  1.00  0.00    -0.340 A  
HETATM   29  H   UNL     1     -13.732  12.540  72.632  1.00  0.00     0.000 HD 
HETATM   30  C   UNL     1     -11.202  11.461  68.826  1.00  0.00    -0.247 A  
HETATM   31  C   UNL     1     -12.123   9.172  69.303  1.00  0.00     1.443 C  
HETATM   32  O   UNL     1     -10.640  10.860  67.715  1.00  0.00    -0.190 OA 
ENDBRANCH  16  17
ENDBRANCH  15  16
ENDBRANCH  13  15
ENDBRANCH  10  11
ENDBRANCH   9  10
ENDBRANCH   5   6
ENDBRANCH   4   5
TORSDOF 7
ENDMDL
MODEL      328
REMARK 921   NORMALIZED FREE ENERGY PREDICTED BY IDOCK:   -2.35 KCAL/MOL
REMARK 922        TOTAL FREE ENERGY PREDICTED BY IDOCK:   -5.07 KCAL/MOL
REMARK 923 INTER-LIGAND FREE ENERGY PREDICTED BY IDOCK:   -5.60 KCAL/MOL
REMARK 924 INTRA-LIGAND FREE ENERGY PREDICTED BY IDOCK:    0.53 KCAL/MOL
REMARK 927      BINDING AFFINITY PREDICTED BY RF-SCORE:    0.00 PKD
ROOT
HETATM    1  C   UNL     1      -6.673  13.548  70.210  1.00  0.00     0.380 C  
HETATM    2  C   UNL     1      -6.409  14.996  69.803  1.00  0.00    -0.152 C  
HETATM    3  C   UNL     1      -5.290  15.581  70.670  1.00  0.00    -0.140 C  
HETATM    4  C   UNL     1      -6.096  15.066  68.295  1.00  0.00    -0.122 C  
ENDROOT
BRANCH   4   5
HETATM    5  C   UNL     1      -5.834  16.495  67.831  1.00  0.00    -0.141 C  
BRANCH   5   6
HETATM    6  C   UNL     1      -6.876  16.998  66.836  1.00  0.00    -0.247 C  
HETATM    7  C   UNL     1      -8.299  16.537  67.216  1.00  0.00    -0.197 C  
HETATM    8  C   UNL     1      -8.715  17.043  68.606  1.00  0.00    -0.261 C  
HETATM    9  C   UNL     1      -9.291  16.989  66.128  1.00  0.00    -0.245 C  
BRANCH   9  10
HETATM   10  C   UNL     1     -10.720  16.558  66.451  1.00  0.00    -0.146 C  
BRANCH  10  11
HETATM   11  C   UNL     1     -11.034  15.163  65.933  1.00  0.00    -0.339 C  
HETATM   12  C   UNL     1     -10.886  14.098  67.039  1.00  0.00    -0.295 C  
HETATM   13  C   UNL     1     -11.086  12.683  66.476  1.00  0.00    -0.320 C  
HETATM   14  C   UNL     1     -11.871  14.316  68.194  1.00  0.00    -0.374 C  
BRANCH  13  15
HETATM   15  C   UNL     1     -10.143  12.299  65.336  1.00  0.00    -0.292 C  
BRANCH  15  16
HETATM   16  C   UNL     1      -8.986  11.369  65.744  1.00  0.00    -0.159 C  
BRANCH  16  17
HETATM   17  C   UNL     1      -9.365  10.355  66.860  1.00  0.00    -0.162 C  
HETATM   18  C   UNL     1      -9.396   8.935  66.254  1.00  0.00    -0.279 C  
HETATM   19  C   UNL     1     -10.676  10.802  67.506  1.00  0.00    -0.312 C  
HETATM   20  C   UNL     1     -11.081   9.844  68.600  1.00  0.00    -0.182 C  
HETATM   21  C   UNL     1      -9.914   9.425  69.451  1.00  0.00    -0.189 A  
HETATM   22  C   UNL     1     -10.128   8.664  70.616  1.00  0.00    -0.237 A  
HETATM   23  C   UNL     1     -11.512   8.220  71.016  1.00  0.00    -0.303 C  
HETATM   24  C   UNL     1      -9.016   8.312  71.400  1.00  0.00    -0.166 A  
HETATM   25  C   UNL     1      -7.700   8.672  71.042  1.00  0.00    -0.120 A  
HETATM   26  O   UNL     1      -9.168   7.585  72.552  1.00  0.00    -0.136 OA 
HETATM   27  C   UNL     1      -6.542   8.267  71.917  1.00  0.00    -0.067 C  
HETATM   28  C   UNL     1      -7.488   9.404  69.851  1.00  0.00    -0.100 A  
HETATM   29  H   UNL     1      -8.416   7.347  73.082  1.00  0.00     0.000 HD 
HETATM   30  C   UNL     1      -8.600   9.755  69.055  1.00  0.00    -0.146 A  
HETATM   31  C   UNL     1      -6.110   9.804  69.386  1.00  0.00    -0.040 C  
HETATM   32  O   UNL     1      -8.322  10.403  67.865  1.00  0.00    -0.113 OA 
ENDBRANCH  16  17
ENDBRANCH  15  16
ENDBRANCH  13  15
ENDBRANCH  10  11
ENDBRANCH   9  10
ENDBRANCH   5   6
ENDBRANCH   4   5
TORSDOF 7
ENDMDL
MODEL      329
REMARK 921   NORMALIZED FREE ENERGY PREDICTED BY IDOCK:   -2.28 KCAL/MOL
REMARK 922        TOTAL FREE ENERGY PREDICTED BY IDOCK:   -4.97 KCAL/MOL
REMARK 923 INTER-LIGAND FREE ENERGY PREDICTED BY IDOCK:   -5.20 KCAL/MOL
REMARK 924 INTRA-LIGAND FREE ENERGY PREDICTED BY IDOCK:    0.23 KCAL/MOL
REMARK 927      BINDING AFFINITY PREDICTED BY RF-SCORE:    0.00 PKD
ROOT
HETATM    1  C   UNL     1      -6.858   2.536  70.507  1.00  0.00    -0.033 C  
HETATM    2  C   UNL     1      -7.946   3.532  70.901  1.00  0.00    -0.058 C  
HETATM    3  C   UNL     1      -8.401   3.259  72.338  1.00  0.00    -0.079 C  
HETATM    4  C   UNL     1      -7.433   4.972  70.700  1.00  0.00    -0.069 C  
ENDROOT
BRANCH   4   5
HETATM    5  C   UNL     1      -8.486   6.012  71.070  1.00  0.00    -0.124 C  
BRANCH   5   6
HETATM    6  C   UNL     1      -9.741   5.920  70.206  1.00  0.00    -0.212 C  
HETATM    7  C   UNL     1      -9.514   6.520  68.802  1.00  0.00    -0.128 C  
HETATM    8  C   UNL     1      -8.386   5.802  68.046  1.00  0.00    -0.103 C  
HETATM    9  C   UNL     1     -10.836   6.488  68.013  1.00  0.00    -0.372 C  
BRANCH   9  10
HETATM   10  C   UNL     1     -10.671   7.073  66.612  1.00  0.00    -0.133 C  
BRANCH  10  11
HETATM   11  C   UNL     1     -10.728   8.592  66.609  1.00  0.00     0.033 C  
HETATM   12  C   UNL     1      -9.339   9.214  66.355  1.00  0.00    -0.261 C  
HETATM   13  C   UNL     1      -9.385  10.744  66.476  1.00  0.00    -0.192 C  
HETATM   14  C   UNL     1      -8.777   8.842  64.977  1.00  0.00    -0.200 C  
BRANCH  13  15
HETATM   15  C   UNL     1      -9.889  11.273  67.818  1.00  0.00    -0.186 C  
BRANCH  15  16
HETATM   16  C   UNL     1      -8.848  12.070  68.627  1.00  0.00    -0.024 C  
BRANCH  16  17
HETATM   17  C   UNL     1      -8.446  13.419  67.968  1.00  0.00    -0.173 C  
HETATM   18  C   UNL     1      -8.875  13.397  66.484  1.00  0.00     0.005 C  
HETATM   19  C   UNL     1      -6.953  13.653  68.196  1.00  0.00    -0.119 C  
HETATM   20  C   UNL     1      -6.519  14.957  67.572  1.00  0.00    -0.105 C  
HETATM   21  C   UNL     1      -7.511  16.062  67.813  1.00  0.00    -0.153 A  
HETATM   22  C   UNL     1      -7.197  17.384  67.445  1.00  0.00    -0.188 A  
HETATM   23  C   UNL     1      -5.891  17.718  66.770  1.00  0.00    -0.195 C  
HETATM   24  C   UNL     1      -8.138  18.394  67.709  1.00  0.00    -0.254 A  
HETATM   25  C   UNL     1      -9.388  18.120  68.301  1.00  0.00    -0.312 A  
HETATM   26  O   UNL     1      -7.878  19.700  67.385  1.00  0.00    -0.254 OA 
HETATM   27  C   UNL     1     -10.362  19.240  68.560  1.00  0.00    -0.385 C  
HETATM   28  C   UNL     1      -9.713  16.785  68.634  1.00  0.00    -0.259 A  
HETATM   29  H   UNL     1      -8.515  20.383  67.564  1.00  0.00     0.000 HD 
HETATM   30  C   UNL     1      -8.775  15.764  68.366  1.00  0.00    -0.177 A  
HETATM   31  C   UNL     1     -11.039  16.407  69.246  1.00  0.00    -0.297 C  
HETATM   32  O   UNL     1      -9.180  14.470  68.643  1.00  0.00    -0.194 OA 
ENDBRANCH  16  17
ENDBRANCH  15  16
ENDBRANCH  13  15
ENDBRANCH  10  11
ENDBRANCH   9  10
ENDBRANCH   5   6
ENDBRANCH   4   5
TORSDOF 7
ENDMDL
MODEL      330
REMARK 921   NORMALIZED FREE ENERGY PREDICTED BY IDOCK:   -2.13 KCAL/MOL
REMARK 922        TOTAL FREE ENERGY PREDICTED BY IDOCK:   -4.75 KCAL/MOL
REMARK 923 INTER-LIGAND FREE ENERGY PREDICTED BY IDOCK:   -4.64 KCAL/MOL
REMARK 924 INTRA-LIGAND FREE ENERGY PREDICTED BY IDOCK:   -0.11 KCAL/MOL
REMARK 927      BINDING AFFINITY PREDICTED BY RF-SCORE:    0.00 PKD
ROOT
HETATM    1  C   UNL     1      -7.607  14.199  67.660  1.00  0.00    -0.193 C  
HETATM    2  C   UNL     1      -8.934  13.445  67.684  1.00  0.00    -0.202 C  
HETATM    3  C   UNL     1     -10.081  14.426  67.947  1.00  0.00    -0.228 C  
HETATM    4  C   UNL     1      -9.110  12.657  66.371  1.00  0.00    -0.114 C  
ENDROOT
BRANCH   4   5
HETATM    5  C   UNL     1     -10.420  11.874  66.345  1.00  0.00    -0.258 C  
BRANCH   5   6
HETATM    6  C   UNL     1     -10.396  10.647  67.253  1.00  0.00    -0.265 C  
HETATM    7  C   UNL     1     -10.377   9.335  66.442  1.00  0.00    -0.238 C  
HETATM    8  C   UNL     1      -9.150   9.245  65.523  1.00  0.00    -0.275 C  
HETATM    9  C   UNL     1     -10.453   8.136  67.406  1.00  0.00    -0.356 C  
BRANCH   9  10
HETATM   10  C   UNL     1     -10.439   6.806  66.656  1.00  0.00    -0.213 C  
BRANCH  10  11
HETATM   11  C   UNL     1      -9.028   6.287  66.426  1.00  0.00    -0.159 C  
HETATM   12  C   UNL     1      -8.651   5.191  67.444  1.00  0.00    -0.104 C  
HETATM   13  C   UNL     1      -7.185   4.762  67.281  1.00  0.00    -0.073 C  
HETATM   14  C   UNL     1      -9.547   3.952  67.326  1.00  0.00    -0.222 C  
BRANCH  13  15
HETATM   15  C   UNL     1      -6.161   5.889  67.413  1.00  0.00    -0.033 C  
BRANCH  15  16
HETATM   16  C   UNL     1      -6.359   6.796  68.642  1.00  0.00    -0.031 C  
BRANCH  16  17
HETATM   17  C   UNL     1      -6.533   6.013  69.973  1.00  0.00    -0.039 C  
HETATM   18  C   UNL     1      -5.948   6.855  71.128  1.00  0.00    -0.036 C  
HETATM   19  C   UNL     1      -5.907   4.627  69.815  1.00  0.00    -0.017 C  
HETATM   20  C   UNL     1      -6.055   3.829  71.088  1.00  0.00    -0.014 C  
HETATM   21  C   UNL     1      -7.420   3.986  71.702  1.00  0.00    -0.060 A  
HETATM   22  C   UNL     1      -7.792   3.190  72.801  1.00  0.00    -0.063 A  
HETATM   23  C   UNL     1      -6.832   2.201  73.412  1.00  0.00    -0.023 C  
HETATM   24  C   UNL     1      -9.084   3.347  73.333  1.00  0.00    -0.093 A  
HETATM   25  C   UNL     1      -9.999   4.287  72.820  1.00  0.00    -0.206 A  
HETATM   26  O   UNL     1      -9.505   2.588  74.395  1.00  0.00    -0.080 OA 
HETATM   27  C   UNL     1     -11.372   4.416  73.429  1.00  0.00    -0.353 C  
HETATM   28  C   UNL     1      -9.605   5.110  71.739  1.00  0.00    -0.199 A  
HETATM   29  H   UNL     1     -10.378   2.694  74.754  1.00  0.00     0.000 HD 
HETATM   30  C   UNL     1      -8.307   4.964  71.204  1.00  0.00    -0.113 A  
HETATM   31  C   UNL     1     -10.517   6.158  71.150  1.00  0.00    -0.281 C  
HETATM   32  O   UNL     1      -7.954   5.847  70.200  1.00  0.00    -0.097 OA 
ENDBRANCH  16  17
ENDBRANCH  15  16
ENDBRANCH  13  15
ENDBRANCH  10  11
ENDBRANCH   9  10
ENDBRANCH   5   6
ENDBRANCH   4   5
TORSDOF 7
ENDMDL
MODEL      331
REMARK 921   NORMALIZED FREE ENERGY PREDICTED BY IDOCK:   -2.11 KCAL/MOL
REMARK 922        TOTAL FREE ENERGY PREDICTED BY IDOCK:   -4.73 KCAL/MOL
REMARK 923 INTER-LIGAND FREE ENERGY PREDICTED BY IDOCK:   -4.91 KCAL/MOL
REMARK 924 INTRA-LIGAND FREE ENERGY PREDICTED BY IDOCK:    0.18 KCAL/MOL
REMARK 927      BINDING AFFINITY PREDICTED BY RF-SCORE:    0.00 PKD
ROOT
HETATM    1  C   UNL     1     -10.194  17.748  66.138  1.00  0.00    -0.339 C  
HETATM    2  C   UNL     1     -10.251  16.392  66.838  1.00  0.00    -0.290 C  
HETATM    3  C   UNL     1      -8.835  15.830  66.993  1.00  0.00    -0.241 C  
HETATM    4  C   UNL     1     -10.990  16.531  68.184  1.00  0.00    -0.336 C  
ENDROOT
BRANCH   4   5
HETATM    5  C   UNL     1     -11.086  15.199  68.923  1.00  0.00    -0.276 C  
BRANCH   5   6
HETATM    6  C   UNL     1     -11.389  14.026  67.995  1.00  0.00    -0.320 C  
HETATM    7  C   UNL     1     -11.236  12.671  68.717  1.00  0.00    -0.325 C  
HETATM    8  C   UNL     1     -12.179  12.553  69.924  1.00  0.00    -0.233 C  
HETATM    9  C   UNL     1     -11.458  11.527  67.710  1.00  0.00    -0.357 C  
BRANCH   9  10
HETATM   10  C   UNL     1     -11.317  10.157  68.371  1.00  0.00    -0.179 C  
BRANCH  10  11
HETATM   11  C   UNL     1     -10.140   9.368  67.820  1.00  0.00    -0.246 C  
HETATM   12  C   UNL     1      -9.989   9.558  66.296  1.00  0.00    -0.344 C  
HETATM   13  C   UNL     1      -8.875   8.663  65.733  1.00  0.00    -0.231 C  
HETATM   14  C   UNL     1      -9.695  11.014  65.916  1.00  0.00    -0.267 C  
BRANCH  13  15
HETATM   15  C   UNL     1      -9.049   7.168  65.998  1.00  0.00    -0.108 C  
BRANCH  15  16
HETATM   16  C   UNL     1      -7.793   6.462  66.543  1.00  0.00    -0.104 C  
BRANCH  16  17
HETATM   17  C   UNL     1      -7.711   6.444  68.095  1.00  0.00    -0.104 C  
HETATM   18  C   UNL     1      -9.145   6.452  68.670  1.00  0.00    -0.127 C  
HETATM   19  C   UNL     1      -6.834   7.608  68.555  1.00  0.00    -0.066 C  
HETATM   20  C   UNL     1      -6.725   7.627  70.061  1.00  0.00    -0.049 C  
HETATM   21  C   UNL     1      -6.532   6.251  70.636  1.00  0.00    -0.044 A  
HETATM   22  C   UNL     1      -6.250   6.092  72.005  1.00  0.00    -0.042 A  
HETATM   23  C   UNL     1      -6.174   7.281  72.931  1.00  0.00    -0.055 C  
HETATM   24  C   UNL     1      -6.051   4.793  72.502  1.00  0.00    -0.021 A  
HETATM   25  C   UNL     1      -6.151   3.651  71.681  1.00  0.00    -0.014 A  
HETATM   26  O   UNL     1      -5.758   4.581  73.825  1.00  0.00    -0.011 OA 
HETATM   27  C   UNL     1      -5.931   2.279  72.265  1.00  0.00    -0.009 C  
HETATM   28  C   UNL     1      -6.473   3.814  70.314  1.00  0.00    -0.032 A  
HETATM   29  H   UNL     1      -5.624   3.703  74.160  1.00  0.00     0.000 HD 
HETATM   30  C   UNL     1      -6.681   5.116  69.809  1.00  0.00    -0.047 A  
HETATM   31  C   UNL     1      -6.625   2.642  69.376  1.00  0.00    -0.033 C  
HETATM   32  O   UNL     1      -7.067   5.206  68.484  1.00  0.00    -0.059 OA 
ENDBRANCH  16  17
ENDBRANCH  15  16
ENDBRANCH  13  15
ENDBRANCH  10  11
ENDBRANCH   9  10
ENDBRANCH   5   6
ENDBRANCH   4   5
TORSDOF 7
ENDMDL
MODEL      332
REMARK 921   NORMALIZED FREE ENERGY PREDICTED BY IDOCK:   -2.11 KCAL/MOL
REMARK 922        TOTAL FREE ENERGY PREDICTED BY IDOCK:   -4.73 KCAL/MOL
REMARK 923 INTER-LIGAND FREE ENERGY PREDICTED BY IDOCK:   -4.20 KCAL/MOL
REMARK 924 INTRA-LIGAND FREE ENERGY PREDICTED BY IDOCK:   -0.53 KCAL/MOL
REMARK 927      BINDING AFFINITY PREDICTED BY RF-SCORE:    0.00 PKD
ROOT
HETATM    1  C   UNL     1      -8.005   7.238  73.125  1.00  0.00    -0.120 C  
HETATM    2  C   UNL     1      -8.597   5.874  72.776  1.00  0.00    -0.122 C  
HETATM    3  C   UNL     1     -10.119   5.988  72.653  1.00  0.00    -0.198 C  
HETATM    4  C   UNL     1      -7.932   5.330  71.496  1.00  0.00    -0.114 C  
ENDROOT
BRANCH   4   5
HETATM    5  C   UNL     1      -8.481   3.961  71.105  1.00  0.00    -0.099 C  
BRANCH   5   6
HETATM    6  C   UNL     1      -9.429   4.020  69.911  1.00  0.00    -0.265 C  
HETATM    7  C   UNL     1      -8.722   4.544  68.644  1.00  0.00    -0.118 C  
HETATM    8  C   UNL     1      -7.536   3.658  68.239  1.00  0.00    -0.057 C  
HETATM    9  C   UNL     1      -9.749   4.674  67.502  1.00  0.00    -0.213 C  
BRANCH   9  10
HETATM   10  C   UNL     1      -9.104   5.193  66.219  1.00  0.00    -0.136 C  
BRANCH  10  11
HETATM   11  C   UNL     1      -8.679   6.648  66.333  1.00  0.00    -0.144 C  
HETATM   12  C   UNL     1      -7.565   6.997  65.324  1.00  0.00    -0.099 C  
HETATM   13  C   UNL     1      -7.058   8.432  65.531  1.00  0.00    -0.074 C  
HETATM   14  C   UNL     1      -8.023   6.837  63.870  1.00  0.00    -0.069 C  
BRANCH  13  15
HETATM   15  C   UNL     1      -6.527   8.737  66.931  1.00  0.00    -0.061 C  
BRANCH  15  16
HETATM   16  C   UNL     1      -7.575   9.305  67.907  1.00  0.00    -0.084 C  
BRANCH  16  17
HETATM   17  C   UNL     1      -7.745  10.847  67.811  1.00  0.00    -0.107 C  
HETATM   18  C   UNL     1      -7.527  11.284  66.346  1.00  0.00    -0.064 C  
HETATM   19  C   UNL     1      -6.807  11.509  68.820  1.00  0.00    -0.084 C  
HETATM   20  C   UNL     1      -6.942  13.012  68.763  1.00  0.00    -0.103 C  
HETATM   21  C   UNL     1      -8.376  13.451  68.651  1.00  0.00    -0.010 A  
HETATM   22  C   UNL     1      -8.704  14.816  68.748  1.00  0.00    -0.178 A  
HETATM   23  C   UNL     1      -7.637  15.866  68.924  1.00  0.00    -0.190 C  
HETATM   24  C   UNL     1     -10.057  15.187  68.663  1.00  0.00    -0.222 A  
HETATM   25  C   UNL     1     -11.084  14.242  68.458  1.00  0.00    -0.276 A  
HETATM   26  O   UNL     1     -10.435  16.500  68.766  1.00  0.00    -0.268 OA 
HETATM   27  C   UNL     1     -12.519  14.694  68.372  1.00  0.00     0.196 C  
HETATM   28  C   UNL     1     -10.744  12.876  68.323  1.00  0.00    -0.261 A  
HETATM   29  H   UNL     1     -11.350  16.751  68.709  1.00  0.00     0.000 HD 
HETATM   30  C   UNL     1      -9.386  12.497  68.400  1.00  0.00    -0.149 A  
HETATM   31  C   UNL     1     -11.781  11.809  68.076  1.00  0.00    -0.363 C  
HETATM   32  O   UNL     1      -9.109  11.159  68.185  1.00  0.00    -0.147 OA 
ENDBRANCH  16  17
ENDBRANCH  15  16
ENDBRANCH  13  15
ENDBRANCH  10  11
ENDBRANCH   9  10
ENDBRANCH   5   6
ENDBRANCH   4   5
TORSDOF 7
ENDMDL
MODEL      333
REMARK 921   NORMALIZED FREE ENERGY PREDICTED BY IDOCK:   -2.05 KCAL/MOL
REMARK 922        TOTAL FREE ENERGY PREDICTED BY IDOCK:   -4.65 KCAL/MOL
REMARK 923 INTER-LIGAND FREE ENERGY PREDICTED BY IDOCK:   -3.48 KCAL/MOL
REMARK 924 INTRA-LIGAND FREE ENERGY PREDICTED BY IDOCK:   -1.17 KCAL/MOL
REMARK 927      BINDING AFFINITY PREDICTED BY RF-SCORE:    0.00 PKD
ROOT
HETATM    1  C   UNL     1     -11.000  19.537  67.349  1.00  0.00    -0.427 C  
HETATM    2  C   UNL     1      -9.527  19.151  67.461  1.00  0.00    -0.365 C  
HETATM    3  C   UNL     1      -9.269  17.861  66.675  1.00  0.00    -0.288 C  
HETATM    4  C   UNL     1      -8.643  20.324  66.992  1.00  0.00    -0.398 C  
ENDROOT
BRANCH   4   5
HETATM    5  C   UNL     1      -7.156  19.995  67.092  1.00  0.00    -0.266 C  
BRANCH   5   6
HETATM    6  C   UNL     1      -6.677  19.846  68.533  1.00  0.00    -0.338 C  
HETATM    7  C   UNL     1      -6.293  18.388  68.862  1.00  0.00    -0.237 C  
HETATM    8  C   UNL     1      -5.168  17.872  67.952  1.00  0.00    -0.139 C  
HETATM    9  C   UNL     1      -5.913  18.282  70.351  1.00  0.00    -0.004 C  
BRANCH   9  10
HETATM   10  C   UNL     1      -5.524  16.856  70.734  1.00  0.00    -0.091 C  
BRANCH  10  11
HETATM   11  C   UNL     1      -6.632  15.857  70.444  1.00  0.00     0.388 C  
HETATM   12  C   UNL     1      -6.486  15.236  69.039  1.00  0.00    -0.111 C  
HETATM   13  C   UNL     1      -7.676  14.322  68.710  1.00  0.00    -0.134 C  
HETATM   14  C   UNL     1      -5.188  14.434  68.888  1.00  0.00    -0.088 C  
BRANCH  13  15
HETATM   15  C   UNL     1      -9.047  14.993  68.779  1.00  0.00    -0.197 C  
BRANCH  15  16
HETATM   16  C   UNL     1     -10.087  14.435  67.789  1.00  0.00    -0.226 C  
BRANCH  16  17
HETATM   17  C   UNL     1     -11.042  13.381  68.417  1.00  0.00    -0.273 C  
HETATM   18  C   UNL     1     -12.424  13.491  67.736  1.00  0.00     0.240 C  
HETATM   19  C   UNL     1     -11.062  13.576  69.933  1.00  0.00     0.127 C  
HETATM   20  C   UNL     1     -11.978  12.569  70.585  1.00  0.00    -0.196 C  
HETATM   21  C   UNL     1     -11.826  11.194  69.993  1.00  0.00    -0.441 A  
HETATM   22  C   UNL     1     -12.481  10.097  70.583  1.00  0.00    -0.372 A  
HETATM   23  C   UNL     1     -13.374  10.274  71.786  1.00  0.00    -0.476 C  
HETATM   24  C   UNL     1     -12.297   8.824  70.018  1.00  0.00     0.974 A  
HETATM   25  C   UNL     1     -11.503   8.619  68.870  1.00  0.00     0.788 A  
HETATM   26  O   UNL     1     -12.898   7.718  70.560  1.00  0.00    -0.340 OA 
HETATM   27  C   UNL     1     -11.340   7.233  68.302  1.00  0.00     0.372 C  
HETATM   28  C   UNL     1     -10.879   9.732  68.259  1.00  0.00    -0.256 A  
HETATM   29  H   UNL     1     -12.773   6.857  70.178  1.00  0.00     0.000 HD 
HETATM   30  C   UNL     1     -11.066  11.015  68.818  1.00  0.00    -0.239 A  
HETATM   31  C   UNL     1     -10.036   9.599  67.015  1.00  0.00    -0.275 C  
HETATM   32  O   UNL     1     -10.493  12.071  68.133  1.00  0.00    -0.190 OA 
ENDBRANCH  16  17
ENDBRANCH  15  16
ENDBRANCH  13  15
ENDBRANCH  10  11
ENDBRANCH   9  10
ENDBRANCH   5   6
ENDBRANCH   4   5
TORSDOF 7
ENDMDL
MODEL      334
REMARK 921   NORMALIZED FREE ENERGY PREDICTED BY IDOCK:   -2.02 KCAL/MOL
REMARK 922        TOTAL FREE ENERGY PREDICTED BY IDOCK:   -4.60 KCAL/MOL
REMARK 923 INTER-LIGAND FREE ENERGY PREDICTED BY IDOCK:   -3.51 KCAL/MOL
REMARK 924 INTRA-LIGAND FREE ENERGY PREDICTED BY IDOCK:   -1.09 KCAL/MOL
REMARK 927      BINDING AFFINITY PREDICTED BY RF-SCORE:    0.00 PKD
ROOT
HETATM    1  C   UNL     1      -7.671   3.116  64.846  1.00  0.00    -0.078 C  
HETATM    2  C   UNL     1      -8.147   4.323  65.652  1.00  0.00    -0.105 C  
HETATM    3  C   UNL     1      -7.134   4.639  66.757  1.00  0.00    -0.075 C  
HETATM    4  C   UNL     1      -8.393   5.516  64.708  1.00  0.00    -0.136 C  
ENDROOT
BRANCH   4   5
HETATM    5  C   UNL     1      -8.882   6.750  65.461  1.00  0.00     0.014 C  
BRANCH   5   6
HETATM    6  C   UNL     1      -7.969   7.959  65.276  1.00  0.00    -0.126 C  
HETATM    7  C   UNL     1      -7.423   8.476  66.623  1.00  0.00    -0.082 C  
HETATM    8  C   UNL     1      -6.612   7.403  67.365  1.00  0.00    -0.061 C  
HETATM    9  C   UNL     1      -6.591   9.750  66.383  1.00  0.00    -0.072 C  
BRANCH   9  10
HETATM   10  C   UNL     1      -6.025  10.309  67.686  1.00  0.00    -0.052 C  
BRANCH  10  11
HETATM   11  C   UNL     1      -7.093  10.478  68.755  1.00  0.00    -0.073 C  
HETATM   12  C   UNL     1      -7.012   9.366  69.822  1.00  0.00    -0.065 C  
HETATM   13  C   UNL     1      -8.169   9.476  70.826  1.00  0.00    -0.084 C  
HETATM   14  C   UNL     1      -5.685   9.390  70.590  1.00  0.00    -0.052 C  
BRANCH  13  15
HETATM   15  C   UNL     1      -9.568   9.427  70.212  1.00  0.00    -0.294 C  
BRANCH  15  16
HETATM   16  C   UNL     1     -10.269  10.793  70.098  1.00  0.00     0.383 C  
BRANCH  16  17
HETATM   17  C   UNL     1     -10.940  11.036  68.717  1.00  0.00    -0.221 C  
HETATM   18  C   UNL     1     -12.472  10.931  68.881  1.00  0.00     0.380 C  
HETATM   19  C   UNL     1     -10.340  10.066  67.700  1.00  0.00    -0.272 C  
HETATM   20  C   UNL     1     -10.963  10.269  66.340  1.00  0.00     0.077 C  
HETATM   21  C   UNL     1     -11.127  11.726  66.002  1.00  0.00    -0.363 A  
HETATM   22  C   UNL     1     -11.541  12.106  64.711  1.00  0.00    -0.380 A  
HETATM   23  C   UNL     1     -11.866  11.077  63.659  1.00  0.00     0.930 C  
HETATM   24  C   UNL     1     -11.660  13.477  64.424  1.00  0.00    -0.396 A  
HETATM   25  C   UNL     1     -11.405  14.472  65.389  1.00  0.00    -0.341 A  
HETATM   26  O   UNL     1     -12.044  13.905  63.179  1.00  0.00    -0.950 OA 
HETATM   27  C   UNL     1     -11.550  15.929  65.029  1.00  0.00     0.039 C  
HETATM   28  C   UNL     1     -11.027  14.082  66.695  1.00  0.00    -0.300 A  
HETATM   29  H   UNL     1     -12.124  14.831  62.985  1.00  0.00     0.000 HD 
HETATM   30  C   UNL     1     -10.912  12.707  66.993  1.00  0.00    -0.265 A  
HETATM   31  C   UNL     1     -10.763  15.085  67.791  1.00  0.00    -0.278 C  
HETATM   32  O   UNL     1     -10.613  12.386  68.305  1.00  0.00    -0.208 OA 
ENDBRANCH  16  17
ENDBRANCH  15  16
ENDBRANCH  13  15
ENDBRANCH  10  11
ENDBRANCH   9  10
ENDBRANCH   5   6
ENDBRANCH   4   5
TORSDOF 7
ENDMDL
MODEL      335
REMARK 921   NORMALIZED FREE ENERGY PREDICTED BY IDOCK:   -1.98 KCAL/MOL
REMARK 922        TOTAL FREE ENERGY PREDICTED BY IDOCK:   -4.54 KCAL/MOL
REMARK 923 INTER-LIGAND FREE ENERGY PREDICTED BY IDOCK:   -4.14 KCAL/MOL
REMARK 924 INTRA-LIGAND FREE ENERGY PREDICTED BY IDOCK:   -0.40 KCAL/MOL
REMARK 927      BINDING AFFINITY PREDICTED BY RF-SCORE:    0.00 PKD
ROOT
HETATM    1  C   UNL     1     -13.331  13.056  72.784  1.00  0.00     0.011 C  
HETATM    2  C   UNL     1     -12.833  13.574  71.436  1.00  0.00    -0.440 C  
HETATM    3  C   UNL     1     -12.954  12.471  70.381  1.00  0.00     0.353 C  
HETATM    4  C   UNL     1     -13.600  14.855  71.054  1.00  0.00    -0.402 C  
ENDROOT
BRANCH   4   5
HETATM    5  C   UNL     1     -13.134  15.423  69.716  1.00  0.00     0.392 C  
BRANCH   5   6
HETATM    6  C   UNL     1     -11.780  14.872  69.277  1.00  0.00    -0.344 C  
HETATM    7  C   UNL     1     -10.625  15.826  69.648  1.00  0.00    -0.295 C  
HETATM    8  C   UNL     1     -10.547  16.072  71.162  1.00  0.00     0.583 C  
HETATM    9  C   UNL     1      -9.301  15.265  69.095  1.00  0.00    -0.236 C  
BRANCH   9  10
HETATM   10  C   UNL     1      -8.120  16.172  69.432  1.00  0.00    -0.097 C  
BRANCH  10  11
HETATM   11  C   UNL     1      -6.784  15.460  69.286  1.00  0.00    -0.150 C  
HETATM   12  C   UNL     1      -6.435  15.202  67.806  1.00  0.00    -0.182 C  
HETATM   13  C   UNL     1      -5.147  14.376  67.675  1.00  0.00     0.112 C  
HETATM   14  C   UNL     1      -6.273  16.503  67.010  1.00  0.00    -0.193 C  
BRANCH  13  15
HETATM   15  C   UNL     1      -5.169  13.024  68.387  1.00  0.00    -0.071 C  
BRANCH  15  16
HETATM   16  C   UNL     1      -6.559  12.580  68.881  1.00  0.00    -0.095 C  
BRANCH  16  17
HETATM   17  C   UNL     1      -7.361  11.761  67.831  1.00  0.00    -0.098 C  
HETATM   18  C   UNL     1      -8.329  10.812  68.570  1.00  0.00    -0.138 C  
HETATM   19  C   UNL     1      -6.376  11.063  66.894  1.00  0.00    -0.104 C  
HETATM   20  C   UNL     1      -7.114  10.256  65.853  1.00  0.00    -0.131 C  
HETATM   21  C   UNL     1      -8.303  10.992  65.300  1.00  0.00     0.056 A  
HETATM   22  C   UNL     1      -9.014  10.462  64.207  1.00  0.00    -0.249 A  
HETATM   23  C   UNL     1      -8.632   9.139  63.594  1.00  0.00    -0.180 C  
HETATM   24  C   UNL     1     -10.105  11.190  63.701  1.00  0.00    -0.379 A  
HETATM   25  C   UNL     1     -10.521  12.412  64.269  1.00  0.00    -0.389 A  
HETATM   26  O   UNL     1     -10.823  10.729  62.629  1.00  0.00    -0.629 OA 
HETATM   27  C   UNL     1     -11.699  13.151  63.689  1.00  0.00    -0.505 C  
HETATM   28  C   UNL     1      -9.826  12.920  65.391  1.00  0.00    -0.133 A  
HETATM   29  H   UNL     1     -11.560  11.221  62.287  1.00  0.00     0.000 HD 
HETATM   30  C   UNL     1      -8.734  12.191  65.909  1.00  0.00     0.275 A  
HETATM   31  C   UNL     1     -10.226  14.206  66.071  1.00  0.00    -0.318 C  
HETATM   32  O   UNL     1      -8.143  12.699  67.051  1.00  0.00    -0.162 OA 
ENDBRANCH  16  17
ENDBRANCH  15  16
ENDBRANCH  13  15
ENDBRANCH  10  11
ENDBRANCH   9  10
ENDBRANCH   5   6
ENDBRANCH   4   5
TORSDOF 7
ENDMDL
MODEL      336
REMARK 921   NORMALIZED FREE ENERGY PREDICTED BY IDOCK:   -1.97 KCAL/MOL
REMARK 922        TOTAL FREE ENERGY PREDICTED BY IDOCK:   -4.54 KCAL/MOL
REMARK 923 INTER-LIGAND FREE ENERGY PREDICTED BY IDOCK:   -5.44 KCAL/MOL
REMARK 924 INTRA-LIGAND FREE ENERGY PREDICTED BY IDOCK:    0.90 KCAL/MOL
REMARK 927      BINDING AFFINITY PREDICTED BY RF-SCORE:    0.00 PKD
ROOT
HETATM    1  C   UNL     1     -14.344  15.083  72.265  1.00  0.00    -0.540 C  
HETATM    2  C   UNL     1     -12.866  15.065  71.882  1.00  0.00    -0.414 C  
HETATM    3  C   UNL     1     -12.417  13.624  71.621  1.00  0.00    -0.269 C  
HETATM    4  C   UNL     1     -12.628  15.994  70.675  1.00  0.00    -0.000 C  
ENDROOT
BRANCH   4   5
HETATM    5  C   UNL     1     -11.162  16.021  70.256  1.00  0.00    -0.397 C  
BRANCH   5   6
HETATM    6  C   UNL     1     -10.977  16.030  68.740  1.00  0.00    -0.320 C  
HETATM    7  C   UNL     1     -10.902  14.600  68.165  1.00  0.00    -0.256 C  
HETATM    8  C   UNL     1     -12.173  13.792  68.464  1.00  0.00    -0.194 C  
HETATM    9  C   UNL     1     -10.618  14.672  66.652  1.00  0.00    -0.289 C  
BRANCH   9  10
HETATM   10  C   UNL     1     -10.531  13.281  66.027  1.00  0.00    -0.289 C  
BRANCH  10  11
HETATM   11  C   UNL     1     -10.468  12.181  67.074  1.00  0.00    -0.244 C  
HETATM   12  C   UNL     1      -9.012  11.786  67.399  1.00  0.00    -0.173 C  
HETATM   13  C   UNL     1      -8.963  10.592  68.364  1.00  0.00    -0.141 C  
HETATM   14  C   UNL     1      -8.214  12.947  68.005  1.00  0.00    -0.168 C  
BRANCH  13  15
HETATM   15  C   UNL     1      -9.686   9.336  67.879  1.00  0.00    -0.180 C  
BRANCH  15  16
HETATM   16  C   UNL     1      -8.786   8.315  67.157  1.00  0.00    -0.145 C  
BRANCH  16  17
HETATM   17  C   UNL     1      -8.017   7.370  68.123  1.00  0.00    -0.123 C  
HETATM   18  C   UNL     1      -6.858   8.156  68.773  1.00  0.00    -0.066 C  
HETATM   19  C   UNL     1      -7.587   6.122  67.352  1.00  0.00    -0.090 C  
HETATM   20  C   UNL     1      -6.837   5.173  68.255  1.00  0.00    -0.056 C  
HETATM   21  C   UNL     1      -7.477   5.050  69.610  1.00  0.00    -0.057 A  
HETATM   22  C   UNL     1      -7.009   4.089  70.526  1.00  0.00    -0.034 A  
HETATM   23  C   UNL     1      -5.842   3.195  70.193  1.00  0.00    -0.018 C  
HETATM   24  C   UNL     1      -7.648   3.987  71.774  1.00  0.00    -0.061 A  
HETATM   25  C   UNL     1      -8.717   4.830  72.142  1.00  0.00    -0.131 A  
HETATM   26  O   UNL     1      -7.244   3.059  72.698  1.00  0.00    -0.038 OA 
HETATM   27  C   UNL     1      -9.365   4.680  73.494  1.00  0.00    -0.127 C  
HETATM   28  C   UNL     1      -9.157   5.819  71.232  1.00  0.00    -0.151 A  
HETATM   29  H   UNL     1      -7.676   2.990  73.542  1.00  0.00     0.000 HD 
HETATM   30  C   UNL     1      -8.515   5.932  69.980  1.00  0.00    -0.126 A  
HETATM   31  C   UNL     1     -10.276   6.775  71.562  1.00  0.00    -0.210 C  
HETATM   32  O   UNL     1      -8.940   6.966  69.164  1.00  0.00    -0.134 OA 
ENDBRANCH  16  17
ENDBRANCH  15  16
ENDBRANCH  13  15
ENDBRANCH  10  11
ENDBRANCH   9  10
ENDBRANCH   5   6
ENDBRANCH   4   5
TORSDOF 7
ENDMDL
MODEL      337
REMARK 921   NORMALIZED FREE ENERGY PREDICTED BY IDOCK:   -1.92 KCAL/MOL
REMARK 922        TOTAL FREE ENERGY PREDICTED BY IDOCK:   -4.46 KCAL/MOL
REMARK 923 INTER-LIGAND FREE ENERGY PREDICTED BY IDOCK:   -5.07 KCAL/MOL
REMARK 924 INTRA-LIGAND FREE ENERGY PREDICTED BY IDOCK:    0.61 KCAL/MOL
REMARK 927      BINDING AFFINITY PREDICTED BY RF-SCORE:    0.00 PKD
ROOT
HETATM    1  C   UNL     1      -8.040   8.335  74.155  1.00  0.00    -0.284 C  
HETATM    2  C   UNL     1      -7.785   6.875  73.787  1.00  0.00    -0.103 C  
HETATM    3  C   UNL     1      -9.081   6.236  73.280  1.00  0.00    -0.131 C  
HETATM    4  C   UNL     1      -6.635   6.788  72.765  1.00  0.00    -0.066 C  
ENDROOT
BRANCH   4   5
HETATM    5  C   UNL     1      -6.330   5.346  72.369  1.00  0.00    -0.050 C  
BRANCH   5   6
HETATM    6  C   UNL     1      -7.560   4.598  71.861  1.00  0.00    -0.088 C  
HETATM    7  C   UNL     1      -7.583   4.515  70.321  1.00  0.00    -0.050 C  
HETATM    8  C   UNL     1      -6.348   3.791  69.765  1.00  0.00    -0.028 C  
HETATM    9  C   UNL     1      -8.890   3.838  69.865  1.00  0.00    -0.147 C  
BRANCH   9  10
HETATM   10  C   UNL     1      -8.969   3.730  68.344  1.00  0.00    -0.170 C  
BRANCH  10  11
HETATM   11  C   UNL     1      -8.870   5.085  67.662  1.00  0.00    -0.104 C  
HETATM   12  C   UNL     1      -9.210   4.994  66.160  1.00  0.00    -0.149 C  
HETATM   13  C   UNL     1      -8.988   6.342  65.458  1.00  0.00     0.016 C  
HETATM   14  C   UNL     1     -10.654   4.540  65.916  1.00  0.00    -0.194 C  
BRANCH  13  15
HETATM   15  C   UNL     1      -7.574   6.910  65.578  1.00  0.00    -0.091 C  
BRANCH  15  16
HETATM   16  C   UNL     1      -7.377   7.903  66.739  1.00  0.00    -0.089 C  
BRANCH  16  17
HETATM   17  C   UNL     1      -8.407   9.067  66.745  1.00  0.00    -0.115 C  
HETATM   18  C   UNL     1      -9.336   8.905  67.968  1.00  0.00    -0.153 C  
HETATM   19  C   UNL     1      -9.128   9.094  65.397  1.00  0.00    -0.271 C  
HETATM   20  C   UNL     1     -10.140  10.214  65.359  1.00  0.00    -0.342 C  
HETATM   21  C   UNL     1      -9.607  11.483  65.966  1.00  0.00    -0.251 A  
HETATM   22  C   UNL     1     -10.351  12.674  65.872  1.00  0.00    -0.295 A  
HETATM   23  C   UNL     1     -11.702  12.702  65.204  1.00  0.00    -0.407 C  
HETATM   24  C   UNL     1      -9.811  13.846  66.430  1.00  0.00    -0.295 A  
HETATM   25  C   UNL     1      -8.569  13.857  67.099  1.00  0.00    -0.217 A  
HETATM   26  O   UNL     1     -10.484  15.037  66.355  1.00  0.00    -0.279 OA 
HETATM   27  C   UNL     1      -8.036  15.141  67.681  1.00  0.00    -0.177 C  
HETATM   28  C   UNL     1      -7.845  12.648  67.223  1.00  0.00    -0.155 A  
HETATM   29  H   UNL     1     -10.119  15.829  66.732  1.00  0.00     0.000 HD 
HETATM   30  C   UNL     1      -8.385  11.466  66.671  1.00  0.00    -0.172 A  
HETATM   31  C   UNL     1      -6.523  12.572  67.946  1.00  0.00    -0.105 C  
HETATM   32  O   UNL     1      -7.668  10.304  66.891  1.00  0.00    -0.102 OA 
ENDBRANCH  16  17
ENDBRANCH  15  16
ENDBRANCH  13  15
ENDBRANCH  10  11
ENDBRANCH   9  10
ENDBRANCH   5   6
ENDBRANCH   4   5
TORSDOF 7
ENDMDL
MODEL      338
REMARK 921   NORMALIZED FREE ENERGY PREDICTED BY IDOCK:   -1.91 KCAL/MOL
REMARK 922        TOTAL FREE ENERGY PREDICTED BY IDOCK:   -4.44 KCAL/MOL
REMARK 923 INTER-LIGAND FREE ENERGY PREDICTED BY IDOCK:   -4.31 KCAL/MOL
REMARK 924 INTRA-LIGAND FREE ENERGY PREDICTED BY IDOCK:   -0.13 KCAL/MOL
REMARK 927      BINDING AFFINITY PREDICTED BY RF-SCORE:    0.00 PKD
ROOT
HETATM    1  C   UNL     1     -11.985  12.770  69.664  1.00  0.00    -0.354 C  
HETATM    2  C   UNL     1     -11.663  12.674  68.174  1.00  0.00    -0.396 C  
HETATM    3  C   UNL     1     -11.654  11.205  67.741  1.00  0.00    -0.303 C  
HETATM    4  C   UNL     1     -12.661  13.530  67.368  1.00  0.00     0.346 C  
ENDROOT
BRANCH   4   5
HETATM    5  C   UNL     1     -12.378  13.478  65.870  1.00  0.00    -0.507 C  
BRANCH   5   6
HETATM    6  C   UNL     1     -11.671  14.729  65.356  1.00  0.00    -0.289 C  
HETATM    7  C   UNL     1     -10.326  14.964  66.075  1.00  0.00    -0.313 C  
HETATM    8  C   UNL     1      -9.360  13.785  65.886  1.00  0.00     0.032 C  
HETATM    9  C   UNL     1      -9.709  16.288  65.586  1.00  0.00    -0.206 C  
BRANCH   9  10
HETATM   10  C   UNL     1      -8.372  16.573  66.268  1.00  0.00    -0.364 C  
BRANCH  10  11
HETATM   11  C   UNL     1      -7.841  15.368  67.026  1.00  0.00    -0.244 C  
HETATM   12  C   UNL     1      -7.318  15.758  68.423  1.00  0.00    -0.117 C  
HETATM   13  C   UNL     1      -6.673  14.557  69.131  1.00  0.00    -0.115 C  
HETATM   14  C   UNL     1      -8.422  16.328  69.322  1.00  0.00    -0.148 C  
BRANCH  13  15
HETATM   15  C   UNL     1      -5.520  13.900  68.372  1.00  0.00    -0.101 C  
BRANCH  15  16
HETATM   16  C   UNL     1      -5.922  12.678  67.524  1.00  0.00    -0.151 C  
BRANCH  16  17
HETATM   17  C   UNL     1      -6.510  11.507  68.360  1.00  0.00    -0.051 C  
HETATM   18  C   UNL     1      -8.032  11.717  68.513  1.00  0.00    -0.145 C  
HETATM   19  C   UNL     1      -5.744  11.410  69.679  1.00  0.00    -0.074 C  
HETATM   20  C   UNL     1      -6.282  10.280  70.523  1.00  0.00    -0.116 C  
HETATM   21  C   UNL     1      -6.563   9.046  69.711  1.00  0.00    -0.045 A  
HETATM   22  C   UNL     1      -6.915   7.844  70.353  1.00  0.00    -0.045 A  
HETATM   23  C   UNL     1      -7.059   7.772  71.852  1.00  0.00    -0.067 C  
HETATM   24  C   UNL     1      -7.146   6.705  69.563  1.00  0.00    -0.076 A  
HETATM   25  C   UNL     1      -7.062   6.737  68.156  1.00  0.00    -0.086 A  
HETATM   26  O   UNL     1      -7.478   5.505  70.137  1.00  0.00    -0.066 OA 
HETATM   27  C   UNL     1      -7.322   5.487  67.355  1.00  0.00    -0.076 C  
HETATM   28  C   UNL     1      -6.745   7.957  67.514  1.00  0.00    -0.069 A  
HETATM   29  H   UNL     1      -7.634   4.735  69.602  1.00  0.00     0.000 HD 
HETATM   30  C   UNL     1      -6.518   9.107  68.301  1.00  0.00    -0.055 A  
HETATM   31  C   UNL     1      -6.661   8.079  66.013  1.00  0.00    -0.053 C  
HETATM   32  O   UNL     1      -6.287  10.285  67.614  1.00  0.00    -0.057 OA 
ENDBRANCH  16  17
ENDBRANCH  15  16
ENDBRANCH  13  15
ENDBRANCH  10  11
ENDBRANCH   9  10
ENDBRANCH   5   6
ENDBRANCH   4   5
TORSDOF 7
ENDMDL
MODEL      339
REMARK 921   NORMALIZED FREE ENERGY PREDICTED BY IDOCK:   -1.86 KCAL/MOL
REMARK 922        TOTAL FREE ENERGY PREDICTED BY IDOCK:   -4.37 KCAL/MOL
REMARK 923 INTER-LIGAND FREE ENERGY PREDICTED BY IDOCK:   -3.09 KCAL/MOL
REMARK 924 INTRA-LIGAND FREE ENERGY PREDICTED BY IDOCK:   -1.28 KCAL/MOL
REMARK 927      BINDING AFFINITY PREDICTED BY RF-SCORE:    0.00 PKD
ROOT
HETATM    1  C   UNL     1     -11.295  13.061  69.904  1.00  0.00    -0.037 C  
HETATM    2  C   UNL     1     -10.947  13.123  68.418  1.00  0.00    -0.287 C  
HETATM    3  C   UNL     1     -11.591  14.360  67.786  1.00  0.00    -0.384 C  
HETATM    4  C   UNL     1      -9.416  13.088  68.240  1.00  0.00    -0.208 C  
ENDROOT
BRANCH   4   5
HETATM    5  C   UNL     1      -9.011  13.136  66.770  1.00  0.00    -0.183 C  
BRANCH   5   6
HETATM    6  C   UNL     1      -9.305  11.834  66.030  1.00  0.00    -0.231 C  
HETATM    7  C   UNL     1      -8.039  11.257  65.362  1.00  0.00     0.321 C  
HETATM    8  C   UNL     1      -6.934  10.959  66.386  1.00  0.00    -0.134 C  
HETATM    9  C   UNL     1      -8.415  10.002  64.552  1.00  0.00    -0.180 C  
BRANCH   9  10
HETATM   10  C   UNL     1      -7.198   9.386  63.866  1.00  0.00    -0.102 C  
BRANCH  10  11
HETATM   11  C   UNL     1      -6.770   8.079  64.512  1.00  0.00    -0.060 C  
HETATM   12  C   UNL     1      -7.868   7.001  64.401  1.00  0.00    -0.111 C  
HETATM   13  C   UNL     1      -7.475   5.726  65.162  1.00  0.00    -0.078 C  
HETATM   14  C   UNL     1      -8.179   6.633  62.945  1.00  0.00     0.022 C  
BRANCH  13  15
HETATM   15  C   UNL     1      -7.171   5.926  66.647  1.00  0.00    -0.074 C  
BRANCH  15  16
HETATM   16  C   UNL     1      -8.186   6.808  67.398  1.00  0.00    -0.122 C  
BRANCH  16  17
HETATM   17  C   UNL     1      -8.453   6.346  68.858  1.00  0.00    -0.121 C  
HETATM   18  C   UNL     1      -9.834   5.657  68.919  1.00  0.00    -0.197 C  
HETATM   19  C   UNL     1      -8.298   7.547  69.791  1.00  0.00    -0.134 C  
HETATM   20  C   UNL     1      -8.547   7.141  71.224  1.00  0.00    -0.124 C  
HETATM   21  C   UNL     1      -7.906   5.823  71.562  1.00  0.00    -0.112 A  
HETATM   22  C   UNL     1      -7.896   5.366  72.893  1.00  0.00    -0.098 A  
HETATM   23  C   UNL     1      -8.555   6.156  73.996  1.00  0.00    -0.119 C  
HETATM   24  C   UNL     1      -7.266   4.142  73.176  1.00  0.00    -0.069 A  
HETATM   25  C   UNL     1      -6.673   3.352  72.170  1.00  0.00    -0.019 A  
HETATM   26  O   UNL     1      -7.213   3.656  74.457  1.00  0.00    -0.051 OA 
HETATM   27  C   UNL     1      -6.012   2.045  72.526  1.00  0.00    -0.009 C  
HETATM   28  C   UNL     1      -6.720   3.799  70.829  1.00  0.00    -0.032 A  
HETATM   29  H   UNL     1      -6.788   2.828  74.647  1.00  0.00     0.000 HD 
HETATM   30  C   UNL     1      -7.357   5.025  70.536  1.00  0.00    -0.061 A  
HETATM   31  C   UNL     1      -6.132   2.999  69.692  1.00  0.00    -0.024 C  
HETATM   32  O   UNL     1      -7.437   5.371  69.199  1.00  0.00    -0.074 OA 
ENDBRANCH  16  17
ENDBRANCH  15  16
ENDBRANCH  13  15
ENDBRANCH  10  11
ENDBRANCH   9  10
ENDBRANCH   5   6
ENDBRANCH   4   5
TORSDOF 7
ENDMDL
MODEL      340
REMARK 921   NORMALIZED FREE ENERGY PREDICTED BY IDOCK:   -1.83 KCAL/MOL
REMARK 922        TOTAL FREE ENERGY PREDICTED BY IDOCK:   -4.33 KCAL/MOL
REMARK 923 INTER-LIGAND FREE ENERGY PREDICTED BY IDOCK:   -4.58 KCAL/MOL
REMARK 924 INTRA-LIGAND FREE ENERGY PREDICTED BY IDOCK:    0.25 KCAL/MOL
REMARK 927      BINDING AFFINITY PREDICTED BY RF-SCORE:    0.00 PKD
ROOT
HETATM    1  C   UNL     1      -8.339  20.408  66.500  1.00  0.00    -0.189 C  
HETATM    2  C   UNL     1      -8.488  19.340  67.581  1.00  0.00    -0.327 C  
HETATM    3  C   UNL     1      -9.846  19.491  68.274  1.00  0.00    -0.512 C  
HETATM    4  C   UNL     1      -8.284  17.942  66.963  1.00  0.00    -0.241 C  
ENDROOT
BRANCH   4   5
HETATM    5  C   UNL     1      -8.413  16.834  68.004  1.00  0.00    -0.205 C  
BRANCH   5   6
HETATM    6  C   UNL     1      -8.875  15.508  67.406  1.00  0.00    -0.203 C  
HETATM    7  C   UNL     1      -7.826  14.394  67.603  1.00  0.00    -0.194 C  
HETATM    8  C   UNL     1      -7.526  14.143  69.088  1.00  0.00    -0.037 C  
HETATM    9  C   UNL     1      -8.303  13.111  66.896  1.00  0.00    -0.020 C  
BRANCH   9  10
HETATM   10  C   UNL     1      -7.299  11.971  67.057  1.00  0.00    -0.097 C  
BRANCH  10  11
HETATM   11  C   UNL     1      -7.585  11.118  68.282  1.00  0.00    -0.111 C  
HETATM   12  C   UNL     1      -7.985   9.679  67.895  1.00  0.00    -0.098 C  
HETATM   13  C   UNL     1      -8.389   8.863  69.132  1.00  0.00    -0.124 C  
HETATM   14  C   UNL     1      -6.861   8.940  67.159  1.00  0.00    -0.074 C  
BRANCH  13  15
HETATM   15  C   UNL     1      -9.534   9.456  69.954  1.00  0.00    -0.235 C  
BRANCH  15  16
HETATM   16  C   UNL     1     -10.752   8.529  70.121  1.00  0.00    -0.240 C  
BRANCH  16  17
HETATM   17  C   UNL     1     -10.380   7.080  70.541  1.00  0.00    -0.201 C  
HETATM   18  C   UNL     1     -11.567   6.145  70.220  1.00  0.00    -0.266 C  
HETATM   19  C   UNL     1      -9.954   7.087  72.009  1.00  0.00    -0.172 C  
HETATM   20  C   UNL     1      -9.579   5.695  72.460  1.00  0.00    -0.167 C  
HETATM   21  C   UNL     1      -8.762   4.964  71.431  1.00  0.00    -0.141 A  
HETATM   22  C   UNL     1      -8.188   3.718  71.743  1.00  0.00    -0.075 A  
HETATM   23  C   UNL     1      -8.407   3.070  73.087  1.00  0.00    -0.079 C  
HETATM   24  C   UNL     1      -7.410   3.075  70.765  1.00  0.00    -0.033 A  
HETATM   25  C   UNL     1      -7.212   3.625  69.481  1.00  0.00    -0.045 A  
HETATM   26  O   UNL     1      -6.814   1.867  71.020  1.00  0.00    -0.030 OA 
HETATM   27  C   UNL     1      -6.370   2.893  68.468  1.00  0.00    -0.029 C  
HETATM   28  C   UNL     1      -7.823   4.859  69.161  1.00  0.00    -0.072 A  
HETATM   29  H   UNL     1      -6.289   1.432  70.358  1.00  0.00     0.000 HD 
HETATM   30  C   UNL     1      -8.612   5.507  70.137  1.00  0.00    -0.121 A  
HETATM   31  C   UNL     1      -7.681   5.500  67.803  1.00  0.00    -0.092 C  
HETATM   32  O   UNL     1      -9.244   6.671  69.740  1.00  0.00    -0.146 OA 
ENDBRANCH  16  17
ENDBRANCH  15  16
ENDBRANCH  13  15
ENDBRANCH  10  11
ENDBRANCH   9  10
ENDBRANCH   5   6
ENDBRANCH   4   5
TORSDOF 7
ENDMDL
MODEL      341
REMARK 921   NORMALIZED FREE ENERGY PREDICTED BY IDOCK:   -1.59 KCAL/MOL
REMARK 922        TOTAL FREE ENERGY PREDICTED BY IDOCK:   -3.99 KCAL/MOL
REMARK 923 INTER-LIGAND FREE ENERGY PREDICTED BY IDOCK:   -4.96 KCAL/MOL
REMARK 924 INTRA-LIGAND FREE ENERGY PREDICTED BY IDOCK:    0.96 KCAL/MOL
REMARK 927      BINDING AFFINITY PREDICTED BY RF-SCORE:    0.00 PKD
ROOT
HETATM    1  C   UNL     1     -11.000  19.446  65.249  1.00  0.00     0.311 C  
HETATM    2  C   UNL     1     -10.488  18.244  66.040  1.00  0.00    -0.380 C  
HETATM    3  C   UNL     1     -10.831  18.417  67.523  1.00  0.00    -0.304 C  
HETATM    4  C   UNL     1     -11.060  16.944  65.441  1.00  0.00     0.089 C  
ENDROOT
BRANCH   4   5
HETATM    5  C   UNL     1     -10.571  15.707  66.189  1.00  0.00    -0.325 C  
BRANCH   5   6
HETATM    6  C   UNL     1     -10.294  14.525  65.264  1.00  0.00    -0.435 C  
HETATM    7  C   UNL     1     -10.471  13.175  65.992  1.00  0.00    -0.291 C  
HETATM    8  C   UNL     1     -11.894  13.000  66.541  1.00  0.00    -0.464 C  
HETATM    9  C   UNL     1     -10.084  12.027  65.040  1.00  0.00    -0.293 C  
BRANCH   9  10
HETATM   10  C   UNL     1     -10.238  10.663  65.709  1.00  0.00    -0.317 C  
BRANCH  10  11
HETATM   11  C   UNL     1      -9.859  10.696  67.181  1.00  0.00    -0.208 C  
HETATM   12  C   UNL     1      -8.330  10.766  67.374  1.00  0.00    -0.119 C  
HETATM   13  C   UNL     1      -7.953  10.675  68.861  1.00  0.00    -0.132 C  
HETATM   14  C   UNL     1      -7.727  12.048  66.787  1.00  0.00    -0.014 C  
BRANCH  13  15
HETATM   15  C   UNL     1      -8.453   9.423  69.580  1.00  0.00    -0.166 C  
BRANCH  15  16
HETATM   16  C   UNL     1      -9.770   8.846  69.028  1.00  0.00    -0.171 C  
BRANCH  16  17
HETATM   17  C   UNL     1      -9.694   7.331  68.691  1.00  0.00    -0.146 C  
HETATM   18  C   UNL     1     -10.421   7.080  67.351  1.00  0.00    -0.343 C  
HETATM   19  C   UNL     1     -10.246   6.535  69.874  1.00  0.00    -0.219 C  
HETATM   20  C   UNL     1     -10.189   5.053  69.589  1.00  0.00    -0.306 C  
HETATM   21  C   UNL     1      -8.897   4.649  68.932  1.00  0.00    -0.128 A  
HETATM   22  C   UNL     1      -8.600   3.287  68.740  1.00  0.00    -0.120 A  
HETATM   23  C   UNL     1      -9.574   2.210  69.146  1.00  0.00    -0.055 C  
HETATM   24  C   UNL     1      -7.373   2.946  68.145  1.00  0.00    -0.049 A  
HETATM   25  C   UNL     1      -6.451   3.922  67.714  1.00  0.00    -0.038 A  
HETATM   26  O   UNL     1      -7.026   1.635  67.948  1.00  0.00    -0.035 OA 
HETATM   27  C   UNL     1      -5.150   3.502  67.079  1.00  0.00    -0.008 C  
HETATM   28  C   UNL     1      -6.772   5.289  67.874  1.00  0.00    -0.055 A  
HETATM   29  H   UNL     1      -6.197   1.405  67.546  1.00  0.00     0.000 HD 
HETATM   30  C   UNL     1      -8.006   5.639  68.465  1.00  0.00    -0.100 A  
HETATM   31  C   UNL     1      -5.851   6.392  67.415  1.00  0.00    -0.016 C  
HETATM   32  O   UNL     1      -8.296   6.990  68.526  1.00  0.00    -0.120 OA 
ENDBRANCH  16  17
ENDBRANCH  15  16
ENDBRANCH  13  15
ENDBRANCH  10  11
ENDBRANCH   9  10
ENDBRANCH   5   6
ENDBRANCH   4   5
TORSDOF 7
ENDMDL
MODEL      342
REMARK 921   NORMALIZED FREE ENERGY PREDICTED BY IDOCK:   -1.58 KCAL/MOL
REMARK 922        TOTAL FREE ENERGY PREDICTED BY IDOCK:   -3.98 KCAL/MOL
REMARK 923 INTER-LIGAND FREE ENERGY PREDICTED BY IDOCK:   -3.25 KCAL/MOL
REMARK 924 INTRA-LIGAND FREE ENERGY PREDICTED BY IDOCK:   -0.73 KCAL/MOL
REMARK 927      BINDING AFFINITY PREDICTED BY RF-SCORE:    0.00 PKD
ROOT
HETATM    1  C   UNL     1      -6.164  16.677  69.556  1.00  0.00    -0.220 C  
HETATM    2  C   UNL     1      -7.318  16.543  68.565  1.00  0.00    -0.186 C  
HETATM    3  C   UNL     1      -6.792  16.698  67.134  1.00  0.00    -0.223 C  
HETATM    4  C   UNL     1      -8.048  15.204  68.792  1.00  0.00    -0.166 C  
ENDROOT
BRANCH   4   5
HETATM    5  C   UNL     1      -9.220  15.022  67.832  1.00  0.00    -0.182 C  
BRANCH   5   6
HETATM    6  C   UNL     1      -9.043  13.827  66.900  1.00  0.00    -0.253 C  
HETATM    7  C   UNL     1      -8.536  12.581  67.655  1.00  0.00    -0.171 C  
HETATM    8  C   UNL     1      -9.502  12.150  68.768  1.00  0.00     0.048 C  
HETATM    9  C   UNL     1      -8.284  11.441  66.650  1.00  0.00    -0.163 C  
BRANCH   9  10
HETATM   10  C   UNL     1      -7.777  10.178  67.344  1.00  0.00    -0.095 C  
BRANCH  10  11
HETATM   11  C   UNL     1      -8.765   9.646  68.369  1.00  0.00    -0.120 C  
HETATM   12  C   UNL     1      -8.048   8.961  69.550  1.00  0.00    -0.101 C  
HETATM   13  C   UNL     1      -9.056   8.320  70.516  1.00  0.00    -0.154 C  
HETATM   14  C   UNL     1      -7.157   9.932  70.334  1.00  0.00    -0.146 C  
BRANCH  13  15
HETATM   15  C   UNL     1      -9.995   7.292  69.886  1.00  0.00    -0.183 C  
BRANCH  15  16
HETATM   16  C   UNL     1      -9.629   5.825  70.176  1.00  0.00    -0.208 C  
BRANCH  16  17
HETATM   17  C   UNL     1      -8.906   5.117  68.996  1.00  0.00    -0.092 C  
HETATM   18  C   UNL     1      -9.764   3.920  68.531  1.00  0.00    -0.114 C  
HETATM   19  C   UNL     1      -7.488   4.753  69.434  1.00  0.00    -0.053 C  
HETATM   20  C   UNL     1      -6.747   4.064  68.314  1.00  0.00    -0.047 C  
HETATM   21  C   UNL     1      -6.991   4.720  66.982  1.00  0.00    -0.057 A  
HETATM   22  C   UNL     1      -6.256   4.314  65.852  1.00  0.00    -0.032 A  
HETATM   23  C   UNL     1      -5.247   3.197  65.935  1.00  0.00    -0.009 C  
HETATM   24  C   UNL     1      -6.493   4.966  64.630  1.00  0.00    -0.039 A  
HETATM   25  C   UNL     1      -7.456   5.988  64.498  1.00  0.00    -0.081 A  
HETATM   26  O   UNL     1      -5.796   4.622  63.501  1.00  0.00    -0.016 OA 
HETATM   27  C   UNL     1      -7.672   6.654  63.163  1.00  0.00    -0.102 C  
HETATM   28  C   UNL     1      -8.217   6.365  65.628  1.00  0.00    -0.140 A  
HETATM   29  H   UNL     1      -5.957   5.063  62.675  1.00  0.00     0.000 HD 
HETATM   30  C   UNL     1      -7.989   5.709  66.858  1.00  0.00    -0.102 A  
HETATM   31  C   UNL     1      -9.283   7.431  65.563  1.00  0.00     0.264 C  
HETATM   32  O   UNL     1      -8.816   6.069  67.907  1.00  0.00    -0.112 OA 
ENDBRANCH  16  17
ENDBRANCH  15  16
ENDBRANCH  13  15
ENDBRANCH  10  11
ENDBRANCH   9  10
ENDBRANCH   5   6
ENDBRANCH   4   5
TORSDOF 7
ENDMDL
MODEL      343
REMARK 921   NORMALIZED FREE ENERGY PREDICTED BY IDOCK:   -1.49 KCAL/MOL
REMARK 922        TOTAL FREE ENERGY PREDICTED BY IDOCK:   -3.86 KCAL/MOL
REMARK 923 INTER-LIGAND FREE ENERGY PREDICTED BY IDOCK:   -3.66 KCAL/MOL
REMARK 924 INTRA-LIGAND FREE ENERGY PREDICTED BY IDOCK:   -0.20 KCAL/MOL
REMARK 927      BINDING AFFINITY PREDICTED BY RF-SCORE:    0.00 PKD
ROOT
HETATM    1  C   UNL     1     -14.392  15.400  71.612  1.00  0.00    -0.615 C  
HETATM    2  C   UNL     1     -13.089  14.627  71.416  1.00  0.00    -0.414 C  
HETATM    3  C   UNL     1     -13.394  13.135  71.244  1.00  0.00    -0.117 C  
HETATM    4  C   UNL     1     -12.306  15.218  70.226  1.00  0.00    -0.407 C  
ENDROOT
BRANCH   4   5
HETATM    5  C   UNL     1     -10.988  14.488  69.991  1.00  0.00    -0.100 C  
BRANCH   5   6
HETATM    6  C   UNL     1     -10.272  14.949  68.724  1.00  0.00    -0.243 C  
HETATM    7  C   UNL     1     -10.565  14.017  67.529  1.00  0.00    -0.260 C  
HETATM    8  C   UNL     1     -12.065  13.951  67.206  1.00  0.00    -0.403 C  
HETATM    9  C   UNL     1      -9.741  14.474  66.310  1.00  0.00    -0.330 C  
BRANCH   9  10
HETATM   10  C   UNL     1      -9.991  13.584  65.095  1.00  0.00    -0.201 C  
BRANCH  10  11
HETATM   11  C   UNL     1      -9.303  12.234  65.216  1.00  0.00     0.169 C  
HETATM   12  C   UNL     1     -10.012  11.323  66.240  1.00  0.00    -0.260 C  
HETATM   13  C   UNL     1      -9.240  10.011  66.444  1.00  0.00    -0.191 C  
HETATM   14  C   UNL     1     -11.452  10.993  65.827  1.00  0.00     0.420 C  
BRANCH  13  15
HETATM   15  C   UNL     1      -7.790  10.176  66.898  1.00  0.00    -0.107 C  
BRANCH  15  16
HETATM   16  C   UNL     1      -7.360   9.229  68.034  1.00  0.00    -0.080 C  
BRANCH  16  17
HETATM   17  C   UNL     1      -7.440   7.724  67.653  1.00  0.00    -0.104 C  
HETATM   18  C   UNL     1      -8.703   7.111  68.299  1.00  0.00    -0.128 C  
HETATM   19  C   UNL     1      -6.129   7.045  68.050  1.00  0.00    -0.034 C  
HETATM   20  C   UNL     1      -6.163   5.578  67.695  1.00  0.00    -0.034 C  
HETATM   21  C   UNL     1      -6.770   5.333  66.341  1.00  0.00    -0.057 A  
HETATM   22  C   UNL     1      -6.737   4.045  65.777  1.00  0.00    -0.045 A  
HETATM   23  C   UNL     1      -6.135   2.880  66.521  1.00  0.00    -0.024 C  
HETATM   24  C   UNL     1      -7.293   3.859  64.499  1.00  0.00    -0.067 A  
HETATM   25  C   UNL     1      -7.902   4.910  63.784  1.00  0.00    -0.085 A  
HETATM   26  O   UNL     1      -7.275   2.628  63.895  1.00  0.00    -0.047 OA 
HETATM   27  C   UNL     1      -8.485   4.656  62.418  1.00  0.00    -0.101 C  
HETATM   28  C   UNL     1      -7.966   6.194  64.373  1.00  0.00    -0.121 A  
HETATM   29  H   UNL     1      -7.651   2.503  63.032  1.00  0.00     0.000 HD 
HETATM   30  C   UNL     1      -7.416   6.387  65.659  1.00  0.00    -0.082 A  
HETATM   31  C   UNL     1      -8.624   7.365  63.684  1.00  0.00     0.485 C  
HETATM   32  O   UNL     1      -7.576   7.644  66.213  1.00  0.00    -0.084 OA 
ENDBRANCH  16  17
ENDBRANCH  15  16
ENDBRANCH  13  15
ENDBRANCH  10  11
ENDBRANCH   9  10
ENDBRANCH   5   6
ENDBRANCH   4   5
TORSDOF 7
ENDMDL
MODEL      344
REMARK 921   NORMALIZED FREE ENERGY PREDICTED BY IDOCK:   -1.43 KCAL/MOL
REMARK 922        TOTAL FREE ENERGY PREDICTED BY IDOCK:   -3.77 KCAL/MOL
REMARK 923 INTER-LIGAND FREE ENERGY PREDICTED BY IDOCK:   -5.37 KCAL/MOL
REMARK 924 INTRA-LIGAND FREE ENERGY PREDICTED BY IDOCK:    1.60 KCAL/MOL
REMARK 927      BINDING AFFINITY PREDICTED BY RF-SCORE:    0.00 PKD
ROOT
HETATM    1  C   UNL     1      -7.317   4.321  70.143  1.00  0.00    -0.046 C  
HETATM    2  C   UNL     1      -8.596   5.094  69.828  1.00  0.00    -0.104 C  
HETATM    3  C   UNL     1      -9.800   4.148  69.886  1.00  0.00    -0.233 C  
HETATM    4  C   UNL     1      -8.730   6.292  70.788  1.00  0.00    -0.136 C  
ENDROOT
BRANCH   4   5
HETATM    5  C   UNL     1      -9.990   7.108  70.511  1.00  0.00    -0.191 C  
BRANCH   5   6
HETATM    6  C   UNL     1     -10.386   7.106  69.037  1.00  0.00    -0.204 C  
HETATM    7  C   UNL     1      -9.587   8.148  68.227  1.00  0.00    -0.154 C  
HETATM    8  C   UNL     1      -8.074   7.889  68.292  1.00  0.00    -0.123 C  
HETATM    9  C   UNL     1     -10.097   8.167  66.774  1.00  0.00    -0.365 C  
BRANCH   9  10
HETATM   10  C   UNL     1      -9.341   9.185  65.923  1.00  0.00    -0.306 C  
BRANCH  10  11
HETATM   11  C   UNL     1      -8.656  10.248  66.767  1.00  0.00    -0.129 C  
HETATM   12  C   UNL     1      -7.159  10.375  66.417  1.00  0.00    -0.118 C  
HETATM   13  C   UNL     1      -6.451  11.363  67.357  1.00  0.00    -0.083 C  
HETATM   14  C   UNL     1      -6.934  10.823  64.968  1.00  0.00     0.206 C  
BRANCH  13  15
HETATM   15  C   UNL     1      -6.552  11.027  68.845  1.00  0.00    -0.058 C  
BRANCH  15  16
HETATM   16  C   UNL     1      -6.546  12.250  69.782  1.00  0.00     0.032 C  
BRANCH  16  17
HETATM   17  C   UNL     1      -6.596  13.610  69.031  1.00  0.00    -0.109 C  
HETATM   18  C   UNL     1      -5.440  13.660  68.008  1.00  0.00    -0.116 C  
HETATM   19  C   UNL     1      -6.585  14.741  70.060  1.00  0.00    -0.168 C  
HETATM   20  C   UNL     1      -6.636  16.084  69.373  1.00  0.00    -0.182 C  
HETATM   21  C   UNL     1      -7.612  16.102  68.229  1.00  0.00    -0.146 A  
HETATM   22  C   UNL     1      -7.911  17.312  67.576  1.00  0.00    -0.194 A  
HETATM   23  C   UNL     1      -7.238  18.602  67.975  1.00  0.00    -0.261 C  
HETATM   24  C   UNL     1      -8.846  17.295  66.528  1.00  0.00    -0.261 A  
HETATM   25  C   UNL     1      -9.469  16.106  66.096  1.00  0.00    -0.362 A  
HETATM   26  O   UNL     1      -9.186  18.447  65.867  1.00  0.00    -0.493 OA 
HETATM   27  C   UNL     1     -10.464  16.142  64.965  1.00  0.00    -0.208 C  
HETATM   28  C   UNL     1      -9.136  14.887  66.731  1.00  0.00    -0.295 A  
HETATM   29  H   UNL     1      -9.818  18.435  65.158  1.00  0.00     0.000 HD 
HETATM   30  C   UNL     1      -8.192  14.895  67.780  1.00  0.00    -0.156 A  
HETATM   31  C   UNL     1      -9.738  13.569  66.310  1.00  0.00    -0.287 C  
HETATM   32  O   UNL     1      -7.851  13.664  68.310  1.00  0.00    -0.124 OA 
ENDBRANCH  16  17
ENDBRANCH  15  16
ENDBRANCH  13  15
ENDBRANCH  10  11
ENDBRANCH   9  10
ENDBRANCH   5   6
ENDBRANCH   4   5
TORSDOF 7
ENDMDL
MODEL      345
REMARK 921   NORMALIZED FREE ENERGY PREDICTED BY IDOCK:   -1.33 KCAL/MOL
REMARK 922        TOTAL FREE ENERGY PREDICTED BY IDOCK:   -3.63 KCAL/MOL
REMARK 923 INTER-LIGAND FREE ENERGY PREDICTED BY IDOCK:   -5.35 KCAL/MOL
REMARK 924 INTRA-LIGAND FREE ENERGY PREDICTED BY IDOCK:    1.72 KCAL/MOL
REMARK 927      BINDING AFFINITY PREDICTED BY RF-SCORE:    0.00 PKD
ROOT
HETATM    1  C   UNL     1     -11.596  15.179  67.977  1.00  0.00    -0.345 C  
HETATM    2  C   UNL     1     -10.485  14.158  68.212  1.00  0.00    -0.249 C  
HETATM    3  C   UNL     1     -11.012  12.747  67.928  1.00  0.00    -0.262 C  
HETATM    4  C   UNL     1      -9.255  14.520  67.357  1.00  0.00    -0.202 C  
ENDROOT
BRANCH   4   5
HETATM    5  C   UNL     1      -8.107  13.535  67.560  1.00  0.00    -0.190 C  
BRANCH   5   6
HETATM    6  C   UNL     1      -8.578  12.085  67.644  1.00  0.00    -0.163 C  
HETATM    7  C   UNL     1      -8.021  11.235  66.483  1.00  0.00    -0.145 C  
HETATM    8  C   UNL     1      -6.485  11.215  66.470  1.00  0.00    -0.129 C  
HETATM    9  C   UNL     1      -8.606   9.812  66.565  1.00  0.00    -0.135 C  
BRANCH   9  10
HETATM   10  C   UNL     1      -8.089   8.923  65.436  1.00  0.00    -0.119 C  
BRANCH  10  11
HETATM   11  C   UNL     1      -8.528   7.476  65.593  1.00  0.00    -0.141 C  
HETATM   12  C   UNL     1      -8.806   7.122  67.069  1.00  0.00    -0.125 C  
HETATM   13  C   UNL     1      -9.130   5.629  67.230  1.00  0.00    -0.110 C  
HETATM   14  C   UNL     1      -9.958   7.945  67.659  1.00  0.00    -0.234 C  
BRANCH  13  15
HETATM   15  C   UNL     1      -8.051   4.673  66.720  1.00  0.00    -0.103 C  
BRANCH  15  16
HETATM   16  C   UNL     1      -7.009   4.259  67.775  1.00  0.00    -0.059 C  
BRANCH  16  17
HETATM   17  C   UNL     1      -7.620   3.966  69.174  1.00  0.00    -0.053 C  
HETATM   18  C   UNL     1      -6.492   3.515  70.128  1.00  0.00    -0.032 C  
HETATM   19  C   UNL     1      -8.759   2.959  69.013  1.00  0.00    -0.133 C  
HETATM   20  C   UNL     1      -9.385   2.646  70.351  1.00  0.00    -0.212 C  
HETATM   21  C   UNL     1      -9.568   3.878  71.195  1.00  0.00    -0.244 A  
HETATM   22  C   UNL     1     -10.283   3.802  72.405  1.00  0.00    -0.219 A  
HETATM   23  C   UNL     1     -10.842   2.493  72.902  1.00  0.00    -0.156 C  
HETATM   24  C   UNL     1     -10.455   4.978  73.155  1.00  0.00    -0.206 A  
HETATM   25  C   UNL     1      -9.915   6.215  72.748  1.00  0.00    -0.185 A  
HETATM   26  O   UNL     1     -11.156   4.965  74.333  1.00  0.00    -0.332 OA 
HETATM   27  C   UNL     1     -10.128   7.446  73.591  1.00  0.00    -0.376 C  
HETATM   28  C   UNL     1      -9.166   6.277  71.550  1.00  0.00    -0.149 A  
HETATM   29  H   UNL     1     -11.272   5.761  74.840  1.00  0.00     0.000 HD 
HETATM   30  C   UNL     1      -8.982   5.098  70.795  1.00  0.00    -0.134 A  
HETATM   31  C   UNL     1      -8.534   7.556  71.060  1.00  0.00    -0.117 C  
HETATM   32  O   UNL     1      -8.178   5.206  69.675  1.00  0.00    -0.090 OA 
ENDBRANCH  16  17
ENDBRANCH  15  16
ENDBRANCH  13  15
ENDBRANCH  10  11
ENDBRANCH   9  10
ENDBRANCH   5   6
ENDBRANCH   4   5
TORSDOF 7
ENDMDL
MODEL      346
REMARK 921   NORMALIZED FREE ENERGY PREDICTED BY IDOCK:   -1.19 KCAL/MOL
REMARK 922        TOTAL FREE ENERGY PREDICTED BY IDOCK:   -3.44 KCAL/MOL
REMARK 923 INTER-LIGAND FREE ENERGY PREDICTED BY IDOCK:   -3.36 KCAL/MOL
REMARK 924 INTRA-LIGAND FREE ENERGY PREDICTED BY IDOCK:   -0.08 KCAL/MOL
REMARK 927      BINDING AFFINITY PREDICTED BY RF-SCORE:    0.00 PKD
ROOT
HETATM    1  C   UNL     1     -13.000   7.998  71.451  1.00  0.00    -0.277 C  
HETATM    2  C   UNL     1     -11.879   7.088  71.948  1.00  0.00    -0.341 C  
HETATM    3  C   UNL     1     -12.385   6.232  73.113  1.00  0.00     1.186 C  
HETATM    4  C   UNL     1     -11.334   6.245  70.778  1.00  0.00    -0.397 C  
ENDROOT
BRANCH   4   5
HETATM    5  C   UNL     1     -10.201   5.323  71.217  1.00  0.00    -0.291 C  
BRANCH   5   6
HETATM    6  C   UNL     1      -9.771   4.348  70.124  1.00  0.00    -0.288 C  
HETATM    7  C   UNL     1      -8.479   4.812  69.419  1.00  0.00    -0.091 C  
HETATM    8  C   UNL     1      -7.304   4.942  70.400  1.00  0.00    -0.054 C  
HETATM    9  C   UNL     1      -8.150   3.845  68.266  1.00  0.00    -0.078 C  
BRANCH   9  10
HETATM   10  C   UNL     1      -6.877   4.256  67.529  1.00  0.00    -0.052 C  
BRANCH  10  11
HETATM   11  C   UNL     1      -6.791   5.760  67.321  1.00  0.00    -0.064 C  
HETATM   12  C   UNL     1      -7.323   6.174  65.933  1.00  0.00    -0.080 C  
HETATM   13  C   UNL     1      -7.119   7.677  65.686  1.00  0.00    -0.061 C  
HETATM   14  C   UNL     1      -8.809   5.841  65.755  1.00  0.00    -0.151 C  
BRANCH  13  15
HETATM   15  C   UNL     1      -5.672   8.160  65.790  1.00  0.00    -0.037 C  
BRANCH  15  16
HETATM   16  C   UNL     1      -5.439   9.274  66.827  1.00  0.00    -0.039 C  
BRANCH  16  17
HETATM   17  C   UNL     1      -6.724  10.076  67.179  1.00  0.00    -0.074 C  
HETATM   18  C   UNL     1      -6.333  11.543  67.468  1.00  0.00    -0.076 C  
HETATM   19  C   UNL     1      -7.445   9.371  68.327  1.00  0.00    -0.078 C  
HETATM   20  C   UNL     1      -8.704  10.118  68.701  1.00  0.00    -0.128 C  
HETATM   21  C   UNL     1      -9.466  10.588  67.492  1.00  0.00    -0.166 A  
HETATM   22  C   UNL     1     -10.744  11.159  67.644  1.00  0.00    -0.273 A  
HETATM   23  C   UNL     1     -11.358  11.349  69.008  1.00  0.00    -0.345 C  
HETATM   24  C   UNL     1     -11.437  11.564  66.491  1.00  0.00    -0.102 A  
HETATM   25  C   UNL     1     -10.885  11.441  65.200  1.00  0.00    -0.302 A  
HETATM   26  O   UNL     1     -12.691  12.112  66.579  1.00  0.00     0.503 OA 
HETATM   27  C   UNL     1     -11.670  11.894  63.996  1.00  0.00    -0.469 C  
HETATM   28  C   UNL     1      -9.585  10.902  65.057  1.00  0.00    -0.299 A  
HETATM   29  H   UNL     1     -13.160  12.386  65.799  1.00  0.00     0.000 HD 
HETATM   30  C   UNL     1      -8.880  10.499  66.212  1.00  0.00    -0.159 A  
HETATM   31  C   UNL     1      -8.914  10.762  63.713  1.00  0.00    -0.171 C  
HETATM   32  O   UNL     1      -7.586  10.051  66.015  1.00  0.00    -0.102 OA 
ENDBRANCH  16  17
ENDBRANCH  15  16
ENDBRANCH  13  15
ENDBRANCH  10  11
ENDBRANCH   9  10
ENDBRANCH   5   6
ENDBRANCH   4   5
TORSDOF 7
ENDMDL
MODEL      347
REMARK 921   NORMALIZED FREE ENERGY PREDICTED BY IDOCK:   -1.10 KCAL/MOL
REMARK 922        TOTAL FREE ENERGY PREDICTED BY IDOCK:   -3.31 KCAL/MOL
REMARK 923 INTER-LIGAND FREE ENERGY PREDICTED BY IDOCK:   -5.06 KCAL/MOL
REMARK 924 INTRA-LIGAND FREE ENERGY PREDICTED BY IDOCK:    1.75 KCAL/MOL
REMARK 927      BINDING AFFINITY PREDICTED BY RF-SCORE:    0.00 PKD
ROOT
HETATM    1  C   UNL     1     -10.078  15.813  70.903  1.00  0.00     0.912 C  
HETATM    2  C   UNL     1      -9.232  16.173  69.684  1.00  0.00     0.077 C  
HETATM    3  C   UNL     1      -8.548  14.916  69.139  1.00  0.00    -0.148 C  
HETATM    4  C   UNL     1     -10.109  16.881  68.631  1.00  0.00    -0.291 C  
ENDROOT
BRANCH   4   5
HETATM    5  C   UNL     1      -9.310  17.274  67.392  1.00  0.00    -0.236 C  
BRANCH   5   6
HETATM    6  C   UNL     1      -8.699  16.073  66.675  1.00  0.00    -0.309 C  
HETATM    7  C   UNL     1      -9.779  15.076  66.206  1.00  0.00    -0.316 C  
HETATM    8  C   UNL     1     -10.779  15.724  65.237  1.00  0.00    -0.446 C  
HETATM    9  C   UNL     1      -9.099  13.843  65.579  1.00  0.00     0.805 C  
BRANCH   9  10
HETATM   10  C   UNL     1     -10.123  12.818  65.097  1.00  0.00    -0.246 C  
BRANCH  10  11
HETATM   11  C   UNL     1      -9.898  11.445  65.709  1.00  0.00    -0.270 C  
HETATM   12  C   UNL     1      -8.424  11.236  66.116  1.00  0.00    -0.135 C  
HETATM   13  C   UNL     1      -8.185   9.805  66.619  1.00  0.00    -0.120 C  
HETATM   14  C   UNL     1      -7.972  12.225  67.197  1.00  0.00    -0.161 C  
BRANCH  13  15
HETATM   15  C   UNL     1      -8.553   8.700  65.630  1.00  0.00    -0.191 C  
BRANCH  15  16
HETATM   16  C   UNL     1      -8.398   7.269  66.179  1.00  0.00    -0.133 C  
BRANCH  16  17
HETATM   17  C   UNL     1      -8.834   7.120  67.663  1.00  0.00    -0.119 C  
HETATM   18  C   UNL     1      -7.597   7.311  68.569  1.00  0.00    -0.118 C  
HETATM   19  C   UNL     1      -9.548   5.780  67.835  1.00  0.00    -0.124 C  
HETATM   20  C   UNL     1      -9.992   5.594  69.266  1.00  0.00    -0.251 C  
HETATM   21  C   UNL     1     -10.578   6.852  69.848  1.00  0.00    -0.256 A  
HETATM   22  C   UNL     1     -11.191   6.823  71.114  1.00  0.00    -0.327 A  
HETATM   23  C   UNL     1     -11.241   5.556  71.930  1.00  0.00    -0.188 C  
HETATM   24  C   UNL     1     -11.749   8.012  71.615  1.00  0.00    -0.283 A  
HETATM   25  C   UNL     1     -11.689   9.228  70.905  1.00  0.00    -0.360 A  
HETATM   26  O   UNL     1     -12.372   8.038  72.836  1.00  0.00    -0.616 OA 
HETATM   27  C   UNL     1     -12.301  10.475  71.488  1.00  0.00    -0.443 C  
HETATM   28  C   UNL     1     -11.038   9.259  69.650  1.00  0.00    -0.134 A  
HETATM   29  H   UNL     1     -12.748   8.842  73.175  1.00  0.00     0.000 HD 
HETATM   30  C   UNL     1     -10.469   8.070  69.143  1.00  0.00    -0.208 A  
HETATM   31  C   UNL     1     -10.909  10.525  68.840  1.00  0.00    -0.275 C  
HETATM   32  O   UNL     1      -9.780   8.180  67.948  1.00  0.00    -0.152 OA 
ENDBRANCH  16  17
ENDBRANCH  15  16
ENDBRANCH  13  15
ENDBRANCH  10  11
ENDBRANCH   9  10
ENDBRANCH   5   6
ENDBRANCH   4   5
TORSDOF 7
ENDMDL
MODEL      348
REMARK 921   NORMALIZED FREE ENERGY PREDICTED BY IDOCK:   -0.90 KCAL/MOL
REMARK 922        TOTAL FREE ENERGY PREDICTED BY IDOCK:   -3.02 KCAL/MOL
REMARK 923 INTER-LIGAND FREE ENERGY PREDICTED BY IDOCK:   -4.54 KCAL/MOL
REMARK 924 INTRA-LIGAND FREE ENERGY PREDICTED BY IDOCK:    1.52 KCAL/MOL
REMARK 927      BINDING AFFINITY PREDICTED BY RF-SCORE:    0.00 PKD
ROOT
HETATM    1  C   UNL     1     -11.631  12.484  69.408  1.00  0.00    -0.368 C  
HETATM    2  C   UNL     1     -11.259  12.237  67.947  1.00  0.00    -0.328 C  
HETATM    3  C   UNL     1     -11.256  10.732  67.662  1.00  0.00    -0.370 C  
HETATM    4  C   UNL     1     -12.216  13.019  67.026  1.00  0.00    -0.217 C  
ENDROOT
BRANCH   4   5
HETATM    5  C   UNL     1     -11.883  12.816  65.551  1.00  0.00    -0.466 C  
BRANCH   5   6
HETATM    6  C   UNL     1     -11.505  14.114  64.843  1.00  0.00    -0.366 C  
HETATM    7  C   UNL     1     -11.016  15.187  65.838  1.00  0.00    -0.339 C  
HETATM    8  C   UNL     1      -9.781  14.722  66.623  1.00  0.00    -0.281 C  
HETATM    9  C   UNL     1     -10.744  16.501  65.081  1.00  0.00    -0.261 C  
BRANCH   9  10
HETATM   10  C   UNL     1     -10.257  17.603  66.018  1.00  0.00    -0.301 C  
BRANCH  10  11
HETATM   11  C   UNL     1      -9.249  17.092  67.035  1.00  0.00    -0.251 C  
HETATM   12  C   UNL     1      -9.361  17.845  68.377  1.00  0.00    -0.290 C  
HETATM   13  C   UNL     1      -8.260  17.407  69.354  1.00  0.00     0.375 C  
HETATM   14  C   UNL     1     -10.726  17.644  69.046  1.00  0.00     0.071 C  
BRANCH  13  15
HETATM   15  C   UNL     1      -6.831  17.584  68.842  1.00  0.00    -0.246 C  
BRANCH  15  16
HETATM   16  C   UNL     1      -6.215  16.325  68.205  1.00  0.00    -0.131 C  
BRANCH  16  17
HETATM   17  C   UNL     1      -6.334  15.055  69.093  1.00  0.00    -0.108 C  
HETATM   18  C   UNL     1      -7.766  14.978  69.666  1.00  0.00    -0.115 C  
HETATM   19  C   UNL     1      -5.227  15.087  70.148  1.00  0.00    -0.107 C  
HETATM   20  C   UNL     1      -5.304  13.867  71.034  1.00  0.00    -0.162 C  
HETATM   21  C   UNL     1      -5.578  12.612  70.252  1.00  0.00    -0.153 A  
HETATM   22  C   UNL     1      -5.523  11.358  70.890  1.00  0.00    -0.106 A  
HETATM   23  C   UNL     1      -5.230  11.244  72.365  1.00  0.00     0.428 C  
HETATM   24  C   UNL     1      -5.761  10.205  70.122  1.00  0.00    -0.054 A  
HETATM   25  C   UNL     1      -6.077  10.268  68.750  1.00  0.00    -0.047 A  
HETATM   26  O   UNL     1      -5.705   8.958  70.689  1.00  0.00    -0.030 OA 
HETATM   27  C   UNL     1      -6.326   9.001  67.973  1.00  0.00    -0.055 C  
HETATM   28  C   UNL     1      -6.169  11.533  68.124  1.00  0.00    -0.045 A  
HETATM   29  H   UNL     1      -5.866   8.179  70.169  1.00  0.00     0.000 HD 
HETATM   30  C   UNL     1      -5.938  12.696  68.890  1.00  0.00    -0.074 A  
HETATM   31  C   UNL     1      -6.528  11.686  66.666  1.00  0.00    -0.054 C  
HETATM   32  O   UNL     1      -6.117  13.904  68.241  1.00  0.00    -0.091 OA 
ENDBRANCH  16  17
ENDBRANCH  15  16
ENDBRANCH  13  15
ENDBRANCH  10  11
ENDBRANCH   9  10
ENDBRANCH   5   6
ENDBRANCH   4   5
TORSDOF 7
ENDMDL
MODEL      349
REMARK 921   NORMALIZED FREE ENERGY PREDICTED BY IDOCK:   -0.78 KCAL/MOL
REMARK 922        TOTAL FREE ENERGY PREDICTED BY IDOCK:   -2.85 KCAL/MOL
REMARK 923 INTER-LIGAND FREE ENERGY PREDICTED BY IDOCK:   -5.63 KCAL/MOL
REMARK 924 INTRA-LIGAND FREE ENERGY PREDICTED BY IDOCK:    2.78 KCAL/MOL
REMARK 927      BINDING AFFINITY PREDICTED BY RF-SCORE:    0.00 PKD
ROOT
HETATM    1  C   UNL     1     -13.857   6.649  72.200  1.00  0.00     0.078 C  
HETATM    2  C   UNL     1     -13.072   6.941  70.923  1.00  0.00    -0.003 C  
HETATM    3  C   UNL     1     -12.653   8.414  70.899  1.00  0.00     0.060 C  
HETATM    4  C   UNL     1     -11.875   5.976  70.814  1.00  0.00     0.117 C  
ENDROOT
BRANCH   4   5
HETATM    5  C   UNL     1     -11.060   6.217  69.547  1.00  0.00    -0.476 C  
BRANCH   5   6
HETATM    6  C   UNL     1      -9.611   5.757  69.676  1.00  0.00    -0.193 C  
HETATM    7  C   UNL     1      -8.676   6.534  68.726  1.00  0.00    -0.123 C  
HETATM    8  C   UNL     1      -8.700   8.044  69.004  1.00  0.00    -0.137 C  
HETATM    9  C   UNL     1      -7.250   5.960  68.829  1.00  0.00    -0.083 C  
BRANCH   9  10
HETATM   10  C   UNL     1      -6.278   6.692  67.907  1.00  0.00    -0.036 C  
BRANCH  10  11
HETATM   11  C   UNL     1      -5.899   8.065  68.439  1.00  0.00    -0.036 C  
HETATM   12  C   UNL     1      -6.106   8.161  69.965  1.00  0.00    -0.029 C  
HETATM   13  C   UNL     1      -5.837   9.586  70.472  1.00  0.00    -0.056 C  
HETATM   14  C   UNL     1      -5.214   7.183  70.738  1.00  0.00    -0.023 C  
BRANCH  13  15
HETATM   15  C   UNL     1      -6.685  10.678  69.820  1.00  0.00    -0.130 C  
BRANCH  15  16
HETATM   16  C   UNL     1      -8.125  10.253  69.475  1.00  0.00    -0.170 C  
BRANCH  16  17
HETATM   17  C   UNL     1      -8.809  11.169  68.422  1.00  0.00    -0.157 C  
HETATM   18  C   UNL     1      -7.976  12.461  68.267  1.00  0.00    -0.160 C  
HETATM   19  C   UNL     1     -10.263  11.394  68.836  1.00  0.00    -0.184 C  
HETATM   20  C   UNL     1     -10.968  12.279  67.836  1.00  0.00    -0.265 C  
HETATM   21  C   UNL     1     -10.624  11.920  66.416  1.00  0.00    -0.284 A  
HETATM   22  C   UNL     1     -11.311  12.531  65.350  1.00  0.00    -0.363 A  
HETATM   23  C   UNL     1     -12.367  13.577  65.597  1.00  0.00    -0.522 C  
HETATM   24  C   UNL     1     -10.980  12.153  64.037  1.00  0.00    -0.380 A  
HETATM   25  C   UNL     1      -9.971  11.208  63.759  1.00  0.00    -0.401 A  
HETATM   26  O   UNL     1     -11.627  12.704  62.961  1.00  0.00    -0.765 OA 
HETATM   27  C   UNL     1      -9.654  10.840  62.332  1.00  0.00    -0.172 C  
HETATM   28  C   UNL     1      -9.259  10.627  64.833  1.00  0.00    -0.252 A  
HETATM   29  H   UNL     1     -11.403  12.448  62.074  1.00  0.00     0.000 HD 
HETATM   30  C   UNL     1      -9.581  11.007  66.155  1.00  0.00    -0.207 A  
HETATM   31  C   UNL     1      -8.148   9.628  64.618  1.00  0.00    -0.141 C  
HETATM   32  O   UNL     1      -8.800  10.462  67.157  1.00  0.00    -0.136 OA 
ENDBRANCH  16  17
ENDBRANCH  15  16
ENDBRANCH  13  15
ENDBRANCH  10  11
ENDBRANCH   9  10
ENDBRANCH   5   6
ENDBRANCH   4   5
TORSDOF 7
ENDMDL
MODEL      350
REMARK 921   NORMALIZED FREE ENERGY PREDICTED BY IDOCK:   -0.71 KCAL/MOL
REMARK 922        TOTAL FREE ENERGY PREDICTED BY IDOCK:   -2.75 KCAL/MOL
REMARK 923 INTER-LIGAND FREE ENERGY PREDICTED BY IDOCK:   -5.24 KCAL/MOL
REMARK 924 INTRA-LIGAND FREE ENERGY PREDICTED BY IDOCK:    2.49 KCAL/MOL
REMARK 927      BINDING AFFINITY PREDICTED BY RF-SCORE:    0.00 PKD
ROOT
HETATM    1  C   UNL     1      -5.395   5.002  68.121  1.00  0.00    -0.011 C  
HETATM    2  C   UNL     1      -5.922   4.597  69.495  1.00  0.00    -0.018 C  
HETATM    3  C   UNL     1      -5.961   5.820  70.416  1.00  0.00    -0.025 C  
HETATM    4  C   UNL     1      -7.296   3.915  69.347  1.00  0.00    -0.053 C  
ENDROOT
BRANCH   4   5
HETATM    5  C   UNL     1      -7.866   3.478  70.693  1.00  0.00    -0.046 C  
BRANCH   5   6
HETATM    6  C   UNL     1      -9.368   3.723  70.809  1.00  0.00    -0.218 C  
HETATM    7  C   UNL     1      -9.696   5.226  70.937  1.00  0.00    -0.244 C  
HETATM    8  C   UNL     1      -9.196   6.027  69.726  1.00  0.00    -0.153 C  
HETATM    9  C   UNL     1     -11.211   5.403  71.149  1.00  0.00     0.085 C  
BRANCH   9  10
HETATM   10  C   UNL     1     -11.594   6.875  71.283  1.00  0.00    -0.352 C  
BRANCH  10  11
HETATM   11  C   UNL     1     -11.105   7.709  70.110  1.00  0.00    -0.229 C  
HETATM   12  C   UNL     1     -10.679   9.123  70.555  1.00  0.00    -0.289 C  
HETATM   13  C   UNL     1     -10.304   9.995  69.347  1.00  0.00    -0.245 C  
HETATM   14  C   UNL     1      -9.499   9.097  71.533  1.00  0.00    -0.239 C  
BRANCH  13  15
HETATM   15  C   UNL     1     -11.401  10.152  68.294  1.00  0.00    -0.183 C  
BRANCH  15  16
HETATM   16  C   UNL     1     -11.478  11.548  67.648  1.00  0.00    -0.357 C  
BRANCH  16  17
HETATM   17  C   UNL     1     -10.089  12.211  67.430  1.00  0.00    -0.199 C  
HETATM   18  C   UNL     1      -9.866  12.417  65.916  1.00  0.00    -0.265 C  
HETATM   19  C   UNL     1      -9.023  11.360  68.121  1.00  0.00    -0.169 C  
HETATM   20  C   UNL     1      -7.655  11.971  67.936  1.00  0.00    -0.124 C  
HETATM   21  C   UNL     1      -7.670  13.465  68.109  1.00  0.00    -0.143 A  
HETATM   22  C   UNL     1      -6.460  14.183  68.133  1.00  0.00    -0.127 A  
HETATM   23  C   UNL     1      -5.134  13.489  67.947  1.00  0.00    -0.086 C  
HETATM   24  C   UNL     1      -6.512  15.575  68.321  1.00  0.00    -0.118 A  
HETATM   25  C   UNL     1      -7.730  16.270  68.459  1.00  0.00    -0.189 A  
HETATM   26  O   UNL     1      -5.363  16.323  68.367  1.00  0.00    -0.099 OA 
HETATM   27  C   UNL     1      -7.730  17.764  68.657  1.00  0.00    -0.283 C  
HETATM   28  C   UNL     1      -8.944  15.547  68.396  1.00  0.00    -0.189 A  
HETATM   29  H   UNL     1      -5.399  17.264  68.495  1.00  0.00     0.000 HD 
HETATM   30  C   UNL     1      -8.900  14.150  68.200  1.00  0.00    -0.183 A  
HETATM   31  C   UNL     1     -10.290  16.221  68.509  1.00  0.00    -0.261 C  
HETATM   32  O   UNL     1     -10.120  13.510  68.071  1.00  0.00    -0.230 OA 
ENDBRANCH  16  17
ENDBRANCH  15  16
ENDBRANCH  13  15
ENDBRANCH  10  11
ENDBRANCH   9  10
ENDBRANCH   5   6
ENDBRANCH   4   5
TORSDOF 7
ENDMDL
MODEL      351
REMARK 921   NORMALIZED FREE ENERGY PREDICTED BY IDOCK:   -0.61 KCAL/MOL
REMARK 922        TOTAL FREE ENERGY PREDICTED BY IDOCK:   -2.62 KCAL/MOL
REMARK 923 INTER-LIGAND FREE ENERGY PREDICTED BY IDOCK:   -3.49 KCAL/MOL
REMARK 924 INTRA-LIGAND FREE ENERGY PREDICTED BY IDOCK:    0.87 KCAL/MOL
REMARK 927      BINDING AFFINITY PREDICTED BY RF-SCORE:    0.00 PKD
ROOT
HETATM    1  C   UNL     1      -9.246  15.959  66.576  1.00  0.00    -0.310 C  
HETATM    2  C   UNL     1      -9.106  14.574  67.203  1.00  0.00    -0.237 C  
HETATM    3  C   UNL     1      -7.646  14.117  67.125  1.00  0.00     0.024 C  
HETATM    4  C   UNL     1      -9.650  14.596  68.645  1.00  0.00    -0.219 C  
ENDROOT
BRANCH   4   5
HETATM    5  C   UNL     1      -9.543  13.230  69.317  1.00  0.00     0.693 C  
BRANCH   5   6
HETATM    6  C   UNL     1      -9.624  12.073  68.326  1.00  0.00    -0.204 C  
HETATM    7  C   UNL     1      -9.533  10.705  69.034  1.00  0.00    -0.202 C  
HETATM    8  C   UNL     1     -10.664  10.510  70.054  1.00  0.00    -0.282 C  
HETATM    9  C   UNL     1      -9.521   9.582  67.979  1.00  0.00    -0.147 C  
BRANCH   9  10
HETATM   10  C   UNL     1      -9.431   8.201  68.624  1.00  0.00    -0.147 C  
BRANCH  10  11
HETATM   11  C   UNL     1      -8.782   7.176  67.708  1.00  0.00    -0.125 C  
HETATM   12  C   UNL     1      -8.750   7.661  66.244  1.00  0.00    -0.170 C  
HETATM   13  C   UNL     1      -8.205   6.570  65.310  1.00  0.00    -0.135 C  
HETATM   14  C   UNL     1      -7.907   8.930  66.068  1.00  0.00    -0.102 C  
BRANCH  13  15
HETATM   15  C   UNL     1      -8.971   5.247  65.342  1.00  0.00    -0.147 C  
BRANCH  15  16
HETATM   16  C   UNL     1      -8.091   4.001  65.555  1.00  0.00    -0.101 C  
BRANCH  16  17
HETATM   17  C   UNL     1      -7.685   3.771  67.038  1.00  0.00    -0.080 C  
HETATM   18  C   UNL     1      -6.568   4.769  67.411  1.00  0.00    -0.047 C  
HETATM   19  C   UNL     1      -7.313   2.300  67.224  1.00  0.00    -0.056 C  
HETATM   20  C   UNL     1      -6.913   2.030  68.654  1.00  0.00    -0.039 C  
HETATM   21  C   UNL     1      -7.819   2.719  69.638  1.00  0.00    -0.049 A  
HETATM   22  C   UNL     1      -7.697   2.452  71.014  1.00  0.00    -0.036 A  
HETATM   23  C   UNL     1      -6.642   1.511  71.538  1.00  0.00    -0.019 C  
HETATM   24  C   UNL     1      -8.577   3.096  71.902  1.00  0.00    -0.076 A  
HETATM   25  C   UNL     1      -9.551   4.014  71.460  1.00  0.00    -0.237 A  
HETATM   26  O   UNL     1      -8.513   2.861  73.251  1.00  0.00    -0.074 OA 
HETATM   27  C   UNL     1     -10.469   4.678  72.454  1.00  0.00    -0.250 C  
HETATM   28  C   UNL     1      -9.643   4.307  70.079  1.00  0.00    -0.274 A  
HETATM   29  H   UNL     1      -9.107   3.297  73.851  1.00  0.00     0.000 HD 
HETATM   30  C   UNL     1      -8.758   3.669  69.183  1.00  0.00    -0.091 A  
HETATM   31  C   UNL     1     -10.641   5.296  69.531  1.00  0.00    -0.244 C  
HETATM   32  O   UNL     1      -8.846   4.053  67.857  1.00  0.00    -0.100 OA 
ENDBRANCH  16  17
ENDBRANCH  15  16
ENDBRANCH  13  15
ENDBRANCH  10  11
ENDBRANCH   9  10
ENDBRANCH   5   6
ENDBRANCH   4   5
TORSDOF 7
ENDMDL
MODEL      352
REMARK 921   NORMALIZED FREE ENERGY PREDICTED BY IDOCK:   -0.09 KCAL/MOL
REMARK 922        TOTAL FREE ENERGY PREDICTED BY IDOCK:   -1.88 KCAL/MOL
REMARK 923 INTER-LIGAND FREE ENERGY PREDICTED BY IDOCK:   -1.65 KCAL/MOL
REMARK 924 INTRA-LIGAND FREE ENERGY PREDICTED BY IDOCK:   -0.23 KCAL/MOL
REMARK 927      BINDING AFFINITY PREDICTED BY RF-SCORE:    0.00 PKD
ROOT
HETATM    1  C   UNL     1     -10.693  18.680  69.485  1.00  0.00     1.174 C  
HETATM    2  C   UNL     1     -10.220  18.923  68.054  1.00  0.00    -0.452 C  
HETATM    3  C   UNL     1     -11.361  18.630  67.075  1.00  0.00     0.627 C  
HETATM    4  C   UNL     1      -9.672  20.358  67.922  1.00  0.00    -0.426 C  
ENDROOT
BRANCH   4   5
HETATM    5  C   UNL     1      -9.174  20.652  66.510  1.00  0.00    -0.116 C  
BRANCH   5   6
HETATM    6  C   UNL     1      -7.784  20.083  66.240  1.00  0.00    -0.323 C  
HETATM    7  C   UNL     1      -7.714  18.573  66.552  1.00  0.00    -0.278 C  
HETATM    8  C   UNL     1      -8.709  17.765  65.706  1.00  0.00     0.311 C  
HETATM    9  C   UNL     1      -6.268  18.077  66.354  1.00  0.00    -0.236 C  
BRANCH   9  10
HETATM   10  C   UNL     1      -6.138  16.585  66.651  1.00  0.00     0.110 C  
BRANCH  10  11
HETATM   11  C   UNL     1      -6.790  16.199  67.969  1.00  0.00    -0.138 C  
HETATM   12  C   UNL     1      -5.767  16.165  69.123  1.00  0.00    -0.116 C  
HETATM   13  C   UNL     1      -6.412  15.656  70.421  1.00  0.00     0.172 C  
HETATM   14  C   UNL     1      -5.140  17.539  69.386  1.00  0.00    -0.172 C  
BRANCH  13  15
HETATM   15  C   UNL     1      -7.050  14.270  70.328  1.00  0.00     0.336 C  
BRANCH  15  16
HETATM   16  C   UNL     1      -6.094  13.151  69.878  1.00  0.00    -0.128 C  
BRANCH  16  17
HETATM   17  C   UNL     1      -6.538  12.441  68.568  1.00  0.00    -0.073 C  
HETATM   18  C   UNL     1      -5.493  12.725  67.467  1.00  0.00    -0.091 C  
HETATM   19  C   UNL     1      -7.960  12.885  68.226  1.00  0.00    -0.151 C  
HETATM   20  C   UNL     1      -8.434  12.216  66.958  1.00  0.00    -0.183 C  
HETATM   21  C   UNL     1      -8.054  10.762  66.905  1.00  0.00    -0.132 A  
HETATM   22  C   UNL     1      -8.551   9.941  65.875  1.00  0.00    -0.149 A  
HETATM   23  C   UNL     1      -9.433  10.499  64.787  1.00  0.00    -0.312 C  
HETATM   24  C   UNL     1      -8.194   8.581  65.872  1.00  0.00    -0.125 A  
HETATM   25  C   UNL     1      -7.340   8.026  66.847  1.00  0.00    -0.090 A  
HETATM   26  O   UNL     1      -8.661   7.733  64.902  1.00  0.00    -0.373 OA 
HETATM   27  C   UNL     1      -6.987   6.562  66.796  1.00  0.00    -0.067 C  
HETATM   28  C   UNL     1      -6.814   8.865  67.857  1.00  0.00    -0.070 A  
HETATM   29  H   UNL     1      -8.420   6.814  64.900  1.00  0.00     0.000 HD 
HETATM   30  C   UNL     1      -7.162  10.233  67.862  1.00  0.00    -0.085 A  
HETATM   31  C   UNL     1      -5.873   8.353  68.919  1.00  0.00    -0.040 C  
HETATM   32  O   UNL     1      -6.556  11.016  68.828  1.00  0.00    -0.054 OA 
ENDBRANCH  16  17
ENDBRANCH  15  16
ENDBRANCH  13  15
ENDBRANCH  10  11
ENDBRANCH   9  10
ENDBRANCH   5   6
ENDBRANCH   4   5
TORSDOF 7
ENDMDL
MODEL      353
REMARK 921   NORMALIZED FREE ENERGY PREDICTED BY IDOCK:   -0.07 KCAL/MOL
REMARK 922        TOTAL FREE ENERGY PREDICTED BY IDOCK:   -1.86 KCAL/MOL
REMARK 923 INTER-LIGAND FREE ENERGY PREDICTED BY IDOCK:   -1.00 KCAL/MOL
REMARK 924 INTRA-LIGAND FREE ENERGY PREDICTED BY IDOCK:   -0.85 KCAL/MOL
REMARK 927      BINDING AFFINITY PREDICTED BY RF-SCORE:    0.00 PKD
ROOT
HETATM    1  C   UNL     1     -10.536   3.051  63.105  1.00  0.00    -0.218 C  
HETATM    2  C   UNL     1     -10.737   3.964  64.313  1.00  0.00    -0.218 C  
HETATM    3  C   UNL     1     -10.999   3.118  65.563  1.00  0.00     2.423 C  
HETATM    4  C   UNL     1      -9.522   4.900  64.467  1.00  0.00     0.116 C  
ENDROOT
BRANCH   4   5
HETATM    5  C   UNL     1      -9.675   5.843  65.657  1.00  0.00     0.250 C  
BRANCH   5   6
HETATM    6  C   UNL     1      -8.456   5.843  66.576  1.00  0.00    -0.113 C  
HETATM    7  C   UNL     1      -8.537   4.722  67.633  1.00  0.00    -0.103 C  
HETATM    8  C   UNL     1      -8.622   3.330  66.989  1.00  0.00    -0.119 C  
HETATM    9  C   UNL     1      -7.333   4.832  68.588  1.00  0.00    -0.065 C  
BRANCH   9  10
HETATM   10  C   UNL     1      -7.362   3.745  69.660  1.00  0.00    -0.049 C  
BRANCH  10  11
HETATM   11  C   UNL     1      -7.096   4.298  71.051  1.00  0.00    -0.037 C  
HETATM   12  C   UNL     1      -6.715   3.181  72.045  1.00  0.00    -0.019 C  
HETATM   13  C   UNL     1      -6.569   3.733  73.471  1.00  0.00    -0.038 C  
HETATM   14  C   UNL     1      -5.415   2.469  71.653  1.00  0.00    -0.008 C  
BRANCH  13  15
HETATM   15  C   UNL     1      -7.806   4.442  74.022  1.00  0.00    -0.092 C  
BRANCH  15  16
HETATM   16  C   UNL     1      -7.562   5.887  74.494  1.00  0.00    -0.097 C  
BRANCH  16  17
HETATM   17  C   UNL     1      -8.365   6.949  73.691  1.00  0.00    -0.121 C  
HETATM   18  C   UNL     1      -8.189   8.326  74.367  1.00  0.00    -0.206 C  
HETATM   19  C   UNL     1      -9.814   6.480  73.567  1.00  0.00    -0.211 C  
HETATM   20  C   UNL     1     -10.632   7.483  72.789  1.00  0.00    -0.365 C  
HETATM   21  C   UNL     1      -9.895   8.010  71.589  1.00  0.00    -0.223 A  
HETATM   22  C   UNL     1     -10.559   8.830  70.658  1.00  0.00    -0.258 A  
HETATM   23  C   UNL     1     -11.999   9.231  70.857  1.00  0.00    -0.321 C  
HETATM   24  C   UNL     1      -9.845   9.284  69.536  1.00  0.00    -0.181 A  
HETATM   25  C   UNL     1      -8.487   8.966  69.330  1.00  0.00    -0.124 A  
HETATM   26  O   UNL     1     -10.447  10.072  68.589  1.00  0.00    -0.187 OA 
HETATM   27  C   UNL     1      -7.767   9.481  68.110  1.00  0.00    -0.083 C  
HETATM   28  C   UNL     1      -7.815   8.173  70.289  1.00  0.00    -0.093 A  
HETATM   29  H   UNL     1      -9.964  10.379  67.831  1.00  0.00     0.000 HD 
HETATM   30  C   UNL     1      -8.523   7.720  71.423  1.00  0.00    -0.116 A  
HETATM   31  C   UNL     1      -6.356   7.812  70.155  1.00  0.00    -0.033 C  
HETATM   32  O   UNL     1      -7.793   7.014  72.361  1.00  0.00    -0.094 OA 
ENDBRANCH  16  17
ENDBRANCH  15  16
ENDBRANCH  13  15
ENDBRANCH  10  11
ENDBRANCH   9  10
ENDBRANCH   5   6
ENDBRANCH   4   5
TORSDOF 7
ENDMDL
MODEL      354
REMARK 921   NORMALIZED FREE ENERGY PREDICTED BY IDOCK:   -0.07 KCAL/MOL
REMARK 922        TOTAL FREE ENERGY PREDICTED BY IDOCK:   -1.85 KCAL/MOL
REMARK 923 INTER-LIGAND FREE ENERGY PREDICTED BY IDOCK:   -3.01 KCAL/MOL
REMARK 924 INTRA-LIGAND FREE ENERGY PREDICTED BY IDOCK:    1.16 KCAL/MOL
REMARK 927      BINDING AFFINITY PREDICTED BY RF-SCORE:    0.00 PKD
ROOT
HETATM    1  C   UNL     1      -8.687  20.200  67.405  1.00  0.00    -0.425 C  
HETATM    2  C   UNL     1      -8.582  19.129  66.321  1.00  0.00    -0.303 C  
HETATM    3  C   UNL     1      -7.327  18.282  66.550  1.00  0.00    -0.264 C  
HETATM    4  C   UNL     1      -9.874  18.288  66.293  1.00  0.00    -0.323 C  
ENDROOT
BRANCH   4   5
HETATM    5  C   UNL     1      -9.828  17.206  65.218  1.00  0.00     0.687 C  
BRANCH   5   6
HETATM    6  C   UNL     1     -10.847  16.093  65.452  1.00  0.00    -0.319 C  
HETATM    7  C   UNL     1     -10.937  15.704  66.942  1.00  0.00    -0.243 C  
HETATM    8  C   UNL     1     -11.351  16.892  67.822  1.00  0.00     0.153 C  
HETATM    9  C   UNL     1     -11.904  14.515  67.102  1.00  0.00    -0.412 C  
BRANCH   9  10
HETATM   10  C   UNL     1     -12.032  14.084  68.561  1.00  0.00    -0.383 C  
BRANCH  10  11
HETATM   11  C   UNL     1     -10.685  13.760  69.188  1.00  0.00    -0.154 C  
HETATM   12  C   UNL     1      -9.963  15.033  69.676  1.00  0.00    -0.117 C  
HETATM   13  C   UNL     1      -8.554  14.707  70.195  1.00  0.00     0.996 C  
HETATM   14  C   UNL     1     -10.742  15.760  70.778  1.00  0.00    -0.124 C  
BRANCH  13  15
HETATM   15  C   UNL     1      -7.637  14.011  69.189  1.00  0.00     0.030 C  
BRANCH  15  16
HETATM   16  C   UNL     1      -8.267  13.772  67.804  1.00  0.00    -0.174 C  
BRANCH  16  17
HETATM   17  C   UNL     1      -8.072  12.324  67.272  1.00  0.00    -0.182 C  
HETATM   18  C   UNL     1      -6.595  12.138  66.861  1.00  0.00    -0.006 C  
HETATM   19  C   UNL     1      -9.081  12.071  66.153  1.00  0.00    -0.129 C  
HETATM   20  C   UNL     1      -8.929  10.671  65.608  1.00  0.00    -0.203 C  
HETATM   21  C   UNL     1      -8.725   9.655  66.698  1.00  0.00    -0.146 A  
HETATM   22  C   UNL     1      -8.725   8.281  66.389  1.00  0.00    -0.162 A  
HETATM   23  C   UNL     1      -8.888   7.799  64.970  1.00  0.00     0.205 C  
HETATM   24  C   UNL     1      -8.556   7.360  67.437  1.00  0.00    -0.118 A  
HETATM   25  C   UNL     1      -8.361   7.768  68.772  1.00  0.00    -0.128 A  
HETATM   26  O   UNL     1      -8.564   6.010  67.195  1.00  0.00    -0.108 OA 
HETATM   27  C   UNL     1      -8.183   6.738  69.858  1.00  0.00    -0.127 C  
HETATM   28  C   UNL     1      -8.323   9.150  69.070  1.00  0.00    -0.127 A  
HETATM   29  H   UNL     1      -8.449   5.387  67.904  1.00  0.00     0.000 HD 
HETATM   30  C   UNL     1      -8.485  10.081  68.021  1.00  0.00    -0.117 A  
HETATM   31  C   UNL     1      -8.093   9.666  70.468  1.00  0.00    -0.145 C  
HETATM   32  O   UNL     1      -8.363  11.416  68.363  1.00  0.00    -0.141 OA 
ENDBRANCH  16  17
ENDBRANCH  15  16
ENDBRANCH  13  15
ENDBRANCH  10  11
ENDBRANCH   9  10
ENDBRANCH   5   6
ENDBRANCH   4   5
TORSDOF 7
ENDMDL
MODEL      355
REMARK 921   NORMALIZED FREE ENERGY PREDICTED BY IDOCK:    0.04 KCAL/MOL
REMARK 922        TOTAL FREE ENERGY PREDICTED BY IDOCK:   -1.69 KCAL/MOL
REMARK 923 INTER-LIGAND FREE ENERGY PREDICTED BY IDOCK:   -4.09 KCAL/MOL
REMARK 924 INTRA-LIGAND FREE ENERGY PREDICTED BY IDOCK:    2.40 KCAL/MOL
REMARK 927      BINDING AFFINITY PREDICTED BY RF-SCORE:    0.00 PKD
ROOT
HETATM    1  C   UNL     1     -14.363  15.156  72.389  1.00  0.00    -0.453 C  
HETATM    2  C   UNL     1     -12.849  15.051  72.216  1.00  0.00    -0.414 C  
HETATM    3  C   UNL     1     -12.483  13.656  71.702  1.00  0.00    -0.269 C  
HETATM    4  C   UNL     1     -12.350  16.180  71.292  1.00  0.00    -0.181 C  
ENDROOT
BRANCH   4   5
HETATM    5  C   UNL     1     -10.838  16.128  71.093  1.00  0.00     0.260 C  
BRANCH   5   6
HETATM    6  C   UNL     1     -10.415  16.472  69.667  1.00  0.00    -0.267 C  
HETATM    7  C   UNL     1     -10.687  15.307  68.693  1.00  0.00    -0.245 C  
HETATM    8  C   UNL     1     -12.175  14.930  68.648  1.00  0.00    -0.101 C  
HETATM    9  C   UNL     1     -10.151  15.673  67.295  1.00  0.00    -0.255 C  
BRANCH   9  10
HETATM   10  C   UNL     1     -10.392  14.552  66.287  1.00  0.00    -0.300 C  
BRANCH  10  11
HETATM   11  C   UNL     1     -11.022  13.325  66.926  1.00  0.00    -0.298 C  
HETATM   12  C   UNL     1      -9.965  12.434  67.611  1.00  0.00    -0.200 C  
HETATM   13  C   UNL     1     -10.593  11.139  68.146  1.00  0.00    -0.227 C  
HETATM   14  C   UNL     1      -9.254  13.154  68.764  1.00  0.00     0.144 C  
BRANCH  13  15
HETATM   15  C   UNL     1     -11.309  10.285  67.100  1.00  0.00     0.202 C  
BRANCH  15  16
HETATM   16  C   UNL     1     -10.375   9.539  66.130  1.00  0.00    -0.188 C  
BRANCH  16  17
HETATM   17  C   UNL     1      -9.860   8.180  66.681  1.00  0.00    -0.261 C  
HETATM   18  C   UNL     1      -9.302   7.343  65.509  1.00  0.00     0.392 C  
HETATM   19  C   UNL     1     -10.988   7.507  67.463  1.00  0.00    -0.133 C  
HETATM   20  C   UNL     1     -10.530   6.181  68.021  1.00  0.00    -0.284 C  
HETATM   21  C   UNL     1      -9.141   6.254  68.593  1.00  0.00    -0.126 A  
HETATM   22  C   UNL     1      -8.613   5.157  69.301  1.00  0.00    -0.100 A  
HETATM   23  C   UNL     1      -9.399   3.881  69.467  1.00  0.00    -0.246 C  
HETATM   24  C   UNL     1      -7.321   5.270  69.843  1.00  0.00    -0.064 A  
HETATM   25  C   UNL     1      -6.535   6.429  69.677  1.00  0.00    -0.043 A  
HETATM   26  O   UNL     1      -6.763   4.239  70.554  1.00  0.00    -0.031 OA 
HETATM   27  C   UNL     1      -5.154   6.498  70.278  1.00  0.00    -0.014 C  
HETATM   28  C   UNL     1      -7.057   7.513  68.933  1.00  0.00    -0.080 A  
HETATM   29  H   UNL     1      -5.889   4.316  70.920  1.00  0.00     0.000 HD 
HETATM   30  C   UNL     1      -8.352   7.404  68.380  1.00  0.00    -0.125 A  
HETATM   31  C   UNL     1      -6.270   8.776  68.689  1.00  0.00    -0.046 C  
HETATM   32  O   UNL     1      -8.776   8.464  67.600  1.00  0.00    -0.135 OA 
ENDBRANCH  16  17
ENDBRANCH  15  16
ENDBRANCH  13  15
ENDBRANCH  10  11
ENDBRANCH   9  10
ENDBRANCH   5   6
ENDBRANCH   4   5
TORSDOF 7
ENDMDL
MODEL      356
REMARK 921   NORMALIZED FREE ENERGY PREDICTED BY IDOCK:    0.22 KCAL/MOL
REMARK 922        TOTAL FREE ENERGY PREDICTED BY IDOCK:   -1.45 KCAL/MOL
REMARK 923 INTER-LIGAND FREE ENERGY PREDICTED BY IDOCK:   -4.53 KCAL/MOL
REMARK 924 INTRA-LIGAND FREE ENERGY PREDICTED BY IDOCK:    3.08 KCAL/MOL
REMARK 927      BINDING AFFINITY PREDICTED BY RF-SCORE:    0.00 PKD
ROOT
HETATM    1  C   UNL     1      -5.794  10.558  68.667  1.00  0.00    -0.040 C  
HETATM    2  C   UNL     1      -6.175  12.031  68.799  1.00  0.00    -0.063 C  
HETATM    3  C   UNL     1      -5.385  12.669  69.945  1.00  0.00    -0.094 C  
HETATM    4  C   UNL     1      -5.958  12.748  67.451  1.00  0.00    -0.110 C  
ENDROOT
BRANCH   4   5
HETATM    5  C   UNL     1      -6.333  14.225  67.523  1.00  0.00    -0.028 C  
BRANCH   5   6
HETATM    6  C   UNL     1      -7.261  14.546  68.692  1.00  0.00    -0.124 C  
HETATM    7  C   UNL     1      -8.684  13.996  68.462  1.00  0.00    -0.156 C  
HETATM    8  C   UNL     1      -8.689  12.470  68.282  1.00  0.00    -0.171 C  
HETATM    9  C   UNL     1      -9.595  14.433  69.624  1.00  0.00     0.465 C  
BRANCH   9  10
HETATM   10  C   UNL     1     -11.022  13.917  69.448  1.00  0.00    -0.169 C  
BRANCH  10  11
HETATM   11  C   UNL     1     -11.192  12.500  69.974  1.00  0.00     0.208 C  
HETATM   12  C   UNL     1     -12.271  11.727  69.188  1.00  0.00    -0.169 C  
HETATM   13  C   UNL     1     -12.521  10.342  69.804  1.00  0.00    -0.051 C  
HETATM   14  C   UNL     1     -11.904  11.553  67.709  1.00  0.00    -0.228 C  
BRANCH  13  15
HETATM   15  C   UNL     1     -12.938  10.352  71.274  1.00  0.00    -0.517 C  
BRANCH  15  16
HETATM   16  C   UNL     1     -12.802   8.996  71.990  1.00  0.00    -0.468 C  
BRANCH  16  17
HETATM   17  C   UNL     1     -11.560   8.176  71.541  1.00  0.00    -0.275 C  
HETATM   18  C   UNL     1     -10.297   8.789  72.187  1.00  0.00    -0.378 C  
HETATM   19  C   UNL     1     -11.531   8.122  70.014  1.00  0.00     0.082 C  
HETATM   20  C   UNL     1     -10.338   7.331  69.533  1.00  0.00    -0.230 C  
HETATM   21  C   UNL     1     -10.116   6.085  70.346  1.00  0.00    -0.249 A  
HETATM   22  C   UNL     1      -9.151   5.144  69.943  1.00  0.00    -0.162 A  
HETATM   23  C   UNL     1      -8.295   5.375  68.723  1.00  0.00    -0.097 C  
HETATM   24  C   UNL     1      -8.988   3.980  70.714  1.00  0.00    -0.093 A  
HETATM   25  C   UNL     1      -9.738   3.742  71.884  1.00  0.00    -0.237 A  
HETATM   26  O   UNL     1      -8.073   3.023  70.359  1.00  0.00    -0.042 OA 
HETATM   27  C   UNL     1      -9.522   2.478  72.675  1.00  0.00    -0.150 C  
HETATM   28  C   UNL     1     -10.680   4.710  72.304  1.00  0.00    -0.148 A  
HETATM   29  H   UNL     1      -7.963   2.236  70.880  1.00  0.00     0.000 HD 
HETATM   30  C   UNL     1     -10.844   5.885  71.539  1.00  0.00    -0.266 A  
HETATM   31  C   UNL     1     -11.502   4.542  73.558  1.00  0.00    -0.287 C  
HETATM   32  O   UNL     1     -11.723   6.827  72.042  1.00  0.00    -0.281 OA 
ENDBRANCH  16  17
ENDBRANCH  15  16
ENDBRANCH  13  15
ENDBRANCH  10  11
ENDBRANCH   9  10
ENDBRANCH   5   6
ENDBRANCH   4   5
TORSDOF 7
ENDMDL
MODEL      357
REMARK 921   NORMALIZED FREE ENERGY PREDICTED BY IDOCK:    0.33 KCAL/MOL
REMARK 922        TOTAL FREE ENERGY PREDICTED BY IDOCK:   -1.29 KCAL/MOL
REMARK 923 INTER-LIGAND FREE ENERGY PREDICTED BY IDOCK:   -0.26 KCAL/MOL
REMARK 924 INTRA-LIGAND FREE ENERGY PREDICTED BY IDOCK:   -1.02 KCAL/MOL
REMARK 927      BINDING AFFINITY PREDICTED BY RF-SCORE:    0.00 PKD
ROOT
HETATM    1  C   UNL     1      -7.599   9.852  68.730  1.00  0.00    -0.081 C  
HETATM    2  C   UNL     1      -9.072   9.457  68.816  1.00  0.00    -0.132 C  
HETATM    3  C   UNL     1      -9.364   8.330  67.821  1.00  0.00    -0.153 C  
HETATM    4  C   UNL     1      -9.427   9.081  70.268  1.00  0.00    -0.230 C  
ENDROOT
BRANCH   4   5
HETATM    5  C   UNL     1     -10.893   8.687  70.414  1.00  0.00    -0.250 C  
BRANCH   5   6
HETATM    6  C   UNL     1     -11.575   9.364  71.600  1.00  0.00    -0.466 C  
HETATM    7  C   UNL     1     -12.209  10.714  71.202  1.00  0.00    -0.479 C  
HETATM    8  C   UNL     1     -13.267  10.549  70.101  1.00  0.00     0.216 C  
HETATM    9  C   UNL     1     -12.794  11.393  72.455  1.00  0.00     0.620 C  
BRANCH   9  10
HETATM   10  C   UNL     1     -13.435  12.738  72.120  1.00  0.00    -0.591 C  
BRANCH  10  11
HETATM   11  C   UNL     1     -12.401  13.823  71.862  1.00  0.00    -0.092 C  
HETATM   12  C   UNL     1     -12.702  14.599  70.563  1.00  0.00    -0.394 C  
HETATM   13  C   UNL     1     -11.587  15.608  70.248  1.00  0.00    -0.370 C  
HETATM   14  C   UNL     1     -14.041  15.343  70.625  1.00  0.00     0.291 C  
BRANCH  13  15
HETATM   15  C   UNL     1     -10.188  15.007  70.115  1.00  0.00    -0.007 C  
BRANCH  15  16
HETATM   16  C   UNL     1      -9.568  15.127  68.710  1.00  0.00    -0.219 C  
BRANCH  16  17
HETATM   17  C   UNL     1      -8.842  13.836  68.237  1.00  0.00    -0.185 C  
HETATM   18  C   UNL     1      -9.476  12.618  68.946  1.00  0.00     0.254 C  
HETATM   19  C   UNL     1      -7.341  14.000  68.473  1.00  0.00    -0.114 C  
HETATM   20  C   UNL     1      -6.595  12.767  68.024  1.00  0.00    -0.101 C  
HETATM   21  C   UNL     1      -7.109  12.236  66.714  1.00  0.00     0.165 A  
HETATM   22  C   UNL     1      -6.430  11.190  66.062  1.00  0.00     0.017 A  
HETATM   23  C   UNL     1      -5.207  10.552  66.672  1.00  0.00    -0.047 C  
HETATM   24  C   UNL     1      -6.925  10.736  64.828  1.00  0.00     0.287 A  
HETATM   25  C   UNL     1      -8.088  11.276  64.240  1.00  0.00     0.784 A  
HETATM   26  O   UNL     1      -6.294   9.730  64.143  1.00  0.00    -0.104 OA 
HETATM   27  C   UNL     1      -8.577  10.751  62.915  1.00  0.00    -0.201 C  
HETATM   28  C   UNL     1      -8.787  12.301  64.918  1.00  0.00     1.057 A  
HETATM   29  H   UNL     1      -6.629   9.423  63.308  1.00  0.00     0.000 HD 
HETATM   30  C   UNL     1      -8.299  12.757  66.162  1.00  0.00     0.772 A  
HETATM   31  C   UNL     1     -10.053  12.912  64.369  1.00  0.00    -0.265 C  
HETATM   32  O   UNL     1      -9.068  13.706  66.812  1.00  0.00    -0.247 OA 
ENDBRANCH  16  17
ENDBRANCH  15  16
ENDBRANCH  13  15
ENDBRANCH  10  11
ENDBRANCH   9  10
ENDBRANCH   5   6
ENDBRANCH   4   5
TORSDOF 7
ENDMDL
MODEL      358
REMARK 921   NORMALIZED FREE ENERGY PREDICTED BY IDOCK:    0.76 KCAL/MOL
REMARK 922        TOTAL FREE ENERGY PREDICTED BY IDOCK:   -0.69 KCAL/MOL
REMARK 923 INTER-LIGAND FREE ENERGY PREDICTED BY IDOCK:   -1.60 KCAL/MOL
REMARK 924 INTRA-LIGAND FREE ENERGY PREDICTED BY IDOCK:    0.91 KCAL/MOL
REMARK 927      BINDING AFFINITY PREDICTED BY RF-SCORE:    0.00 PKD
ROOT
HETATM    1  C   UNL     1      -8.093   1.740  66.184  1.00  0.00    -0.080 C  
HETATM    2  C   UNL     1      -8.413   2.777  65.110  1.00  0.00    -0.097 C  
HETATM    3  C   UNL     1      -9.717   2.400  64.400  1.00  0.00    -0.084 C  
HETATM    4  C   UNL     1      -8.461   4.183  65.741  1.00  0.00    -0.109 C  
ENDROOT
BRANCH   4   5
HETATM    5  C   UNL     1      -8.768   5.263  64.707  1.00  0.00    -0.109 C  
BRANCH   5   6
HETATM    6  C   UNL     1      -9.623   6.396  65.269  1.00  0.00     0.845 C  
HETATM    7  C   UNL     1      -8.924   7.765  65.126  1.00  0.00     0.247 C  
HETATM    8  C   UNL     1      -8.622   8.106  63.660  1.00  0.00     0.231 C  
HETATM    9  C   UNL     1      -9.787   8.851  65.796  1.00  0.00    -0.106 C  
BRANCH   9  10
HETATM   10  C   UNL     1      -9.142  10.231  65.686  1.00  0.00    -0.208 C  
BRANCH  10  11
HETATM   11  C   UNL     1      -9.736  11.226  66.670  1.00  0.00    -0.222 C  
HETATM   12  C   UNL     1      -9.792  10.649  68.100  1.00  0.00    -0.170 C  
HETATM   13  C   UNL     1     -10.505  11.614  69.060  1.00  0.00    -0.159 C  
HETATM   14  C   UNL     1      -8.399  10.334  68.658  1.00  0.00    -0.122 C  
BRANCH  13  15
HETATM   15  C   UNL     1     -11.930  11.994  68.658  1.00  0.00    -0.290 C  
BRANCH  15  16
HETATM   16  C   UNL     1     -12.038  12.765  67.329  1.00  0.00    -0.228 C  
BRANCH  16  17
HETATM   17  C   UNL     1     -11.185  14.064  67.290  1.00  0.00    -0.312 C  
HETATM   18  C   UNL     1     -11.974  15.201  67.976  1.00  0.00    -0.112 C  
HETATM   19  C   UNL     1     -10.788  14.348  65.842  1.00  0.00    -0.304 C  
HETATM   20  C   UNL     1      -9.953  15.604  65.758  1.00  0.00    -0.390 C  
HETATM   21  C   UNL     1      -8.932  15.684  66.860  1.00  0.00    -0.267 A  
HETATM   22  C   UNL     1      -7.961  16.702  66.847  1.00  0.00    -0.255 A  
HETATM   23  C   UNL     1      -7.941  17.751  65.764  1.00  0.00     0.090 C  
HETATM   24  C   UNL     1      -7.008  16.731  67.880  1.00  0.00    -0.144 A  
HETATM   25  C   UNL     1      -7.014  15.794  68.934  1.00  0.00    -0.135 A  
HETATM   26  O   UNL     1      -6.030  17.691  67.910  1.00  0.00    -0.148 OA 
HETATM   27  C   UNL     1      -5.970  15.871  70.019  1.00  0.00    -0.156 C  
HETATM   28  C   UNL     1      -8.016  14.797  68.961  1.00  0.00    -0.152 A  
HETATM   29  H   UNL     1      -5.386  17.710  68.608  1.00  0.00     0.000 HD 
HETATM   30  C   UNL     1      -8.981  14.766  67.931  1.00  0.00    -0.172 A  
HETATM   31  C   UNL     1      -8.106  13.775  70.068  1.00  0.00     1.754 C  
HETATM   32  O   UNL     1      -9.978  13.816  68.053  1.00  0.00    -0.231 OA 
ENDBRANCH  16  17
ENDBRANCH  15  16
ENDBRANCH  13  15
ENDBRANCH  10  11
ENDBRANCH   9  10
ENDBRANCH   5   6
ENDBRANCH   4   5
TORSDOF 7
ENDMDL
MODEL      359
REMARK 921   NORMALIZED FREE ENERGY PREDICTED BY IDOCK:    1.07 KCAL/MOL
REMARK 922        TOTAL FREE ENERGY PREDICTED BY IDOCK:   -0.25 KCAL/MOL
REMARK 923 INTER-LIGAND FREE ENERGY PREDICTED BY IDOCK:   -1.72 KCAL/MOL
REMARK 924 INTRA-LIGAND FREE ENERGY PREDICTED BY IDOCK:    1.47 KCAL/MOL
REMARK 927      BINDING AFFINITY PREDICTED BY RF-SCORE:    0.00 PKD
ROOT
HETATM    1  C   UNL     1     -14.016  11.034  71.085  1.00  0.00     1.504 C  
HETATM    2  C   UNL     1     -13.435  12.021  72.095  1.00  0.00    -0.338 C  
HETATM    3  C   UNL     1     -11.926  12.161  71.873  1.00  0.00     1.714 C  
HETATM    4  C   UNL     1     -14.182  13.367  71.997  1.00  0.00    -0.201 C  
ENDROOT
BRANCH   4   5
HETATM    5  C   UNL     1     -13.648  14.390  72.995  1.00  0.00    -0.254 C  
BRANCH   5   6
HETATM    6  C   UNL     1     -12.366  15.070  72.519  1.00  0.00    -0.445 C  
HETATM    7  C   UNL     1     -12.108  14.820  71.019  1.00  0.00    -0.391 C  
HETATM    8  C   UNL     1     -13.255  15.348  70.143  1.00  0.00     0.128 C  
HETATM    9  C   UNL     1     -10.757  15.445  70.621  1.00  0.00    -0.255 C  
BRANCH   9  10
HETATM   10  C   UNL     1     -10.448  15.227  69.141  1.00  0.00    -0.247 C  
BRANCH  10  11
HETATM   11  C   UNL     1      -9.016  14.771  68.912  1.00  0.00    -0.167 C  
HETATM   12  C   UNL     1      -8.533  15.109  67.486  1.00  0.00    -0.185 C  
HETATM   13  C   UNL     1      -7.131  14.537  67.225  1.00  0.00    -0.002 C  
HETATM   14  C   UNL     1      -8.510  16.619  67.220  1.00  0.00    -0.214 C  
BRANCH  13  15
HETATM   15  C   UNL     1      -7.002  13.026  67.411  1.00  0.00    -0.123 C  
BRANCH  15  16
HETATM   16  C   UNL     1      -8.018  12.410  68.392  1.00  0.00    -0.149 C  
BRANCH  16  17
HETATM   17  C   UNL     1      -8.627  11.068  67.898  1.00  0.00    -0.133 C  
HETATM   18  C   UNL     1      -9.243  11.284  66.498  1.00  0.00    -0.200 C  
HETATM   19  C   UNL     1      -9.606  10.553  68.953  1.00  0.00    -0.199 C  
HETATM   20  C   UNL     1     -10.220   9.246  68.513  1.00  0.00    -0.225 C  
HETATM   21  C   UNL     1      -9.208   8.321  67.894  1.00  0.00    -0.140 A  
HETATM   22  C   UNL     1      -9.566   6.998  67.574  1.00  0.00    -0.155 A  
HETATM   23  C   UNL     1     -10.967   6.490  67.803  1.00  0.00    -0.407 C  
HETATM   24  C   UNL     1      -8.588   6.155  67.019  1.00  0.00    -0.108 A  
HETATM   25  C   UNL     1      -7.277   6.600  66.751  1.00  0.00    -0.077 A  
HETATM   26  O   UNL     1      -8.877   4.853  66.703  1.00  0.00    -0.111 OA 
HETATM   27  C   UNL     1      -6.267   5.655  66.153  1.00  0.00    -0.034 C  
HETATM   28  C   UNL     1      -6.935   7.941  67.040  1.00  0.00    -0.074 A  
HETATM   29  H   UNL     1      -8.216   4.283  66.327  1.00  0.00     0.000 HD 
HETATM   30  C   UNL     1      -7.914   8.796  67.590  1.00  0.00    -0.106 A  
HETATM   31  C   UNL     1      -5.562   8.501  66.758  1.00  0.00    -0.037 C  
HETATM   32  O   UNL     1      -7.542  10.115  67.780  1.00  0.00    -0.089 OA 
ENDBRANCH  16  17
ENDBRANCH  15  16
ENDBRANCH  13  15
ENDBRANCH  10  11
ENDBRANCH   9  10
ENDBRANCH   5   6
ENDBRANCH   4   5
TORSDOF 7
ENDMDL
MODEL      360
REMARK 921   NORMALIZED FREE ENERGY PREDICTED BY IDOCK:    1.57 KCAL/MOL
REMARK 922        TOTAL FREE ENERGY PREDICTED BY IDOCK:    0.46 KCAL/MOL
REMARK 923 INTER-LIGAND FREE ENERGY PREDICTED BY IDOCK:   -4.32 KCAL/MOL
REMARK 924 INTRA-LIGAND FREE ENERGY PREDICTED BY IDOCK:    4.78 KCAL/MOL
REMARK 927      BINDING AFFINITY PREDICTED BY RF-SCORE:    0.00 PKD
ROOT
HETATM    1  C   UNL     1      -5.923  10.577  68.592  1.00  0.00    -0.040 C  
HETATM    2  C   UNL     1      -6.064  12.097  68.623  1.00  0.00    -0.057 C  
HETATM    3  C   UNL     1      -5.239  12.670  69.779  1.00  0.00    -0.079 C  
HETATM    4  C   UNL     1      -5.666  12.686  67.254  1.00  0.00    -0.051 C  
ENDROOT
BRANCH   4   5
HETATM    5  C   UNL     1      -5.798  14.205  67.225  1.00  0.00     0.537 C  
BRANCH   5   6
HETATM    6  C   UNL     1      -6.555  14.758  68.430  1.00  0.00    -0.101 C  
HETATM    7  C   UNL     1      -8.070  14.483  68.330  1.00  0.00    -0.143 C  
HETATM    8  C   UNL     1      -8.377  12.980  68.251  1.00  0.00    -0.158 C  
HETATM    9  C   UNL     1      -8.790  15.146  69.520  1.00  0.00    -0.125 C  
BRANCH   9  10
HETATM   10  C   UNL     1     -10.298  14.907  69.472  1.00  0.00    -0.168 C  
BRANCH  10  11
HETATM   11  C   UNL     1     -10.676  13.509  69.935  1.00  0.00     0.558 C  
HETATM   12  C   UNL     1     -12.026  13.057  69.341  1.00  0.00    -0.338 C  
HETATM   13  C   UNL     1     -12.456  11.697  69.910  1.00  0.00    -0.123 C  
HETATM   14  C   UNL     1     -11.988  12.965  67.810  1.00  0.00    -0.336 C  
BRANCH  13  15
HETATM   15  C   UNL     1     -12.579  11.641  71.433  1.00  0.00    -0.391 C  
BRANCH  15  16
HETATM   16  C   UNL     1     -12.606  10.219  72.024  1.00  0.00    -0.315 C  
BRANCH  16  17
HETATM   17  C   UNL     1     -11.742   9.198  71.231  1.00  0.00    -0.326 C  
HETATM   18  C   UNL     1     -12.621   7.985  70.856  1.00  0.00     0.020 C  
HETATM   19  C   UNL     1     -10.502   8.856  72.057  1.00  0.00    -0.383 C  
HETATM   20  C   UNL     1      -9.632   7.866  71.321  1.00  0.00    -0.186 C  
HETATM   21  C   UNL     1      -9.509   8.193  69.858  1.00  0.00    -0.160 A  
HETATM   22  C   UNL     1      -8.608   7.476  69.049  1.00  0.00    -0.136 A  
HETATM   23  C   UNL     1      -7.782   6.346  69.610  1.00  0.00    -0.103 C  
HETATM   24  C   UNL     1      -8.502   7.825  67.692  1.00  0.00    -0.121 A  
HETATM   25  C   UNL     1      -9.284   8.848  67.116  1.00  0.00    -0.169 A  
HETATM   26  O   UNL     1      -7.630   7.170  66.861  1.00  0.00    -0.097 OA 
HETATM   27  C   UNL     1      -9.133   9.182  65.654  1.00  0.00    -0.273 C  
HETATM   28  C   UNL     1     -10.215   9.539  67.926  1.00  0.00    -0.251 A  
HETATM   29  H   UNL     1      -7.559   7.407  65.944  1.00  0.00     0.000 HD 
HETATM   30  C   UNL     1     -10.332   9.188  69.288  1.00  0.00    -0.216 A  
HETATM   31  C   UNL     1     -11.106  10.627  67.379  1.00  0.00    -0.341 C  
HETATM   32  O   UNL     1     -11.311   9.848  70.010  1.00  0.00    -0.247 OA 
ENDBRANCH  16  17
ENDBRANCH  15  16
ENDBRANCH  13  15
ENDBRANCH  10  11
ENDBRANCH   9  10
ENDBRANCH   5   6
ENDBRANCH   4   5
TORSDOF 7
ENDMDL
MODEL      361
REMARK 921   NORMALIZED FREE ENERGY PREDICTED BY IDOCK:    1.74 KCAL/MOL
REMARK 922        TOTAL FREE ENERGY PREDICTED BY IDOCK:    0.69 KCAL/MOL
REMARK 923 INTER-LIGAND FREE ENERGY PREDICTED BY IDOCK:   -1.81 KCAL/MOL
REMARK 924 INTRA-LIGAND FREE ENERGY PREDICTED BY IDOCK:    2.51 KCAL/MOL
REMARK 927      BINDING AFFINITY PREDICTED BY RF-SCORE:    0.00 PKD
ROOT
HETATM    1  C   UNL     1      -6.308  11.682  70.988  1.00  0.00     1.118 C  
HETATM    2  C   UNL     1      -6.659  11.457  69.519  1.00  0.00    -0.129 C  
HETATM    3  C   UNL     1      -6.781  12.805  68.803  1.00  0.00    -0.093 C  
HETATM    4  C   UNL     1      -5.615  10.527  68.870  1.00  0.00    -0.041 C  
ENDROOT
BRANCH   4   5
HETATM    5  C   UNL     1      -5.924  10.258  67.400  1.00  0.00    -0.053 C  
BRANCH   5   6
HETATM    6  C   UNL     1      -5.686   8.805  66.999  1.00  0.00    -0.045 C  
HETATM    7  C   UNL     1      -6.465   7.827  67.903  1.00  0.00    -0.051 C  
HETATM    8  C   UNL     1      -7.980   8.073  67.846  1.00  0.00    -0.128 C  
HETATM    9  C   UNL     1      -6.110   6.379  67.515  1.00  0.00    -0.024 C  
BRANCH   9  10
HETATM   10  C   UNL     1      -6.853   5.364  68.381  1.00  0.00    -0.056 C  
BRANCH  10  11
HETATM   11  C   UNL     1      -7.953   6.007  69.211  1.00  0.00    -0.103 C  
HETATM   12  C   UNL     1      -9.313   5.967  68.483  1.00  0.00    -0.127 C  
HETATM   13  C   UNL     1     -10.389   6.727  69.274  1.00  0.00    -0.221 C  
HETATM   14  C   UNL     1      -9.799   4.534  68.235  1.00  0.00    -0.153 C  
BRANCH  13  15
HETATM   15  C   UNL     1     -10.064   8.191  69.568  1.00  0.00    -0.193 C  
BRANCH  15  16
HETATM   16  C   UNL     1     -10.719   9.200  68.605  1.00  0.00    -0.156 C  
BRANCH  16  17
HETATM   17  C   UNL     1     -11.053  10.566  69.267  1.00  0.00    -0.246 C  
HETATM   18  C   UNL     1      -9.971  10.889  70.320  1.00  0.00     1.051 C  
HETATM   19  C   UNL     1     -12.479  10.511  69.816  1.00  0.00    -0.133 C  
HETATM   20  C   UNL     1     -12.847  11.823  70.467  1.00  0.00    -0.012 C  
HETATM   21  C   UNL     1     -12.382  13.007  69.666  1.00  0.00    -0.104 A  
HETATM   22  C   UNL     1     -12.776  14.307  70.035  1.00  0.00    -0.167 A  
HETATM   23  C   UNL     1     -13.632  14.547  71.253  1.00  0.00    -0.423 C  
HETATM   24  C   UNL     1     -12.342  15.387  69.249  1.00  0.00    -0.093 A  
HETATM   25  C   UNL     1     -11.508  15.212  68.125  1.00  0.00    -0.356 A  
HETATM   26  O   UNL     1     -12.708  16.673  69.554  1.00  0.00     0.204 OA 
HETATM   27  C   UNL     1     -11.069  16.405  67.317  1.00  0.00    -0.019 C  
HETATM   28  C   UNL     1     -11.084  13.907  67.782  1.00  0.00    -0.281 A  
HETATM   29  H   UNL     1     -12.415  17.403  69.022  1.00  0.00     0.000 HD 
HETATM   30  C   UNL     1     -11.511  12.817  68.571  1.00  0.00    -0.309 A  
HETATM   31  C   UNL     1     -10.171  13.639  66.611  1.00  0.00    -0.276 C  
HETATM   32  O   UNL     1     -11.002  11.577  68.231  1.00  0.00    -0.196 OA 
ENDBRANCH  16  17
ENDBRANCH  15  16
ENDBRANCH  13  15
ENDBRANCH  10  11
ENDBRANCH   9  10
ENDBRANCH   5   6
ENDBRANCH   4   5
TORSDOF 7
ENDMDL
MODEL      362
REMARK 921   NORMALIZED FREE ENERGY PREDICTED BY IDOCK:    2.31 KCAL/MOL
REMARK 922        TOTAL FREE ENERGY PREDICTED BY IDOCK:    1.50 KCAL/MOL
REMARK 923 INTER-LIGAND FREE ENERGY PREDICTED BY IDOCK:   -2.73 KCAL/MOL
REMARK 924 INTRA-LIGAND FREE ENERGY PREDICTED BY IDOCK:    4.23 KCAL/MOL
REMARK 927      BINDING AFFINITY PREDICTED BY RF-SCORE:    0.00 PKD
ROOT
HETATM    1  C   UNL     1      -5.923  10.577  68.592  1.00  0.00    -0.040 C  
HETATM    2  C   UNL     1      -6.064  12.097  68.623  1.00  0.00    -0.057 C  
HETATM    3  C   UNL     1      -5.239  12.670  69.779  1.00  0.00    -0.079 C  
HETATM    4  C   UNL     1      -5.666  12.686  67.254  1.00  0.00    -0.051 C  
ENDROOT
BRANCH   4   5
HETATM    5  C   UNL     1      -5.798  14.205  67.225  1.00  0.00     0.537 C  
BRANCH   5   6
HETATM    6  C   UNL     1      -6.555  14.758  68.430  1.00  0.00    -0.101 C  
HETATM    7  C   UNL     1      -8.070  14.483  68.330  1.00  0.00    -0.143 C  
HETATM    8  C   UNL     1      -8.377  12.980  68.251  1.00  0.00    -0.158 C  
HETATM    9  C   UNL     1      -8.790  15.146  69.520  1.00  0.00    -0.125 C  
BRANCH   9  10
HETATM   10  C   UNL     1     -10.298  14.907  69.472  1.00  0.00    -0.168 C  
BRANCH  10  11
HETATM   11  C   UNL     1     -10.676  13.509  69.935  1.00  0.00     0.558 C  
HETATM   12  C   UNL     1     -12.026  13.057  69.341  1.00  0.00    -0.338 C  
HETATM   13  C   UNL     1     -12.456  11.697  69.910  1.00  0.00    -0.123 C  
HETATM   14  C   UNL     1     -11.988  12.965  67.810  1.00  0.00    -0.336 C  
BRANCH  13  15
HETATM   15  C   UNL     1     -12.579  11.641  71.433  1.00  0.00    -0.391 C  
BRANCH  15  16
HETATM   16  C   UNL     1     -12.606  10.219  72.024  1.00  0.00    -0.315 C  
BRANCH  16  17
HETATM   17  C   UNL     1     -11.742   9.198  71.231  1.00  0.00    -0.326 C  
HETATM   18  C   UNL     1     -11.509   9.743  69.804  1.00  0.00    -0.145 C  
HETATM   19  C   UNL     1     -12.421   7.830  71.287  1.00  0.00    -0.301 C  
HETATM   20  C   UNL     1     -11.613   6.805  70.529  1.00  0.00    -0.426 C  
HETATM   21  C   UNL     1     -10.138   6.937  70.791  1.00  0.00    -0.208 A  
HETATM   22  C   UNL     1      -9.245   5.966  70.299  1.00  0.00    -0.170 A  
HETATM   23  C   UNL     1      -9.733   4.803  69.471  1.00  0.00    -0.271 C  
HETATM   24  C   UNL     1      -7.877   6.109  70.584  1.00  0.00    -0.106 A  
HETATM   25  C   UNL     1      -7.372   7.200  71.319  1.00  0.00    -0.079 A  
HETATM   26  O   UNL     1      -6.965   5.185  70.142  1.00  0.00    -0.049 OA 
HETATM   27  C   UNL     1      -5.894   7.307  71.595  1.00  0.00    -0.037 C  
HETATM   28  C   UNL     1      -8.269   8.192  71.779  1.00  0.00    -0.165 A  
HETATM   29  H   UNL     1      -6.040   5.282  70.335  1.00  0.00     0.000 HD 
HETATM   30  C   UNL     1      -9.645   8.059  71.490  1.00  0.00    -0.163 A  
HETATM   31  C   UNL     1      -7.805   9.404  72.549  1.00  0.00     1.389 C  
HETATM   32  O   UNL     1     -10.461   9.098  71.900  1.00  0.00    -0.348 OA 
ENDBRANCH  16  17
ENDBRANCH  15  16
ENDBRANCH  13  15
ENDBRANCH  10  11
ENDBRANCH   9  10
ENDBRANCH   5   6
ENDBRANCH   4   5
TORSDOF 7
ENDMDL
MODEL      363
REMARK 921   NORMALIZED FREE ENERGY PREDICTED BY IDOCK:    3.34 KCAL/MOL
REMARK 922        TOTAL FREE ENERGY PREDICTED BY IDOCK:    2.96 KCAL/MOL
REMARK 923 INTER-LIGAND FREE ENERGY PREDICTED BY IDOCK:   -3.80 KCAL/MOL
REMARK 924 INTRA-LIGAND FREE ENERGY PREDICTED BY IDOCK:    6.76 KCAL/MOL
REMARK 927      BINDING AFFINITY PREDICTED BY RF-SCORE:    0.00 PKD
ROOT
HETATM    1  C   UNL     1      -7.570  14.216  67.636  1.00  0.00    -0.193 C  
HETATM    2  C   UNL     1      -8.847  13.378  67.664  1.00  0.00    -0.200 C  
HETATM    3  C   UNL     1     -10.048  14.274  67.979  1.00  0.00    -0.227 C  
HETATM    4  C   UNL     1      -9.000  12.618  66.331  1.00  0.00    -0.056 C  
ENDROOT
BRANCH   4   5
HETATM    5  C   UNL     1     -10.257  11.753  66.308  1.00  0.00    -0.255 C  
BRANCH   5   6
HETATM    6  C   UNL     1     -10.118  10.480  67.139  1.00  0.00    -0.253 C  
HETATM    7  C   UNL     1     -10.090   9.218  66.252  1.00  0.00    -0.322 C  
HETATM    8  C   UNL     1      -8.921   9.242  65.256  1.00  0.00    -0.260 C  
HETATM    9  C   UNL     1     -10.047   7.965  67.147  1.00  0.00    -0.328 C  
BRANCH   9  10
HETATM   10  C   UNL     1     -10.019   6.681  66.320  1.00  0.00     0.021 C  
BRANCH  10  11
HETATM   11  C   UNL     1      -8.625   6.353  65.809  1.00  0.00    -0.152 C  
HETATM   12  C   UNL     1      -7.858   5.444  66.791  1.00  0.00    -0.101 C  
HETATM   13  C   UNL     1      -6.411   5.220  66.325  1.00  0.00    -0.044 C  
HETATM   14  C   UNL     1      -8.536   4.082  66.977  1.00  0.00    -0.100 C  
BRANCH  13  15
HETATM   15  C   UNL     1      -5.587   6.493  66.132  1.00  0.00    -0.014 C  
BRANCH  15  16
HETATM   16  C   UNL     1      -5.735   7.532  67.260  1.00  0.00    -0.031 C  
BRANCH  16  17
HETATM   17  C   UNL     1      -6.299   6.940  68.582  1.00  0.00    -0.032 C  
HETATM   18  C   UNL     1      -5.437   5.726  68.993  1.00  0.00    -0.004 C  
HETATM   19  C   UNL     1      -7.784   6.631  68.390  1.00  0.00    -0.105 C  
HETATM   20  C   UNL     1      -8.374   6.055  69.654  1.00  0.00    -0.119 C  
HETATM   21  C   UNL     1      -7.896   6.776  70.885  1.00  0.00    -0.098 A  
HETATM   22  C   UNL     1      -8.465   6.482  72.139  1.00  0.00    -0.113 A  
HETATM   23  C   UNL     1      -9.527   5.421  72.287  1.00  0.00    -0.165 C  
HETATM   24  C   UNL     1      -8.011   7.193  73.263  1.00  0.00    -0.096 A  
HETATM   25  C   UNL     1      -6.993   8.164  73.177  1.00  0.00    -0.132 A  
HETATM   26  O   UNL     1      -8.540   6.958  74.506  1.00  0.00    -0.157 OA 
HETATM   27  C   UNL     1      -6.541   8.896  74.415  1.00  0.00    -0.059 C  
HETATM   28  C   UNL     1      -6.399   8.427  71.921  1.00  0.00    -0.064 A  
HETATM   29  H   UNL     1      -8.233   7.438  75.266  1.00  0.00     0.000 HD 
HETATM   30  C   UNL     1      -6.845   7.712  70.788  1.00  0.00    -0.043 A  
HETATM   31  C   UNL     1      -5.286   9.432  71.751  1.00  0.00    -0.071 C  
HETATM   32  O   UNL     1      -6.175   7.959  69.604  1.00  0.00    -0.032 OA 
ENDBRANCH  16  17
ENDBRANCH  15  16
ENDBRANCH  13  15
ENDBRANCH  10  11
ENDBRANCH   9  10
ENDBRANCH   5   6
ENDBRANCH   4   5
TORSDOF 7
ENDMDL
MODEL      364
REMARK 921   NORMALIZED FREE ENERGY PREDICTED BY IDOCK:    3.87 KCAL/MOL
REMARK 922        TOTAL FREE ENERGY PREDICTED BY IDOCK:    3.70 KCAL/MOL
REMARK 923 INTER-LIGAND FREE ENERGY PREDICTED BY IDOCK:   -4.05 KCAL/MOL
REMARK 924 INTRA-LIGAND FREE ENERGY PREDICTED BY IDOCK:    7.74 KCAL/MOL
REMARK 927      BINDING AFFINITY PREDICTED BY RF-SCORE:    0.00 PKD
ROOT
HETATM    1  C   UNL     1      -7.419   7.188  66.186  1.00  0.00    -0.080 C  
HETATM    2  C   UNL     1      -8.040   6.054  67.000  1.00  0.00    -0.106 C  
HETATM    3  C   UNL     1      -8.101   4.781  66.151  1.00  0.00    -0.107 C  
HETATM    4  C   UNL     1      -7.253   5.862  68.312  1.00  0.00    -0.079 C  
ENDROOT
BRANCH   4   5
HETATM    5  C   UNL     1      -7.839   4.746  69.171  1.00  0.00    -0.071 C  
BRANCH   5   6
HETATM    6  C   UNL     1      -7.338   4.780  70.612  1.00  0.00    -0.056 C  
HETATM    7  C   UNL     1      -7.588   6.151  71.273  1.00  0.00    -0.094 C  
HETATM    8  C   UNL     1      -9.081   6.511  71.302  1.00  0.00    -0.148 C  
HETATM    9  C   UNL     1      -6.976   6.158  72.686  1.00  0.00    -0.075 C  
BRANCH   9  10
HETATM   10  C   UNL     1      -7.193   7.496  73.390  1.00  0.00    -0.098 C  
BRANCH  10  11
HETATM   11  C   UNL     1      -8.261   8.338  72.712  1.00  0.00    -0.221 C  
HETATM   12  C   UNL     1      -9.572   7.549  72.517  1.00  0.00    -0.214 C  
HETATM   13  C   UNL     1     -10.601   8.368  71.724  1.00  0.00    -0.352 C  
HETATM   14  C   UNL     1     -10.199   7.122  73.850  1.00  0.00    -0.358 C  
BRANCH  13  15
HETATM   15  C   UNL     1     -10.134   8.835  70.345  1.00  0.00    -0.223 C  
BRANCH  15  16
HETATM   16  C   UNL     1     -11.265   9.282  69.401  1.00  0.00     0.030 C  
BRANCH  16  17
HETATM   17  C   UNL     1     -11.072  10.717  68.833  1.00  0.00    -0.261 C  
HETATM   18  C   UNL     1     -11.985  10.893  67.600  1.00  0.00     0.495 C  
HETATM   19  C   UNL     1      -9.584  10.943  68.562  1.00  0.00    -0.187 C  
HETATM   20  C   UNL     1      -9.351  12.329  68.010  1.00  0.00    -0.195 C  
HETATM   21  C   UNL     1     -10.164  13.371  68.727  1.00  0.00    -0.128 A  
HETATM   22  C   UNL     1      -9.954  14.737  68.457  1.00  0.00    -0.228 A  
HETATM   23  C   UNL     1      -8.949  15.184  67.426  1.00  0.00    -0.193 C  
HETATM   24  C   UNL     1     -10.715  15.684  69.163  1.00  0.00    -0.243 A  
HETATM   25  C   UNL     1     -11.693  15.309  70.107  1.00  0.00    -0.342 A  
HETATM   26  O   UNL     1     -10.541  17.027  68.951  1.00  0.00    -0.325 OA 
HETATM   27  C   UNL     1     -12.484  16.365  70.836  1.00  0.00     0.864 C  
HETATM   28  C   UNL     1     -11.926  13.934  70.346  1.00  0.00    -0.393 A  
HETATM   29  H   UNL     1     -11.056  17.667  69.429  1.00  0.00     0.000 HD 
HETATM   30  C   UNL     1     -11.170  12.977  69.635  1.00  0.00    -0.010 A  
HETATM   31  C   UNL     1     -12.972  13.452  71.320  1.00  0.00    -0.368 C  
HETATM   32  O   UNL     1     -11.495  11.651  69.856  1.00  0.00    -0.277 OA 
ENDBRANCH  16  17
ENDBRANCH  15  16
ENDBRANCH  13  15
ENDBRANCH  10  11
ENDBRANCH   9  10
ENDBRANCH   5   6
ENDBRANCH   4   5
TORSDOF 7
ENDMDL
MODEL      365
REMARK 921   NORMALIZED FREE ENERGY PREDICTED BY IDOCK:    4.23 KCAL/MOL
REMARK 922        TOTAL FREE ENERGY PREDICTED BY IDOCK:    4.20 KCAL/MOL
REMARK 923 INTER-LIGAND FREE ENERGY PREDICTED BY IDOCK:   -0.52 KCAL/MOL
REMARK 924 INTRA-LIGAND FREE ENERGY PREDICTED BY IDOCK:    4.72 KCAL/MOL
REMARK 927      BINDING AFFINITY PREDICTED BY RF-SCORE:    0.00 PKD
ROOT
HETATM    1  C   UNL     1      -9.805   7.992  65.410  1.00  0.00     1.134 C  
HETATM    2  C   UNL     1      -8.615   8.575  66.169  1.00  0.00    -0.154 C  
HETATM    3  C   UNL     1      -8.909  10.028  66.553  1.00  0.00    -0.154 C  
HETATM    4  C   UNL     1      -8.289   7.688  67.388  1.00  0.00    -0.116 C  
ENDROOT
BRANCH   4   5
HETATM    5  C   UNL     1      -7.098   8.221  68.180  1.00  0.00    -0.082 C  
BRANCH   5   6
HETATM    6  C   UNL     1      -7.316   9.641  68.695  1.00  0.00    -0.074 C  
HETATM    7  C   UNL     1      -8.815   9.972  68.848  1.00  0.00    -0.148 C  
HETATM    8  C   UNL     1      -9.517   9.020  69.828  1.00  0.00    -0.181 C  
HETATM    9  C   UNL     1      -8.973  11.444  69.275  1.00  0.00     0.332 C  
BRANCH   9  10
HETATM   10  C   UNL     1     -10.441  11.829  69.441  1.00  0.00     0.115 C  
BRANCH  10  11
HETATM   11  C   UNL     1     -10.785  13.119  68.714  1.00  0.00    -0.253 C  
HETATM   12  C   UNL     1     -11.888  13.910  69.448  1.00  0.00    -0.384 C  
HETATM   13  C   UNL     1     -12.313  15.148  68.643  1.00  0.00     0.084 C  
HETATM   14  C   UNL     1     -11.451  14.356  70.849  1.00  0.00    -0.105 C  
BRANCH  13  15
HETATM   15  C   UNL     1     -12.814  14.860  67.229  1.00  0.00     1.663 C  
BRANCH  15  16
HETATM   16  C   UNL     1     -11.821  14.089  66.339  1.00  0.00    -0.437 C  
BRANCH  16  17
HETATM   17  C   UNL     1     -10.488  14.848  66.091  1.00  0.00    -0.306 C  
HETATM   18  C   UNL     1     -10.346  15.129  64.579  1.00  0.00     0.290 C  
HETATM   19  C   UNL     1      -9.341  14.040  66.699  1.00  0.00    -0.292 C  
HETATM   20  C   UNL     1      -8.023  14.744  66.482  1.00  0.00     0.530 C  
HETATM   21  C   UNL     1      -8.124  16.226  66.720  1.00  0.00    -0.299 A  
HETATM   22  C   UNL     1      -6.961  17.020  66.723  1.00  0.00    -0.268 A  
HETATM   23  C   UNL     1      -5.605  16.420  66.452  1.00  0.00     0.818 C  
HETATM   24  C   UNL     1      -7.091  18.397  66.973  1.00  0.00    -0.194 A  
HETATM   25  C   UNL     1      -8.344  19.006  67.192  1.00  0.00    -0.296 A  
HETATM   26  O   UNL     1      -5.991  19.214  67.002  1.00  0.00    -0.167 OA 
HETATM   27  C   UNL     1      -8.428  20.488  67.453  1.00  0.00    -0.354 C  
HETATM   28  C   UNL     1      -9.512  18.209  67.149  1.00  0.00    -0.264 A  
HETATM   29  H   UNL     1      -6.079  20.145  67.171  1.00  0.00     0.000 HD 
HETATM   30  C   UNL     1      -9.390  16.827  66.892  1.00  0.00    -0.236 A  
HETATM   31  C   UNL     1     -10.890  18.790  67.347  1.00  0.00    -0.414 C  
HETATM   32  O   UNL     1     -10.571  16.115  66.788  1.00  0.00    -0.309 OA 
ENDBRANCH  16  17
ENDBRANCH  15  16
ENDBRANCH  13  15
ENDBRANCH  10  11
ENDBRANCH   9  10
ENDBRANCH   5   6
ENDBRANCH   4   5
TORSDOF 7
ENDMDL
MODEL      366
REMARK 921   NORMALIZED FREE ENERGY PREDICTED BY IDOCK:    4.68 KCAL/MOL
REMARK 922        TOTAL FREE ENERGY PREDICTED BY IDOCK:    4.84 KCAL/MOL
REMARK 923 INTER-LIGAND FREE ENERGY PREDICTED BY IDOCK:   -0.11 KCAL/MOL
REMARK 924 INTRA-LIGAND FREE ENERGY PREDICTED BY IDOCK:    4.96 KCAL/MOL
REMARK 927      BINDING AFFINITY PREDICTED BY RF-SCORE:    0.00 PKD
ROOT
HETATM    1  C   UNL     1     -12.368  12.755  63.859  1.00  0.00    -0.510 C  
HETATM    2  C   UNL     1     -10.909  12.319  63.740  1.00  0.00    -0.495 C  
HETATM    3  C   UNL     1     -10.024  13.238  64.587  1.00  0.00    -0.141 C  
HETATM    4  C   UNL     1     -10.776  10.833  64.129  1.00  0.00    -0.070 C  
ENDROOT
BRANCH   4   5
HETATM    5  C   UNL     1      -9.336  10.341  64.017  1.00  0.00    -0.337 C  
BRANCH   5   6
HETATM    6  C   UNL     1      -8.924   9.445  65.182  1.00  0.00    -0.258 C  
HETATM    7  C   UNL     1      -9.060  10.169  66.538  1.00  0.00    -0.166 C  
HETATM    8  C   UNL     1     -10.503  10.624  66.803  1.00  0.00    -0.303 C  
HETATM    9  C   UNL     1      -8.539   9.253  67.662  1.00  0.00    -0.116 C  
BRANCH   9  10
HETATM   10  C   UNL     1      -8.649   9.921  69.031  1.00  0.00    -0.149 C  
BRANCH  10  11
HETATM   11  C   UNL     1      -9.033  11.388  68.929  1.00  0.00    -0.016 C  
HETATM   12  C   UNL     1     -10.560  11.572  68.819  1.00  0.00    -0.241 C  
HETATM   13  C   UNL     1     -10.928  13.046  68.594  1.00  0.00    -0.297 C  
HETATM   14  C   UNL     1     -11.300  11.061  70.062  1.00  0.00    -0.358 C  
BRANCH  13  15
HETATM   15  C   UNL     1     -10.295  13.691  67.361  1.00  0.00    -0.244 C  
BRANCH  15  16
HETATM   16  C   UNL     1      -8.971  14.431  67.631  1.00  0.00    -0.192 C  
BRANCH  16  17
HETATM   17  C   UNL     1      -9.142  15.725  68.475  1.00  0.00    -0.194 C  
HETATM   18  C   UNL     1      -9.812  15.362  69.818  1.00  0.00    -0.236 C  
HETATM   19  C   UNL     1      -9.901  16.759  67.643  1.00  0.00    -0.261 C  
HETATM   20  C   UNL     1     -10.087  18.036  68.426  1.00  0.00    -0.392 C  
HETATM   21  C   UNL     1      -8.847  18.427  69.182  1.00  0.00     0.078 A  
HETATM   22  C   UNL     1      -8.783  19.672  69.836  1.00  0.00     0.824 A  
HETATM   23  C   UNL     1      -9.956  20.619  69.830  1.00  0.00     0.714 C  
HETATM   24  C   UNL     1      -7.599  20.013  70.512  1.00  0.00     0.987 A  
HETATM   25  C   UNL     1      -6.493  19.141  70.577  1.00  0.00     0.246 A  
HETATM   26  O   UNL     1      -7.476  21.218  71.153  1.00  0.00     2.507 OA 
HETATM   27  C   UNL     1      -5.247  19.555  71.317  1.00  0.00    -0.326 C  
HETATM   28  C   UNL     1      -6.578  17.876  69.950  1.00  0.00     0.151 A  
HETATM   29  H   UNL     1      -6.676  21.448  71.610  1.00  0.00     0.000 HD 
HETATM   30  C   UNL     1      -7.767  17.523  69.275  1.00  0.00     0.081 A  
HETATM   31  C   UNL     1      -5.448  16.877  69.996  1.00  0.00    -0.209 C  
HETATM   32  O   UNL     1      -7.817  16.246  68.748  1.00  0.00    -0.189 OA 
ENDBRANCH  16  17
ENDBRANCH  15  16
ENDBRANCH  13  15
ENDBRANCH  10  11
ENDBRANCH   9  10
ENDBRANCH   5   6
ENDBRANCH   4   5
TORSDOF 7
ENDMDL
MODEL      367
REMARK 921   NORMALIZED FREE ENERGY PREDICTED BY IDOCK:    4.76 KCAL/MOL
REMARK 922        TOTAL FREE ENERGY PREDICTED BY IDOCK:    4.95 KCAL/MOL
REMARK 923 INTER-LIGAND FREE ENERGY PREDICTED BY IDOCK:   -2.05 KCAL/MOL
REMARK 924 INTRA-LIGAND FREE ENERGY PREDICTED BY IDOCK:    7.00 KCAL/MOL
REMARK 927      BINDING AFFINITY PREDICTED BY RF-SCORE:    0.00 PKD
ROOT
HETATM    1  C   UNL     1      -5.514  11.170  70.515  1.00  0.00    -0.124 C  
HETATM    2  C   UNL     1      -5.972  10.673  69.145  1.00  0.00    -0.041 C  
HETATM    3  C   UNL     1      -5.909  11.819  68.131  1.00  0.00    -0.047 C  
HETATM    4  C   UNL     1      -5.126   9.454  68.724  1.00  0.00    -0.033 C  
ENDROOT
BRANCH   4   5
HETATM    5  C   UNL     1      -5.549   8.908  67.363  1.00  0.00    -0.038 C  
BRANCH   5   6
HETATM    6  C   UNL     1      -5.954   7.437  67.414  1.00  0.00    -0.042 C  
HETATM    7  C   UNL     1      -7.280   7.234  68.176  1.00  0.00    -0.091 C  
HETATM    8  C   UNL     1      -8.440   8.003  67.527  1.00  0.00    -0.127 C  
HETATM    9  C   UNL     1      -7.585   5.727  68.278  1.00  0.00    -0.085 C  
BRANCH   9  10
HETATM   10  C   UNL     1      -8.890   5.465  69.027  1.00  0.00    -0.108 C  
BRANCH  10  11
HETATM   11  C   UNL     1      -9.760   6.708  69.125  1.00  0.00    -0.148 C  
HETATM   12  C   UNL     1     -10.299   7.137  67.744  1.00  0.00    -0.257 C  
HETATM   13  C   UNL     1     -11.074   8.460  67.837  1.00  0.00     0.317 C  
HETATM   14  C   UNL     1     -11.209   6.073  67.118  1.00  0.00    -0.089 C  
BRANCH  13  15
HETATM   15  C   UNL     1     -10.283   9.636  68.409  1.00  0.00    -0.214 C  
BRANCH  15  16
HETATM   16  C   UNL     1      -9.073  10.070  67.561  1.00  0.00    -0.144 C  
BRANCH  16  17
HETATM   17  C   UNL     1      -9.199  11.508  66.985  1.00  0.00    -0.176 C  
HETATM   18  C   UNL     1      -8.018  11.767  66.025  1.00  0.00     0.365 C  
HETATM   19  C   UNL     1      -9.306  12.496  68.146  1.00  0.00    -0.210 C  
HETATM   20  C   UNL     1      -9.434  13.909  67.630  1.00  0.00    -0.212 C  
HETATM   21  C   UNL     1     -10.371  14.004  66.457  1.00  0.00    -0.285 A  
HETATM   22  C   UNL     1     -10.737  15.265  65.948  1.00  0.00    -0.340 A  
HETATM   23  C   UNL     1     -10.175  16.537  66.532  1.00  0.00    -0.305 C  
HETATM   24  C   UNL     1     -11.634  15.316  64.867  1.00  0.00    -0.289 A  
HETATM   25  C   UNL     1     -12.152  14.151  64.265  1.00  0.00    -0.471 A  
HETATM   26  O   UNL     1     -12.036  16.516  64.342  1.00  0.00    -0.300 OA 
HETATM   27  C   UNL     1     -13.109  14.261  63.107  1.00  0.00     2.499 C  
HETATM   28  C   UNL     1     -11.750  12.887  64.757  1.00  0.00    -0.391 A  
HETATM   29  H   UNL     1     -12.643  16.550  63.611  1.00  0.00     0.000 HD 
HETATM   30  C   UNL     1     -10.844  12.828  65.838  1.00  0.00    -0.269 A  
HETATM   31  C   UNL     1     -12.239  11.595  64.150  1.00  0.00    -0.158 C  
HETATM   32  O   UNL     1     -10.431  11.565  66.224  1.00  0.00    -0.235 OA 
ENDBRANCH  16  17
ENDBRANCH  15  16
ENDBRANCH  13  15
ENDBRANCH  10  11
ENDBRANCH   9  10
ENDBRANCH   5   6
ENDBRANCH   4   5
TORSDOF 7
ENDMDL
MODEL      368
REMARK 921   NORMALIZED FREE ENERGY PREDICTED BY IDOCK:    4.99 KCAL/MOL
REMARK 922        TOTAL FREE ENERGY PREDICTED BY IDOCK:    5.28 KCAL/MOL
REMARK 923 INTER-LIGAND FREE ENERGY PREDICTED BY IDOCK:    2.55 KCAL/MOL
REMARK 924 INTRA-LIGAND FREE ENERGY PREDICTED BY IDOCK:    2.73 KCAL/MOL
REMARK 927      BINDING AFFINITY PREDICTED BY RF-SCORE:    0.00 PKD
ROOT
HETATM    1  C   UNL     1      -5.151   3.463  71.817  1.00  0.00     0.000 C  
HETATM    2  C   UNL     1      -5.218   3.886  70.351  1.00  0.00    -0.004 C  
HETATM    3  C   UNL     1      -6.325   3.106  69.636  1.00  0.00    -0.029 C  
HETATM    4  C   UNL     1      -5.406   5.414  70.258  1.00  0.00    -0.004 C  
ENDROOT
BRANCH   4   5
HETATM    5  C   UNL     1      -5.469   5.895  68.811  1.00  0.00    -0.007 C  
BRANCH   5   6
HETATM    6  C   UNL     1      -5.397   7.414  68.687  1.00  0.00    -0.022 C  
HETATM    7  C   UNL     1      -6.746   8.017  68.241  1.00  0.00    -0.067 C  
HETATM    8  C   UNL     1      -7.875   7.694  69.230  1.00  0.00    -0.121 C  
HETATM    9  C   UNL     1      -6.585   9.536  68.038  1.00  0.00    -0.062 C  
BRANCH   9  10
HETATM   10  C   UNL     1      -7.893  10.187  67.594  1.00  0.00    -0.098 C  
BRANCH  10  11
HETATM   11  C   UNL     1      -9.056   9.831  68.506  1.00  0.00    -0.128 C  
HETATM   12  C   UNL     1     -10.202   9.151  67.730  1.00  0.00    -0.278 C  
HETATM   13  C   UNL     1     -11.418   8.907  68.636  1.00  0.00     0.798 C  
HETATM   14  C   UNL     1      -9.772   7.817  67.106  1.00  0.00    -0.243 C  
BRANCH  13  15
HETATM   15  C   UNL     1     -11.990  10.157  69.303  1.00  0.00     0.097 C  
BRANCH  15  16
HETATM   16  C   UNL     1     -12.277  11.325  68.341  1.00  0.00     0.106 C  
BRANCH  16  17
HETATM   17  C   UNL     1     -11.149  12.395  68.307  1.00  0.00    -0.243 C  
HETATM   18  C   UNL     1     -10.309  12.195  67.026  1.00  0.00    -0.232 C  
HETATM   19  C   UNL     1     -10.353  12.313  69.610  1.00  0.00     0.811 C  
HETATM   20  C   UNL     1      -9.246  13.340  69.620  1.00  0.00     1.760 C  
HETATM   21  C   UNL     1      -9.698  14.670  69.083  1.00  0.00    -0.108 A  
HETATM   22  C   UNL     1      -8.848  15.789  69.167  1.00  0.00    -0.250 A  
HETATM   23  C   UNL     1      -7.464  15.677  69.753  1.00  0.00    -0.046 C  
HETATM   24  C   UNL     1      -9.314  17.021  68.676  1.00  0.00    -0.270 A  
HETATM   25  C   UNL     1     -10.585  17.163  68.084  1.00  0.00    -0.380 A  
HETATM   26  O   UNL     1      -8.534  18.147  68.746  1.00  0.00    -0.289 OA 
HETATM   27  C   UNL     1     -11.035  18.507  67.572  1.00  0.00    -0.200 C  
HETATM   28  C   UNL     1     -11.419  16.026  67.968  1.00  0.00    -0.199 A  
HETATM   29  H   UNL     1      -8.849  18.980  68.415  1.00  0.00     0.000 HD 
HETATM   30  C   UNL     1     -10.956  14.783  68.452  1.00  0.00    -0.252 A  
HETATM   31  C   UNL     1     -12.782  16.089  67.324  1.00  0.00     2.830 C  
HETATM   32  O   UNL     1     -11.784  13.696  68.242  1.00  0.00    -0.321 OA 
ENDBRANCH  16  17
ENDBRANCH  15  16
ENDBRANCH  13  15
ENDBRANCH  10  11
ENDBRANCH   9  10
ENDBRANCH   5   6
ENDBRANCH   4   5
TORSDOF 7
ENDMDL
MODEL      369
REMARK 921   NORMALIZED FREE ENERGY PREDICTED BY IDOCK:    5.60 KCAL/MOL
REMARK 922        TOTAL FREE ENERGY PREDICTED BY IDOCK:    6.13 KCAL/MOL
REMARK 923 INTER-LIGAND FREE ENERGY PREDICTED BY IDOCK:    1.64 KCAL/MOL
REMARK 924 INTRA-LIGAND FREE ENERGY PREDICTED BY IDOCK:    4.49 KCAL/MOL
REMARK 927      BINDING AFFINITY PREDICTED BY RF-SCORE:    0.00 PKD
ROOT
HETATM    1  C   UNL     1     -11.543  12.060  65.311  1.00  0.00    -0.337 C  
HETATM    2  C   UNL     1     -10.716  11.282  64.290  1.00  0.00    -0.416 C  
HETATM    3  C   UNL     1     -11.087  11.731  62.873  1.00  0.00     0.153 C  
HETATM    4  C   UNL     1      -9.215  11.450  64.597  1.00  0.00    -0.030 C  
ENDROOT
BRANCH   4   5
HETATM    5  C   UNL     1      -8.341  10.682  63.610  1.00  0.00    -0.043 C  
BRANCH   5   6
HETATM    6  C   UNL     1      -8.417   9.169  63.801  1.00  0.00    -0.187 C  
HETATM    7  C   UNL     1      -8.657   8.790  65.277  1.00  0.00    -0.212 C  
HETATM    8  C   UNL     1      -9.967   9.384  65.818  1.00  0.00    -0.278 C  
HETATM    9  C   UNL     1      -8.627   7.257  65.423  1.00  0.00    -0.047 C  
BRANCH   9  10
HETATM   10  C   UNL     1      -8.859   6.822  66.869  1.00  0.00    -0.120 C  
BRANCH  10  11
HETATM   11  C   UNL     1      -7.558   6.541  67.603  1.00  0.00    -0.105 C  
HETATM   12  C   UNL     1      -7.648   6.933  69.092  1.00  0.00    -0.097 C  
HETATM   13  C   UNL     1      -6.293   6.759  69.795  1.00  0.00    -0.042 C  
HETATM   14  C   UNL     1      -8.706   6.118  69.847  1.00  0.00    -0.136 C  
BRANCH  13  15
HETATM   15  C   UNL     1      -5.137   7.546  69.178  1.00  0.00    -0.015 C  
BRANCH  15  16
HETATM   16  C   UNL     1      -5.548   8.516  68.054  1.00  0.00    -0.035 C  
BRANCH  16  17
HETATM   17  C   UNL     1      -6.464   9.676  68.535  1.00  0.00    -0.051 C  
HETATM   18  C   UNL     1      -5.903  10.239  69.860  1.00  0.00    -0.051 C  
HETATM   19  C   UNL     1      -7.902   9.165  68.618  1.00  0.00    -0.097 C  
HETATM   20  C   UNL     1      -8.829  10.263  69.081  1.00  0.00    -0.182 C  
HETATM   21  C   UNL     1      -8.523  11.581  68.424  1.00  0.00    -0.159 A  
HETATM   22  C   UNL     1      -9.385  12.678  68.611  1.00  0.00     0.017 A  
HETATM   23  C   UNL     1     -10.601  12.576  69.496  1.00  0.00     0.369 C  
HETATM   24  C   UNL     1      -9.080  13.887  67.961  1.00  0.00    -0.192 A  
HETATM   25  C   UNL     1      -7.932  14.039  67.157  1.00  0.00    -0.083 A  
HETATM   26  O   UNL     1      -9.892  14.983  68.096  1.00  0.00    -0.211 OA 
HETATM   27  C   UNL     1      -7.651  15.358  66.484  1.00  0.00     0.445 C  
HETATM   28  C   UNL     1      -7.050  12.944  67.004  1.00  0.00     0.185 A  
HETATM   29  H   UNL     1      -9.686  15.800  67.657  1.00  0.00     0.000 HD 
HETATM   30  C   UNL     1      -7.346  11.729  67.659  1.00  0.00    -0.119 A  
HETATM   31  C   UNL     1      -5.789  13.035  66.181  1.00  0.00     3.777 C  
HETATM   32  O   UNL     1      -6.409  10.720  67.533  1.00  0.00    -0.055 OA 
ENDBRANCH  16  17
ENDBRANCH  15  16
ENDBRANCH  13  15
ENDBRANCH  10  11
ENDBRANCH   9  10
ENDBRANCH   5   6
ENDBRANCH   4   5
TORSDOF 7
ENDMDL
MODEL      370
REMARK 921   NORMALIZED FREE ENERGY PREDICTED BY IDOCK:    5.93 KCAL/MOL
REMARK 922        TOTAL FREE ENERGY PREDICTED BY IDOCK:    6.60 KCAL/MOL
REMARK 923 INTER-LIGAND FREE ENERGY PREDICTED BY IDOCK:    3.63 KCAL/MOL
REMARK 924 INTRA-LIGAND FREE ENERGY PREDICTED BY IDOCK:    2.96 KCAL/MOL
REMARK 927      BINDING AFFINITY PREDICTED BY RF-SCORE:    0.00 PKD
ROOT
HETATM    1  C   UNL     1      -5.776  19.184  64.281  1.00  0.00    -0.321 C  
HETATM    2  C   UNL     1      -6.744  19.425  65.437  1.00  0.00    -0.300 C  
HETATM    3  C   UNL     1      -6.054  20.250  66.528  1.00  0.00    -0.206 C  
HETATM    4  C   UNL     1      -8.032  20.088  64.909  1.00  0.00     1.178 C  
ENDROOT
BRANCH   4   5
HETATM    5  C   UNL     1      -9.042  20.343  66.024  1.00  0.00    -0.042 C  
BRANCH   5   6
HETATM    6  C   UNL     1      -8.422  21.021  67.243  1.00  0.00    -0.005 C  
HETATM    7  C   UNL     1      -8.627  20.189  68.527  1.00  0.00     0.055 C  
HETATM    8  C   UNL     1      -7.998  18.793  68.414  1.00  0.00    -0.365 C  
HETATM    9  C   UNL     1      -8.070  20.966  69.735  1.00  0.00     2.711 C  
BRANCH   9  10
HETATM   10  C   UNL     1      -8.248  20.189  71.037  1.00  0.00     1.884 C  
BRANCH  10  11
HETATM   11  C   UNL     1      -7.254  19.046  71.168  1.00  0.00     2.697 C  
HETATM   12  C   UNL     1      -6.135  19.140  70.110  1.00  0.00    -0.210 C  
HETATM   13  C   UNL     1      -5.207  17.917  70.173  1.00  0.00    -0.230 C  
HETATM   14  C   UNL     1      -5.290  20.411  70.266  1.00  0.00    -0.334 C  
BRANCH  13  15
HETATM   15  C   UNL     1      -5.902  16.567  69.993  1.00  0.00    -0.200 C  
BRANCH  15  16
HETATM   16  C   UNL     1      -5.699  15.920  68.610  1.00  0.00    -0.101 C  
BRANCH  16  17
HETATM   17  C   UNL     1      -6.999  15.315  68.009  1.00  0.00    -0.133 C  
HETATM   18  C   UNL     1      -7.203  15.882  66.587  1.00  0.00     0.072 C  
HETATM   19  C   UNL     1      -8.156  15.579  68.972  1.00  0.00    -0.220 C  
HETATM   20  C   UNL     1      -9.442  15.005  68.427  1.00  0.00    -0.201 C  
HETATM   21  C   UNL     1      -9.245  13.640  67.825  1.00  0.00    -0.214 A  
HETATM   22  C   UNL     1     -10.360  12.885  67.414  1.00  0.00    -0.233 A  
HETATM   23  C   UNL     1     -11.760  13.431  67.528  1.00  0.00    -0.406 C  
HETATM   24  C   UNL     1     -10.139  11.604  66.878  1.00  0.00    -0.211 A  
HETATM   25  C   UNL     1      -8.845  11.070  66.716  1.00  0.00    -0.158 A  
HETATM   26  O   UNL     1     -11.189  10.819  66.476  1.00  0.00    -0.121 OA 
HETATM   27  C   UNL     1      -8.664   9.692  66.134  1.00  0.00    -0.152 C  
HETATM   28  C   UNL     1      -7.727  11.850  67.095  1.00  0.00    -0.163 A  
HETATM   29  H   UNL     1     -11.039   9.953  66.114  1.00  0.00     0.000 HD 
HETATM   30  C   UNL     1      -7.941  13.140  67.628  1.00  0.00    -0.174 A  
HETATM   31  C   UNL     1      -6.310  11.360  66.930  1.00  0.00    -0.137 C  
HETATM   32  O   UNL     1      -6.808  13.882  67.909  1.00  0.00    -0.124 OA 
ENDBRANCH  16  17
ENDBRANCH  15  16
ENDBRANCH  13  15
ENDBRANCH  10  11
ENDBRANCH   9  10
ENDBRANCH   5   6
ENDBRANCH   4   5
TORSDOF 7
ENDMDL
MODEL      371
REMARK 921   NORMALIZED FREE ENERGY PREDICTED BY IDOCK:    6.08 KCAL/MOL
REMARK 922        TOTAL FREE ENERGY PREDICTED BY IDOCK:    6.81 KCAL/MOL
REMARK 923 INTER-LIGAND FREE ENERGY PREDICTED BY IDOCK:    4.37 KCAL/MOL
REMARK 924 INTRA-LIGAND FREE ENERGY PREDICTED BY IDOCK:    2.44 KCAL/MOL
REMARK 927      BINDING AFFINITY PREDICTED BY RF-SCORE:    0.00 PKD
ROOT
HETATM    1  C   UNL     1      -5.776  19.184  64.281  1.00  0.00    -0.321 C  
HETATM    2  C   UNL     1      -6.728  19.418  65.452  1.00  0.00    -0.300 C  
HETATM    3  C   UNL     1      -6.022  20.235  66.538  1.00  0.00    -0.198 C  
HETATM    4  C   UNL     1      -8.022  20.088  64.946  1.00  0.00     1.178 C  
ENDROOT
BRANCH   4   5
HETATM    5  C   UNL     1      -9.016  20.336  66.075  1.00  0.00    -0.131 C  
BRANCH   5   6
HETATM    6  C   UNL     1      -8.380  21.007  67.290  1.00  0.00    -0.017 C  
HETATM    7  C   UNL     1      -8.568  20.168  68.571  1.00  0.00     0.055 C  
HETATM    8  C   UNL     1      -7.941  18.772  68.442  1.00  0.00    -0.365 C  
HETATM    9  C   UNL     1      -7.994  20.939  69.775  1.00  0.00     2.651 C  
BRANCH   9  10
HETATM   10  C   UNL     1      -8.154  20.155  71.076  1.00  0.00     1.804 C  
BRANCH  10  11
HETATM   11  C   UNL     1      -7.159  19.010  71.187  1.00  0.00     2.403 C  
HETATM   12  C   UNL     1      -6.054  19.110  70.115  1.00  0.00    -0.210 C  
HETATM   13  C   UNL     1      -5.127  17.886  70.158  1.00  0.00    -0.219 C  
HETATM   14  C   UNL     1      -5.207  20.379  70.266  1.00  0.00    -0.315 C  
BRANCH  13  15
HETATM   15  C   UNL     1      -5.825  16.537  69.979  1.00  0.00    -0.200 C  
BRANCH  15  16
HETATM   16  C   UNL     1      -5.558  15.850  68.627  1.00  0.00    -0.102 C  
BRANCH  16  17
HETATM   17  C   UNL     1      -6.832  15.239  67.978  1.00  0.00    -0.140 C  
HETATM   18  C   UNL     1      -6.633  13.715  67.825  1.00  0.00    -0.178 C  
HETATM   19  C   UNL     1      -7.120  15.978  66.671  1.00  0.00     0.053 C  
HETATM   20  C   UNL     1      -8.354  15.417  66.006  1.00  0.00     0.596 C  
HETATM   21  C   UNL     1      -9.458  15.146  66.990  1.00  0.00    -0.237 A  
HETATM   22  C   UNL     1     -10.736  14.775  66.531  1.00  0.00    -0.319 A  
HETATM   23  C   UNL     1     -11.018  14.601  65.060  1.00  0.00    -0.415 C  
HETATM   24  C   UNL     1     -11.750  14.554  67.479  1.00  0.00    -0.386 A  
HETATM   25  C   UNL     1     -11.520  14.666  68.865  1.00  0.00    -0.323 A  
HETATM   26  O   UNL     1     -13.017  14.205  67.087  1.00  0.00    -0.099 OA 
HETATM   27  C   UNL     1     -12.642  14.416  69.840  1.00  0.00    -0.217 C  
HETATM   28  C   UNL     1     -10.224  15.002  69.321  1.00  0.00    -0.244 A  
HETATM   29  H   UNL     1     -13.702  14.055  67.728  1.00  0.00     0.000 HD 
HETATM   30  C   UNL     1      -9.199  15.219  68.375  1.00  0.00    -0.194 A  
HETATM   31  C   UNL     1      -9.892  15.116  70.789  1.00  0.00     0.917 C  
HETATM   32  O   UNL     1      -7.938  15.470  68.885  1.00  0.00    -0.155 OA 
ENDBRANCH  16  17
ENDBRANCH  15  16
ENDBRANCH  13  15
ENDBRANCH  10  11
ENDBRANCH   9  10
ENDBRANCH   5   6
ENDBRANCH   4   5
TORSDOF 7
ENDMDL
MODEL      372
REMARK 921   NORMALIZED FREE ENERGY PREDICTED BY IDOCK:    6.60 KCAL/MOL
REMARK 922        TOTAL FREE ENERGY PREDICTED BY IDOCK:    7.55 KCAL/MOL
REMARK 923 INTER-LIGAND FREE ENERGY PREDICTED BY IDOCK:   -3.28 KCAL/MOL
REMARK 924 INTRA-LIGAND FREE ENERGY PREDICTED BY IDOCK:   10.82 KCAL/MOL
REMARK 927      BINDING AFFINITY PREDICTED BY RF-SCORE:    0.00 PKD
ROOT
HETATM    1  C   UNL     1      -8.938   5.163  65.817  1.00  0.00    -0.152 C  
HETATM    2  C   UNL     1      -9.214   6.296  66.803  1.00  0.00    -0.147 C  
HETATM    3  C   UNL     1      -7.904   6.736  67.464  1.00  0.00    -0.111 C  
HETATM    4  C   UNL     1      -9.937   7.450  66.081  1.00  0.00     0.163 C  
ENDROOT
BRANCH   4   5
HETATM    5  C   UNL     1     -10.247   8.608  67.025  1.00  0.00    -0.360 C  
BRANCH   5   6
HETATM    6  C   UNL     1      -9.948   9.973  66.409  1.00  0.00    -0.300 C  
HETATM    7  C   UNL     1      -8.909  10.759  67.235  1.00  0.00    -0.133 C  
HETATM    8  C   UNL     1      -7.575  10.007  67.346  1.00  0.00    -0.091 C  
HETATM    9  C   UNL     1      -8.722  12.160  66.622  1.00  0.00    -0.153 C  
BRANCH   9  10
HETATM   10  C   UNL     1      -7.703  12.986  67.403  1.00  0.00    -0.159 C  
BRANCH  10  11
HETATM   11  C   UNL     1      -7.113  12.219  68.576  1.00  0.00    -0.099 C  
HETATM   12  C   UNL     1      -6.794  10.758  68.198  1.00  0.00    -0.068 C  
HETATM   13  C   UNL     1      -6.314   9.961  69.420  1.00  0.00    -0.045 C  
HETATM   14  C   UNL     1      -5.733  10.659  67.095  1.00  0.00    -0.043 C  
BRANCH  13  15
HETATM   15  C   UNL     1      -7.288   9.932  70.598  1.00  0.00    -0.000 C  
BRANCH  15  16
HETATM   16  C   UNL     1      -8.389   8.859  70.496  1.00  0.00    -0.177 C  
BRANCH  16  17
HETATM   17  C   UNL     1      -8.152   7.634  71.424  1.00  0.00    -0.095 C  
HETATM   18  C   UNL     1      -9.205   7.653  72.553  1.00  0.00    -0.208 C  
HETATM   19  C   UNL     1      -6.702   7.653  71.905  1.00  0.00    -0.054 C  
HETATM   20  C   UNL     1      -6.427   6.476  72.809  1.00  0.00    -0.063 C  
HETATM   21  C   UNL     1      -7.044   5.205  72.293  1.00  0.00    -0.084 A  
HETATM   22  C   UNL     1      -6.757   3.978  72.919  1.00  0.00    -0.046 A  
HETATM   23  C   UNL     1      -5.867   3.909  74.133  1.00  0.00    -0.008 C  
HETATM   24  C   UNL     1      -7.332   2.808  72.394  1.00  0.00    -0.046 A  
HETATM   25  C   UNL     1      -8.202   2.830  71.284  1.00  0.00    -0.075 A  
HETATM   26  O   UNL     1      -7.075   1.583  72.954  1.00  0.00    -0.022 OA 
HETATM   27  C   UNL     1      -8.794   1.547  70.762  1.00  0.00    -0.110 C  
HETATM   28  C   UNL     1      -8.517   4.072  70.683  1.00  0.00    -0.097 A  
HETATM   29  H   UNL     1      -7.464   0.793  72.599  1.00  0.00     0.000 HD 
HETATM   30  C   UNL     1      -7.948   5.252  71.210  1.00  0.00    -0.109 A  
HETATM   31  C   UNL     1      -9.459   4.183  69.510  1.00  0.00    -0.254 C  
HETATM   32  O   UNL     1      -8.353   6.440  70.628  1.00  0.00    -0.129 OA 
ENDBRANCH  16  17
ENDBRANCH  15  16
ENDBRANCH  13  15
ENDBRANCH  10  11
ENDBRANCH   9  10
ENDBRANCH   5   6
ENDBRANCH   4   5
TORSDOF 7
ENDMDL
MODEL      373
REMARK 921   NORMALIZED FREE ENERGY PREDICTED BY IDOCK:    6.94 KCAL/MOL
REMARK 922        TOTAL FREE ENERGY PREDICTED BY IDOCK:    8.03 KCAL/MOL
REMARK 923 INTER-LIGAND FREE ENERGY PREDICTED BY IDOCK:    6.92 KCAL/MOL
REMARK 924 INTRA-LIGAND FREE ENERGY PREDICTED BY IDOCK:    1.11 KCAL/MOL
REMARK 927      BINDING AFFINITY PREDICTED BY RF-SCORE:    0.00 PKD
ROOT
HETATM    1  C   UNL     1     -14.196  12.614  70.313  1.00  0.00     5.257 C  
HETATM    2  C   UNL     1     -13.192  12.780  71.452  1.00  0.00    -0.240 C  
HETATM    3  C   UNL     1     -11.767  12.780  70.889  1.00  0.00     0.567 C  
HETATM    4  C   UNL     1     -13.519  14.055  72.254  1.00  0.00    -0.597 C  
ENDROOT
BRANCH   4   5
HETATM    5  C   UNL     1     -12.550  14.264  73.414  1.00  0.00    -0.097 C  
BRANCH   5   6
HETATM    6  C   UNL     1     -11.174  14.742  72.959  1.00  0.00     0.811 C  
HETATM    7  C   UNL     1     -11.239  15.457  71.594  1.00  0.00    -0.386 C  
HETATM    8  C   UNL     1     -12.157  16.688  71.633  1.00  0.00     0.380 C  
HETATM    9  C   UNL     1      -9.813  15.828  71.143  1.00  0.00     1.871 C  
BRANCH   9  10
HETATM   10  C   UNL     1      -9.815  16.540  69.792  1.00  0.00     0.146 C  
BRANCH  10  11
HETATM   11  C   UNL     1      -8.474  16.441  69.084  1.00  0.00    -0.181 C  
HETATM   12  C   UNL     1      -8.429  17.324  67.820  1.00  0.00    -0.217 C  
HETATM   13  C   UNL     1      -7.117  17.122  67.047  1.00  0.00    -0.225 C  
HETATM   14  C   UNL     1      -8.590  18.814  68.143  1.00  0.00    -0.338 C  
BRANCH  13  15
HETATM   15  C   UNL     1      -6.833  15.683  66.617  1.00  0.00     0.679 C  
BRANCH  15  16
HETATM   16  C   UNL     1      -7.002  14.633  67.731  1.00  0.00    -0.194 C  
BRANCH  16  17
HETATM   17  C   UNL     1      -7.872  13.415  67.312  1.00  0.00    -0.095 C  
HETATM   18  C   UNL     1      -9.056  13.916  66.457  1.00  0.00    -0.165 C  
HETATM   19  C   UNL     1      -8.275  12.643  68.568  1.00  0.00    -0.074 C  
HETATM   20  C   UNL     1      -9.121  11.446  68.206  1.00  0.00    -0.179 C  
HETATM   21  C   UNL     1      -8.593  10.719  66.999  1.00  0.00    -0.130 A  
HETATM   22  C   UNL     1      -9.159   9.490  66.614  1.00  0.00    -0.179 A  
HETATM   23  C   UNL     1     -10.322   8.894  67.367  1.00  0.00    -0.337 C  
HETATM   24  C   UNL     1      -8.624   8.828  65.496  1.00  0.00    -0.174 A  
HETATM   25  C   UNL     1      -7.565   9.367  64.739  1.00  0.00    -0.111 A  
HETATM   26  O   UNL     1      -9.127   7.620  65.085  1.00  0.00    -0.361 OA 
HETATM   27  C   UNL     1      -7.029   8.617  63.546  1.00  0.00    -0.089 C  
HETATM   28  C   UNL     1      -7.026  10.622  65.108  1.00  0.00     0.061 A  
HETATM   29  H   UNL     1      -8.765   7.173  64.329  1.00  0.00     0.000 HD 
HETATM   30  C   UNL     1      -7.563  11.296  66.226  1.00  0.00    -0.032 A  
HETATM   31  C   UNL     1      -5.909  11.278  64.334  1.00  0.00     1.195 C  
HETATM   32  O   UNL     1      -7.046  12.551  66.492  1.00  0.00     0.353 OA 
ENDBRANCH  16  17
ENDBRANCH  15  16
ENDBRANCH  13  15
ENDBRANCH  10  11
ENDBRANCH   9  10
ENDBRANCH   5   6
ENDBRANCH   4   5
TORSDOF 7
ENDMDL
MODEL      374
REMARK 921   NORMALIZED FREE ENERGY PREDICTED BY IDOCK:    9.44 KCAL/MOL
REMARK 922        TOTAL FREE ENERGY PREDICTED BY IDOCK:   11.55 KCAL/MOL
REMARK 923 INTER-LIGAND FREE ENERGY PREDICTED BY IDOCK:    7.33 KCAL/MOL
REMARK 924 INTRA-LIGAND FREE ENERGY PREDICTED BY IDOCK:    4.22 KCAL/MOL
REMARK 927      BINDING AFFINITY PREDICTED BY RF-SCORE:    0.00 PKD
ROOT
HETATM    1  C   UNL     1     -14.403  13.118  71.201  1.00  0.00     2.035 C  
HETATM    2  C   UNL     1     -13.245  13.194  72.194  1.00  0.00    -0.561 C  
HETATM    3  C   UNL     1     -11.925  13.366  71.437  1.00  0.00     0.375 C  
HETATM    4  C   UNL     1     -13.504  14.323  73.211  1.00  0.00     0.175 C  
ENDROOT
BRANCH   4   5
HETATM    5  C   UNL     1     -12.379  14.437  74.236  1.00  0.00     0.976 C  
BRANCH   5   6
HETATM    6  C   UNL     1     -11.014  14.675  73.596  1.00  0.00     2.238 C  
HETATM    7  C   UNL     1     -11.143  15.195  72.149  1.00  0.00    -0.006 C  
HETATM    8  C   UNL     1     -11.915  16.521  72.082  1.00  0.00    -0.322 C  
HETATM    9  C   UNL     1      -9.740  15.323  71.525  1.00  0.00     2.619 C  
BRANCH   9  10
HETATM   10  C   UNL     1      -9.806  15.834  70.087  1.00  0.00     0.098 C  
BRANCH  10  11
HETATM   11  C   UNL     1      -8.570  15.462  69.285  1.00  0.00    -0.252 C  
HETATM   12  C   UNL     1      -8.437  16.323  68.012  1.00  0.00    -0.174 C  
HETATM   13  C   UNL     1      -7.255  15.857  67.148  1.00  0.00    -0.254 C  
HETATM   14  C   UNL     1      -8.261  17.812  68.331  1.00  0.00    -0.298 C  
BRANCH  13  15
HETATM   15  C   UNL     1      -7.308  14.393  66.712  1.00  0.00     0.926 C  
BRANCH  15  16
HETATM   16  C   UNL     1      -6.071  13.561  67.101  1.00  0.00     0.592 C  
BRANCH  16  17
HETATM   17  C   UNL     1      -6.406  12.097  67.501  1.00  0.00    -0.129 C  
HETATM   18  C   UNL     1      -7.644  12.101  68.424  1.00  0.00    -0.128 C  
HETATM   19  C   UNL     1      -5.159  11.456  68.110  1.00  0.00    -0.043 C  
HETATM   20  C   UNL     1      -5.440  10.027  68.511  1.00  0.00    -0.039 C  
HETATM   21  C   UNL     1      -6.248   9.294  67.476  1.00  0.00    -0.058 A  
HETATM   22  C   UNL     1      -6.466   7.909  67.605  1.00  0.00    -0.056 A  
HETATM   23  C   UNL     1      -5.936   7.140  68.789  1.00  0.00    -0.023 C  
HETATM   24  C   UNL     1      -7.206   7.253  66.606  1.00  0.00    -0.080 A  
HETATM   25  C   UNL     1      -7.754   7.939  65.503  1.00  0.00    -0.101 A  
HETATM   26  O   UNL     1      -7.435   5.903  66.672  1.00  0.00    -0.084 OA 
HETATM   27  C   UNL     1      -8.541   7.187  64.461  1.00  0.00     0.321 C  
HETATM   28  C   UNL     1      -7.563   9.336  65.400  1.00  0.00    -0.098 A  
HETATM   29  H   UNL     1      -7.935   5.459  65.997  1.00  0.00     0.000 HD 
HETATM   30  C   UNL     1      -6.827  10.004  66.403  1.00  0.00    -0.093 A  
HETATM   31  C   UNL     1      -8.139  10.146  64.265  1.00  0.00    -0.159 C  
HETATM   32  O   UNL     1      -6.740  11.379  66.287  1.00  0.00    -0.069 OA 
ENDBRANCH  16  17
ENDBRANCH  15  16
ENDBRANCH  13  15
ENDBRANCH  10  11
ENDBRANCH   9  10
ENDBRANCH   5   6
ENDBRANCH   4   5
TORSDOF 7
ENDMDL
MODEL      375
REMARK 921   NORMALIZED FREE ENERGY PREDICTED BY IDOCK:   10.18 KCAL/MOL
REMARK 922        TOTAL FREE ENERGY PREDICTED BY IDOCK:   12.60 KCAL/MOL
REMARK 923 INTER-LIGAND FREE ENERGY PREDICTED BY IDOCK:    8.69 KCAL/MOL
REMARK 924 INTRA-LIGAND FREE ENERGY PREDICTED BY IDOCK:    3.90 KCAL/MOL
REMARK 927      BINDING AFFINITY PREDICTED BY RF-SCORE:    0.00 PKD
ROOT
HETATM    1  C   UNL     1     -14.403  13.118  71.201  1.00  0.00     2.035 C  
HETATM    2  C   UNL     1     -13.245  13.194  72.194  1.00  0.00    -0.561 C  
HETATM    3  C   UNL     1     -11.925  13.366  71.437  1.00  0.00     0.375 C  
HETATM    4  C   UNL     1     -13.504  14.323  73.211  1.00  0.00     0.175 C  
ENDROOT
BRANCH   4   5
HETATM    5  C   UNL     1     -12.379  14.437  74.236  1.00  0.00     0.976 C  
BRANCH   5   6
HETATM    6  C   UNL     1     -11.014  14.675  73.596  1.00  0.00     2.238 C  
HETATM    7  C   UNL     1     -11.143  15.195  72.149  1.00  0.00    -0.006 C  
HETATM    8  C   UNL     1     -11.915  16.521  72.082  1.00  0.00    -0.322 C  
HETATM    9  C   UNL     1      -9.740  15.323  71.525  1.00  0.00     2.619 C  
BRANCH   9  10
HETATM   10  C   UNL     1      -9.806  15.834  70.087  1.00  0.00     0.098 C  
BRANCH  10  11
HETATM   11  C   UNL     1      -8.570  15.462  69.285  1.00  0.00    -0.252 C  
HETATM   12  C   UNL     1      -8.437  16.323  68.012  1.00  0.00    -0.174 C  
HETATM   13  C   UNL     1      -7.255  15.857  67.148  1.00  0.00    -0.254 C  
HETATM   14  C   UNL     1      -8.261  17.812  68.331  1.00  0.00    -0.298 C  
BRANCH  13  15
HETATM   15  C   UNL     1      -7.308  14.393  66.712  1.00  0.00     0.926 C  
BRANCH  15  16
HETATM   16  C   UNL     1      -6.071  13.561  67.101  1.00  0.00     0.592 C  
BRANCH  16  17
HETATM   17  C   UNL     1      -6.406  12.097  67.501  1.00  0.00    -0.129 C  
HETATM   18  C   UNL     1      -5.269  11.173  67.012  1.00  0.00    -0.063 C  
HETATM   19  C   UNL     1      -7.791  11.743  66.959  1.00  0.00    -0.161 C  
HETATM   20  C   UNL     1      -8.158  10.326  67.327  1.00  0.00    -0.120 C  
HETATM   21  C   UNL     1      -7.784   9.990  68.745  1.00  0.00    -0.085 A  
HETATM   22  C   UNL     1      -8.195   8.770  69.312  1.00  0.00    -0.108 A  
HETATM   23  C   UNL     1      -8.977   7.760  68.512  1.00  0.00    -0.133 C  
HETATM   24  C   UNL     1      -7.847   8.501  70.647  1.00  0.00    -0.091 A  
HETATM   25  C   UNL     1      -7.082   9.399  71.420  1.00  0.00     0.109 A  
HETATM   26  O   UNL     1      -8.234   7.335  71.255  1.00  0.00    -0.105 OA 
HETATM   27  C   UNL     1      -6.735   9.061  72.847  1.00  0.00     0.255 C  
HETATM   28  C   UNL     1      -6.640  10.607  70.832  1.00  0.00     0.448 A  
HETATM   29  H   UNL     1      -7.999   7.153  72.157  1.00  0.00     0.000 HD 
HETATM   30  C   UNL     1      -6.979  10.880  69.489  1.00  0.00    -0.131 A  
HETATM   31  C   UNL     1      -5.796  11.607  71.583  1.00  0.00     0.909 C  
HETATM   32  O   UNL     1      -6.455  12.040  68.947  1.00  0.00    -0.070 OA 
ENDBRANCH  16  17
ENDBRANCH  15  16
ENDBRANCH  13  15
ENDBRANCH  10  11
ENDBRANCH   9  10
ENDBRANCH   5   6
ENDBRANCH   4   5
TORSDOF 7
ENDMDL
MODEL      376
REMARK 921   NORMALIZED FREE ENERGY PREDICTED BY IDOCK:   11.83 KCAL/MOL
REMARK 922        TOTAL FREE ENERGY PREDICTED BY IDOCK:   14.92 KCAL/MOL
REMARK 923 INTER-LIGAND FREE ENERGY PREDICTED BY IDOCK:    2.16 KCAL/MOL
REMARK 924 INTRA-LIGAND FREE ENERGY PREDICTED BY IDOCK:   12.76 KCAL/MOL
REMARK 927      BINDING AFFINITY PREDICTED BY RF-SCORE:    0.00 PKD
ROOT
HETATM    1  C   UNL     1      -9.770   4.369  66.653  1.00  0.00    -0.233 C  
HETATM    2  C   UNL     1     -10.337   5.415  67.610  1.00  0.00    -0.235 C  
HETATM    3  C   UNL     1     -11.593   6.046  67.002  1.00  0.00     0.812 C  
HETATM    4  C   UNL     1     -10.596   4.776  68.989  1.00  0.00     0.386 C  
ENDROOT
BRANCH   4   5
HETATM    5  C   UNL     1     -11.154   5.782  69.990  1.00  0.00    -0.329 C  
BRANCH   5   6
HETATM    6  C   UNL     1     -10.591   7.188  69.796  1.00  0.00    -0.250 C  
HETATM    7  C   UNL     1     -11.668   8.271  70.013  1.00  0.00     0.311 C  
HETATM    8  C   UNL     1     -12.266   8.212  71.427  1.00  0.00    -0.324 C  
HETATM    9  C   UNL     1     -11.068   9.657  69.709  1.00  0.00    -0.247 C  
BRANCH   9  10
HETATM   10  C   UNL     1     -12.093  10.772  69.907  1.00  0.00    -0.410 C  
BRANCH  10  11
HETATM   11  C   UNL     1     -11.740  11.680  71.073  1.00  0.00     0.449 C  
HETATM   12  C   UNL     1     -12.982  12.026  71.921  1.00  0.00    -0.428 C  
HETATM   13  C   UNL     1     -12.637  13.041  73.023  1.00  0.00     1.739 C  
HETATM   14  C   UNL     1     -13.610  10.787  72.569  1.00  0.00     0.479 C  
BRANCH  13  15
HETATM   15  C   UNL     1     -12.033  14.355  72.528  1.00  0.00     0.059 C  
BRANCH  15  16
HETATM   16  C   UNL     1     -12.476  14.773  71.113  1.00  0.00    -0.397 C  
BRANCH  16  17
HETATM   17  C   UNL     1     -11.813  13.938  69.981  1.00  0.00    -0.315 C  
HETATM   18  C   UNL     1     -12.436  12.525  69.972  1.00  0.00    -0.036 C  
HETATM   19  C   UNL     1     -10.297  13.966  70.172  1.00  0.00     1.184 C  
HETATM   20  C   UNL     1      -9.611  13.167  69.090  1.00  0.00     0.525 C  
HETATM   21  C   UNL     1     -10.215  13.411  67.734  1.00  0.00    -0.235 A  
HETATM   22  C   UNL     1      -9.602  12.878  66.584  1.00  0.00    -0.257 A  
HETATM   23  C   UNL     1      -8.363  12.025  66.682  1.00  0.00    -0.085 C  
HETATM   24  C   UNL     1     -10.181  13.147  65.332  1.00  0.00    -0.290 A  
HETATM   25  C   UNL     1     -11.361  13.906  65.196  1.00  0.00    -0.319 A  
HETATM   26  O   UNL     1      -9.618  12.665  64.178  1.00  0.00    -0.554 OA 
HETATM   27  C   UNL     1     -11.941  14.163  63.830  1.00  0.00    -0.156 C  
HETATM   28  C   UNL     1     -11.993  14.406  66.359  1.00  0.00    -0.402 A  
HETATM   29  H   UNL     1     -10.009  12.847  63.331  1.00  0.00     0.000 HD 
HETATM   30  C   UNL     1     -11.421  14.134  67.621  1.00  0.00    -0.338 A  
HETATM   31  C   UNL     1     -13.272  15.204  66.300  1.00  0.00     2.345 C  
HETATM   32  O   UNL     1     -12.125  14.586  68.723  1.00  0.00    -0.293 OA 
ENDBRANCH  16  17
ENDBRANCH  15  16
ENDBRANCH  13  15
ENDBRANCH  10  11
ENDBRANCH   9  10
ENDBRANCH   5   6
ENDBRANCH   4   5
TORSDOF 7
ENDMDL
MODEL      377
REMARK 921   NORMALIZED FREE ENERGY PREDICTED BY IDOCK:   12.47 KCAL/MOL
REMARK 922        TOTAL FREE ENERGY PREDICTED BY IDOCK:   15.82 KCAL/MOL
REMARK 923 INTER-LIGAND FREE ENERGY PREDICTED BY IDOCK:    1.73 KCAL/MOL
REMARK 924 INTRA-LIGAND FREE ENERGY PREDICTED BY IDOCK:   14.09 KCAL/MOL
REMARK 927      BINDING AFFINITY PREDICTED BY RF-SCORE:    0.00 PKD
ROOT
HETATM    1  C   UNL     1     -12.878   5.329  71.511  1.00  0.00     3.209 C  
HETATM    2  C   UNL     1     -12.032   5.810  70.334  1.00  0.00     1.125 C  
HETATM    3  C   UNL     1     -11.377   7.151  70.680  1.00  0.00    -0.327 C  
HETATM    4  C   UNL     1     -11.007   4.724  69.950  1.00  0.00     1.296 C  
ENDROOT
BRANCH   4   5
HETATM    5  C   UNL     1     -10.139   5.149  68.769  1.00  0.00    -0.231 C  
BRANCH   5   6
HETATM    6  C   UNL     1      -8.748   4.521  68.798  1.00  0.00    -0.116 C  
HETATM    7  C   UNL     1      -7.707   5.464  69.437  1.00  0.00    -0.085 C  
HETATM    8  C   UNL     1      -8.072   5.827  70.884  1.00  0.00    -0.119 C  
HETATM    9  C   UNL     1      -6.311   4.818  69.349  1.00  0.00    -0.031 C  
BRANCH   9  10
HETATM   10  C   UNL     1      -5.237   5.711  69.966  1.00  0.00    -0.005 C  
BRANCH  10  11
HETATM   11  C   UNL     1      -5.546   6.072  71.410  1.00  0.00    -0.022 C  
HETATM   12  C   UNL     1      -6.217   4.902  72.159  1.00  0.00    -0.029 C  
HETATM   13  C   UNL     1      -6.635   5.318  73.578  1.00  0.00    -0.069 C  
HETATM   14  C   UNL     1      -5.308   3.671  72.251  1.00  0.00     0.000 C  
BRANCH  13  15
HETATM   15  C   UNL     1      -7.580   6.517  73.650  1.00  0.00    -0.087 C  
BRANCH  15  16
HETATM   16  C   UNL     1      -8.805   6.426  72.720  1.00  0.00    -0.124 C  
BRANCH  16  17
HETATM   17  C   UNL     1      -9.619   7.747  72.631  1.00  0.00    -0.202 C  
HETATM   18  C   UNL     1      -8.996   8.784  73.592  1.00  0.00     0.711 C  
HETATM   19  C   UNL     1     -11.092   7.437  72.897  1.00  0.00    -0.397 C  
HETATM   20  C   UNL     1     -11.922   8.695  72.819  1.00  0.00    -0.081 C  
HETATM   21  C   UNL     1     -11.523   9.569  71.661  1.00  0.00    -0.433 A  
HETATM   22  C   UNL     1     -12.292  10.702  71.336  1.00  0.00    -0.455 A  
HETATM   23  C   UNL     1     -13.499  11.089  72.153  1.00  0.00    -0.200 C  
HETATM   24  C   UNL     1     -11.902  11.482  70.233  1.00  0.00    -0.342 A  
HETATM   25  C   UNL     1     -10.758  11.180  69.466  1.00  0.00    -0.193 A  
HETATM   26  O   UNL     1     -12.623  12.587  69.862  1.00  0.00     0.019 OA 
HETATM   27  C   UNL     1     -10.384  12.050  68.294  1.00  0.00    -0.211 C  
HETATM   28  C   UNL     1      -9.969  10.062  69.822  1.00  0.00    -0.276 A  
HETATM   29  H   UNL     1     -12.360  13.114  69.117  1.00  0.00     0.000 HD 
HETATM   30  C   UNL     1     -10.350   9.278  70.933  1.00  0.00    -0.296 A  
HETATM   31  C   UNL     1      -8.716   9.688  69.067  1.00  0.00    -0.142 C  
HETATM   32  O   UNL     1      -9.497   8.245  71.276  1.00  0.00    -0.154 OA 
ENDBRANCH  16  17
ENDBRANCH  15  16
ENDBRANCH  13  15
ENDBRANCH  10  11
ENDBRANCH   9  10
ENDBRANCH   5   6
ENDBRANCH   4   5
TORSDOF 7
ENDMDL
MODEL      378
REMARK 921   NORMALIZED FREE ENERGY PREDICTED BY IDOCK:   12.87 KCAL/MOL
REMARK 922        TOTAL FREE ENERGY PREDICTED BY IDOCK:   16.38 KCAL/MOL
REMARK 923 INTER-LIGAND FREE ENERGY PREDICTED BY IDOCK:    7.00 KCAL/MOL
REMARK 924 INTRA-LIGAND FREE ENERGY PREDICTED BY IDOCK:    9.37 KCAL/MOL
REMARK 927      BINDING AFFINITY PREDICTED BY RF-SCORE:    0.00 PKD
ROOT
HETATM    1  C   UNL     1      -8.940   9.451  68.553  1.00  0.00    -0.128 C  
HETATM    2  C   UNL     1      -8.883  10.762  67.772  1.00  0.00    -0.130 C  
HETATM    3  C   UNL     1      -9.290  10.515  66.317  1.00  0.00    -0.202 C  
HETATM    4  C   UNL     1      -9.760  11.822  68.468  1.00  0.00    -0.181 C  
ENDROOT
BRANCH   4   5
HETATM    5  C   UNL     1      -9.731  13.159  67.733  1.00  0.00    -0.218 C  
BRANCH   5   6
HETATM    6  C   UNL     1      -8.318  13.707  67.553  1.00  0.00    -0.191 C  
HETATM    7  C   UNL     1      -7.485  12.837  66.590  1.00  0.00     0.600 C  
HETATM    8  C   UNL     1      -8.121  12.752  65.195  1.00  0.00     3.613 C  
HETATM    9  C   UNL     1      -6.045  13.381  66.524  1.00  0.00     2.744 C  
BRANCH   9  10
HETATM   10  C   UNL     1      -5.171  12.554  65.584  1.00  0.00     3.574 C  
BRANCH  10  11
HETATM   11  C   UNL     1      -5.128  11.086  65.976  1.00  0.00    -0.131 C  
HETATM   12  C   UNL     1      -5.905  10.206  64.976  1.00  0.00    -0.120 C  
HETATM   13  C   UNL     1      -5.958   8.744  65.446  1.00  0.00    -0.048 C  
HETATM   14  C   UNL     1      -5.301  10.251  63.567  1.00  0.00    -0.135 C  
BRANCH  13  15
HETATM   15  C   UNL     1      -6.576   8.531  66.828  1.00  0.00    -0.057 C  
BRANCH  15  16
HETATM   16  C   UNL     1      -8.048   8.078  66.811  1.00  0.00    -0.107 C  
BRANCH  16  17
HETATM   17  C   UNL     1      -8.442   7.195  68.028  1.00  0.00    -0.122 C  
HETATM   18  C   UNL     1      -7.742   5.824  67.899  1.00  0.00    -0.097 C  
HETATM   19  C   UNL     1      -9.967   7.126  68.113  1.00  0.00    -0.172 C  
HETATM   20  C   UNL     1     -10.395   6.277  69.286  1.00  0.00    -0.266 C  
HETATM   21  C   UNL     1      -9.573   6.550  70.516  1.00  0.00    -0.180 A  
HETATM   22  C   UNL     1      -9.934   5.970  71.747  1.00  0.00    -0.199 A  
HETATM   23  C   UNL     1     -11.115   5.040  71.857  1.00  0.00     0.036 C  
HETATM   24  C   UNL     1      -9.157   6.267  72.880  1.00  0.00    -0.130 A  
HETATM   25  C   UNL     1      -8.021   7.100  72.815  1.00  0.00    -0.116 A  
HETATM   26  O   UNL     1      -9.471   5.743  74.107  1.00  0.00    -0.134 OA 
HETATM   27  C   UNL     1      -7.221   7.384  74.060  1.00  0.00    -0.109 C  
HETATM   28  C   UNL     1      -7.642   7.648  71.568  1.00  0.00    -0.081 A  
HETATM   29  H   UNL     1      -8.946   5.943  74.872  1.00  0.00     0.000 HD 
HETATM   30  C   UNL     1      -8.414   7.349  70.424  1.00  0.00    -0.142 A  
HETATM   31  C   UNL     1      -6.425   8.527  71.410  1.00  0.00    -0.057 C  
HETATM   32  O   UNL     1      -7.950   7.852  69.222  1.00  0.00    -0.113 OA 
ENDBRANCH  16  17
ENDBRANCH  15  16
ENDBRANCH  13  15
ENDBRANCH  10  11
ENDBRANCH   9  10
ENDBRANCH   5   6
ENDBRANCH   4   5
TORSDOF 7
ENDMDL
MODEL      379
REMARK 921   NORMALIZED FREE ENERGY PREDICTED BY IDOCK:   12.89 KCAL/MOL
REMARK 922        TOTAL FREE ENERGY PREDICTED BY IDOCK:   16.41 KCAL/MOL
REMARK 923 INTER-LIGAND FREE ENERGY PREDICTED BY IDOCK:    6.48 KCAL/MOL
REMARK 924 INTRA-LIGAND FREE ENERGY PREDICTED BY IDOCK:    9.94 KCAL/MOL
REMARK 927      BINDING AFFINITY PREDICTED BY RF-SCORE:    0.00 PKD
ROOT
HETATM    1  C   UNL     1     -13.484   5.863  71.204  1.00  0.00     2.587 C  
HETATM    2  C   UNL     1     -12.581   6.070  69.990  1.00  0.00     2.771 C  
HETATM    3  C   UNL     1     -11.824   7.395  70.128  1.00  0.00     0.047 C  
HETATM    4  C   UNL     1     -11.641   4.858  69.827  1.00  0.00     4.037 C  
ENDROOT
BRANCH   4   5
HETATM    5  C   UNL     1     -10.721   5.008  68.619  1.00  0.00     0.267 C  
BRANCH   5   6
HETATM    6  C   UNL     1      -9.453   4.165  68.731  1.00  0.00    -0.231 C  
HETATM    7  C   UNL     1      -8.206   5.038  68.982  1.00  0.00    -0.087 C  
HETATM    8  C   UNL     1      -8.327   5.854  70.278  1.00  0.00    -0.122 C  
HETATM    9  C   UNL     1      -6.950   4.146  68.988  1.00  0.00    -0.047 C  
BRANCH   9  10
HETATM   10  C   UNL     1      -5.681   4.960  69.231  1.00  0.00    -0.016 C  
BRANCH  10  11
HETATM   11  C   UNL     1      -5.815   5.899  70.419  1.00  0.00    -0.025 C  
HETATM   12  C   UNL     1      -6.658   5.271  71.549  1.00  0.00    -0.040 C  
HETATM   13  C   UNL     1      -6.890   6.273  72.691  1.00  0.00    -0.074 C  
HETATM   14  C   UNL     1      -6.011   4.005  72.124  1.00  0.00    -0.009 C  
BRANCH  13  15
HETATM   15  C   UNL     1      -7.568   7.579  72.279  1.00  0.00    -0.093 C  
BRANCH  15  16
HETATM   16  C   UNL     1      -8.753   7.411  71.310  1.00  0.00    -0.126 C  
BRANCH  16  17
HETATM   17  C   UNL     1      -9.136   8.717  70.561  1.00  0.00    -0.177 C  
HETATM   18  C   UNL     1      -7.900   9.642  70.506  1.00  0.00    -0.150 C  
HETATM   19  C   UNL     1     -10.362   9.332  71.236  1.00  0.00    -0.397 C  
HETATM   20  C   UNL     1     -10.770  10.606  70.536  1.00  0.00     0.199 C  
HETATM   21  C   UNL     1     -10.706  10.478  69.039  1.00  0.00    -0.259 A  
HETATM   22  C   UNL     1     -11.205  11.510  68.222  1.00  0.00    -0.322 A  
HETATM   23  C   UNL     1     -11.773  12.774  68.818  1.00  0.00    -0.363 C  
HETATM   24  C   UNL     1     -11.151  11.346  66.827  1.00  0.00    -0.281 A  
HETATM   25  C   UNL     1     -10.593  10.199  66.227  1.00  0.00    -0.121 A  
HETATM   26  O   UNL     1     -11.637  12.312  65.985  1.00  0.00    -0.368 OA 
HETATM   27  C   UNL     1     -10.558  10.074  64.726  1.00  0.00     0.806 C  
HETATM   28  C   UNL     1     -10.058   9.183  67.053  1.00  0.00    -0.316 A  
HETATM   29  H   UNL     1     -11.600  12.201  65.042  1.00  0.00     0.000 HD 
HETATM   30  C   UNL     1     -10.103   9.344  68.455  1.00  0.00    -0.185 A  
HETATM   31  C   UNL     1      -9.420   7.938  66.487  1.00  0.00    -0.277 C  
HETATM   32  O   UNL     1      -9.497   8.353  69.206  1.00  0.00    -0.154 OA 
ENDBRANCH  16  17
ENDBRANCH  15  16
ENDBRANCH  13  15
ENDBRANCH  10  11
ENDBRANCH   9  10
ENDBRANCH   5   6
ENDBRANCH   4   5
TORSDOF 7
ENDMDL
MODEL      380
REMARK 921   NORMALIZED FREE ENERGY PREDICTED BY IDOCK:   13.83 KCAL/MOL
REMARK 922        TOTAL FREE ENERGY PREDICTED BY IDOCK:   17.74 KCAL/MOL
REMARK 923 INTER-LIGAND FREE ENERGY PREDICTED BY IDOCK:    8.09 KCAL/MOL
REMARK 924 INTRA-LIGAND FREE ENERGY PREDICTED BY IDOCK:    9.65 KCAL/MOL
REMARK 927      BINDING AFFINITY PREDICTED BY RF-SCORE:    0.00 PKD
ROOT
HETATM    1  C   UNL     1      -9.709   5.793  72.701  1.00  0.00    -0.168 C  
HETATM    2  C   UNL     1      -8.591   6.090  71.704  1.00  0.00    -0.131 C  
HETATM    3  C   UNL     1      -7.311   6.462  72.457  1.00  0.00    -0.087 C  
HETATM    4  C   UNL     1      -8.402   4.886  70.759  1.00  0.00    -0.103 C  
ENDROOT
BRANCH   4   5
HETATM    5  C   UNL     1      -7.300   5.133  69.733  1.00  0.00    -0.060 C  
BRANCH   5   6
HETATM    6  C   UNL     1      -7.148   6.608  69.369  1.00  0.00    -0.080 C  
HETATM    7  C   UNL     1      -8.510   7.331  69.328  1.00  0.00    -0.133 C  
HETATM    8  C   UNL     1      -9.235   7.269  70.681  1.00  0.00    -0.157 C  
HETATM    9  C   UNL     1      -8.303   8.785  68.862  1.00  0.00    -0.127 C  
BRANCH   9  10
HETATM   10  C   UNL     1      -9.623   9.552  68.801  1.00  0.00    -0.159 C  
BRANCH  10  11
HETATM   11  C   UNL     1      -9.609  10.642  67.742  1.00  0.00    -0.172 C  
HETATM   12  C   UNL     1      -9.423  12.041  68.367  1.00  0.00    -0.181 C  
HETATM   13  C   UNL     1      -9.533  13.143  67.303  1.00  0.00    -0.225 C  
HETATM   14  C   UNL     1      -8.079  12.183  69.091  1.00  0.00     0.381 C  
BRANCH  13  15
HETATM   15  C   UNL     1     -10.844  13.158  66.517  1.00  0.00    -0.291 C  
BRANCH  15  16
HETATM   16  C   UNL     1     -10.916  14.223  65.407  1.00  0.00    -0.335 C  
BRANCH  16  17
HETATM   17  C   UNL     1      -9.948  15.419  65.627  1.00  0.00    -0.362 C  
HETATM   18  C   UNL     1     -10.772  16.724  65.690  1.00  0.00    -0.199 C  
HETATM   19  C   UNL     1      -8.878  15.393  64.535  1.00  0.00     5.890 C  
HETATM   20  C   UNL     1      -7.912  16.540  64.712  1.00  0.00     6.371 C  
HETATM   21  C   UNL     1      -7.529  16.744  66.152  1.00  0.00    -0.119 A  
HETATM   22  C   UNL     1      -6.515  17.661  66.488  1.00  0.00    -0.257 A  
HETATM   23  C   UNL     1      -5.822  18.482  65.431  1.00  0.00    -0.267 C  
HETATM   24  C   UNL     1      -6.167  17.808  67.842  1.00  0.00    -0.162 A  
HETATM   25  C   UNL     1      -6.816  17.090  68.867  1.00  0.00    -0.211 A  
HETATM   26  O   UNL     1      -5.177  18.675  68.225  1.00  0.00    -0.174 OA 
HETATM   27  C   UNL     1      -6.406  17.286  70.304  1.00  0.00     0.406 C  
HETATM   28  C   UNL     1      -7.860  16.198  68.526  1.00  0.00    -0.172 A  
HETATM   29  H   UNL     1      -4.942  18.774  69.140  1.00  0.00     0.000 HD 
HETATM   30  C   UNL     1      -8.220  16.051  67.169  1.00  0.00    -0.195 A  
HETATM   31  C   UNL     1      -8.621  15.414  69.566  1.00  0.00    -0.212 C  
HETATM   32  O   UNL     1      -9.297  15.223  66.906  1.00  0.00    -0.215 OA 
ENDBRANCH  16  17
ENDBRANCH  15  16
ENDBRANCH  13  15
ENDBRANCH  10  11
ENDBRANCH   9  10
ENDBRANCH   5   6
ENDBRANCH   4   5
TORSDOF 7
ENDMDL
MODEL      381
REMARK 921   NORMALIZED FREE ENERGY PREDICTED BY IDOCK:   14.01 KCAL/MOL
REMARK 922        TOTAL FREE ENERGY PREDICTED BY IDOCK:   17.98 KCAL/MOL
REMARK 923 INTER-LIGAND FREE ENERGY PREDICTED BY IDOCK:    8.88 KCAL/MOL
REMARK 924 INTRA-LIGAND FREE ENERGY PREDICTED BY IDOCK:    9.10 KCAL/MOL
REMARK 927      BINDING AFFINITY PREDICTED BY RF-SCORE:    0.00 PKD
ROOT
HETATM    1  C   UNL     1     -11.220  19.434  64.871  1.00  0.00     1.729 C  
HETATM    2  C   UNL     1     -10.624  18.402  65.827  1.00  0.00    -0.236 C  
HETATM    3  C   UNL     1     -11.115  18.673  67.252  1.00  0.00    -0.015 C  
HETATM    4  C   UNL     1     -10.964  16.980  65.337  1.00  0.00     0.004 C  
ENDROOT
BRANCH   4   5
HETATM    5  C   UNL     1     -10.383  15.907  66.252  1.00  0.00    -0.324 C  
BRANCH   5   6
HETATM    6  C   UNL     1      -9.455  14.942  65.519  1.00  0.00    -0.044 C  
HETATM    7  C   UNL     1      -9.625  13.492  66.020  1.00  0.00    -0.179 C  
HETATM    8  C   UNL     1     -11.060  12.981  65.822  1.00  0.00    -0.302 C  
HETATM    9  C   UNL     1      -8.598  12.584  65.317  1.00  0.00     1.516 C  
BRANCH   9  10
HETATM   10  C   UNL     1      -8.720  11.133  65.776  1.00  0.00    -0.153 C  
BRANCH  10  11
HETATM   11  C   UNL     1      -9.217  11.020  67.208  1.00  0.00    -0.156 C  
HETATM   12  C   UNL     1     -10.669  11.520  67.348  1.00  0.00    -0.275 C  
HETATM   13  C   UNL     1     -11.119  11.516  68.817  1.00  0.00    -0.288 C  
HETATM   14  C   UNL     1     -11.657  10.684  66.525  1.00  0.00     0.891 C  
BRANCH  13  15
HETATM   15  C   UNL     1     -10.251  12.344  69.763  1.00  0.00     1.310 C  
BRANCH  15  16
HETATM   16  C   UNL     1      -8.735  12.126  69.602  1.00  0.00     1.794 C  
BRANCH  16  17
HETATM   17  C   UNL     1      -7.921  13.447  69.509  1.00  0.00     0.899 C  
HETATM   18  C   UNL     1      -7.125  13.451  68.185  1.00  0.00    -0.116 C  
HETATM   19  C   UNL     1      -7.065  13.587  70.767  1.00  0.00     1.988 C  
HETATM   20  C   UNL     1      -6.257  14.862  70.719  1.00  0.00     0.027 C  
HETATM   21  C   UNL     1      -7.060  16.026  70.208  1.00  0.00     0.741 A  
HETATM   22  C   UNL     1      -6.521  17.326  70.247  1.00  0.00     0.580 A  
HETATM   23  C   UNL     1      -5.125  17.578  70.759  1.00  0.00    -0.258 C  
HETATM   24  C   UNL     1      -7.310  18.392  69.783  1.00  0.00     0.521 A  
HETATM   25  C   UNL     1      -8.604  18.197  69.259  1.00  0.00     0.272 A  
HETATM   26  O   UNL     1      -6.841  19.680  69.812  1.00  0.00    -0.314 OA 
HETATM   27  C   UNL     1      -9.408  19.376  68.772  1.00  0.00    -0.444 C  
HETATM   28  C   UNL     1      -9.125  16.884  69.187  1.00  0.00    -0.091 A  
HETATM   29  H   UNL     1      -7.374  20.401  69.498  1.00  0.00     0.000 HD 
HETATM   30  C   UNL     1      -8.336  15.807  69.645  1.00  0.00    -0.013 A  
HETATM   31  C   UNL     1     -10.490  16.590  68.616  1.00  0.00    -0.304 C  
HETATM   32  O   UNL     1      -8.869  14.542  69.479  1.00  0.00     0.122 OA 
ENDBRANCH  16  17
ENDBRANCH  15  16
ENDBRANCH  13  15
ENDBRANCH  10  11
ENDBRANCH   9  10
ENDBRANCH   5   6
ENDBRANCH   4   5
TORSDOF 7
ENDMDL
MODEL      382
REMARK 921   NORMALIZED FREE ENERGY PREDICTED BY IDOCK:   14.08 KCAL/MOL
REMARK 922        TOTAL FREE ENERGY PREDICTED BY IDOCK:   18.09 KCAL/MOL
REMARK 923 INTER-LIGAND FREE ENERGY PREDICTED BY IDOCK:   14.27 KCAL/MOL
REMARK 924 INTRA-LIGAND FREE ENERGY PREDICTED BY IDOCK:    3.81 KCAL/MOL
REMARK 927      BINDING AFFINITY PREDICTED BY RF-SCORE:    0.00 PKD
ROOT
HETATM    1  C   UNL     1      -8.992  11.575  66.643  1.00  0.00    -0.185 C  
HETATM    2  C   UNL     1      -8.181  12.608  67.422  1.00  0.00    -0.184 C  
HETATM    3  C   UNL     1      -7.449  11.924  68.581  1.00  0.00    -0.118 C  
HETATM    4  C   UNL     1      -7.226  13.349  66.466  1.00  0.00     1.775 C  
ENDROOT
BRANCH   4   5
HETATM    5  C   UNL     1      -6.395  14.404  67.191  1.00  0.00     0.667 C  
BRANCH   5   6
HETATM    6  C   UNL     1      -6.620  14.400  68.701  1.00  0.00    -0.088 C  
HETATM    7  C   UNL     1      -6.233  15.750  69.340  1.00  0.00    -0.144 C  
HETATM    8  C   UNL     1      -7.050  16.915  68.762  1.00  0.00    -0.216 C  
HETATM    9  C   UNL     1      -6.387  15.654  70.870  1.00  0.00     0.618 C  
BRANCH   9  10
HETATM   10  C   UNL     1      -6.016  16.966  71.559  1.00  0.00     1.553 C  
BRANCH  10  11
HETATM   11  C   UNL     1      -6.972  18.094  71.207  1.00  0.00     3.990 C  
HETATM   12  C   UNL     1      -6.281  19.471  71.281  1.00  0.00     0.155 C  
HETATM   13  C   UNL     1      -7.285  20.610  71.044  1.00  0.00     1.673 C  
HETATM   14  C   UNL     1      -5.134  19.604  70.273  1.00  0.00    -0.214 C  
BRANCH  13  15
HETATM   15  C   UNL     1      -8.474  20.636  72.005  1.00  0.00     2.572 C  
BRANCH  15  16
HETATM   16  C   UNL     1      -9.793  20.109  71.409  1.00  0.00     2.342 C  
BRANCH  16  17
HETATM   17  C   UNL     1      -9.745  19.909  69.868  1.00  0.00     0.430 C  
HETATM   18  C   UNL     1      -8.274  19.980  69.401  1.00  0.00     0.382 C  
HETATM   19  C   UNL     1     -10.672  20.931  69.210  1.00  0.00     0.839 C  
HETATM   20  C   UNL     1     -10.658  20.770  67.709  1.00  0.00     0.494 C  
HETATM   21  C   UNL     1     -10.693  19.326  67.291  1.00  0.00    -0.594 A  
HETATM   22  C   UNL     1     -10.848  18.990  65.933  1.00  0.00    -0.272 A  
HETATM   23  C   UNL     1     -10.943  20.054  64.869  1.00  0.00     0.880 C  
HETATM   24  C   UNL     1     -10.901  17.630  65.582  1.00  0.00     0.035 A  
HETATM   25  C   UNL     1     -10.777  16.601  66.539  1.00  0.00    -0.127 A  
HETATM   26  O   UNL     1     -11.067  17.245  64.277  1.00  0.00    -0.851 OA 
HETATM   27  C   UNL     1     -10.839  15.158  66.109  1.00  0.00    -0.330 C  
HETATM   28  C   UNL     1     -10.583  16.946  67.896  1.00  0.00    -0.361 A  
HETATM   29  H   UNL     1     -11.102  16.325  64.040  1.00  0.00     0.000 HD 
HETATM   30  C   UNL     1     -10.522  18.310  68.255  1.00  0.00    -0.301 A  
HETATM   31  C   UNL     1     -10.415  15.905  68.976  1.00  0.00    -0.234 C  
HETATM   32  O   UNL     1     -10.254  18.583  69.585  1.00  0.00     0.089 OA 
ENDBRANCH  16  17
ENDBRANCH  15  16
ENDBRANCH  13  15
ENDBRANCH  10  11
ENDBRANCH   9  10
ENDBRANCH   5   6
ENDBRANCH   4   5
TORSDOF 7
ENDMDL
MODEL      383
REMARK 921   NORMALIZED FREE ENERGY PREDICTED BY IDOCK:   22.97 KCAL/MOL
REMARK 922        TOTAL FREE ENERGY PREDICTED BY IDOCK:   30.61 KCAL/MOL
REMARK 923 INTER-LIGAND FREE ENERGY PREDICTED BY IDOCK:   25.57 KCAL/MOL
REMARK 924 INTRA-LIGAND FREE ENERGY PREDICTED BY IDOCK:    5.04 KCAL/MOL
REMARK 927      BINDING AFFINITY PREDICTED BY RF-SCORE:    0.00 PKD
ROOT
HETATM    1  C   UNL     1     -10.874   3.047  63.158  1.00  0.00    -0.205 C  
HETATM    2  C   UNL     1     -11.344   4.207  64.033  1.00  0.00     0.604 C  
HETATM    3  C   UNL     1     -11.480   3.739  65.485  1.00  0.00     2.737 C  
HETATM    4  C   UNL     1     -10.381   5.401  63.877  1.00  0.00     2.210 C  
ENDROOT
BRANCH   4   5
HETATM    5  C   UNL     1     -10.809   6.596  64.723  1.00  0.00     6.685 C  
BRANCH   5   6
HETATM    6  C   UNL     1      -9.897   6.830  65.924  1.00  0.00     0.387 C  
HETATM    7  C   UNL     1      -9.833   5.595  66.846  1.00  0.00    -0.178 C  
HETATM    8  C   UNL     1      -9.306   4.354  66.108  1.00  0.00    -0.159 C  
HETATM    9  C   UNL     1      -8.980   5.924  68.085  1.00  0.00    -0.115 C  
BRANCH   9  10
HETATM   10  C   UNL     1      -8.883   4.733  69.036  1.00  0.00    -0.121 C  
BRANCH  10  11
HETATM   11  C   UNL     1      -7.997   5.024  70.237  1.00  0.00    -0.078 C  
HETATM   12  C   UNL     1      -7.399   3.732  70.831  1.00  0.00    -0.037 C  
HETATM   13  C   UNL     1      -6.607   4.025  72.114  1.00  0.00    -0.022 C  
HETATM   14  C   UNL     1      -6.484   3.003  69.838  1.00  0.00    -0.033 C  
BRANCH  13  15
HETATM   15  C   UNL     1      -7.399   4.718  73.221  1.00  0.00    -0.082 C  
BRANCH  15  16
HETATM   16  C   UNL     1      -6.845   6.091  73.645  1.00  0.00    -0.080 C  
BRANCH  16  17
HETATM   17  C   UNL     1      -7.604   7.292  73.014  1.00  0.00    -0.078 C  
HETATM   18  C   UNL     1      -8.658   7.802  74.022  1.00  0.00    -0.319 C  
HETATM   19  C   UNL     1      -8.172   6.860  71.662  1.00  0.00    -0.109 C  
HETATM   20  C   UNL     1      -8.918   8.000  71.011  1.00  0.00    -0.160 C  
HETATM   21  C   UNL     1      -8.191   9.309  71.152  1.00  0.00    -0.051 A  
HETATM   22  C   UNL     1      -8.656  10.449  70.469  1.00  0.00     1.201 A  
HETATM   23  C   UNL     1      -9.902  10.399  69.621  1.00  0.00    -0.179 C  
HETATM   24  C   UNL     1      -7.937  11.650  70.604  1.00  0.00     4.639 A  
HETATM   25  C   UNL     1      -6.790  11.751  71.418  1.00  0.00     4.013 A  
HETATM   26  O   UNL     1      -8.336  12.787  69.950  1.00  0.00     1.342 OA 
HETATM   27  C   UNL     1      -6.058  13.064  71.530  1.00  0.00     1.035 C  
HETATM   28  C   UNL     1      -6.351  10.612  72.131  1.00  0.00     1.939 A  
HETATM   29  H   UNL     1      -7.850  13.598  70.042  1.00  0.00     0.000 HD 
HETATM   30  C   UNL     1      -7.072   9.404  72.006  1.00  0.00     0.608 A  
HETATM   31  C   UNL     1      -5.149  10.646  73.042  1.00  0.00     0.265 C  
HETATM   32  O   UNL     1      -6.639   8.348  72.786  1.00  0.00    -0.091 OA 
ENDBRANCH  16  17
ENDBRANCH  15  16
ENDBRANCH  13  15
ENDBRANCH  10  11
ENDBRANCH   9  10
ENDBRANCH   5   6
ENDBRANCH   4   5
TORSDOF 7
ENDMDL
MODEL      384
REMARK 921   NORMALIZED FREE ENERGY PREDICTED BY IDOCK:   36.71 KCAL/MOL
REMARK 922        TOTAL FREE ENERGY PREDICTED BY IDOCK:   49.98 KCAL/MOL
REMARK 923 INTER-LIGAND FREE ENERGY PREDICTED BY IDOCK:   24.87 KCAL/MOL
REMARK 924 INTRA-LIGAND FREE ENERGY PREDICTED BY IDOCK:   25.10 KCAL/MOL
REMARK 927      BINDING AFFINITY PREDICTED BY RF-SCORE:    0.00 PKD
ROOT
HETATM    1  C   UNL     1      -5.153   3.457  71.812  1.00  0.00     0.000 C  
HETATM    2  C   UNL     1      -5.167   3.832  70.332  1.00  0.00    -0.004 C  
HETATM    3  C   UNL     1      -6.136   2.918  69.576  1.00  0.00    -0.024 C  
HETATM    4  C   UNL     1      -5.508   5.327  70.175  1.00  0.00    -0.004 C  
ENDROOT
BRANCH   4   5
HETATM    5  C   UNL     1      -5.524   5.759  68.712  1.00  0.00    -0.011 C  
BRANCH   5   6
HETATM    6  C   UNL     1      -5.739   7.260  68.538  1.00  0.00    -0.023 C  
HETATM    7  C   UNL     1      -7.078   7.569  67.837  1.00  0.00    -0.085 C  
HETATM    8  C   UNL     1      -8.279   7.026  68.625  1.00  0.00    -0.122 C  
HETATM    9  C   UNL     1      -7.194   9.088  67.602  1.00  0.00    -0.083 C  
BRANCH   9  10
HETATM   10  C   UNL     1      -8.503   9.453  66.907  1.00  0.00    -0.128 C  
BRANCH  10  11
HETATM   11  C   UNL     1      -9.706   8.780  67.548  1.00  0.00    -0.214 C  
HETATM   12  C   UNL     1     -10.474   7.903  66.537  1.00  0.00    -0.014 C  
HETATM   13  C   UNL     1     -11.753   7.326  67.163  1.00  0.00     1.671 C  
HETATM   14  C   UNL     1      -9.620   6.748  66.000  1.00  0.00     0.085 C  
BRANCH  13  15
HETATM   15  C   UNL     1     -12.731   8.364  67.712  1.00  0.00    10.181 C  
BRANCH  15  16
HETATM   16  C   UNL     1     -12.905   9.614  66.829  1.00  0.00    12.449 C  
BRANCH  16  17
HETATM   17  C   UNL     1     -11.571  10.345  66.513  1.00  0.00     1.303 C  
HETATM   18  C   UNL     1     -11.198  10.089  65.036  1.00  0.00     2.438 C  
HETATM   19  C   UNL     1     -10.514   9.898  67.523  1.00  0.00    -0.310 C  
HETATM   20  C   UNL     1      -9.198  10.588  67.254  1.00  0.00    -0.156 C  
HETATM   21  C   UNL     1      -9.375  12.045  66.929  1.00  0.00    -0.200 A  
HETATM   22  C   UNL     1      -8.250  12.882  66.809  1.00  0.00     0.084 A  
HETATM   23  C   UNL     1      -6.852  12.339  66.962  1.00  0.00    -0.034 C  
HETATM   24  C   UNL     1      -8.455  14.244  66.527  1.00  0.00     0.256 A  
HETATM   25  C   UNL     1      -9.743  14.786  66.337  1.00  0.00    -0.311 A  
HETATM   26  O   UNL     1      -7.396  15.108  66.415  1.00  0.00    -0.048 OA 
HETATM   27  C   UNL     1      -9.907  16.254  66.035  1.00  0.00    -0.371 C  
HETATM   28  C   UNL     1     -10.867  13.932  66.421  1.00  0.00    -0.291 A  
HETATM   29  H   UNL     1      -7.535  16.028  66.225  1.00  0.00     0.000 HD 
HETATM   30  C   UNL     1     -10.668  12.562  66.696  1.00  0.00    -0.236 A  
HETATM   31  C   UNL     1     -12.274  14.430  66.204  1.00  0.00    -0.358 C  
HETATM   32  O   UNL     1     -11.798  11.765  66.691  1.00  0.00    -0.569 OA 
ENDBRANCH  16  17
ENDBRANCH  15  16
ENDBRANCH  13  15
ENDBRANCH  10  11
ENDBRANCH   9  10
ENDBRANCH   5   6
ENDBRANCH   4   5
TORSDOF 7
ENDMDL
MODEL      385
REMARK 921   NORMALIZED FREE ENERGY PREDICTED BY IDOCK:   39.35 KCAL/MOL
REMARK 922        TOTAL FREE ENERGY PREDICTED BY IDOCK:   53.70 KCAL/MOL
REMARK 923 INTER-LIGAND FREE ENERGY PREDICTED BY IDOCK:   31.84 KCAL/MOL
REMARK 924 INTRA-LIGAND FREE ENERGY PREDICTED BY IDOCK:   21.86 KCAL/MOL
REMARK 927      BINDING AFFINITY PREDICTED BY RF-SCORE:    0.00 PKD
ROOT
HETATM    1  C   UNL     1     -13.186  15.753  71.906  1.00  0.00    -0.477 C  
HETATM    2  C   UNL     1     -12.239  14.614  72.277  1.00  0.00    -0.333 C  
HETATM    3  C   UNL     1     -12.909  13.268  71.984  1.00  0.00    -0.313 C  
HETATM    4  C   UNL     1     -10.898  14.789  71.538  1.00  0.00     0.645 C  
ENDROOT
BRANCH   4   5
HETATM    5  C   UNL     1      -9.908  13.681  71.881  1.00  0.00     9.814 C  
BRANCH   5   6
HETATM    6  C   UNL     1      -8.529  14.213  72.262  1.00  0.00     8.800 C  
HETATM    7  C   UNL     1      -7.652  14.472  71.019  1.00  0.00     2.182 C  
HETATM    8  C   UNL     1      -8.290  15.497  70.069  1.00  0.00     0.404 C  
HETATM    9  C   UNL     1      -6.246  14.913  71.468  1.00  0.00     0.507 C  
BRANCH   9  10
HETATM   10  C   UNL     1      -5.331  15.183  70.275  1.00  0.00    -0.122 C  
BRANCH  10  11
HETATM   11  C   UNL     1      -6.109  15.386  68.985  1.00  0.00    -0.104 C  
HETATM   12  C   UNL     1      -7.215  14.325  68.813  1.00  0.00    -0.129 C  
HETATM   13  C   UNL     1      -7.913  14.466  67.452  1.00  0.00    -0.220 C  
HETATM   14  C   UNL     1      -8.272  14.401  69.922  1.00  0.00     0.720 C  
BRANCH  13  15
HETATM   15  C   UNL     1      -6.989  14.371  66.238  1.00  0.00     3.666 C  
BRANCH  15  16
HETATM   16  C   UNL     1      -5.907  13.279  66.336  1.00  0.00     3.143 C  
BRANCH  16  17
HETATM   17  C   UNL     1      -6.415  11.862  65.951  1.00  0.00     1.363 C  
HETATM   18  C   UNL     1      -5.487  11.277  64.863  1.00  0.00     0.698 C  
HETATM   19  C   UNL     1      -7.886  11.959  65.547  1.00  0.00     1.265 C  
HETATM   20  C   UNL     1      -8.423  10.600  65.166  1.00  0.00    -0.146 C  
HETATM   21  C   UNL     1      -7.957   9.520  66.104  1.00  0.00    -0.107 A  
HETATM   22  C   UNL     1      -8.486   8.220  66.000  1.00  0.00    -0.148 A  
HETATM   23  C   UNL     1      -9.491   7.868  64.932  1.00  0.00     1.332 C  
HETATM   24  C   UNL     1      -8.046   7.243  66.909  1.00  0.00    -0.120 A  
HETATM   25  C   UNL     1      -7.079   7.518  67.898  1.00  0.00    -0.085 A  
HETATM   26  O   UNL     1      -8.539   5.965  66.863  1.00  0.00    -0.112 OA 
HETATM   27  C   UNL     1      -6.640   6.433  68.847  1.00  0.00    -0.048 C  
HETATM   28  C   UNL     1      -6.523   8.817  67.972  1.00  0.00    -0.057 A  
HETATM   29  H   UNL     1      -8.241   5.305  67.478  1.00  0.00     0.000 HD 
HETATM   30  C   UNL     1      -6.955   9.801  67.058  1.00  0.00    -0.085 A  
HETATM   31  C   UNL     1      -5.465   9.183  68.984  1.00  0.00    -0.037 C  
HETATM   32  O   UNL     1      -6.321  11.028  67.132  1.00  0.00    -0.063 OA 
ENDBRANCH  16  17
ENDBRANCH  15  16
ENDBRANCH  13  15
ENDBRANCH  10  11
ENDBRANCH   9  10
ENDBRANCH   5   6
ENDBRANCH   4   5
TORSDOF 7
ENDMDL
MODEL      386
REMARK 921   NORMALIZED FREE ENERGY PREDICTED BY IDOCK:   41.52 KCAL/MOL
REMARK 922        TOTAL FREE ENERGY PREDICTED BY IDOCK:   56.76 KCAL/MOL
REMARK 923 INTER-LIGAND FREE ENERGY PREDICTED BY IDOCK:   34.32 KCAL/MOL
REMARK 924 INTRA-LIGAND FREE ENERGY PREDICTED BY IDOCK:   22.43 KCAL/MOL
REMARK 927      BINDING AFFINITY PREDICTED BY RF-SCORE:    0.00 PKD
ROOT
HETATM    1  C   UNL     1      -9.012   5.225  65.729  1.00  0.00    -0.154 C  
HETATM    2  C   UNL     1      -9.610   6.565  66.153  1.00  0.00    -0.028 C  
HETATM    3  C   UNL     1      -8.540   7.411  66.850  1.00  0.00    -0.120 C  
HETATM    4  C   UNL     1     -10.227   7.271  64.929  1.00  0.00     4.243 C  
ENDROOT
BRANCH   4   5
HETATM    5  C   UNL     1     -10.849   8.615  65.298  1.00  0.00     4.587 C  
BRANCH   5   6
HETATM    6  C   UNL     1     -10.657   9.675  64.216  1.00  0.00     2.714 C  
HETATM    7  C   UNL     1      -9.788  10.849  64.713  1.00  0.00    -0.343 C  
HETATM    8  C   UNL     1      -8.390  10.385  65.149  1.00  0.00    -0.165 C  
HETATM    9  C   UNL     1      -9.711  11.928  63.617  1.00  0.00    -0.266 C  
BRANCH   9  10
HETATM   10  C   UNL     1      -8.862  13.119  64.055  1.00  0.00     3.971 C  
BRANCH  10  11
HETATM   11  C   UNL     1      -8.354  12.973  65.481  1.00  0.00     2.325 C  
HETATM   12  C   UNL     1      -9.162  11.921  66.269  1.00  0.00    -0.218 C  
HETATM   13  C   UNL     1      -8.721  11.870  67.739  1.00  0.00    -0.158 C  
HETATM   14  C   UNL     1      -9.039  10.517  65.664  1.00  0.00    -0.209 C  
BRANCH  13  15
HETATM   15  C   UNL     1      -8.825  13.194  68.494  1.00  0.00    -0.045 C  
BRANCH  15  16
HETATM   16  C   UNL     1     -10.189  13.448  69.162  1.00  0.00     0.164 C  
BRANCH  16  17
HETATM   17  C   UNL     1     -10.713  14.900  68.977  1.00  0.00    -0.247 C  
HETATM   18  C   UNL     1     -12.253  14.894  69.091  1.00  0.00    -0.194 C  
HETATM   19  C   UNL     1     -10.174  15.454  67.658  1.00  0.00    -0.246 C  
HETATM   20  C   UNL     1     -10.657  16.867  67.439  1.00  0.00    -0.294 C  
HETATM   21  C   UNL     1     -10.596  17.691  68.695  1.00  0.00    -0.245 A  
HETATM   22  C   UNL     1     -10.854  19.074  68.644  1.00  0.00     0.524 A  
HETATM   23  C   UNL     1     -11.233  19.751  67.352  1.00  0.00     0.045 C  
HETATM   24  C   UNL     1     -10.763  19.816  69.834  1.00  0.00     1.233 A  
HETATM   25  C   UNL     1     -10.450  19.218  71.072  1.00  0.00     2.420 A  
HETATM   26  O   UNL     1     -10.989  21.169  69.839  1.00  0.00    -0.085 OA 
HETATM   27  C   UNL     1     -10.368  20.060  72.319  1.00  0.00     3.954 C  
HETATM   28  C   UNL     1     -10.230  17.822  71.123  1.00  0.00     3.383 A  
HETATM   29  H   UNL     1     -10.928  21.670  70.644  1.00  0.00     0.000 HD 
HETATM   30  C   UNL     1     -10.326  17.068  69.933  1.00  0.00     0.155 A  
HETATM   31  C   UNL     1      -9.917  17.102  72.412  1.00  0.00     7.924 C  
HETATM   32  O   UNL     1     -10.176  15.699  70.060  1.00  0.00    -0.301 OA 
ENDBRANCH  16  17
ENDBRANCH  15  16
ENDBRANCH  13  15
ENDBRANCH  10  11
ENDBRANCH   9  10
ENDBRANCH   5   6
ENDBRANCH   4   5
TORSDOF 7
ENDMDL
MODEL      387
REMARK 921   NORMALIZED FREE ENERGY PREDICTED BY IDOCK:   48.56 KCAL/MOL
REMARK 922        TOTAL FREE ENERGY PREDICTED BY IDOCK:   66.68 KCAL/MOL
REMARK 923 INTER-LIGAND FREE ENERGY PREDICTED BY IDOCK:   44.01 KCAL/MOL
REMARK 924 INTRA-LIGAND FREE ENERGY PREDICTED BY IDOCK:   22.67 KCAL/MOL
REMARK 927      BINDING AFFINITY PREDICTED BY RF-SCORE:    0.00 PKD
ROOT
HETATM    1  C   UNL     1     -13.182  15.734  71.914  1.00  0.00    -0.477 C  
HETATM    2  C   UNL     1     -12.302  14.546  72.294  1.00  0.00    -0.319 C  
HETATM    3  C   UNL     1     -13.025  13.238  71.959  1.00  0.00    -0.401 C  
HETATM    4  C   UNL     1     -10.932  14.667  71.597  1.00  0.00     0.776 C  
ENDROOT
BRANCH   4   5
HETATM    5  C   UNL     1     -10.006  13.508  71.952  1.00  0.00    10.034 C  
BRANCH   5   6
HETATM    6  C   UNL     1      -8.622  13.969  72.400  1.00  0.00    10.071 C  
HETATM    7  C   UNL     1      -7.696  14.252  71.199  1.00  0.00     3.226 C  
HETATM    8  C   UNL     1      -8.264  15.344  70.280  1.00  0.00     0.831 C  
HETATM    9  C   UNL     1      -6.290  14.618  71.712  1.00  0.00     0.649 C  
BRANCH   9  10
HETATM   10  C   UNL     1      -5.327  14.908  70.563  1.00  0.00    -0.130 C  
BRANCH  10  11
HETATM   11  C   UNL     1      -6.054  15.242  69.270  1.00  0.00    -0.110 C  
HETATM   12  C   UNL     1      -7.231  14.278  69.013  1.00  0.00    -0.118 C  
HETATM   13  C   UNL     1      -7.881  14.547  67.648  1.00  0.00    -0.194 C  
HETATM   14  C   UNL     1      -8.308  14.369  70.101  1.00  0.00     1.251 C  
BRANCH  13  15
HETATM   15  C   UNL     1      -6.935  14.453  66.450  1.00  0.00     2.980 C  
BRANCH  15  16
HETATM   16  C   UNL     1      -5.936  13.283  66.510  1.00  0.00     2.564 C  
BRANCH  16  17
HETATM   17  C   UNL     1      -6.533  11.929  66.031  1.00  0.00     1.084 C  
HETATM   18  C   UNL     1      -6.876  11.069  67.267  1.00  0.00    -0.088 C  
HETATM   19  C   UNL     1      -5.554  11.279  65.053  1.00  0.00     0.686 C  
HETATM   20  C   UNL     1      -6.097   9.959  64.560  1.00  0.00    -0.112 C  
HETATM   21  C   UNL     1      -7.564  10.031  64.237  1.00  0.00    -0.141 A  
HETATM   22  C   UNL     1      -8.202   8.943  63.613  1.00  0.00    -0.172 A  
HETATM   23  C   UNL     1      -7.452   7.676  63.290  1.00  0.00    -0.108 C  
HETATM   24  C   UNL     1      -9.569   9.056  63.304  1.00  0.00     1.635 A  
HETATM   25  C   UNL     1     -10.319  10.206  63.624  1.00  0.00     0.773 A  
HETATM   26  O   UNL     1     -10.238   8.034  62.682  1.00  0.00     3.648 OA 
HETATM   27  C   UNL     1     -11.783  10.275  63.273  1.00  0.00     4.329 C  
HETATM   28  C   UNL     1      -9.681  11.281  64.286  1.00  0.00    -0.295 A  
HETATM   29  H   UNL     1     -11.161   8.110  62.474  1.00  0.00     0.000 HD 
HETATM   30  C   UNL     1      -8.310  11.172  64.605  1.00  0.00     0.366 A  
HETATM   31  C   UNL     1     -10.420  12.534  64.686  1.00  0.00    -0.344 C  
HETATM   32  O   UNL     1      -7.761  12.221  65.319  1.00  0.00     2.119 OA 
ENDBRANCH  16  17
ENDBRANCH  15  16
ENDBRANCH  13  15
ENDBRANCH  10  11
ENDBRANCH   9  10
ENDBRANCH   5   6
ENDBRANCH   4   5
TORSDOF 7
ENDMDL
MODEL      388
REMARK 921   NORMALIZED FREE ENERGY PREDICTED BY IDOCK:   50.25 KCAL/MOL
REMARK 922        TOTAL FREE ENERGY PREDICTED BY IDOCK:   69.05 KCAL/MOL
REMARK 923 INTER-LIGAND FREE ENERGY PREDICTED BY IDOCK:   66.48 KCAL/MOL
REMARK 924 INTRA-LIGAND FREE ENERGY PREDICTED BY IDOCK:    2.57 KCAL/MOL
REMARK 927      BINDING AFFINITY PREDICTED BY RF-SCORE:    0.00 PKD
ROOT
HETATM    1  C   UNL     1     -12.515  15.910  73.092  1.00  0.00    -0.608 C  
HETATM    2  C   UNL     1     -11.176  15.192  72.938  1.00  0.00     0.262 C  
HETATM    3  C   UNL     1     -10.860  15.001  71.452  1.00  0.00     0.137 C  
HETATM    4  C   UNL     1     -10.078  15.971  73.688  1.00  0.00     8.408 C  
ENDROOT
BRANCH   4   5
HETATM    5  C   UNL     1      -8.717  15.291  73.576  1.00  0.00    11.390 C  
BRANCH   5   6
HETATM    6  C   UNL     1      -8.817  13.830  73.146  1.00  0.00    12.722 C  
HETATM    7  C   UNL     1      -7.933  13.533  71.917  1.00  0.00     9.716 C  
HETATM    8  C   UNL     1      -6.451  13.826  72.190  1.00  0.00     1.868 C  
HETATM    9  C   UNL     1      -8.150  12.074  71.471  1.00  0.00    11.958 C  
BRANCH   9  10
HETATM   10  C   UNL     1      -7.299  11.723  70.253  1.00  0.00     1.754 C  
BRANCH  10  11
HETATM   11  C   UNL     1      -8.106  11.725  68.964  1.00  0.00     0.125 C  
HETATM   12  C   UNL     1      -7.779  12.953  68.089  1.00  0.00    -0.138 C  
HETATM   13  C   UNL     1      -8.686  13.009  66.851  1.00  0.00    -0.158 C  
HETATM   14  C   UNL     1      -6.315  12.970  67.633  1.00  0.00    -0.162 C  
BRANCH  13  15
HETATM   15  C   UNL     1     -10.185  13.038  67.146  1.00  0.00    -0.243 C  
BRANCH  15  16
HETATM   16  C   UNL     1     -10.620  14.113  68.160  1.00  0.00    -0.249 C  
BRANCH  16  17
HETATM   17  C   UNL     1      -9.878  15.468  67.988  1.00  0.00    -0.212 C  
HETATM   18  C   UNL     1     -10.375  16.148  66.693  1.00  0.00    -0.297 C  
HETATM   19  C   UNL     1      -8.372  15.215  68.037  1.00  0.00    -0.147 C  
HETATM   20  C   UNL     1      -7.611  16.509  67.876  1.00  0.00    -0.162 C  
HETATM   21  C   UNL     1      -8.223  17.632  68.667  1.00  0.00    -0.264 A  
HETATM   22  C   UNL     1      -7.557  18.868  68.766  1.00  0.00    -0.368 A  
HETATM   23  C   UNL     1      -6.249  19.111  68.057  1.00  0.00    -0.228 C  
HETATM   24  C   UNL     1      -8.148  19.886  69.534  1.00  0.00     0.376 A  
HETATM   25  C   UNL     1      -9.389  19.716  70.181  1.00  0.00     0.891 A  
HETATM   26  O   UNL     1      -7.536  21.105  69.677  1.00  0.00     2.062 OA 
HETATM   27  C   UNL     1      -9.979  20.842  70.991  1.00  0.00     2.364 C  
HETATM   28  C   UNL     1     -10.071  18.485  70.046  1.00  0.00     1.024 A  
HETATM   29  H   UNL     1      -7.935  21.793  70.197  1.00  0.00     0.000 HD 
HETATM   30  C   UNL     1      -9.487  17.459  69.270  1.00  0.00     0.083 A  
HETATM   31  C   UNL     1     -11.414  18.234  70.685  1.00  0.00     4.811 C  
HETATM   32  O   UNL     1     -10.236  16.307  69.113  1.00  0.00    -0.234 OA 
ENDBRANCH  16  17
ENDBRANCH  15  16
ENDBRANCH  13  15
ENDBRANCH  10  11
ENDBRANCH   9  10
ENDBRANCH   5   6
ENDBRANCH   4   5
TORSDOF 7
ENDMDL
MODEL      389
REMARK 921   NORMALIZED FREE ENERGY PREDICTED BY IDOCK:   51.54 KCAL/MOL
REMARK 922        TOTAL FREE ENERGY PREDICTED BY IDOCK:   70.88 KCAL/MOL
REMARK 923 INTER-LIGAND FREE ENERGY PREDICTED BY IDOCK:   53.72 KCAL/MOL
REMARK 924 INTRA-LIGAND FREE ENERGY PREDICTED BY IDOCK:   17.16 KCAL/MOL
REMARK 927      BINDING AFFINITY PREDICTED BY RF-SCORE:    0.00 PKD
ROOT
HETATM    1  C   UNL     1     -12.686   2.612  69.495  1.00  0.00    24.575 C  
HETATM    2  C   UNL     1     -12.213   3.764  68.610  1.00  0.00    18.223 C  
HETATM    3  C   UNL     1     -12.207   5.067  69.416  1.00  0.00     8.220 C  
HETATM    4  C   UNL     1     -10.834   3.427  68.008  1.00  0.00     4.255 C  
ENDROOT
BRANCH   4   5
HETATM    5  C   UNL     1     -10.317   4.543  67.105  1.00  0.00     0.003 C  
BRANCH   5   6
HETATM    6  C   UNL     1      -9.013   4.179  66.399  1.00  0.00    -0.124 C  
HETATM    7  C   UNL     1      -7.805   4.919  67.011  1.00  0.00    -0.095 C  
HETATM    8  C   UNL     1      -7.623   4.590  68.500  1.00  0.00    -0.064 C  
HETATM    9  C   UNL     1      -6.538   4.589  66.199  1.00  0.00    -0.042 C  
BRANCH   9  10
HETATM   10  C   UNL     1      -5.307   5.297  66.759  1.00  0.00    -0.009 C  
BRANCH  10  11
HETATM   11  C   UNL     1      -5.488   5.707  68.213  1.00  0.00    -0.008 C  
HETATM   12  C   UNL     1      -6.723   5.032  68.845  1.00  0.00    -0.050 C  
HETATM   13  C   UNL     1      -6.966   5.546  70.272  1.00  0.00    -0.061 C  
HETATM   14  C   UNL     1      -6.598   3.504  68.882  1.00  0.00    -0.040 C  
BRANCH  13  15
HETATM   15  C   UNL     1      -7.152   7.058  70.394  1.00  0.00    -0.067 C  
BRANCH  15  16
HETATM   16  C   UNL     1      -8.612   7.537  70.298  1.00  0.00    -0.144 C  
BRANCH  16  17
HETATM   17  C   UNL     1      -8.757   8.996  69.782  1.00  0.00    -0.147 C  
HETATM   18  C   UNL     1      -9.980   9.648  70.464  1.00  0.00    -0.318 C  
HETATM   19  C   UNL     1      -8.816   8.974  68.255  1.00  0.00    -0.134 C  
HETATM   20  C   UNL     1      -8.955  10.375  67.710  1.00  0.00    -0.131 C  
HETATM   21  C   UNL     1      -8.068  11.356  68.426  1.00  0.00    -0.145 A  
HETATM   22  C   UNL     1      -7.944  12.674  67.948  1.00  0.00    -0.156 A  
HETATM   23  C   UNL     1      -8.720  13.145  66.744  1.00  0.00    -0.095 C  
HETATM   24  C   UNL     1      -7.087  13.555  68.629  1.00  0.00    -0.106 A  
HETATM   25  C   UNL     1      -6.374  13.169  69.782  1.00  0.00    -0.065 A  
HETATM   26  O   UNL     1      -6.917  14.846  68.199  1.00  0.00    -0.105 OA 
HETATM   27  C   UNL     1      -5.469  14.154  70.476  1.00  0.00    -0.127 C  
HETATM   28  C   UNL     1      -6.532  11.855  70.280  1.00  0.00     0.226 A  
HETATM   29  H   UNL     1      -6.338  15.441  68.659  1.00  0.00     0.000 HD 
HETATM   30  C   UNL     1      -7.397  10.966  69.605  1.00  0.00    -0.063 A  
HETATM   31  C   UNL     1      -5.824  11.373  71.522  1.00  0.00     0.654 C  
HETATM   32  O   UNL     1      -7.568   9.720  70.182  1.00  0.00    -0.141 OA 
ENDBRANCH  16  17
ENDBRANCH  15  16
ENDBRANCH  13  15
ENDBRANCH  10  11
ENDBRANCH   9  10
ENDBRANCH   5   6
ENDBRANCH   4   5
TORSDOF 7
ENDMDL
MODEL      390
REMARK 921   NORMALIZED FREE ENERGY PREDICTED BY IDOCK:   53.77 KCAL/MOL
REMARK 922        TOTAL FREE ENERGY PREDICTED BY IDOCK:   74.02 KCAL/MOL
REMARK 923 INTER-LIGAND FREE ENERGY PREDICTED BY IDOCK:   67.32 KCAL/MOL
REMARK 924 INTRA-LIGAND FREE ENERGY PREDICTED BY IDOCK:    6.70 KCAL/MOL
REMARK 927      BINDING AFFINITY PREDICTED BY RF-SCORE:    0.00 PKD
ROOT
HETATM    1  C   UNL     1      -7.459   7.351  66.283  1.00  0.00    -0.083 C  
HETATM    2  C   UNL     1      -8.242   6.936  67.527  1.00  0.00    -0.116 C  
HETATM    3  C   UNL     1      -8.567   5.440  67.459  1.00  0.00    -0.108 C  
HETATM    4  C   UNL     1      -7.451   7.320  68.793  1.00  0.00    -0.102 C  
ENDROOT
BRANCH   4   5
HETATM    5  C   UNL     1      -8.194   6.936  70.069  1.00  0.00    -0.134 C  
BRANCH   5   6
HETATM    6  C   UNL     1      -7.506   7.445  71.333  1.00  0.00    -0.080 C  
HETATM    7  C   UNL     1      -7.342   8.979  71.317  1.00  0.00    -0.093 C  
HETATM    8  C   UNL     1      -8.693   9.701  71.213  1.00  0.00     0.678 C  
HETATM    9  C   UNL     1      -6.557   9.423  72.566  1.00  0.00     0.525 C  
BRANCH   9  10
HETATM   10  C   UNL     1      -6.362  10.937  72.603  1.00  0.00     3.085 C  
BRANCH  10  11
HETATM   11  C   UNL     1      -7.443  11.677  71.832  1.00  0.00     9.383 C  
HETATM   12  C   UNL     1      -8.856  11.225  72.255  1.00  0.00    15.904 C  
HETATM   13  C   UNL     1      -9.935  11.888  71.385  1.00  0.00     9.963 C  
HETATM   14  C   UNL     1      -9.150  11.529  73.728  1.00  0.00    21.325 C  
BRANCH  13  15
HETATM   15  C   UNL     1      -9.800  11.641  69.883  1.00  0.00     1.525 C  
BRANCH  15  16
HETATM   16  C   UNL     1     -11.015  12.084  69.047  1.00  0.00    -0.260 C  
BRANCH  16  17
HETATM   17  C   UNL     1     -10.673  13.147  67.965  1.00  0.00    -0.233 C  
HETATM   18  C   UNL     1     -11.879  13.297  67.013  1.00  0.00    -0.442 C  
HETATM   19  C   UNL     1      -9.366  12.748  67.280  1.00  0.00    -0.200 C  
HETATM   20  C   UNL     1      -8.994  13.757  66.220  1.00  0.00     0.100 C  
HETATM   21  C   UNL     1      -9.215  15.172  66.679  1.00  0.00    -0.298 A  
HETATM   22  C   UNL     1      -8.772  16.247  65.885  1.00  0.00    -0.134 A  
HETATM   23  C   UNL     1      -8.108  16.013  64.552  1.00  0.00     9.235 C  
HETATM   24  C   UNL     1      -8.974  17.556  66.357  1.00  0.00    -0.238 A  
HETATM   25  C   UNL     1      -9.626  17.821  67.579  1.00  0.00    -0.268 A  
HETATM   26  O   UNL     1      -8.550  18.639  65.633  1.00  0.00    -0.324 OA 
HETATM   27  C   UNL     1      -9.819  19.244  68.038  1.00  0.00    -0.454 C  
HETATM   28  C   UNL     1     -10.102  16.738  68.353  1.00  0.00    -0.285 A  
HETATM   29  H   UNL     1      -8.686  19.524  65.952  1.00  0.00     0.000 HD 
HETATM   30  C   UNL     1      -9.909  15.421  67.882  1.00  0.00    -0.219 A  
HETATM   31  C   UNL     1     -10.832  16.940  69.658  1.00  0.00    -0.101 C  
HETATM   32  O   UNL     1     -10.463  14.409  68.645  1.00  0.00    -0.234 OA 
ENDBRANCH  16  17
ENDBRANCH  15  16
ENDBRANCH  13  15
ENDBRANCH  10  11
ENDBRANCH   9  10
ENDBRANCH   5   6
ENDBRANCH   4   5
TORSDOF 7
ENDMDL
MODEL      391
REMARK 921   NORMALIZED FREE ENERGY PREDICTED BY IDOCK:   55.98 KCAL/MOL
REMARK 922        TOTAL FREE ENERGY PREDICTED BY IDOCK:   77.13 KCAL/MOL
REMARK 923 INTER-LIGAND FREE ENERGY PREDICTED BY IDOCK:   70.91 KCAL/MOL
REMARK 924 INTRA-LIGAND FREE ENERGY PREDICTED BY IDOCK:    6.22 KCAL/MOL
REMARK 927      BINDING AFFINITY PREDICTED BY RF-SCORE:    0.00 PKD
ROOT
HETATM    1  C   UNL     1     -12.542  15.924  73.121  1.00  0.00    -0.622 C  
HETATM    2  C   UNL     1     -11.201  15.199  73.032  1.00  0.00     0.368 C  
HETATM    3  C   UNL     1     -10.817  15.002  71.562  1.00  0.00     0.218 C  
HETATM    4  C   UNL     1     -10.135  15.974  73.831  1.00  0.00     9.174 C  
ENDROOT
BRANCH   4   5
HETATM    5  C   UNL     1      -8.774  15.286  73.784  1.00  0.00    12.110 C  
BRANCH   5   6
HETATM    6  C   UNL     1      -8.866  13.813  73.394  1.00  0.00    12.436 C  
HETATM    7  C   UNL     1      -8.048  13.504  72.123  1.00  0.00    11.168 C  
HETATM    8  C   UNL     1      -6.559  13.835  72.303  1.00  0.00     2.447 C  
HETATM    9  C   UNL     1      -8.258  12.031  71.725  1.00  0.00    14.599 C  
BRANCH   9  10
HETATM   10  C   UNL     1      -7.471  11.668  70.468  1.00  0.00     2.757 C  
BRANCH  10  11
HETATM   11  C   UNL     1      -8.358  11.578  69.236  1.00  0.00     0.321 C  
HETATM   12  C   UNL     1      -8.281  12.861  68.383  1.00  0.00    -0.121 C  
HETATM   13  C   UNL     1      -9.272  12.807  67.210  1.00  0.00    -0.203 C  
HETATM   14  C   UNL     1      -6.872  13.111  67.831  1.00  0.00    -0.135 C  
BRANCH  13  15
HETATM   15  C   UNL     1     -10.734  12.602  67.605  1.00  0.00    -0.239 C  
BRANCH  15  16
HETATM   16  C   UNL     1     -11.246  13.560  68.696  1.00  0.00    -0.311 C  
BRANCH  16  17
HETATM   17  C   UNL     1     -10.735  15.019  68.534  1.00  0.00    -0.244 C  
HETATM   18  C   UNL     1      -9.203  14.993  68.335  1.00  0.00    -0.193 C  
HETATM   19  C   UNL     1     -11.207  15.842  69.732  1.00  0.00    -0.339 C  
HETATM   20  C   UNL     1     -10.733  17.271  69.615  1.00  0.00     0.187 C  
HETATM   21  C   UNL     1     -10.878  17.805  68.216  1.00  0.00    -0.155 A  
HETATM   22  C   UNL     1     -10.639  19.167  67.954  1.00  0.00    -0.459 A  
HETATM   23  C   UNL     1     -10.197  20.108  69.046  1.00  0.00    -0.214 C  
HETATM   24  C   UNL     1     -10.808  19.636  66.640  1.00  0.00    -0.362 A  
HETATM   25  C   UNL     1     -11.180  18.783  65.580  1.00  0.00     0.814 A  
HETATM   26  O   UNL     1     -10.603  20.956  66.331  1.00  0.00     0.340 OA 
HETATM   27  C   UNL     1     -11.346  19.337  64.188  1.00  0.00     6.263 C  
HETATM   28  C   UNL     1     -11.382  17.408  65.843  1.00  0.00     1.026 A  
HETATM   29  H   UNL     1     -10.717  21.272  65.442  1.00  0.00     0.000 HD 
HETATM   30  C   UNL     1     -11.207  16.929  67.159  1.00  0.00     0.294 A  
HETATM   31  C   UNL     1     -11.756  16.428  64.759  1.00  0.00     0.286 C  
HETATM   32  O   UNL     1     -11.344  15.565  67.339  1.00  0.00    -0.302 OA 
ENDBRANCH  16  17
ENDBRANCH  15  16
ENDBRANCH  13  15
ENDBRANCH  10  11
ENDBRANCH   9  10
ENDBRANCH   5   6
ENDBRANCH   4   5
TORSDOF 7
ENDMDL
MODEL      392
REMARK 921   NORMALIZED FREE ENERGY PREDICTED BY IDOCK:   67.24 KCAL/MOL
REMARK 922        TOTAL FREE ENERGY PREDICTED BY IDOCK:   93.01 KCAL/MOL
REMARK 923 INTER-LIGAND FREE ENERGY PREDICTED BY IDOCK:   15.10 KCAL/MOL
REMARK 924 INTRA-LIGAND FREE ENERGY PREDICTED BY IDOCK:   77.90 KCAL/MOL
REMARK 927      BINDING AFFINITY PREDICTED BY RF-SCORE:    0.00 PKD
ROOT
HETATM    1  C   UNL     1     -12.619  12.608  63.962  1.00  0.00    -0.429 C  
HETATM    2  C   UNL     1     -11.414  11.679  64.083  1.00  0.00    -0.364 C  
HETATM    3  C   UNL     1     -10.700  11.929  65.415  1.00  0.00    -0.330 C  
HETATM    4  C   UNL     1     -11.864  10.214  63.911  1.00  0.00     5.610 C  
ENDROOT
BRANCH   4   5
HETATM    5  C   UNL     1     -10.694   9.241  64.012  1.00  0.00     5.494 C  
BRANCH   5   6
HETATM    6  C   UNL     1     -10.658   8.493  65.342  1.00  0.00     3.120 C  
HETATM    7  C   UNL     1     -10.577   9.460  66.542  1.00  0.00    -0.125 C  
HETATM    8  C   UNL     1     -11.777  10.417  66.590  1.00  0.00     1.575 C  
HETATM    9  C   UNL     1     -10.445   8.649  67.845  1.00  0.00    -0.269 C  
BRANCH   9  10
HETATM   10  C   UNL     1     -10.359   9.558  69.069  1.00  0.00    -0.219 C  
BRANCH  10  11
HETATM   11  C   UNL     1     -10.620  11.016  68.726  1.00  0.00    -0.232 C  
HETATM   12  C   UNL     1     -12.091  11.252  68.324  1.00  0.00    -0.058 C  
HETATM   13  C   UNL     1     -12.315  12.700  67.863  1.00  0.00     0.342 C  
HETATM   14  C   UNL     1     -13.065  10.939  69.466  1.00  0.00     0.911 C  
BRANCH  13  15
HETATM   15  C   UNL     1     -11.438  13.151  66.695  1.00  0.00    -0.389 C  
BRANCH  15  16
HETATM   16  C   UNL     1     -10.376  12.126  66.255  1.00  0.00    -0.250 C  
BRANCH  16  17
HETATM   17  C   UNL     1      -9.700  11.381  67.439  1.00  0.00    -0.181 C  
HETATM   18  C   UNL     1     -10.741  10.454  68.106  1.00  0.00    -0.277 C  
HETATM   19  C   UNL     1      -9.073  12.413  68.377  1.00  0.00    -0.141 C  
HETATM   20  C   UNL     1      -8.402  11.730  69.544  1.00  0.00     0.953 C  
HETATM   21  C   UNL     1      -7.628  10.511  69.122  1.00  0.00    -0.123 A  
HETATM   22  C   UNL     1      -6.807   9.842  70.050  1.00  0.00    -0.110 A  
HETATM   23  C   UNL     1      -6.713  10.300  71.483  1.00  0.00     1.081 C  
HETATM   24  C   UNL     1      -6.080   8.721  69.613  1.00  0.00    -0.032 A  
HETATM   25  C   UNL     1      -6.169   8.235  68.293  1.00  0.00    -0.050 A  
HETATM   26  O   UNL     1      -5.253   8.041  70.470  1.00  0.00    -0.023 OA 
HETATM   27  C   UNL     1      -5.369   7.027  67.877  1.00  0.00    -0.016 C  
HETATM   28  C   UNL     1      -7.025   8.889  67.377  1.00  0.00    -0.075 A  
HETATM   29  H   UNL     1      -4.761   7.284  70.175  1.00  0.00     0.000 HD 
HETATM   30  C   UNL     1      -7.764  10.011  67.809  1.00  0.00    -0.090 A  
HETATM   31  C   UNL     1      -7.195   8.414  65.954  1.00  0.00    -0.072 C  
HETATM   32  O   UNL     1      -8.640  10.560  66.891  1.00  0.00    -0.124 OA 
ENDBRANCH  16  17
ENDBRANCH  15  16
ENDBRANCH  13  15
ENDBRANCH  10  11
ENDBRANCH   9  10
ENDBRANCH   5   6
ENDBRANCH   4   5
TORSDOF 7
ENDMDL
MODEL      393
REMARK 921   NORMALIZED FREE ENERGY PREDICTED BY IDOCK:   74.72 KCAL/MOL
REMARK 922        TOTAL FREE ENERGY PREDICTED BY IDOCK:  103.54 KCAL/MOL
REMARK 923 INTER-LIGAND FREE ENERGY PREDICTED BY IDOCK:   86.42 KCAL/MOL
REMARK 924 INTRA-LIGAND FREE ENERGY PREDICTED BY IDOCK:   17.12 KCAL/MOL
REMARK 927      BINDING AFFINITY PREDICTED BY RF-SCORE:    0.00 PKD
ROOT
HETATM    1  C   UNL     1     -12.976   1.787  68.729  1.00  0.00    19.679 C  
HETATM    2  C   UNL     1     -12.949   2.815  67.600  1.00  0.00    28.819 C  
HETATM    3  C   UNL     1     -13.120   4.223  68.178  1.00  0.00    25.337 C  
HETATM    4  C   UNL     1     -11.651   2.658  66.783  1.00  0.00    11.338 C  
ENDROOT
BRANCH   4   5
HETATM    5  C   UNL     1     -11.576   3.657  65.632  1.00  0.00     4.021 C  
BRANCH   5   6
HETATM    6  C   UNL     1     -10.344   3.457  64.753  1.00  0.00     0.079 C  
HETATM    7  C   UNL     1      -9.064   3.989  65.431  1.00  0.00    -0.142 C  
HETATM    8  C   UNL     1      -8.787   3.286  66.768  1.00  0.00    -0.150 C  
HETATM    9  C   UNL     1      -7.876   3.851  64.460  1.00  0.00    -0.085 C  
BRANCH   9  10
HETATM   10  C   UNL     1      -6.578   4.365  65.079  1.00  0.00    -0.044 C  
BRANCH  10  11
HETATM   11  C   UNL     1      -6.556   4.205  66.591  1.00  0.00    -0.046 C  
HETATM   12  C   UNL     1      -7.775   3.406  67.097  1.00  0.00    -0.079 C  
HETATM   13  C   UNL     1      -7.807   3.356  68.632  1.00  0.00    -0.056 C  
HETATM   14  C   UNL     1      -7.800   1.973  66.553  1.00  0.00    -0.075 C  
BRANCH  13  15
HETATM   15  C   UNL     1      -7.826   4.718  69.325  1.00  0.00    -0.070 C  
BRANCH  15  16
HETATM   16  C   UNL     1      -9.233   5.277  69.607  1.00  0.00    -0.159 C  
BRANCH  16  17
HETATM   17  C   UNL     1      -9.296   6.830  69.619  1.00  0.00    -0.144 C  
HETATM   18  C   UNL     1     -10.085   7.289  70.865  1.00  0.00    -0.192 C  
HETATM   19  C   UNL     1      -9.873   7.309  68.287  1.00  0.00    -0.165 C  
HETATM   20  C   UNL     1      -9.951   8.816  68.254  1.00  0.00    -0.202 C  
HETATM   21  C   UNL     1      -8.720   9.462  68.830  1.00  0.00    -0.131 A  
HETATM   22  C   UNL     1      -8.546  10.855  68.734  1.00  0.00    -0.159 A  
HETATM   23  C   UNL     1      -9.593  11.733  68.096  1.00  0.00    -0.193 C  
HETATM   24  C   UNL     1      -7.372  11.421  69.262  1.00  0.00    -0.042 A  
HETATM   25  C   UNL     1      -6.386  10.644  69.903  1.00  0.00    -0.110 A  
HETATM   26  O   UNL     1      -7.143  12.770  69.183  1.00  0.00    -0.239 OA 
HETATM   27  C   UNL     1      -5.146  11.301  70.454  1.00  0.00    -0.086 C  
HETATM   28  C   UNL     1      -6.585   9.249  70.029  1.00  0.00    -0.051 A  
HETATM   29  H   UNL     1      -6.350  13.152  69.540  1.00  0.00     0.000 HD 
HETATM   30  C   UNL     1      -7.765   8.675  69.508  1.00  0.00    -0.090 A  
HETATM   31  C   UNL     1      -5.589   8.353  70.724  1.00  0.00    -0.028 C  
HETATM   32  O   UNL     1      -7.938   7.321  69.729  1.00  0.00    -0.117 OA 
ENDBRANCH  16  17
ENDBRANCH  15  16
ENDBRANCH  13  15
ENDBRANCH  10  11
ENDBRANCH   9  10
ENDBRANCH   5   6
ENDBRANCH   4   5
TORSDOF 7
ENDMDL
